MODEL 1
REMARK minimizedAffinity -9.34855461
REMARK CNNscore 0.466935635
REMARK CNNaffinity 6.67181921
REMARK  18 active torsions:
REMARK  status: ('A' for Active; 'I' for Inactive)
REMARK    1  A    between atoms: C2_2  and  C4_4 
REMARK    2  A    between atoms: C4_4  and  N1_5 
REMARK    3  A    between atoms: C4_4  and  C30_38 
REMARK       I    between atoms: N1_5  and  C5_6 
REMARK    4  A    between atoms: C5_6  and  C6_8 
REMARK    5  A    between atoms: C6_8  and  C7_9 
REMARK    6  A    between atoms: C7_9  and  C8_10 
REMARK    7  A    between atoms: C8_10  and  O3_12 
REMARK    8  A    between atoms: O3_12  and  C9_13 
REMARK    9  A    between atoms: C9_13  and  C10_14 
REMARK   10  A    between atoms: C10_14  and  C11_16 
REMARK   11  A    between atoms: C11_16  and  O5_17 
REMARK   12  A    between atoms: C26_33  and  O7_34 
REMARK       I    between atoms: C30_38  and  N2_40 
REMARK   13  A    between atoms: N2_40  and  C31_41 
REMARK   14  A    between atoms: C31_41  and  C32_42 
REMARK   15  A    between atoms: C32_42  and  C33_43 
REMARK   16  A    between atoms: C32_42  and  C35_47 
REMARK   17  A    between atoms: C33_43  and  C34_44 
REMARK   18  A    between atoms: C34_44  and  O10_46 
ROOT
HETATM    1  C8  UNL     1      -7.596  47.728 -25.091  1.00  0.00     0.259 C 
HETATM    2  O2  UNL     1      -8.460  48.146 -24.335  1.00  0.00    -0.265 OA
ENDROOT
BRANCH   1   3
HETATM    3  C7  UNL     1      -7.837  47.209 -26.482  1.00  0.00     0.120 C 
BRANCH   3   4
HETATM    4  C6  UNL     1      -8.843  48.076 -27.230  1.00  0.00     0.112 C 
BRANCH   4   5
HETATM    5  C5  UNL     1     -10.235  47.490 -27.180  1.00  0.00     0.218 C 
HETATM    6  N1  UNL     1     -11.189  48.343 -27.692  1.00  0.00    -0.347 N 
HETATM    7  H9  UNL     1     -10.876  49.220 -28.082  1.00  0.00     0.163 HD
HETATM    8  O1  UNL     1     -10.484  46.378 -26.743  1.00  0.00    -0.274 OA
BRANCH   6   9
HETATM    9  C4  UNL     1     -12.574  47.911 -27.946  1.00  0.00     0.179 C 
BRANCH   9  10
HETATM   10  C2  UNL     1     -12.618  47.011 -29.198  1.00  0.00     0.009 C 
HETATM   11  C1  UNL     1     -11.673  47.497 -30.307  1.00  0.00     0.012 C 
HETATM   12  C3  UNL     1     -12.241  45.567 -28.835  1.00  0.00     0.012 C 
ENDBRANCH   9  10
BRANCH   9  13
HETATM   13  C30 UNL     1     -13.137  47.183 -26.698  1.00  0.00     0.240 C 
HETATM   14  O8  UNL     1     -12.894  47.553 -25.548  1.00  0.00    -0.271 OA
HETATM   15  N2  UNL     1     -14.058  46.186 -26.975  1.00  0.00    -0.359 N 
HETATM   16  H43 UNL     1     -14.465  46.158 -27.895  1.00  0.00     0.162 HD
BRANCH  15  17
HETATM   17  C31 UNL     1     -14.840  45.570 -25.913  1.00  0.00     0.132 C 
BRANCH  17  18
HETATM   18  C32 UNL     1     -16.115  44.890 -26.451  1.00  0.00     0.046 C 
BRANCH  18  19
HETATM   19  C33 UNL     1     -16.221  44.938 -27.989  1.00  0.00     0.120 C 
BRANCH  19  20
HETATM   20  C34 UNL     1     -16.818  43.730 -28.653  1.00  0.00     0.140 C 
HETATM   21  O9  UNL     1     -17.399  43.674 -29.726  1.00  0.00    -0.650 OA
BRANCH  20  22
HETATM   22  O10 UNL     1     -16.570  42.598 -27.962  1.00  0.00    -0.776 OA
HETATM   23  H49 UNL     1     -16.953  41.885 -28.518  1.00  0.00     0.167 HD
ENDBRANCH  20  22
ENDBRANCH  19  20
ENDBRANCH  18  19
BRANCH  18  24
HETATM   24  C35 UNL     1     -17.393  45.335 -25.755  1.00  0.00    -0.052 A 
HETATM   25  C36 UNL     1     -18.568  44.574 -25.777  1.00  0.00     0.007 A 
HETATM   26  C37 UNL     1     -19.731  45.037 -25.152  1.00  0.00     0.001 A 
HETATM   27  C38 UNL     1     -19.730  46.266 -24.499  1.00  0.00     0.000 A 
HETATM   28  C39 UNL     1     -18.565  47.025 -24.455  1.00  0.00     0.001 A 
HETATM   29  C40 UNL     1     -17.405  46.560 -25.068  1.00  0.00     0.007 A 
ENDBRANCH  18  24
ENDBRANCH  17  18
ENDBRANCH  15  17
ENDBRANCH   9  13
ENDBRANCH   6   9
ENDBRANCH   4   5
ENDBRANCH   3   4
ENDBRANCH   1   3
BRANCH   1  30
HETATM   30  O3  UNL     1      -6.266  47.679 -24.802  1.00  0.00    -0.314 OA
BRANCH  30  31
HETATM   31  C9  UNL     1      -5.472  48.518 -25.642  1.00  0.00     0.260 C 
BRANCH  31  32
HETATM   32  C10 UNL     1      -4.068  48.590 -25.064  1.00  0.00     0.185 C 
HETATM   33  O4  UNL     1      -3.119  48.167 -25.727  1.00  0.00    -0.292 OA
BRANCH  32  34
HETATM   34  C11 UNL     1      -3.917  49.105 -23.611  1.00  0.00     0.128 C 
HETATM   35  C12 UNL     1      -2.600  48.527 -23.055  1.00  0.00     0.047 C 
HETATM   36  C13 UNL     1      -2.148  49.535 -22.008  1.00  0.00     0.009 C 
HETATM   37  C14 UNL     1      -2.456  50.899 -22.647  1.00  0.00     0.002 C 
HETATM   38  C15 UNL     1      -1.267  51.359 -23.537  1.00  0.00    -0.002 C 
HETATM   39  C28 UNL     1      -3.836  50.674 -23.336  1.00  0.00     0.001 C 
HETATM   40  C16 UNL     1      -0.166  51.929 -22.609  1.00  0.00     0.010 C 
HETATM   41  C25 UNL     1      -1.627  52.408 -24.614  1.00  0.00     0.031 C 
HETATM   42  C17 UNL     1       0.930  52.736 -23.307  1.00  0.00     0.035 C 
HETATM   43  C18 UNL     1       0.952  52.461 -24.777  1.00  0.00    -0.068 C 
HETATM   44  C19 UNL     1       2.058  51.955 -25.348  1.00  0.00     0.053 C 
HETATM   45  C23 UNL     1      -0.355  52.749 -25.528  1.00  0.00    -0.014 C 
HETATM   46  C20 UNL     1       2.118  51.633 -26.791  1.00  0.00     0.149 C 
HETATM   47  O6  UNL     1       3.112  51.082 -27.249  1.00  0.00    -0.293 OA
HETATM   48  C21 UNL     1       0.951  52.045 -27.652  1.00  0.00     0.084 C 
HETATM   49  C22 UNL     1      -0.347  51.935 -26.858  1.00  0.00     0.022 C 
HETATM   50  C24 UNL     1      -0.387  54.264 -25.882  1.00  0.00     0.020 C 
HETATM   51  C26 UNL     1      -2.860  51.946 -25.411  1.00  0.00     0.124 C 
HETATM   52  C27 UNL     1      -4.056  51.625 -24.526  1.00  0.00     0.045 C 
HETATM   53  C29 UNL     1      -4.935  51.081 -22.303  1.00  0.00     0.019 C 
BRANCH  34  54
HETATM   54  O5  UNL     1      -4.943  48.514 -22.801  1.00  0.00    -0.381 OA
HETATM   55  H16 UNL     1      -5.816  48.802 -23.133  1.00  0.00     0.211 HD
ENDBRANCH  34  54
BRANCH  51  56
HETATM   56  O7  UNL     1      -3.263  52.974 -26.314  1.00  0.00    -0.395 OA
HETATM   57  H37 UNL     1      -3.940  52.584 -26.907  1.00  0.00     0.210 HD
ENDBRANCH  51  56
ENDBRANCH  32  34
ENDBRANCH  31  32
ENDBRANCH  30  31
ENDBRANCH   1  30
TORSDOF 18
ENDMDL
MODEL 2
REMARK minimizedAffinity -8.98559093
REMARK CNNscore 0.448051035
REMARK CNNaffinity 6.51726532
REMARK  18 active torsions:
REMARK  status: ('A' for Active; 'I' for Inactive)
REMARK    1  A    between atoms: C2_2  and  C4_4 
REMARK    2  A    between atoms: C4_4  and  N1_5 
REMARK    3  A    between atoms: C4_4  and  C30_38 
REMARK       I    between atoms: N1_5  and  C5_6 
REMARK    4  A    between atoms: C5_6  and  C6_8 
REMARK    5  A    between atoms: C6_8  and  C7_9 
REMARK    6  A    between atoms: C7_9  and  C8_10 
REMARK    7  A    between atoms: C8_10  and  O3_12 
REMARK    8  A    between atoms: O3_12  and  C9_13 
REMARK    9  A    between atoms: C9_13  and  C10_14 
REMARK   10  A    between atoms: C10_14  and  C11_16 
REMARK   11  A    between atoms: C11_16  and  O5_17 
REMARK   12  A    between atoms: C26_33  and  O7_34 
REMARK       I    between atoms: C30_38  and  N2_40 
REMARK   13  A    between atoms: N2_40  and  C31_41 
REMARK   14  A    between atoms: C31_41  and  C32_42 
REMARK   15  A    between atoms: C32_42  and  C33_43 
REMARK   16  A    between atoms: C32_42  and  C35_47 
REMARK   17  A    between atoms: C33_43  and  C34_44 
REMARK   18  A    between atoms: C34_44  and  O10_46 
ROOT
HETATM    1  C8  UNL     1      -8.545  47.450 -20.903  1.00  0.00     0.259 C 
HETATM    2  O2  UNL     1      -8.097  46.440 -21.425  1.00  0.00    -0.265 OA
ENDROOT
BRANCH   1   3
HETATM    3  C7  UNL     1      -7.719  48.595 -20.380  1.00  0.00     0.120 C 
BRANCH   3   4
HETATM    4  C6  UNL     1      -7.173  49.448 -21.519  1.00  0.00     0.112 C 
BRANCH   4   5
HETATM    5  C5  UNL     1      -5.814  48.972 -21.976  1.00  0.00     0.218 C 
HETATM    6  N1  UNL     1      -5.440  49.513 -23.186  1.00  0.00    -0.347 N 
HETATM    7  H9  UNL     1      -6.059  50.187 -23.612  1.00  0.00     0.163 HD
HETATM    8  O1  UNL     1      -5.119  48.199 -21.335  1.00  0.00    -0.274 OA
BRANCH   6   9
HETATM    9  C4  UNL     1      -4.077  49.367 -23.726  1.00  0.00     0.179 C 
BRANCH   9  10
HETATM   10  C2  UNL     1      -4.140  49.179 -25.255  1.00  0.00     0.009 C 
HETATM   11  C1  UNL     1      -2.834  48.615 -25.834  1.00  0.00     0.012 C 
HETATM   12  C3  UNL     1      -5.289  48.233 -25.633  1.00  0.00     0.012 C 
ENDBRANCH   9  10
BRANCH   9  13
HETATM   13  C30 UNL     1      -3.222  50.601 -23.336  1.00  0.00     0.240 C 
HETATM   14  O8  UNL     1      -2.832  50.801 -22.185  1.00  0.00    -0.271 OA
HETATM   15  N2  UNL     1      -2.797  51.372 -24.405  1.00  0.00    -0.359 N 
HETATM   16  H43 UNL     1      -2.859  50.978 -25.329  1.00  0.00     0.162 HD
BRANCH  15  17
HETATM   17  C31 UNL     1      -1.806  52.423 -24.226  1.00  0.00     0.132 C 
BRANCH  17  18
HETATM   18  C32 UNL     1      -0.366  51.873 -24.252  1.00  0.00     0.046 C 
BRANCH  18  19
HETATM   19  C33 UNL     1       0.546  52.517 -23.187  1.00  0.00     0.120 C 
BRANCH  19  20
HETATM   20  C34 UNL     1       0.297  52.109 -21.764  1.00  0.00     0.140 C 
HETATM   21  O9  UNL     1       0.417  50.999 -21.269  1.00  0.00    -0.650 OA
BRANCH  20  22
HETATM   22  O10 UNL     1      -0.013  53.164 -20.982  1.00  0.00    -0.776 OA
HETATM   23  H49 UNL     1      -0.092  52.783 -20.079  1.00  0.00     0.167 HD
ENDBRANCH  20  22
ENDBRANCH  19  20
ENDBRANCH  18  19
BRANCH  18  24
HETATM   24  C35 UNL     1       0.263  51.855 -25.639  1.00  0.00    -0.052 A 
HETATM   25  C36 UNL     1      -0.491  51.994 -26.810  1.00  0.00     0.007 A 
HETATM   26  C37 UNL     1       0.123  51.937 -28.065  1.00  0.00     0.001 A 
HETATM   27  C38 UNL     1       1.497  51.740 -28.161  1.00  0.00     0.000 A 
HETATM   28  C39 UNL     1       2.261  51.618 -27.005  1.00  0.00     0.001 A 
HETATM   29  C40 UNL     1       1.651  51.685 -25.756  1.00  0.00     0.007 A 
ENDBRANCH  18  24
ENDBRANCH  17  18
ENDBRANCH  15  17
ENDBRANCH   9  13
ENDBRANCH   6   9
ENDBRANCH   4   5
ENDBRANCH   3   4
ENDBRANCH   1   3
BRANCH   1  30
HETATM   30  O3  UNL     1      -9.868  47.713 -20.721  1.00  0.00    -0.314 OA
BRANCH  30  31
HETATM   31  C9  UNL     1     -10.666  46.538 -20.580  1.00  0.00     0.260 C 
BRANCH  31  32
HETATM   32  C10 UNL     1     -12.129  46.930 -20.704  1.00  0.00     0.185 C 
HETATM   33  O4  UNL     1     -12.674  46.893 -21.809  1.00  0.00    -0.292 OA
BRANCH  32  34
HETATM   34  C11 UNL     1     -12.840  47.459 -19.433  1.00  0.00     0.128 C 
HETATM   35  C12 UNL     1     -13.643  48.709 -19.844  1.00  0.00     0.047 C 
HETATM   36  C13 UNL     1     -14.798  48.768 -18.854  1.00  0.00     0.009 C 
HETATM   37  C14 UNL     1     -15.231  47.301 -18.701  1.00  0.00     0.002 C 
HETATM   38  C15 UNL     1     -16.257  46.923 -19.805  1.00  0.00    -0.002 C 
HETATM   39  C28 UNL     1     -13.880  46.525 -18.666  1.00  0.00     0.001 C 
HETATM   40  C16 UNL     1     -17.640  47.481 -19.387  1.00  0.00     0.010 C 
HETATM   41  C25 UNL     1     -16.378  45.408 -20.091  1.00  0.00     0.031 C 
HETATM   42  C17 UNL     1     -18.835  46.928 -20.165  1.00  0.00     0.035 C 
HETATM   43  C18 UNL     1     -18.399  46.285 -21.443  1.00  0.00    -0.068 C 
HETATM   44  C19 UNL     1     -18.856  46.751 -22.618  1.00  0.00     0.053 C 
HETATM   45  C23 UNL     1     -17.395  45.134 -21.301  1.00  0.00    -0.014 C 
HETATM   46  C20 UNL     1     -18.426  46.172 -23.911  1.00  0.00     0.149 C 
HETATM   47  O6  UNL     1     -18.791  46.691 -24.959  1.00  0.00    -0.293 OA
HETATM   48  C21 UNL     1     -17.583  44.923 -23.876  1.00  0.00     0.084 C 
HETATM   49  C22 UNL     1     -16.657  44.952 -22.663  1.00  0.00     0.022 C 
HETATM   50  C24 UNL     1     -18.190  43.832 -20.997  1.00  0.00     0.020 C 
HETATM   51  C26 UNL     1     -14.982  44.797 -20.302  1.00  0.00     0.124 C 
HETATM   52  C27 UNL     1     -14.030  45.070 -19.145  1.00  0.00     0.045 C 
HETATM   53  C29 UNL     1     -13.463  46.400 -17.165  1.00  0.00     0.019 C 
BRANCH  34  54
HETATM   54  O5  UNL     1     -11.848  47.949 -18.518  1.00  0.00    -0.381 OA
HETATM   55  H16 UNL     1     -11.267  47.209 -18.253  1.00  0.00     0.211 HD
ENDBRANCH  34  54
BRANCH  51  56
HETATM   56  O7  UNL     1     -15.091  43.381 -20.437  1.00  0.00    -0.395 OA
HETATM   57  H37 UNL     1     -14.212  43.053 -20.727  1.00  0.00     0.210 HD
ENDBRANCH  51  56
ENDBRANCH  32  34
ENDBRANCH  31  32
ENDBRANCH  30  31
ENDBRANCH   1  30
TORSDOF 18
ENDMDL
MODEL 3
REMARK minimizedAffinity -8.74945354
REMARK CNNscore 0.399595231
REMARK CNNaffinity 6.31076431
REMARK  18 active torsions:
REMARK  status: ('A' for Active; 'I' for Inactive)
REMARK    1  A    between atoms: C2_2  and  C4_4 
REMARK    2  A    between atoms: C4_4  and  N1_5 
REMARK    3  A    between atoms: C4_4  and  C30_38 
REMARK       I    between atoms: N1_5  and  C5_6 
REMARK    4  A    between atoms: C5_6  and  C6_8 
REMARK    5  A    between atoms: C6_8  and  C7_9 
REMARK    6  A    between atoms: C7_9  and  C8_10 
REMARK    7  A    between atoms: C8_10  and  O3_12 
REMARK    8  A    between atoms: O3_12  and  C9_13 
REMARK    9  A    between atoms: C9_13  and  C10_14 
REMARK   10  A    between atoms: C10_14  and  C11_16 
REMARK   11  A    between atoms: C11_16  and  O5_17 
REMARK   12  A    between atoms: C26_33  and  O7_34 
REMARK       I    between atoms: C30_38  and  N2_40 
REMARK   13  A    between atoms: N2_40  and  C31_41 
REMARK   14  A    between atoms: C31_41  and  C32_42 
REMARK   15  A    between atoms: C32_42  and  C33_43 
REMARK   16  A    between atoms: C32_42  and  C35_47 
REMARK   17  A    between atoms: C33_43  and  C34_44 
REMARK   18  A    between atoms: C34_44  and  O10_46 
ROOT
HETATM    1  C8  UNL     1      -8.771  47.613 -21.657  1.00  0.00     0.259 C 
HETATM    2  O2  UNL     1      -8.735  46.928 -22.667  1.00  0.00    -0.265 OA
ENDROOT
BRANCH   1   3
HETATM    3  C7  UNL     1      -7.663  48.512 -21.177  1.00  0.00     0.120 C 
BRANCH   3   4
HETATM    4  C6  UNL     1      -7.013  49.256 -22.336  1.00  0.00     0.112 C 
BRANCH   4   5
HETATM    5  C5  UNL     1      -5.655  48.687 -22.679  1.00  0.00     0.218 C 
HETATM    6  N1  UNL     1      -5.014  49.400 -23.668  1.00  0.00    -0.347 N 
HETATM    7  H9  UNL     1      -5.468  50.230 -24.021  1.00  0.00     0.163 HD
HETATM    8  O1  UNL     1      -5.177  47.707 -22.130  1.00  0.00    -0.274 OA
BRANCH   6   9
HETATM    9  C4  UNL     1      -3.601  49.167 -24.015  1.00  0.00     0.179 C 
BRANCH   9  10
HETATM   10  C2  UNL     1      -3.513  48.431 -25.368  1.00  0.00     0.009 C 
HETATM   11  C1  UNL     1      -4.843  48.443 -26.135  1.00  0.00     0.012 C 
HETATM   12  C3  UNL     1      -2.433  49.067 -26.256  1.00  0.00     0.012 C 
ENDBRANCH   9  10
BRANCH   9  13
HETATM   13  C30 UNL     1      -2.837  50.516 -24.047  1.00  0.00     0.240 C 
HETATM   14  O8  UNL     1      -3.378  51.577 -24.361  1.00  0.00    -0.271 OA
HETATM   15  N2  UNL     1      -1.549  50.463 -23.541  1.00  0.00    -0.359 N 
HETATM   16  H43 UNL     1      -1.285  49.660 -22.995  1.00  0.00     0.162 HD
BRANCH  15  17
HETATM   17  C31 UNL     1      -0.790  51.680 -23.292  1.00  0.00     0.132 C 
BRANCH  17  18
HETATM   18  C32 UNL     1      -0.620  51.960 -21.786  1.00  0.00     0.046 C 
BRANCH  18  19
HETATM   19  C33 UNL     1       0.813  52.387 -21.408  1.00  0.00     0.120 C 
BRANCH  19  20
HETATM   20  C34 UNL     1       0.967  53.123 -20.109  1.00  0.00     0.140 C 
HETATM   21  O9  UNL     1       0.786  52.697 -18.978  1.00  0.00    -0.650 OA
BRANCH  20  22
HETATM   22  O10 UNL     1       1.446  54.371 -20.287  1.00  0.00    -0.776 OA
HETATM   23  H49 UNL     1       1.557  54.723 -19.376  1.00  0.00     0.167 HD
ENDBRANCH  20  22
ENDBRANCH  19  20
ENDBRANCH  18  19
BRANCH  18  24
HETATM   24  C35 UNL     1      -1.167  50.859 -20.888  1.00  0.00    -0.052 A 
HETATM   25  C36 UNL     1      -0.478  49.662 -20.659  1.00  0.00     0.007 A 
HETATM   26  C37 UNL     1      -1.033  48.662 -19.854  1.00  0.00     0.001 A 
HETATM   27  C38 UNL     1      -2.283  48.849 -19.271  1.00  0.00     0.000 A 
HETATM   28  C39 UNL     1      -2.971  50.040 -19.476  1.00  0.00     0.001 A 
HETATM   29  C40 UNL     1      -2.414  51.040 -20.269  1.00  0.00     0.007 A 
ENDBRANCH  18  24
ENDBRANCH  17  18
ENDBRANCH  15  17
ENDBRANCH   9  13
ENDBRANCH   6   9
ENDBRANCH   4   5
ENDBRANCH   3   4
ENDBRANCH   1   3
BRANCH   1  30
HETATM   30  O3  UNL     1      -9.830  47.689 -20.804  1.00  0.00    -0.314 OA
BRANCH  30  31
HETATM   31  C9  UNL     1     -10.737  46.594 -20.928  1.00  0.00     0.260 C 
BRANCH  31  32
HETATM   32  C10 UNL     1     -12.155  47.143 -20.956  1.00  0.00     0.185 C 
HETATM   33  O4  UNL     1     -12.706  47.339 -22.041  1.00  0.00    -0.292 OA
BRANCH  32  34
HETATM   34  C11 UNL     1     -12.803  47.525 -19.602  1.00  0.00     0.128 C 
HETATM   35  C12 UNL     1     -13.656  48.786 -19.843  1.00  0.00     0.047 C 
HETATM   36  C13 UNL     1     -14.753  48.716 -18.790  1.00  0.00     0.009 C 
HETATM   37  C14 UNL     1     -15.144  47.230 -18.758  1.00  0.00     0.002 C 
HETATM   38  C15 UNL     1     -16.223  46.932 -19.836  1.00  0.00    -0.002 C 
HETATM   39  C28 UNL     1     -13.776  46.492 -18.875  1.00  0.00     0.001 C 
HETATM   40  C16 UNL     1     -17.592  47.407 -19.289  1.00  0.00     0.010 C 
HETATM   41  C25 UNL     1     -16.326  45.449 -20.263  1.00  0.00     0.031 C 
HETATM   42  C17 UNL     1     -18.817  46.899 -20.051  1.00  0.00     0.035 C 
HETATM   43  C18 UNL     1     -18.441  46.395 -21.408  1.00  0.00    -0.068 C 
HETATM   44  C19 UNL     1     -18.975  46.961 -22.505  1.00  0.00     0.053 C 
HETATM   45  C23 UNL     1     -17.404  45.265 -21.436  1.00  0.00    -0.014 C 
HETATM   46  C20 UNL     1     -18.608  46.522 -23.870  1.00  0.00     0.149 C 
HETATM   47  O6  UNL     1     -19.044  47.130 -24.840  1.00  0.00    -0.293 OA
HETATM   48  C21 UNL     1     -17.736  45.300 -24.005  1.00  0.00     0.084 C 
HETATM   49  C22 UNL     1     -16.742  45.237 -22.848  1.00  0.00     0.022 C 
HETATM   50  C24 UNL     1     -18.150  43.917 -21.218  1.00  0.00     0.020 C 
HETATM   51  C26 UNL     1     -14.930  44.901 -20.609  1.00  0.00     0.124 C 
HETATM   52  C27 UNL     1     -13.920  45.087 -19.486  1.00  0.00     0.045 C 
HETATM   53  C29 UNL     1     -13.270  46.234 -17.418  1.00  0.00     0.019 C 
BRANCH  34  54
HETATM   54  O5  UNL     1     -11.771  47.952 -18.700  1.00  0.00    -0.381 OA
HETATM   55  H16 UNL     1     -11.159  47.207 -18.541  1.00  0.00     0.211 HD
ENDBRANCH  34  54
BRANCH  51  56
HETATM   56  O7  UNL     1     -15.015  43.503 -20.877  1.00  0.00    -0.395 OA
HETATM   57  H37 UNL     1     -14.147  43.229 -21.246  1.00  0.00     0.210 HD
ENDBRANCH  51  56
ENDBRANCH  32  34
ENDBRANCH  31  32
ENDBRANCH  30  31
ENDBRANCH   1  30
TORSDOF 18
ENDMDL
MODEL 4
REMARK minimizedAffinity -8.87665749
REMARK CNNscore 0.373109341
REMARK CNNaffinity 7.12134171
REMARK  18 active torsions:
REMARK  status: ('A' for Active; 'I' for Inactive)
REMARK    1  A    between atoms: C2_2  and  C4_4 
REMARK    2  A    between atoms: C4_4  and  N1_5 
REMARK    3  A    between atoms: C4_4  and  C30_38 
REMARK       I    between atoms: N1_5  and  C5_6 
REMARK    4  A    between atoms: C5_6  and  C6_8 
REMARK    5  A    between atoms: C6_8  and  C7_9 
REMARK    6  A    between atoms: C7_9  and  C8_10 
REMARK    7  A    between atoms: C8_10  and  O3_12 
REMARK    8  A    between atoms: O3_12  and  C9_13 
REMARK    9  A    between atoms: C9_13  and  C10_14 
REMARK   10  A    between atoms: C10_14  and  C11_16 
REMARK   11  A    between atoms: C11_16  and  O5_17 
REMARK   12  A    between atoms: C26_33  and  O7_34 
REMARK       I    between atoms: C30_38  and  N2_40 
REMARK   13  A    between atoms: N2_40  and  C31_41 
REMARK   14  A    between atoms: C31_41  and  C32_42 
REMARK   15  A    between atoms: C32_42  and  C33_43 
REMARK   16  A    between atoms: C32_42  and  C35_47 
REMARK   17  A    between atoms: C33_43  and  C34_44 
REMARK   18  A    between atoms: C34_44  and  O10_46 
ROOT
HETATM    1  C8  UNL     1      -3.334  49.462 -27.436  1.00  0.00     0.259 C 
HETATM    2  O2  UNL     1      -3.294  50.313 -28.312  1.00  0.00    -0.265 OA
ENDROOT
BRANCH   1   3
HETATM    3  C7  UNL     1      -3.837  48.055 -27.616  1.00  0.00     0.120 C 
BRANCH   3   4
HETATM    4  C6  UNL     1      -5.282  48.042 -28.099  1.00  0.00     0.112 C 
BRANCH   4   5
HETATM    5  C5  UNL     1      -5.398  47.508 -29.508  1.00  0.00     0.218 C 
HETATM    6  N1  UNL     1      -6.410  46.583 -29.644  1.00  0.00    -0.347 N 
HETATM    7  H9  UNL     1      -6.988  46.394 -28.837  1.00  0.00     0.163 HD
HETATM    8  O1  UNL     1      -4.679  47.866 -30.426  1.00  0.00    -0.274 OA
BRANCH   6   9
HETATM    9  C4  UNL     1      -6.852  46.088 -30.959  1.00  0.00     0.179 C 
BRANCH   9  10
HETATM   10  C2  UNL     1      -5.712  46.250 -31.986  1.00  0.00     0.009 C 
HETATM   11  C1  UNL     1      -5.025  44.918 -32.319  1.00  0.00     0.012 C 
HETATM   12  C3  UNL     1      -6.246  46.863 -33.289  1.00  0.00     0.012 C 
ENDBRANCH   9  10
BRANCH   9  13
HETATM   13  C30 UNL     1      -7.310  44.611 -30.840  1.00  0.00     0.240 C 
HETATM   14  O8  UNL     1      -6.864  43.846 -29.984  1.00  0.00    -0.271 OA
HETATM   15  N2  UNL     1      -8.370  44.266 -31.662  1.00  0.00    -0.359 N 
HETATM   16  H43 UNL     1      -8.905  45.006 -32.084  1.00  0.00     0.162 HD
BRANCH  15  17
HETATM   17  C31 UNL     1      -9.058  42.992 -31.504  1.00  0.00     0.132 C 
BRANCH  17  18
HETATM   18  C32 UNL     1     -10.523  43.176 -31.063  1.00  0.00     0.046 C 
BRANCH  18  19
HETATM   19  C33 UNL     1     -10.730  44.401 -30.149  1.00  0.00     0.120 C 
BRANCH  19  20
HETATM   20  C34 UNL     1     -11.338  45.614 -30.789  1.00  0.00     0.140 C 
HETATM   21  O9  UNL     1     -11.642  46.671 -30.258  1.00  0.00    -0.650 OA
BRANCH  20  22
HETATM   22  O10 UNL     1     -11.457  45.476 -32.126  1.00  0.00    -0.776 OA
HETATM   23  H49 UNL     1     -11.806  46.343 -32.431  1.00  0.00     0.167 HD
ENDBRANCH  20  22
ENDBRANCH  19  20
ENDBRANCH  18  19
BRANCH  18  24
HETATM   24  C35 UNL     1     -11.165  41.910 -30.512  1.00  0.00    -0.052 A 
HETATM   25  C36 UNL     1     -11.878  41.889 -29.307  1.00  0.00     0.007 A 
HETATM   26  C37 UNL     1     -12.423  40.696 -28.821  1.00  0.00     0.001 A 
HETATM   27  C38 UNL     1     -12.259  39.512 -29.535  1.00  0.00     0.000 A 
HETATM   28  C39 UNL     1     -11.568  39.522 -30.742  1.00  0.00     0.001 A 
HETATM   29  C40 UNL     1     -11.035  40.711 -31.231  1.00  0.00     0.007 A 
ENDBRANCH  18  24
ENDBRANCH  17  18
ENDBRANCH  15  17
ENDBRANCH   9  13
ENDBRANCH   6   9
ENDBRANCH   4   5
ENDBRANCH   3   4
ENDBRANCH   1   3
BRANCH   1  30
HETATM   30  O3  UNL     1      -2.914  49.643 -26.153  1.00  0.00    -0.314 OA
BRANCH  30  31
HETATM   31  C9  UNL     1      -3.088  48.488 -25.332  1.00  0.00     0.260 C 
BRANCH  31  32
HETATM   32  C10 UNL     1      -4.202  48.768 -24.336  1.00  0.00     0.185 C 
HETATM   33  O4  UNL     1      -5.375  48.689 -24.705  1.00  0.00    -0.292 OA
BRANCH  32  34
HETATM   34  C11 UNL     1      -3.794  49.243 -22.919  1.00  0.00     0.128 C 
HETATM   35  C12 UNL     1      -2.424  48.611 -22.601  1.00  0.00     0.047 C 
HETATM   36  C13 UNL     1      -1.771  49.579 -21.625  1.00  0.00     0.009 C 
HETATM   37  C14 UNL     1      -2.133  50.967 -22.178  1.00  0.00     0.002 C 
HETATM   38  C15 UNL     1      -1.094  51.412 -23.244  1.00  0.00    -0.002 C 
HETATM   39  C28 UNL     1      -3.615  50.801 -22.633  1.00  0.00     0.001 C 
HETATM   40  C16 UNL     1       0.165  51.925 -22.502  1.00  0.00     0.010 C 
HETATM   41  C25 UNL     1      -1.590  52.498 -24.227  1.00  0.00     0.031 C 
HETATM   42  C17 UNL     1       1.157  52.715 -23.358  1.00  0.00     0.035 C 
HETATM   43  C18 UNL     1       0.926  52.475 -24.816  1.00  0.00    -0.068 C 
HETATM   44  C19 UNL     1       1.905  51.949 -25.572  1.00  0.00     0.053 C 
HETATM   45  C23 UNL     1      -0.476  52.821 -25.334  1.00  0.00    -0.014 C 
HETATM   46  C20 UNL     1       1.713  51.660 -27.011  1.00  0.00     0.149 C 
HETATM   47  O6  UNL     1       2.599  51.090 -27.638  1.00  0.00    -0.293 OA
HETATM   48  C21 UNL     1       0.435  52.129 -27.658  1.00  0.00     0.084 C 
HETATM   49  C22 UNL     1      -0.717  52.039 -26.661  1.00  0.00     0.022 C 
HETATM   50  C24 UNL     1      -0.514  54.344 -25.648  1.00  0.00     0.020 C 
HETATM   51  C26 UNL     1      -2.953  52.093 -24.816  1.00  0.00     0.124 C 
HETATM   52  C27 UNL     1      -3.997  51.787 -23.751  1.00  0.00     0.045 C 
HETATM   53  C29 UNL     1      -4.513  51.217 -21.423  1.00  0.00     0.019 C 
BRANCH  34  54
HETATM   54  O5  UNL     1      -4.692  48.664 -21.961  1.00  0.00    -0.381 OA
HETATM   55  H16 UNL     1      -5.598  48.987 -22.138  1.00  0.00     0.211 HD
ENDBRANCH  34  54
BRANCH  51  56
HETATM   56  O7  UNL     1      -3.465  53.154 -25.620  1.00  0.00    -0.395 OA
HETATM   57  H37 UNL     1      -4.244  52.800 -26.099  1.00  0.00     0.210 HD
ENDBRANCH  51  56
ENDBRANCH  32  34
ENDBRANCH  31  32
ENDBRANCH  30  31
ENDBRANCH   1  30
TORSDOF 18
ENDMDL
MODEL 5
REMARK minimizedAffinity -8.48534203
REMARK CNNscore 0.369040012
REMARK CNNaffinity 7.56605768
REMARK  18 active torsions:
REMARK  status: ('A' for Active; 'I' for Inactive)
REMARK    1  A    between atoms: C2_2  and  C4_4 
REMARK    2  A    between atoms: C4_4  and  N1_5 
REMARK    3  A    between atoms: C4_4  and  C30_38 
REMARK       I    between atoms: N1_5  and  C5_6 
REMARK    4  A    between atoms: C5_6  and  C6_8 
REMARK    5  A    between atoms: C6_8  and  C7_9 
REMARK    6  A    between atoms: C7_9  and  C8_10 
REMARK    7  A    between atoms: C8_10  and  O3_12 
REMARK    8  A    between atoms: O3_12  and  C9_13 
REMARK    9  A    between atoms: C9_13  and  C10_14 
REMARK   10  A    between atoms: C10_14  and  C11_16 
REMARK   11  A    between atoms: C11_16  and  O5_17 
REMARK   12  A    between atoms: C26_33  and  O7_34 
REMARK       I    between atoms: C30_38  and  N2_40 
REMARK   13  A    between atoms: N2_40  and  C31_41 
REMARK   14  A    between atoms: C31_41  and  C32_42 
REMARK   15  A    between atoms: C32_42  and  C33_43 
REMARK   16  A    between atoms: C32_42  and  C35_47 
REMARK   17  A    between atoms: C33_43  and  C34_44 
REMARK   18  A    between atoms: C34_44  and  O10_46 
ROOT
HETATM    1  C8  UNL     1       4.022  50.088 -11.310  1.00  0.00     0.259 C 
HETATM    2  O2  UNL     1       5.018  49.967 -10.613  1.00  0.00    -0.265 OA
ENDROOT
BRANCH   1   3
HETATM    3  C7  UNL     1       3.763  49.341 -12.591  1.00  0.00     0.120 C 
BRANCH   3   4
HETATM    4  C6  UNL     1       2.289  48.988 -12.737  1.00  0.00     0.112 C 
BRANCH   4   5
HETATM    5  C5  UNL     1       1.689  49.589 -13.988  1.00  0.00     0.218 C 
HETATM    6  N1  UNL     1       1.619  50.964 -13.936  1.00  0.00    -0.347 N 
HETATM    7  H9  UNL     1       2.005  51.425 -13.125  1.00  0.00     0.163 HD
HETATM    8  O1  UNL     1       1.317  48.927 -14.943  1.00  0.00    -0.274 OA
BRANCH   6   9
HETATM    9  C4  UNL     1       1.275  51.779 -15.114  1.00  0.00     0.179 C 
BRANCH   9  10
HETATM   10  C2  UNL     1       2.490  51.865 -16.060  1.00  0.00     0.009 C 
HETATM   11  C1  UNL     1       2.441  53.101 -16.972  1.00  0.00     0.012 C 
HETATM   12  C3  UNL     1       3.796  51.906 -15.254  1.00  0.00     0.012 C 
ENDBRANCH   9  10
BRANCH   9  13
HETATM   13  C30 UNL     1       0.036  51.177 -15.827  1.00  0.00     0.240 C 
HETATM   14  O8  UNL     1      -1.088  51.186 -15.324  1.00  0.00    -0.271 OA
HETATM   15  N2  UNL     1       0.259  50.774 -17.134  1.00  0.00    -0.359 N 
HETATM   16  H43 UNL     1       1.093  51.098 -17.595  1.00  0.00     0.162 HD
BRANCH  15  17
HETATM   17  C31 UNL     1      -0.848  50.404 -18.004  1.00  0.00     0.132 C 
BRANCH  17  18
HETATM   18  C32 UNL     1      -1.459  51.627 -18.716  1.00  0.00     0.046 C 
BRANCH  18  19
HETATM   19  C33 UNL     1      -2.891  51.373 -19.229  1.00  0.00     0.120 C 
BRANCH  19  20
HETATM   20  C34 UNL     1      -3.369  49.950 -19.193  1.00  0.00     0.140 C 
HETATM   21  O9  UNL     1      -4.019  49.398 -18.318  1.00  0.00    -0.650 OA
BRANCH  20  22
HETATM   22  O10 UNL     1      -3.079  49.289 -20.332  1.00  0.00    -0.776 OA
HETATM   23  H49 UNL     1      -3.487  48.403 -20.211  1.00  0.00     0.167 HD
ENDBRANCH  20  22
ENDBRANCH  19  20
ENDBRANCH  18  19
BRANCH  18  24
HETATM   24  C35 UNL     1      -0.552  52.244 -19.772  1.00  0.00    -0.052 A 
HETATM   25  C36 UNL     1       0.135  53.446 -19.565  1.00  0.00     0.007 A 
HETATM   26  C37 UNL     1       0.931  53.996 -20.575  1.00  0.00     0.001 A 
HETATM   27  C38 UNL     1       1.048  53.348 -21.802  1.00  0.00     0.000 A 
HETATM   28  C39 UNL     1       0.385  52.144 -22.014  1.00  0.00     0.001 A 
HETATM   29  C40 UNL     1      -0.400  51.592 -21.006  1.00  0.00     0.007 A 
ENDBRANCH  18  24
ENDBRANCH  17  18
ENDBRANCH  15  17
ENDBRANCH   9  13
ENDBRANCH   6   9
ENDBRANCH   4   5
ENDBRANCH   3   4
ENDBRANCH   1   3
BRANCH   1  30
HETATM   30  O3  UNL     1       2.972  50.910 -11.034  1.00  0.00    -0.314 OA
BRANCH  30  31
HETATM   31  C9  UNL     1       3.267  52.292 -11.231  1.00  0.00     0.260 C 
BRANCH  31  32
HETATM   32  C10 UNL     1       3.113  53.014  -9.902  1.00  0.00     0.185 C 
HETATM   33  O4  UNL     1       3.246  52.381  -8.853  1.00  0.00    -0.292 OA
BRANCH  32  34
HETATM   34  C11 UNL     1       2.692  54.504  -9.939  1.00  0.00     0.128 C 
HETATM   35  C12 UNL     1       1.865  54.778  -8.668  1.00  0.00     0.047 C 
HETATM   36  C13 UNL     1       2.073  56.260  -8.385  1.00  0.00     0.009 C 
HETATM   37  C14 UNL     1       3.563  56.490  -8.683  1.00  0.00     0.002 C 
HETATM   38  C15 UNL     1       4.420  56.176  -7.425  1.00  0.00    -0.002 C 
HETATM   39  C28 UNL     1       3.813  55.638  -9.964  1.00  0.00     0.001 C 
HETATM   40  C16 UNL     1       4.322  57.386  -6.463  1.00  0.00     0.010 C 
HETATM   41  C25 UNL     1       5.908  55.865  -7.710  1.00  0.00     0.031 C 
HETATM   42  C17 UNL     1       5.355  57.416  -5.335  1.00  0.00     0.035 C 
HETATM   43  C18 UNL     1       5.977  56.071  -5.135  1.00  0.00    -0.068 C 
HETATM   44  C19 UNL     1       5.863  55.449  -3.949  1.00  0.00     0.053 C 
HETATM   45  C23 UNL     1       6.679  55.473  -6.361  1.00  0.00    -0.014 C 
HETATM   46  C20 UNL     1       6.430  54.103  -3.712  1.00  0.00     0.149 C 
HETATM   47  O6  UNL     1       6.218  53.534  -2.648  1.00  0.00    -0.293 OA
HETATM   48  C21 UNL     1       7.294  53.504  -4.792  1.00  0.00     0.084 C 
HETATM   49  C22 UNL     1       6.781  53.928  -6.165  1.00  0.00     0.022 C 
HETATM   50  C24 UNL     1       8.121  56.054  -6.425  1.00  0.00     0.020 C 
HETATM   51  C26 UNL     1       6.022  54.808  -8.823  1.00  0.00     0.124 C 
HETATM   52  C27 UNL     1       5.281  55.196 -10.094  1.00  0.00     0.045 C 
HETATM   53  C29 UNL     1       3.579  56.578 -11.191  1.00  0.00     0.019 C 
BRANCH  34  54
HETATM   54  O5  UNL     1       1.769  54.698 -11.022  1.00  0.00    -0.381 OA
HETATM   55  H16 UNL     1       2.219  54.490 -11.864  1.00  0.00     0.211 HD
ENDBRANCH  34  54
BRANCH  51  56
HETATM   56  O7  UNL     1       7.393  54.620  -9.170  1.00  0.00    -0.395 OA
HETATM   57  H37 UNL     1       7.434  53.834  -9.757  1.00  0.00     0.210 HD
ENDBRANCH  51  56
ENDBRANCH  32  34
ENDBRANCH  31  32
ENDBRANCH  30  31
ENDBRANCH   1  30
TORSDOF 18
ENDMDL
MODEL 6
REMARK minimizedAffinity -9.54845238
REMARK CNNscore 0.347685277
REMARK CNNaffinity 6.9405942
REMARK  18 active torsions:
REMARK  status: ('A' for Active; 'I' for Inactive)
REMARK    1  A    between atoms: C2_2  and  C4_4 
REMARK    2  A    between atoms: C4_4  and  N1_5 
REMARK    3  A    between atoms: C4_4  and  C30_38 
REMARK       I    between atoms: N1_5  and  C5_6 
REMARK    4  A    between atoms: C5_6  and  C6_8 
REMARK    5  A    between atoms: C6_8  and  C7_9 
REMARK    6  A    between atoms: C7_9  and  C8_10 
REMARK    7  A    between atoms: C8_10  and  O3_12 
REMARK    8  A    between atoms: O3_12  and  C9_13 
REMARK    9  A    between atoms: C9_13  and  C10_14 
REMARK   10  A    between atoms: C10_14  and  C11_16 
REMARK   11  A    between atoms: C11_16  and  O5_17 
REMARK   12  A    between atoms: C26_33  and  O7_34 
REMARK       I    between atoms: C30_38  and  N2_40 
REMARK   13  A    between atoms: N2_40  and  C31_41 
REMARK   14  A    between atoms: C31_41  and  C32_42 
REMARK   15  A    between atoms: C32_42  and  C33_43 
REMARK   16  A    between atoms: C32_42  and  C35_47 
REMARK   17  A    between atoms: C33_43  and  C34_44 
REMARK   18  A    between atoms: C34_44  and  O10_46 
ROOT
HETATM    1  C8  UNL     1      -4.277  48.474 -27.299  1.00  0.00     0.259 C 
HETATM    2  O2  UNL     1      -4.977  48.120 -26.362  1.00  0.00    -0.265 OA
ENDROOT
BRANCH   1   3
HETATM    3  C7  UNL     1      -2.929  49.133 -27.176  1.00  0.00     0.120 C 
BRANCH   3   4
HETATM    4  C6  UNL     1      -3.019  50.630 -27.443  1.00  0.00     0.112 C 
BRANCH   4   5
HETATM    5  C5  UNL     1      -1.930  51.394 -26.726  1.00  0.00     0.218 C 
HETATM    6  N1  UNL     1      -0.799  50.636 -26.515  1.00  0.00    -0.347 N 
HETATM    7  H9  UNL     1      -0.784  49.697 -26.888  1.00  0.00     0.163 HD
HETATM    8  O1  UNL     1      -2.038  52.559 -26.381  1.00  0.00    -0.274 OA
BRANCH   6   9
HETATM    9  C4  UNL     1       0.463  51.223 -26.032  1.00  0.00     0.179 C 
BRANCH   9  10
HETATM   10  C2  UNL     1       1.155  51.987 -27.181  1.00  0.00     0.009 C 
HETATM   11  C1  UNL     1       2.664  51.710 -27.248  1.00  0.00     0.012 C 
HETATM   12  C3  UNL     1       0.529  51.608 -28.531  1.00  0.00     0.012 C 
ENDBRANCH   9  10
BRANCH   9  13
HETATM   13  C30 UNL     1       0.184  52.147 -24.818  1.00  0.00     0.240 C 
HETATM   14  O8  UNL     1       0.484  53.341 -24.810  1.00  0.00    -0.271 OA
HETATM   15  N2  UNL     1      -0.571  51.567 -23.811  1.00  0.00    -0.359 N 
HETATM   16  H43 UNL     1      -1.067  50.716 -24.019  1.00  0.00     0.162 HD
BRANCH  15  17
HETATM   17  C31 UNL     1      -1.106  52.366 -22.719  1.00  0.00     0.132 C 
BRANCH  17  18
HETATM   18  C32 UNL     1      -1.056  51.617 -21.372  1.00  0.00     0.046 C 
BRANCH  18  19
HETATM   19  C33 UNL     1       0.260  51.849 -20.602  1.00  0.00     0.120 C 
BRANCH  19  20
HETATM   20  C34 UNL     1       0.190  52.789 -19.433  1.00  0.00     0.140 C 
HETATM   21  O9  UNL     1      -0.730  52.936 -18.642  1.00  0.00    -0.650 OA
BRANCH  20  22
HETATM   22  O10 UNL     1       1.348  53.455 -19.248  1.00  0.00    -0.776 OA
HETATM   23  H49 UNL     1       1.198  53.983 -18.433  1.00  0.00     0.167 HD
ENDBRANCH  20  22
ENDBRANCH  19  20
ENDBRANCH  18  19
BRANCH  18  24
HETATM   24  C35 UNL     1      -1.434  50.146 -21.470  1.00  0.00    -0.052 A 
HETATM   25  C36 UNL     1      -2.598  49.708 -22.114  1.00  0.00     0.007 A 
HETATM   26  C37 UNL     1      -2.925  48.349 -22.151  1.00  0.00     0.001 A 
HETATM   27  C38 UNL     1      -2.093  47.414 -21.543  1.00  0.00     0.000 A 
HETATM   28  C39 UNL     1      -0.925  47.833 -20.914  1.00  0.00     0.001 A 
HETATM   29  C40 UNL     1      -0.594  49.185 -20.886  1.00  0.00     0.007 A 
ENDBRANCH  18  24
ENDBRANCH  17  18
ENDBRANCH  15  17
ENDBRANCH   9  13
ENDBRANCH   6   9
ENDBRANCH   4   5
ENDBRANCH   3   4
ENDBRANCH   1   3
BRANCH   1  30
HETATM   30  O3  UNL     1      -4.596  48.315 -28.614  1.00  0.00    -0.314 OA
BRANCH  30  31
HETATM   31  C9  UNL     1      -5.930  47.851 -28.821  1.00  0.00     0.260 C 
BRANCH  31  32
HETATM   32  C10 UNL     1      -6.071  47.418 -30.271  1.00  0.00     0.185 C 
HETATM   33  O4  UNL     1      -5.181  46.740 -30.788  1.00  0.00    -0.292 OA
BRANCH  32  34
HETATM   34  C11 UNL     1      -7.295  47.944 -31.061  1.00  0.00     0.128 C 
HETATM   35  C12 UNL     1      -6.899  47.976 -32.551  1.00  0.00     0.047 C 
HETATM   36  C13 UNL     1      -8.212  47.803 -33.302  1.00  0.00     0.009 C 
HETATM   37  C14 UNL     1      -8.971  46.743 -32.487  1.00  0.00     0.002 C 
HETATM   38  C15 UNL     1      -8.569  45.315 -32.951  1.00  0.00    -0.002 C 
HETATM   39  C28 UNL     1      -8.671  47.139 -31.009  1.00  0.00     0.001 C 
HETATM   40  C16 UNL     1      -9.337  45.003 -34.260  1.00  0.00     0.010 C 
HETATM   41  C25 UNL     1      -8.836  44.195 -31.919  1.00  0.00     0.031 C 
HETATM   42  C17 UNL     1      -9.338  43.534 -34.686  1.00  0.00     0.035 C 
HETATM   43  C18 UNL     1      -8.258  42.766 -33.994  1.00  0.00    -0.068 C 
HETATM   44  C19 UNL     1      -7.302  42.156 -34.714  1.00  0.00     0.053 C 
HETATM   45  C23 UNL     1      -8.309  42.781 -32.460  1.00  0.00    -0.014 C 
HETATM   46  C20 UNL     1      -6.192  41.415 -34.074  1.00  0.00     0.149 C 
HETATM   47  O6  UNL     1      -5.290  40.958 -34.766  1.00  0.00    -0.293 OA
HETATM   48  C21 UNL     1      -6.248  41.216 -32.581  1.00  0.00     0.084 C 
HETATM   49  C22 UNL     1      -6.890  42.431 -31.917  1.00  0.00     0.022 C 
HETATM   50  C24 UNL     1      -9.298  41.672 -31.998  1.00  0.00     0.020 C 
HETATM   51  C26 UNL     1      -8.257  44.591 -30.549  1.00  0.00     0.124 C 
HETATM   52  C27 UNL     1      -8.766  45.937 -30.052  1.00  0.00     0.045 C 
HETATM   53  C29 UNL     1      -9.819  48.095 -30.550  1.00  0.00     0.019 C 
BRANCH  34  54
HETATM   54  O5  UNL     1      -7.514  49.319 -30.714  1.00  0.00    -0.381 OA
HETATM   55  H16 UNL     1      -7.722  49.377 -29.761  1.00  0.00     0.211 HD
ENDBRANCH  34  54
BRANCH  51  56
HETATM   56  O7  UNL     1      -8.617  43.615 -29.573  1.00  0.00    -0.395 OA
HETATM   57  H37 UNL     1      -8.101  43.816 -28.763  1.00  0.00     0.210 HD
ENDBRANCH  51  56
ENDBRANCH  32  34
ENDBRANCH  31  32
ENDBRANCH  30  31
ENDBRANCH   1  30
TORSDOF 18
ENDMDL
MODEL 7
REMARK minimizedAffinity -8.76040077
REMARK CNNscore 0.341425955
REMARK CNNaffinity 6.81530952
REMARK  18 active torsions:
REMARK  status: ('A' for Active; 'I' for Inactive)
REMARK    1  A    between atoms: C2_2  and  C4_4 
REMARK    2  A    between atoms: C4_4  and  N1_5 
REMARK    3  A    between atoms: C4_4  and  C30_38 
REMARK       I    between atoms: N1_5  and  C5_6 
REMARK    4  A    between atoms: C5_6  and  C6_8 
REMARK    5  A    between atoms: C6_8  and  C7_9 
REMARK    6  A    between atoms: C7_9  and  C8_10 
REMARK    7  A    between atoms: C8_10  and  O3_12 
REMARK    8  A    between atoms: O3_12  and  C9_13 
REMARK    9  A    between atoms: C9_13  and  C10_14 
REMARK   10  A    between atoms: C10_14  and  C11_16 
REMARK   11  A    between atoms: C11_16  and  O5_17 
REMARK   12  A    between atoms: C26_33  and  O7_34 
REMARK       I    between atoms: C30_38  and  N2_40 
REMARK   13  A    between atoms: N2_40  and  C31_41 
REMARK   14  A    between atoms: C31_41  and  C32_42 
REMARK   15  A    between atoms: C32_42  and  C33_43 
REMARK   16  A    between atoms: C32_42  and  C35_47 
REMARK   17  A    between atoms: C33_43  and  C34_44 
REMARK   18  A    between atoms: C34_44  and  O10_46 
ROOT
HETATM    1  C8  UNL     1      -3.571  49.465 -27.774  1.00  0.00     0.259 C 
HETATM    2  O2  UNL     1      -3.339  50.243 -28.688  1.00  0.00    -0.265 OA
ENDROOT
BRANCH   1   3
HETATM    3  C7  UNL     1      -4.237  48.124 -27.925  1.00  0.00     0.120 C 
BRANCH   3   4
HETATM    4  C6  UNL     1      -5.486  48.221 -28.791  1.00  0.00     0.112 C 
BRANCH   4   5
HETATM    5  C5  UNL     1      -6.437  47.074 -28.535  1.00  0.00     0.218 C 
HETATM    6  N1  UNL     1      -7.259  47.296 -27.452  1.00  0.00    -0.347 N 
HETATM    7  H9  UNL     1      -7.188  48.187 -26.982  1.00  0.00     0.163 HD
HETATM    8  O1  UNL     1      -6.478  46.065 -29.221  1.00  0.00    -0.274 OA
BRANCH   6   9
HETATM    9  C4  UNL     1      -8.405  46.423 -27.142  1.00  0.00     0.179 C 
BRANCH   9  10
HETATM   10  C2  UNL     1      -7.930  45.219 -26.303  1.00  0.00     0.009 C 
HETATM   11  C1  UNL     1      -8.308  45.347 -24.820  1.00  0.00     0.012 C 
HETATM   12  C3  UNL     1      -8.530  43.915 -26.849  1.00  0.00     0.012 C 
ENDBRANCH   9  10
BRANCH   9  13
HETATM   13  C30 UNL     1      -9.502  47.236 -26.406  1.00  0.00     0.240 C 
HETATM   14  O8  UNL     1      -9.271  48.311 -25.851  1.00  0.00    -0.271 OA
HETATM   15  N2  UNL     1     -10.787  46.743 -26.558  1.00  0.00    -0.359 N 
HETATM   16  H43 UNL     1     -10.955  46.071 -27.289  1.00  0.00     0.162 HD
BRANCH  15  17
HETATM   17  C31 UNL     1     -11.943  47.514 -26.124  1.00  0.00     0.132 C 
BRANCH  17  18
HETATM   18  C32 UNL     1     -13.180  46.623 -25.890  1.00  0.00     0.046 C 
BRANCH  18  19
HETATM   19  C33 UNL     1     -14.190  46.675 -27.054  1.00  0.00     0.120 C 
BRANCH  19  20
HETATM   20  C34 UNL     1     -14.101  45.566 -28.062  1.00  0.00     0.140 C 
HETATM   21  O9  UNL     1     -14.798  45.392 -29.050  1.00  0.00    -0.650 OA
BRANCH  20  22
HETATM   22  O10 UNL     1     -13.051  44.752 -27.828  1.00  0.00    -0.776 OA
HETATM   23  H49 UNL     1     -13.065  44.115 -28.576  1.00  0.00     0.167 HD
ENDBRANCH  20  22
ENDBRANCH  19  20
ENDBRANCH  18  19
BRANCH  18  24
HETATM   24  C35 UNL     1     -13.833  46.819 -24.528  1.00  0.00    -0.052 A 
HETATM   25  C36 UNL     1     -13.095  46.875 -23.340  1.00  0.00     0.007 A 
HETATM   26  C37 UNL     1     -13.739  47.022 -22.107  1.00  0.00     0.001 A 
HETATM   27  C38 UNL     1     -15.127  47.114 -22.051  1.00  0.00     0.000 A 
HETATM   28  C39 UNL     1     -15.870  47.078 -23.225  1.00  0.00     0.001 A 
HETATM   29  C40 UNL     1     -15.229  46.942 -24.453  1.00  0.00     0.007 A 
ENDBRANCH  18  24
ENDBRANCH  17  18
ENDBRANCH  15  17
ENDBRANCH   9  13
ENDBRANCH   6   9
ENDBRANCH   4   5
ENDBRANCH   3   4
ENDBRANCH   1   3
BRANCH   1  30
HETATM   30  O3  UNL     1      -3.251  49.679 -26.468  1.00  0.00    -0.314 OA
BRANCH  30  31
HETATM   31  C9  UNL     1      -3.341  48.503 -25.663  1.00  0.00     0.260 C 
BRANCH  31  32
HETATM   32  C10 UNL     1      -4.464  48.692 -24.656  1.00  0.00     0.185 C 
HETATM   33  O4  UNL     1      -5.634  48.631 -25.038  1.00  0.00    -0.292 OA
BRANCH  32  34
HETATM   34  C11 UNL     1      -4.070  49.055 -23.202  1.00  0.00     0.128 C 
HETATM   35  C12 UNL     1      -2.723  48.365 -22.907  1.00  0.00     0.047 C 
HETATM   36  C13 UNL     1      -2.062  49.245 -21.855  1.00  0.00     0.009 C 
HETATM   37  C14 UNL     1      -2.377  50.677 -22.315  1.00  0.00     0.002 C 
HETATM   38  C15 UNL     1      -1.307  51.166 -23.330  1.00  0.00    -0.002 C 
HETATM   39  C28 UNL     1      -3.855  50.585 -22.804  1.00  0.00     0.001 C 
HETATM   40  C16 UNL     1      -0.049  51.591 -22.533  1.00  0.00     0.010 C 
HETATM   41  C25 UNL     1      -1.756  52.331 -24.242  1.00  0.00     0.031 C 
HETATM   42  C17 UNL     1       0.979  52.410 -23.315  1.00  0.00     0.035 C 
HETATM   43  C18 UNL     1       0.769  52.279 -24.790  1.00  0.00    -0.068 C 
HETATM   44  C19 UNL     1       1.747  51.780 -25.564  1.00  0.00     0.053 C 
HETATM   45  C23 UNL     1      -0.614  52.699 -25.305  1.00  0.00    -0.014 C 
HETATM   46  C20 UNL     1       1.575  51.597 -27.023  1.00  0.00     0.149 C 
HETATM   47  O6  UNL     1       2.456  51.048 -27.674  1.00  0.00    -0.293 OA
HETATM   48  C21 UNL     1       0.321  52.145 -27.656  1.00  0.00     0.084 C 
HETATM   49  C22 UNL     1      -0.851  52.019 -26.688  1.00  0.00     0.022 C 
HETATM   50  C24 UNL     1      -0.606  54.241 -25.513  1.00  0.00     0.020 C 
HETATM   51  C26 UNL     1      -3.119  52.006 -24.881  1.00  0.00     0.124 C 
HETATM   52  C27 UNL     1      -4.190  51.656 -23.857  1.00  0.00     0.045 C 
HETATM   53  C29 UNL     1      -4.764  50.940 -21.583  1.00  0.00     0.019 C 
BRANCH  34  54
HETATM   54  O5  UNL     1      -5.000  48.437 -22.302  1.00  0.00    -0.381 OA
HETATM   55  H16 UNL     1      -5.893  48.796 -22.471  1.00  0.00     0.211 HD
ENDBRANCH  34  54
BRANCH  51  56
HETATM   56  O7  UNL     1      -3.587  53.135 -25.616  1.00  0.00    -0.395 OA
HETATM   57  H37 UNL     1      -4.366  52.836 -26.133  1.00  0.00     0.210 HD
ENDBRANCH  51  56
ENDBRANCH  32  34
ENDBRANCH  31  32
ENDBRANCH  30  31
ENDBRANCH   1  30
TORSDOF 18
ENDMDL
MODEL 8
REMARK minimizedAffinity -8.74424458
REMARK CNNscore 0.316583335
REMARK CNNaffinity 7.09431219
REMARK  18 active torsions:
REMARK  status: ('A' for Active; 'I' for Inactive)
REMARK    1  A    between atoms: C2_2  and  C4_4 
REMARK    2  A    between atoms: C4_4  and  N1_5 
REMARK    3  A    between atoms: C4_4  and  C30_38 
REMARK       I    between atoms: N1_5  and  C5_6 
REMARK    4  A    between atoms: C5_6  and  C6_8 
REMARK    5  A    between atoms: C6_8  and  C7_9 
REMARK    6  A    between atoms: C7_9  and  C8_10 
REMARK    7  A    between atoms: C8_10  and  O3_12 
REMARK    8  A    between atoms: O3_12  and  C9_13 
REMARK    9  A    between atoms: C9_13  and  C10_14 
REMARK   10  A    between atoms: C10_14  and  C11_16 
REMARK   11  A    between atoms: C11_16  and  O5_17 
REMARK   12  A    between atoms: C26_33  and  O7_34 
REMARK       I    between atoms: C30_38  and  N2_40 
REMARK   13  A    between atoms: N2_40  and  C31_41 
REMARK   14  A    between atoms: C31_41  and  C32_42 
REMARK   15  A    between atoms: C32_42  and  C33_43 
REMARK   16  A    between atoms: C32_42  and  C35_47 
REMARK   17  A    between atoms: C33_43  and  C34_44 
REMARK   18  A    between atoms: C34_44  and  O10_46 
ROOT
HETATM    1  C8  UNL     1      -3.468  49.489 -27.601  1.00  0.00     0.259 C 
HETATM    2  O2  UNL     1      -3.256  50.291 -28.498  1.00  0.00    -0.265 OA
ENDROOT
BRANCH   1   3
HETATM    3  C7  UNL     1      -4.118  48.143 -27.778  1.00  0.00     0.120 C 
BRANCH   3   4
HETATM    4  C6  UNL     1      -5.451  48.263 -28.506  1.00  0.00     0.112 C 
BRANCH   4   5
HETATM    5  C5  UNL     1      -5.299  48.044 -29.994  1.00  0.00     0.218 C 
HETATM    6  N1  UNL     1      -5.604  46.756 -30.375  1.00  0.00    -0.347 N 
HETATM    7  H9  UNL     1      -5.935  46.120 -29.664  1.00  0.00     0.163 HD
HETATM    8  O1  UNL     1      -4.954  48.918 -30.773  1.00  0.00    -0.274 OA
BRANCH   6   9
HETATM    9  C4  UNL     1      -5.738  46.365 -31.789  1.00  0.00     0.179 C 
BRANCH   9  10
HETATM   10  C2  UNL     1      -4.368  45.911 -32.336  1.00  0.00     0.009 C 
HETATM   11  C1  UNL     1      -4.351  44.426 -32.724  1.00  0.00     0.012 C 
HETATM   12  C3  UNL     1      -3.980  46.741 -33.567  1.00  0.00     0.012 C 
ENDBRANCH   9  10
BRANCH   9  13
HETATM   13  C30 UNL     1      -6.808  45.251 -31.929  1.00  0.00     0.240 C 
HETATM   14  O8  UNL     1      -7.179  44.565 -30.976  1.00  0.00    -0.271 OA
HETATM   15  N2  UNL     1      -7.427  45.195 -33.167  1.00  0.00    -0.359 N 
HETATM   16  H43 UNL     1      -7.327  45.984 -33.784  1.00  0.00     0.162 HD
BRANCH  15  17
HETATM   17  C31 UNL     1      -8.601  44.363 -33.381  1.00  0.00     0.132 C 
BRANCH  17  18
HETATM   18  C32 UNL     1      -8.845  44.077 -34.877  1.00  0.00     0.046 C 
BRANCH  18  19
HETATM   19  C33 UNL     1     -10.001  44.908 -35.470  1.00  0.00     0.120 C 
BRANCH  19  20
HETATM   20  C34 UNL     1      -9.620  46.202 -36.129  1.00  0.00     0.140 C 
HETATM   21  O9  UNL     1     -10.354  47.007 -36.682  1.00  0.00    -0.650 OA
BRANCH  20  22
HETATM   22  O10 UNL     1      -8.309  46.480 -35.980  1.00  0.00    -0.776 OA
HETATM   23  H49 UNL     1      -8.199  47.364 -36.394  1.00  0.00     0.167 HD
ENDBRANCH  20  22
ENDBRANCH  19  20
ENDBRANCH  18  19
BRANCH  18  24
HETATM   24  C35 UNL     1      -8.945  42.596 -35.214  1.00  0.00    -0.052 A 
HETATM   25  C36 UNL     1      -8.074  41.640 -34.677  1.00  0.00     0.007 A 
HETATM   26  C37 UNL     1      -8.179  40.294 -35.040  1.00  0.00     0.001 A 
HETATM   27  C38 UNL     1      -9.157  39.890 -35.945  1.00  0.00     0.000 A 
HETATM   28  C39 UNL     1     -10.040  40.826 -36.473  1.00  0.00     0.001 A 
HETATM   29  C40 UNL     1      -9.941  42.165 -36.104  1.00  0.00     0.007 A 
ENDBRANCH  18  24
ENDBRANCH  17  18
ENDBRANCH  15  17
ENDBRANCH   9  13
ENDBRANCH   6   9
ENDBRANCH   4   5
ENDBRANCH   3   4
ENDBRANCH   1   3
BRANCH   1  30
HETATM   30  O3  UNL     1      -3.135  49.675 -26.294  1.00  0.00    -0.314 OA
BRANCH  30  31
HETATM   31  C9  UNL     1      -3.271  48.495 -25.502  1.00  0.00     0.260 C 
BRANCH  31  32
HETATM   32  C10 UNL     1      -4.382  48.718 -24.489  1.00  0.00     0.185 C 
HETATM   33  O4  UNL     1      -5.557  48.654 -24.856  1.00  0.00    -0.292 OA
BRANCH  32  34
HETATM   34  C11 UNL     1      -3.971  49.121 -23.051  1.00  0.00     0.128 C 
HETATM   35  C12 UNL     1      -2.613  48.452 -22.759  1.00  0.00     0.047 C 
HETATM   36  C13 UNL     1      -1.946  49.364 -21.738  1.00  0.00     0.009 C 
HETATM   37  C14 UNL     1      -2.283  50.781 -22.228  1.00  0.00     0.002 C 
HETATM   38  C15 UNL     1      -1.232  51.256 -23.271  1.00  0.00    -0.002 C 
HETATM   39  C28 UNL     1      -3.766  50.662 -22.693  1.00  0.00     0.001 C 
HETATM   40  C16 UNL     1       0.033  51.713 -22.503  1.00  0.00     0.010 C 
HETATM   41  C25 UNL     1      -1.707  52.394 -24.204  1.00  0.00     0.031 C 
HETATM   42  C17 UNL     1       1.041  52.523 -23.320  1.00  0.00     0.035 C 
HETATM   43  C18 UNL     1       0.810  52.354 -24.788  1.00  0.00    -0.068 C 
HETATM   44  C19 UNL     1       1.782  51.846 -25.565  1.00  0.00     0.053 C 
HETATM   45  C23 UNL     1      -0.584  52.748 -25.292  1.00  0.00    -0.014 C 
HETATM   46  C20 UNL     1       1.590  51.626 -27.016  1.00  0.00     0.149 C 
HETATM   47  O6  UNL     1       2.467  51.071 -27.666  1.00  0.00    -0.293 OA
HETATM   48  C21 UNL     1       0.322  52.146 -27.644  1.00  0.00     0.084 C 
HETATM   49  C22 UNL     1      -0.835  52.031 -26.655  1.00  0.00     0.022 C 
HETATM   50  C24 UNL     1      -0.596  54.284 -25.538  1.00  0.00     0.020 C 
HETATM   51  C26 UNL     1      -3.075  52.040 -24.814  1.00  0.00     0.124 C 
HETATM   52  C27 UNL     1      -4.127  51.704 -23.766  1.00  0.00     0.045 C 
HETATM   53  C29 UNL     1      -4.660  51.038 -21.468  1.00  0.00     0.019 C 
BRANCH  34  54
HETATM   54  O5  UNL     1      -4.881  48.515 -22.121  1.00  0.00    -0.381 OA
HETATM   55  H16 UNL     1      -5.780  48.861 -22.286  1.00  0.00     0.211 HD
ENDBRANCH  34  54
BRANCH  51  56
HETATM   56  O7  UNL     1      -3.566  53.145 -25.570  1.00  0.00    -0.395 OA
HETATM   57  H37 UNL     1      -4.350  52.826 -26.067  1.00  0.00     0.210 HD
ENDBRANCH  51  56
ENDBRANCH  32  34
ENDBRANCH  31  32
ENDBRANCH  30  31
ENDBRANCH   1  30
TORSDOF 18
ENDMDL
MODEL 9
REMARK minimizedAffinity -9.53840256
REMARK CNNscore 0.316046476
REMARK CNNaffinity 7.00621986
REMARK  18 active torsions:
REMARK  status: ('A' for Active; 'I' for Inactive)
REMARK    1  A    between atoms: C2_2  and  C4_4 
REMARK    2  A    between atoms: C4_4  and  N1_5 
REMARK    3  A    between atoms: C4_4  and  C30_38 
REMARK       I    between atoms: N1_5  and  C5_6 
REMARK    4  A    between atoms: C5_6  and  C6_8 
REMARK    5  A    between atoms: C6_8  and  C7_9 
REMARK    6  A    between atoms: C7_9  and  C8_10 
REMARK    7  A    between atoms: C8_10  and  O3_12 
REMARK    8  A    between atoms: O3_12  and  C9_13 
REMARK    9  A    between atoms: C9_13  and  C10_14 
REMARK   10  A    between atoms: C10_14  and  C11_16 
REMARK   11  A    between atoms: C11_16  and  O5_17 
REMARK   12  A    between atoms: C26_33  and  O7_34 
REMARK       I    between atoms: C30_38  and  N2_40 
REMARK   13  A    between atoms: N2_40  and  C31_41 
REMARK   14  A    between atoms: C31_41  and  C32_42 
REMARK   15  A    between atoms: C32_42  and  C33_43 
REMARK   16  A    between atoms: C32_42  and  C35_47 
REMARK   17  A    between atoms: C33_43  and  C34_44 
REMARK   18  A    between atoms: C34_44  and  O10_46 
ROOT
HETATM    1  C8  UNL     1      -3.333  49.526 -27.462  1.00  0.00     0.259 C 
HETATM    2  O2  UNL     1      -3.097  50.299 -28.378  1.00  0.00    -0.265 OA
ENDROOT
BRANCH   1   3
HETATM    3  C7  UNL     1      -3.847  48.120 -27.624  1.00  0.00     0.120 C 
BRANCH   3   4
HETATM    4  C6  UNL     1      -5.334  48.110 -27.956  1.00  0.00     0.112 C 
BRANCH   4   5
HETATM    5  C5  UNL     1      -5.583  47.782 -29.410  1.00  0.00     0.218 C 
HETATM    6  N1  UNL     1      -6.761  47.095 -29.606  1.00  0.00    -0.347 N 
HETATM    7  H9  UNL     1      -7.347  46.926 -28.802  1.00  0.00     0.163 HD
HETATM    8  O1  UNL     1      -4.826  48.102 -30.313  1.00  0.00    -0.274 OA
BRANCH   6   9
HETATM    9  C4  UNL     1      -7.319  46.858 -30.949  1.00  0.00     0.179 C 
BRANCH   9  10
HETATM   10  C2  UNL     1      -7.076  45.391 -31.361  1.00  0.00     0.009 C 
HETATM   11  C1  UNL     1      -8.227  44.817 -32.200  1.00  0.00     0.012 C 
HETATM   12  C3  UNL     1      -5.776  45.268 -32.169  1.00  0.00     0.012 C 
ENDBRANCH   9  10
BRANCH   9  13
HETATM   13  C30 UNL     1      -8.828  47.214 -30.962  1.00  0.00     0.240 C 
HETATM   14  O8  UNL     1      -9.393  47.667 -31.958  1.00  0.00    -0.271 OA
HETATM   15  N2  UNL     1      -9.522  46.836 -29.825  1.00  0.00    -0.359 N 
HETATM   16  H43 UNL     1      -9.088  46.177 -29.200  1.00  0.00     0.162 HD
BRANCH  15  17
HETATM   17  C31 UNL     1     -10.976  46.893 -29.779  1.00  0.00     0.132 C 
BRANCH  17  18
HETATM   18  C32 UNL     1     -11.494  47.393 -28.416  1.00  0.00     0.046 C 
BRANCH  18  19
HETATM   19  C33 UNL     1     -10.426  47.334 -27.306  1.00  0.00     0.120 C 
BRANCH  19  20
HETATM   20  C34 UNL     1      -9.783  48.639 -26.932  1.00  0.00     0.140 C 
HETATM   21  O9  UNL     1      -9.975  49.310 -25.929  1.00  0.00    -0.650 OA
BRANCH  20  22
HETATM   22  O10 UNL     1      -8.832  49.006 -27.814  1.00  0.00    -0.776 OA
HETATM   23  H49 UNL     1      -8.451  49.829 -27.434  1.00  0.00     0.167 HD
ENDBRANCH  20  22
ENDBRANCH  19  20
ENDBRANCH  18  19
BRANCH  18  24
HETATM   24  C35 UNL     1     -12.821  46.775 -27.996  1.00  0.00    -0.052 A 
HETATM   25  C36 UNL     1     -13.597  45.995 -28.861  1.00  0.00     0.007 A 
HETATM   26  C37 UNL     1     -14.826  45.474 -28.445  1.00  0.00     0.001 A 
HETATM   27  C38 UNL     1     -15.292  45.730 -27.158  1.00  0.00     0.000 A 
HETATM   28  C39 UNL     1     -14.524  46.489 -26.282  1.00  0.00     0.001 A 
HETATM   29  C40 UNL     1     -13.295  46.999 -26.694  1.00  0.00     0.007 A 
ENDBRANCH  18  24
ENDBRANCH  17  18
ENDBRANCH  15  17
ENDBRANCH   9  13
ENDBRANCH   6   9
ENDBRANCH   4   5
ENDBRANCH   3   4
ENDBRANCH   1   3
BRANCH   1  30
HETATM   30  O3  UNL     1      -3.155  49.804 -26.141  1.00  0.00    -0.314 OA
BRANCH  30  31
HETATM   31  C9  UNL     1      -3.089  48.638 -25.321  1.00  0.00     0.260 C 
BRANCH  31  32
HETATM   32  C10 UNL     1      -4.189  48.721 -24.274  1.00  0.00     0.185 C 
HETATM   33  O4  UNL     1      -5.354  48.489 -24.602  1.00  0.00    -0.292 OA
BRANCH  32  34
HETATM   34  C11 UNL     1      -3.794  49.201 -22.855  1.00  0.00     0.128 C 
HETATM   35  C12 UNL     1      -2.422  48.578 -22.528  1.00  0.00     0.047 C 
HETATM   36  C13 UNL     1      -1.781  49.552 -21.548  1.00  0.00     0.009 C 
HETATM   37  C14 UNL     1      -2.148  50.936 -22.106  1.00  0.00     0.002 C 
HETATM   38  C15 UNL     1      -1.105  51.386 -23.166  1.00  0.00    -0.002 C 
HETATM   39  C28 UNL     1      -3.626  50.761 -22.569  1.00  0.00     0.001 C 
HETATM   40  C16 UNL     1       0.146  51.909 -22.416  1.00  0.00     0.010 C 
HETATM   41  C25 UNL     1      -1.602  52.468 -24.153  1.00  0.00     0.031 C 
HETATM   42  C17 UNL     1       1.138  52.703 -23.266  1.00  0.00     0.035 C 
HETATM   43  C18 UNL     1       0.918  52.460 -24.726  1.00  0.00    -0.068 C 
HETATM   44  C19 UNL     1       1.905  51.939 -25.475  1.00  0.00     0.053 C 
HETATM   45  C23 UNL     1      -0.483  52.797 -25.253  1.00  0.00    -0.014 C 
HETATM   46  C20 UNL     1       1.725  51.648 -26.914  1.00  0.00     0.149 C 
HETATM   47  O6  UNL     1       2.617  51.083 -27.535  1.00  0.00    -0.293 OA
HETATM   48  C21 UNL     1       0.448  52.108 -27.570  1.00  0.00     0.084 C 
HETATM   49  C22 UNL     1      -0.710  52.012 -26.581  1.00  0.00     0.022 C 
HETATM   50  C24 UNL     1      -0.529  54.319 -25.569  1.00  0.00     0.020 C 
HETATM   51  C26 UNL     1      -2.959  52.054 -24.750  1.00  0.00     0.124 C 
HETATM   52  C27 UNL     1      -4.007  51.743 -23.691  1.00  0.00     0.045 C 
HETATM   53  C29 UNL     1      -4.535  51.172 -21.366  1.00  0.00     0.019 C 
BRANCH  34  54
HETATM   54  O5  UNL     1      -4.694  48.618 -21.902  1.00  0.00    -0.381 OA
HETATM   55  H16 UNL     1      -5.600  48.934 -22.085  1.00  0.00     0.211 HD
ENDBRANCH  34  54
BRANCH  51  56
HETATM   56  O7  UNL     1      -3.472  53.111 -25.558  1.00  0.00    -0.395 OA
HETATM   57  H37 UNL     1      -4.246  52.751 -26.043  1.00  0.00     0.210 HD
ENDBRANCH  51  56
ENDBRANCH  32  34
ENDBRANCH  31  32
ENDBRANCH  30  31
ENDBRANCH   1  30
TORSDOF 18
ENDMDL
