MODEL 1
REMARK minimizedAffinity -6.89119005
REMARK CNNscore 0.570176601
REMARK CNNaffinity 6.55613327
REMARK  10 active torsions:
REMARK  status: ('A' for Active; 'I' for Inactive)
REMARK    1  A    between atoms: C2_2  and  C3_4 
REMARK    2  A    between atoms: C10_12  and  O3_13 
REMARK    3  A    between atoms: C13_16  and  C14_17 
REMARK    4  A    between atoms: C14_17  and  C16_19 
REMARK    5  A    between atoms: C16_19  and  C17_20 
REMARK    6  A    between atoms: C17_20  and  C18_21 
REMARK    7  A    between atoms: C26_29  and  C27_30 
REMARK    8  A    between atoms: C27_30  and  C28_31 
REMARK    9  A    between atoms: C28_31  and  C29_32 
REMARK   10  A    between atoms: C29_32  and  O4_33 
ROOT
HETATM    1  C3  UNL     1      -1.411   6.264  12.778  1.00  0.00     0.151 A 
HETATM    2  O2  UNL     1      -2.764   5.946  13.167  1.00  0.00    -0.360 OA
HETATM    3  C4  UNL     1      -1.760   5.760  14.158  1.00  0.00     0.166 A 
HETATM    4  C5  UNL     1      -1.674   6.728  15.278  1.00  0.00     0.041 C 
HETATM    5  C6  UNL     1      -2.304   8.113  15.000  1.00  0.00     0.006 C 
HETATM    6  C7  UNL     1      -2.089   8.683  13.518  1.00  0.00    -0.030 C 
HETATM    7  C8  UNL     1      -3.456   8.756  12.766  1.00  0.00     0.016 C 
HETATM    8  C9  UNL     1      -1.539  10.153  13.539  1.00  0.00     0.042 C 
HETATM    9  C10 UNL     1      -2.091  11.146  14.590  1.00  0.00     0.128 C 
HETATM   10  C11 UNL     1      -2.636  10.515  15.893  1.00  0.00    -0.006 C 
HETATM   11  C12 UNL     1      -4.191  10.380  15.767  1.00  0.00     0.019 C 
HETATM   12  C13 UNL     1      -2.356  11.253  17.256  1.00  0.00     0.001 C 
HETATM   13  C22 UNL     1      -2.474  10.098  18.298  1.00  0.00     0.007 C 
HETATM   14  C23 UNL     1      -2.436   8.768  17.529  1.00  0.00     0.011 C 
HETATM   15  C24 UNL     1      -1.915   9.135  16.126  1.00  0.00    -0.029 C 
HETATM   16  C25 UNL     1      -0.357   9.232  16.256  1.00  0.00     0.016 C 
HETATM   17  C26 UNL     1      -1.072   7.759  12.689  1.00  0.00     0.039 C 
ENDROOT
BRANCH  12  18
HETATM   18  C14 UNL     1      -3.213  12.497  17.661  1.00  0.00    -0.013 C 
HETATM   19  C15 UNL     1      -2.366  13.768  17.795  1.00  0.00     0.010 C 
BRANCH  18  20
HETATM   20  C16 UNL     1      -3.968  12.219  18.991  1.00  0.00     0.008 C 
BRANCH  20  21
HETATM   21  C17 UNL     1      -4.584  13.469  19.632  1.00  0.00     0.028 C 
BRANCH  21  22
HETATM   22  C18 UNL     1      -5.584  13.097  20.693  1.00  0.00    -0.025 C 
HETATM   23  C19 UNL     1      -5.760  13.670  21.900  1.00  0.00    -0.091 C 
HETATM   24  C20 UNL     1      -4.933  14.799  22.452  1.00  0.00     0.042 C 
HETATM   25  C21 UNL     1      -6.838  13.181  22.831  1.00  0.00     0.042 C 
ENDBRANCH  21  22
ENDBRANCH  20  21
ENDBRANCH  18  20
ENDBRANCH  12  18
BRANCH   9  26
HETATM   26  O3  UNL     1      -1.033  12.064  14.880  1.00  0.00    -0.395 OA
HETATM   27  H14 UNL     1      -0.814  12.532  14.056  1.00  0.00     0.210 HD
ENDBRANCH   9  26
BRANCH  17  28
HETATM   28  C27 UNL     1      -0.894   8.214  11.209  1.00  0.00     0.011 C 
BRANCH  28  29
HETATM   29  C28 UNL     1       0.540   8.410  10.701  1.00  0.00     0.027 C 
BRANCH  29  30
HETATM   30  C29 UNL     1       0.695   8.323   9.189  1.00  0.00     0.164 C 
BRANCH  30  31
HETATM   31  O4  UNL     1      -0.280   9.162   8.583  1.00  0.00    -0.401 OA
HETATM   32  H48 UNL     1      -0.248   8.994   7.626  1.00  0.00     0.209 HD
ENDBRANCH  30  31
ENDBRANCH  29  30
ENDBRANCH  28  29
ENDBRANCH  17  28
BRANCH   1  33
HETATM   33  C2  UNL     1      -0.750   5.250  11.907  1.00  0.00     0.160 C 
HETATM   34  C1  UNL     1       0.722   5.037  12.112  1.00  0.00     0.094 C 
HETATM   35  O1  UNL     1      -1.402   4.668  11.047  1.00  0.00    -0.295 OA
ENDBRANCH   1  33
TORSDOF 10
ENDMDL
MODEL 2
REMARK minimizedAffinity -6.86577368
REMARK CNNscore 0.563746154
REMARK CNNaffinity 6.94660616
REMARK  10 active torsions:
REMARK  status: ('A' for Active; 'I' for Inactive)
REMARK    1  A    between atoms: C2_2  and  C3_4 
REMARK    2  A    between atoms: C10_12  and  O3_13 
REMARK    3  A    between atoms: C13_16  and  C14_17 
REMARK    4  A    between atoms: C14_17  and  C16_19 
REMARK    5  A    between atoms: C16_19  and  C17_20 
REMARK    6  A    between atoms: C17_20  and  C18_21 
REMARK    7  A    between atoms: C26_29  and  C27_30 
REMARK    8  A    between atoms: C27_30  and  C28_31 
REMARK    9  A    between atoms: C28_31  and  C29_32 
REMARK   10  A    between atoms: C29_32  and  O4_33 
ROOT
HETATM    1  C3  UNL     1      -2.392   3.860  11.704  1.00  0.00     0.151 A 
HETATM    2  O2  UNL     1      -2.920   4.801  10.747  1.00  0.00    -0.360 OA
HETATM    3  C4  UNL     1      -3.849   4.253  11.675  1.00  0.00     0.166 A 
HETATM    4  C5  UNL     1      -4.344   5.109  12.779  1.00  0.00     0.041 C 
HETATM    5  C6  UNL     1      -3.437   6.309  13.140  1.00  0.00     0.006 C 
HETATM    6  C7  UNL     1      -1.860   6.021  13.082  1.00  0.00    -0.030 C 
HETATM    7  C8  UNL     1      -1.205   6.848  11.931  1.00  0.00     0.016 C 
HETATM    8  C9  UNL     1      -1.141   6.485  14.398  1.00  0.00     0.042 C 
HETATM    9  C10 UNL     1      -1.580   7.811  15.068  1.00  0.00     0.128 C 
HETATM   10  C11 UNL     1      -3.038   8.251  14.797  1.00  0.00    -0.006 C 
HETATM   11  C12 UNL     1      -3.034   9.291  13.626  1.00  0.00     0.019 C 
HETATM   12  C13 UNL     1      -3.853   8.904  15.976  1.00  0.00     0.001 C 
HETATM   13  C22 UNL     1      -5.332   8.637  15.556  1.00  0.00     0.007 C 
HETATM   14  C23 UNL     1      -5.316   7.584  14.436  1.00  0.00     0.011 C 
HETATM   15  C24 UNL     1      -3.903   6.974  14.483  1.00  0.00    -0.029 C 
HETATM   16  C25 UNL     1      -3.929   5.911  15.634  1.00  0.00     0.016 C 
HETATM   17  C26 UNL     1      -1.569   4.460  12.853  1.00  0.00     0.039 C 
ENDROOT
BRANCH  12  18
HETATM   18  C14 UNL     1      -3.614  10.402  16.355  1.00  0.00    -0.013 C 
HETATM   19  C15 UNL     1      -3.658  11.326  15.133  1.00  0.00     0.010 C 
BRANCH  18  20
HETATM   20  C16 UNL     1      -2.252  10.559  17.090  1.00  0.00     0.008 C 
BRANCH  20  21
HETATM   21  C17 UNL     1      -2.355  10.477  18.618  1.00  0.00     0.028 C 
BRANCH  21  22
HETATM   22  C18 UNL     1      -0.989  10.453  19.251  1.00  0.00    -0.025 C 
HETATM   23  C19 UNL     1      -0.207  11.504  19.567  1.00  0.00    -0.091 C 
HETATM   24  C20 UNL     1      -0.540  12.945  19.296  1.00  0.00     0.042 C 
HETATM   25  C21 UNL     1       1.130  11.293  20.228  1.00  0.00     0.042 C 
ENDBRANCH  21  22
ENDBRANCH  20  21
ENDBRANCH  18  20
ENDBRANCH  12  18
BRANCH   9  26
HETATM   26  O3  UNL     1      -1.354   7.655  16.471  1.00  0.00    -0.395 OA
HETATM   27  H14 UNL     1      -0.401   7.509  16.602  1.00  0.00     0.210 HD
ENDBRANCH   9  26
BRANCH  17  28
HETATM   28  C27 UNL     1      -0.053   4.134  12.698  1.00  0.00     0.011 C 
BRANCH  28  29
HETATM   29  C28 UNL     1       0.840   5.217  12.078  1.00  0.00     0.027 C 
BRANCH  29  30
HETATM   30  C29 UNL     1       1.711   4.737  10.925  1.00  0.00     0.164 C 
BRANCH  30  31
HETATM   31  O4  UNL     1       1.605   5.670   9.857  1.00  0.00    -0.401 OA
HETATM   32  H48 UNL     1       2.064   5.282   9.092  1.00  0.00     0.209 HD
ENDBRANCH  30  31
ENDBRANCH  29  30
ENDBRANCH  28  29
ENDBRANCH  17  28
BRANCH   1  33
HETATM   33  C2  UNL     1      -2.117   2.497  11.164  1.00  0.00     0.160 C 
HETATM   34  C1  UNL     1      -2.918   1.366  11.738  1.00  0.00     0.094 C 
HETATM   35  O1  UNL     1      -1.240   2.342  10.320  1.00  0.00    -0.295 OA
ENDBRANCH   1  33
TORSDOF 10
ENDMDL
MODEL 3
REMARK minimizedAffinity -7.01279926
REMARK CNNscore 0.489608109
REMARK CNNaffinity 6.55671644
REMARK  10 active torsions:
REMARK  status: ('A' for Active; 'I' for Inactive)
REMARK    1  A    between atoms: C2_2  and  C3_4 
REMARK    2  A    between atoms: C10_12  and  O3_13 
REMARK    3  A    between atoms: C13_16  and  C14_17 
REMARK    4  A    between atoms: C14_17  and  C16_19 
REMARK    5  A    between atoms: C16_19  and  C17_20 
REMARK    6  A    between atoms: C17_20  and  C18_21 
REMARK    7  A    between atoms: C26_29  and  C27_30 
REMARK    8  A    between atoms: C27_30  and  C28_31 
REMARK    9  A    between atoms: C28_31  and  C29_32 
REMARK   10  A    between atoms: C29_32  and  O4_33 
ROOT
HETATM    1  C3  UNL     1      -3.223   4.213  12.232  1.00  0.00     0.151 A 
HETATM    2  O2  UNL     1      -2.040   3.945  13.014  1.00  0.00    -0.360 OA
HETATM    3  C4  UNL     1      -1.883   4.829  11.910  1.00  0.00     0.166 A 
HETATM    4  C5  UNL     1      -1.720   6.279  12.175  1.00  0.00     0.041 C 
HETATM    5  C6  UNL     1      -2.256   6.763  13.543  1.00  0.00     0.006 C 
HETATM    6  C7  UNL     1      -3.620   6.075  14.030  1.00  0.00    -0.030 C 
HETATM    7  C8  UNL     1      -3.358   5.201  15.298  1.00  0.00     0.016 C 
HETATM    8  C9  UNL     1      -4.682   7.146  14.466  1.00  0.00     0.042 C 
HETATM    9  C10 UNL     1      -4.213   8.391  15.257  1.00  0.00     0.128 C 
HETATM   10  C11 UNL     1      -2.744   8.820  15.029  1.00  0.00    -0.006 C 
HETATM   11  C12 UNL     1      -1.870   8.231  16.186  1.00  0.00     0.019 C 
HETATM   12  C13 UNL     1      -2.418  10.359  14.955  1.00  0.00     0.001 C 
HETATM   13  C22 UNL     1      -1.087  10.386  14.141  1.00  0.00     0.007 C 
HETATM   14  C23 UNL     1      -0.909   9.004  13.492  1.00  0.00     0.011 C 
HETATM   15  C24 UNL     1      -2.291   8.331  13.603  1.00  0.00    -0.029 C 
HETATM   16  C25 UNL     1      -3.146   8.900  12.420  1.00  0.00     0.016 C 
HETATM   17  C26 UNL     1      -4.249   5.161  12.871  1.00  0.00     0.039 C 
ENDROOT
BRANCH  12  18
HETATM   18  C14 UNL     1      -2.317  11.200  16.269  1.00  0.00    -0.013 C 
HETATM   19  C15 UNL     1      -1.121  12.159  16.257  1.00  0.00     0.010 C 
BRANCH  18  20
HETATM   20  C16 UNL     1      -2.229  10.258  17.504  1.00  0.00     0.008 C 
BRANCH  20  21
HETATM   21  C17 UNL     1      -2.423  10.972  18.848  1.00  0.00     0.028 C 
BRANCH  21  22
HETATM   22  C18 UNL     1      -3.744  11.690  18.893  1.00  0.00    -0.025 C 
HETATM   23  C19 UNL     1      -3.960  13.014  19.022  1.00  0.00    -0.091 C 
HETATM   24  C20 UNL     1      -2.889  14.055  19.196  1.00  0.00     0.042 C 
HETATM   25  C21 UNL     1      -5.362  13.565  19.019  1.00  0.00     0.042 C 
ENDBRANCH  21  22
ENDBRANCH  20  21
ENDBRANCH  18  20
ENDBRANCH  12  18
BRANCH   9  26
HETATM   26  O3  UNL     1      -5.107   9.454  14.914  1.00  0.00    -0.395 OA
HETATM   27  H14 UNL     1      -6.000   9.191  15.196  1.00  0.00     0.210 HD
ENDBRANCH   9  26
BRANCH  17  28
HETATM   28  C27 UNL     1      -5.529   4.394  13.318  1.00  0.00     0.011 C 
BRANCH  28  29
HETATM   29  C28 UNL     1      -6.800   4.600  12.483  1.00  0.00     0.027 C 
BRANCH  29  30
HETATM   30  C29 UNL     1      -8.072   4.053  13.118  1.00  0.00     0.164 C 
BRANCH  30  31
HETATM   31  O4  UNL     1      -8.184   2.673  12.793  1.00  0.00    -0.401 OA
HETATM   32  H48 UNL     1      -9.059   2.378  13.098  1.00  0.00     0.209 HD
ENDBRANCH  30  31
ENDBRANCH  29  30
ENDBRANCH  28  29
ENDBRANCH  17  28
BRANCH   1  33
HETATM   33  C2  UNL     1      -3.629   3.117  11.306  1.00  0.00     0.160 C 
HETATM   34  C1  UNL     1      -4.213   3.528   9.985  1.00  0.00     0.094 C 
HETATM   35  O1  UNL     1      -3.516   1.949  11.658  1.00  0.00    -0.295 OA
ENDBRANCH   1  33
TORSDOF 10
ENDMDL
MODEL 4
REMARK minimizedAffinity -6.03863049
REMARK CNNscore 0.454588115
REMARK CNNaffinity 5.88689423
REMARK  10 active torsions:
REMARK  status: ('A' for Active; 'I' for Inactive)
REMARK    1  A    between atoms: C2_2  and  C3_4 
REMARK    2  A    between atoms: C10_12  and  O3_13 
REMARK    3  A    between atoms: C13_16  and  C14_17 
REMARK    4  A    between atoms: C14_17  and  C16_19 
REMARK    5  A    between atoms: C16_19  and  C17_20 
REMARK    6  A    between atoms: C17_20  and  C18_21 
REMARK    7  A    between atoms: C26_29  and  C27_30 
REMARK    8  A    between atoms: C27_30  and  C28_31 
REMARK    9  A    between atoms: C28_31  and  C29_32 
REMARK   10  A    between atoms: C29_32  and  O4_33 
ROOT
HETATM    1  C3  UNL     1     -16.404  -3.049  16.750  1.00  0.00     0.151 A 
HETATM    2  O2  UNL     1     -15.707  -4.303  16.905  1.00  0.00    -0.360 OA
HETATM    3  C4  UNL     1     -17.020  -4.371  16.360  1.00  0.00     0.166 A 
HETATM    4  C5  UNL     1     -17.178  -4.646  14.911  1.00  0.00     0.041 C 
HETATM    5  C6  UNL     1     -15.945  -4.311  14.039  1.00  0.00     0.006 C 
HETATM    6  C7  UNL     1     -15.149  -2.982  14.453  1.00  0.00    -0.030 C 
HETATM    7  C8  UNL     1     -13.726  -3.350  14.981  1.00  0.00     0.016 C 
HETATM    8  C9  UNL     1     -14.913  -2.044  13.217  1.00  0.00     0.042 C 
HETATM    9  C10 UNL     1     -14.544  -2.676  11.853  1.00  0.00     0.128 C 
HETATM   10  C11 UNL     1     -15.032  -4.127  11.629  1.00  0.00    -0.006 C 
HETATM   11  C12 UNL     1     -13.857  -5.104  11.966  1.00  0.00     0.019 C 
HETATM   12  C13 UNL     1     -15.556  -4.527  10.198  1.00  0.00     0.001 C 
HETATM   13  C22 UNL     1     -16.480  -5.746  10.503  1.00  0.00     0.007 C 
HETATM   14  C23 UNL     1     -16.745  -5.764  12.017  1.00  0.00     0.011 C 
HETATM   15  C24 UNL     1     -16.311  -4.372  12.514  1.00  0.00    -0.029 C 
HETATM   16  C25 UNL     1     -17.508  -3.410  12.205  1.00  0.00     0.016 C 
HETATM   17  C26 UNL     1     -15.944  -2.165  15.583  1.00  0.00     0.039 C 
ENDROOT
BRANCH  12  18
HETATM   18  C14 UNL     1     -14.538  -4.836   9.053  1.00  0.00    -0.013 C 
HETATM   19  C15 UNL     1     -14.486  -3.721   8.002  1.00  0.00     0.010 C 
BRANCH  18  20
HETATM   20  C16 UNL     1     -14.890  -6.189   8.372  1.00  0.00     0.008 C 
BRANCH  20  21
HETATM   21  C17 UNL     1     -13.672  -7.071   8.069  1.00  0.00     0.028 C 
BRANCH  21  22
HETATM   22  C18 UNL     1     -13.295  -6.992   6.615  1.00  0.00    -0.025 C 
HETATM   23  C19 UNL     1     -12.181  -7.466   6.023  1.00  0.00    -0.091 C 
HETATM   24  C20 UNL     1     -11.044  -8.146   6.735  1.00  0.00     0.042 C 
HETATM   25  C21 UNL     1     -11.982  -7.321   4.537  1.00  0.00     0.042 C 
ENDBRANCH  21  22
ENDBRANCH  20  21
ENDBRANCH  18  20
ENDBRANCH  12  18
BRANCH   9  26
HETATM   26  O3  UNL     1     -15.068  -1.807  10.844  1.00  0.00    -0.395 OA
HETATM   27  H14 UNL     1     -14.633  -0.943  10.945  1.00  0.00     0.210 HD
ENDBRANCH   9  26
BRANCH  17  28
HETATM   28  C27 UNL     1     -15.173  -0.909  16.089  1.00  0.00     0.011 C 
BRANCH  28  29
HETATM   29  C28 UNL     1     -15.854   0.455  15.909  1.00  0.00     0.027 C 
BRANCH  29  30
HETATM   30  C29 UNL     1     -15.487   1.181  14.622  1.00  0.00     0.164 C 
BRANCH  30  31
HETATM   31  O4  UNL     1     -14.316   1.953  14.854  1.00  0.00    -0.401 OA
HETATM   32  H48 UNL     1     -14.173   2.503  14.065  1.00  0.00     0.209 HD
ENDBRANCH  30  31
ENDBRANCH  29  30
ENDBRANCH  28  29
ENDBRANCH  17  28
BRANCH   1  33
HETATM   33  C2  UNL     1     -16.950  -2.470  18.012  1.00  0.00     0.160 C 
HETATM   34  C1  UNL     1     -18.310  -1.841  17.936  1.00  0.00     0.094 C 
HETATM   35  O1  UNL     1     -16.272  -2.490  19.034  1.00  0.00    -0.295 OA
ENDBRANCH   1  33
TORSDOF 10
ENDMDL
MODEL 5
REMARK minimizedAffinity -6.12731218
REMARK CNNscore 0.437378824
REMARK CNNaffinity 5.94941711
REMARK  10 active torsions:
REMARK  status: ('A' for Active; 'I' for Inactive)
REMARK    1  A    between atoms: C2_2  and  C3_4 
REMARK    2  A    between atoms: C10_12  and  O3_13 
REMARK    3  A    between atoms: C13_16  and  C14_17 
REMARK    4  A    between atoms: C14_17  and  C16_19 
REMARK    5  A    between atoms: C16_19  and  C17_20 
REMARK    6  A    between atoms: C17_20  and  C18_21 
REMARK    7  A    between atoms: C26_29  and  C27_30 
REMARK    8  A    between atoms: C27_30  and  C28_31 
REMARK    9  A    between atoms: C28_31  and  C29_32 
REMARK   10  A    between atoms: C29_32  and  O4_33 
ROOT
HETATM    1  C3  UNL     1     -16.474  -3.129  16.870  1.00  0.00     0.151 A 
HETATM    2  O2  UNL     1     -15.636  -4.287  17.071  1.00  0.00    -0.360 OA
HETATM    3  C4  UNL     1     -16.924  -4.525  16.516  1.00  0.00     0.166 A 
HETATM    4  C5  UNL     1     -17.029  -4.860  15.075  1.00  0.00     0.041 C 
HETATM    5  C6  UNL     1     -15.832  -4.408  14.205  1.00  0.00     0.006 C 
HETATM    6  C7  UNL     1     -15.205  -2.983  14.585  1.00  0.00    -0.030 C 
HETATM    7  C8  UNL     1     -13.756  -3.164  15.138  1.00  0.00     0.016 C 
HETATM    8  C9  UNL     1     -15.064  -2.061  13.322  1.00  0.00     0.042 C 
HETATM    9  C10 UNL     1     -14.604  -2.685  11.982  1.00  0.00     0.128 C 
HETATM   10  C11 UNL     1     -14.915  -4.190  11.799  1.00  0.00    -0.006 C 
HETATM   11  C12 UNL     1     -13.637  -5.011  12.178  1.00  0.00     0.019 C 
HETATM   12  C13 UNL     1     -15.368  -4.692  10.377  1.00  0.00     0.001 C 
HETATM   13  C22 UNL     1     -16.147  -6.002  10.711  1.00  0.00     0.007 C 
HETATM   14  C23 UNL     1     -16.427  -6.006  12.222  1.00  0.00     0.011 C 
HETATM   15  C24 UNL     1     -16.168  -4.558  12.679  1.00  0.00    -0.029 C 
HETATM   16  C25 UNL     1     -17.465  -3.754  12.328  1.00  0.00     0.016 C 
HETATM   17  C26 UNL     1     -16.105  -2.232  15.680  1.00  0.00     0.039 C 
ENDROOT
BRANCH  12  18
HETATM   18  C14 UNL     1     -14.305  -4.913   9.252  1.00  0.00    -0.013 C 
HETATM   19  C15 UNL     1     -14.074  -3.651   8.413  1.00  0.00     0.010 C 
BRANCH  18  20
HETATM   20  C16 UNL     1     -14.735  -6.090   8.331  1.00  0.00     0.008 C 
BRANCH  20  21
HETATM   21  C17 UNL     1     -15.444  -5.649   7.044  1.00  0.00     0.028 C 
BRANCH  21  22
HETATM   22  C18 UNL     1     -16.896  -6.045   7.064  1.00  0.00    -0.025 C 
HETATM   23  C19 UNL     1     -17.430  -7.240   6.743  1.00  0.00    -0.091 C 
HETATM   24  C20 UNL     1     -16.657  -8.430   6.245  1.00  0.00     0.042 C 
HETATM   25  C21 UNL     1     -18.916  -7.469   6.850  1.00  0.00     0.042 C 
ENDBRANCH  21  22
ENDBRANCH  20  21
ENDBRANCH  18  20
ENDBRANCH  12  18
BRANCH   9  26
HETATM   26  O3  UNL     1     -15.213  -1.916  10.942  1.00  0.00    -0.395 OA
HETATM   27  H14 UNL     1     -14.885  -1.003  11.020  1.00  0.00     0.210 HD
ENDBRANCH   9  26
BRANCH  17  28
HETATM   28  C27 UNL     1     -15.495  -0.879  16.155  1.00  0.00     0.011 C 
BRANCH  28  29
HETATM   29  C28 UNL     1     -16.311   0.393  15.887  1.00  0.00     0.027 C 
BRANCH  29  30
HETATM   30  C29 UNL     1     -15.726   1.309  14.821  1.00  0.00     0.164 C 
BRANCH  30  31
HETATM   31  O4  UNL     1     -14.334   1.463  15.069  1.00  0.00    -0.401 OA
HETATM   32  H48 UNL     1     -14.008   2.147  14.459  1.00  0.00     0.209 HD
ENDBRANCH  30  31
ENDBRANCH  29  30
ENDBRANCH  28  29
ENDBRANCH  17  28
BRANCH   1  33
HETATM   33  C2  UNL     1     -17.101  -2.581  18.108  1.00  0.00     0.160 C 
HETATM   34  C1  UNL     1     -18.535  -2.148  18.006  1.00  0.00     0.094 C 
HETATM   35  O1  UNL     1     -16.433  -2.466  19.130  1.00  0.00    -0.295 OA
ENDBRANCH   1  33
TORSDOF 10
ENDMDL
MODEL 6
REMARK minimizedAffinity -7.72926331
REMARK CNNscore 0.38557744
REMARK CNNaffinity 6.75931931
REMARK  10 active torsions:
REMARK  status: ('A' for Active; 'I' for Inactive)
REMARK    1  A    between atoms: C2_2  and  C3_4 
REMARK    2  A    between atoms: C10_12  and  O3_13 
REMARK    3  A    between atoms: C13_16  and  C14_17 
REMARK    4  A    between atoms: C14_17  and  C16_19 
REMARK    5  A    between atoms: C16_19  and  C17_20 
REMARK    6  A    between atoms: C17_20  and  C18_21 
REMARK    7  A    between atoms: C26_29  and  C27_30 
REMARK    8  A    between atoms: C27_30  and  C28_31 
REMARK    9  A    between atoms: C28_31  and  C29_32 
REMARK   10  A    between atoms: C29_32  and  O4_33 
ROOT
HETATM    1  C3  UNL     1       0.513   7.096  11.879  1.00  0.00     0.151 A 
HETATM    2  O2  UNL     1      -0.342   7.346  10.743  1.00  0.00    -0.360 OA
HETATM    3  C4  UNL     1      -0.374   6.030  11.283  1.00  0.00     0.166 A 
HETATM    4  C5  UNL     1      -1.558   5.612  12.072  1.00  0.00     0.041 C 
HETATM    5  C6  UNL     1      -2.386   6.768  12.681  1.00  0.00     0.006 C 
HETATM    6  C7  UNL     1      -1.533   8.007  13.235  1.00  0.00    -0.030 C 
HETATM    7  C8  UNL     1      -1.808   9.278  12.371  1.00  0.00     0.016 C 
HETATM    8  C9  UNL     1      -1.957   8.390  14.697  1.00  0.00     0.042 C 
HETATM    9  C10 UNL     1      -3.456   8.355  15.080  1.00  0.00     0.128 C 
HETATM   10  C11 UNL     1      -4.338   7.385  14.257  1.00  0.00    -0.006 C 
HETATM   11  C12 UNL     1      -5.042   8.197  13.119  1.00  0.00     0.019 C 
HETATM   12  C13 UNL     1      -5.470   6.585  15.007  1.00  0.00     0.001 C 
HETATM   13  C22 UNL     1      -5.686   5.351  14.078  1.00  0.00     0.007 C 
HETATM   14  C23 UNL     1      -4.498   5.285  13.105  1.00  0.00     0.011 C 
HETATM   15  C24 UNL     1      -3.433   6.218  13.712  1.00  0.00    -0.029 C 
HETATM   16  C25 UNL     1      -2.712   5.384  14.825  1.00  0.00     0.016 C 
HETATM   17  C26 UNL     1       0.037   7.678  13.218  1.00  0.00     0.039 C 
ENDROOT
BRANCH  12  18
HETATM   18  C14 UNL     1      -6.818   7.291  15.366  1.00  0.00    -0.013 C 
HETATM   19  C15 UNL     1      -7.248   7.023  16.812  1.00  0.00     0.010 C 
BRANCH  18  20
HETATM   20  C16 UNL     1      -7.938   6.839  14.387  1.00  0.00     0.008 C 
BRANCH  20  21
HETATM   21  C17 UNL     1      -9.338   6.807  15.013  1.00  0.00     0.028 C 
BRANCH  21  22
HETATM   22  C18 UNL     1     -10.084   8.085  14.737  1.00  0.00    -0.025 C 
HETATM   23  C19 UNL     1     -11.141   8.264  13.922  1.00  0.00    -0.091 C 
HETATM   24  C20 UNL     1     -11.769   7.197  13.068  1.00  0.00     0.042 C 
HETATM   25  C21 UNL     1     -11.784   9.620  13.788  1.00  0.00     0.042 C 
ENDBRANCH  21  22
ENDBRANCH  20  21
ENDBRANCH  18  20
ENDBRANCH  12  18
BRANCH   9  26
HETATM   26  O3  UNL     1      -3.517   8.032  16.471  1.00  0.00    -0.395 OA
HETATM   27  H14 UNL     1      -3.061   8.740  16.959  1.00  0.00     0.210 HD
ENDBRANCH   9  26
BRANCH  17  28
HETATM   28  C27 UNL     1       0.923   8.881  13.661  1.00  0.00     0.011 C 
BRANCH  28  29
HETATM   29  C28 UNL     1       1.536   8.822  15.067  1.00  0.00     0.027 C 
BRANCH  29  30
HETATM   30  C29 UNL     1       2.099   7.462  15.457  1.00  0.00     0.164 C 
BRANCH  30  31
HETATM   31  O4  UNL     1       1.457   7.030  16.650  1.00  0.00    -0.401 OA
HETATM   32  H48 UNL     1       1.918   6.227  16.948  1.00  0.00     0.209 HD
ENDBRANCH  30  31
ENDBRANCH  29  30
ENDBRANCH  28  29
ENDBRANCH  17  28
BRANCH   1  33
HETATM   33  C2  UNL     1       1.960   6.936  11.557  1.00  0.00     0.160 C 
HETATM   34  C1  UNL     1       2.427   7.489  10.242  1.00  0.00     0.094 C 
HETATM   35  O1  UNL     1       2.694   6.337  12.335  1.00  0.00    -0.295 OA
ENDBRANCH   1  33
TORSDOF 10
ENDMDL
MODEL 7
REMARK minimizedAffinity -6.14926434
REMARK CNNscore 0.358631641
REMARK CNNaffinity 6.20699835
REMARK  10 active torsions:
REMARK  status: ('A' for Active; 'I' for Inactive)
REMARK    1  A    between atoms: C2_2  and  C3_4 
REMARK    2  A    between atoms: C10_12  and  O3_13 
REMARK    3  A    between atoms: C13_16  and  C14_17 
REMARK    4  A    between atoms: C14_17  and  C16_19 
REMARK    5  A    between atoms: C16_19  and  C17_20 
REMARK    6  A    between atoms: C17_20  and  C18_21 
REMARK    7  A    between atoms: C26_29  and  C27_30 
REMARK    8  A    between atoms: C27_30  and  C28_31 
REMARK    9  A    between atoms: C28_31  and  C29_32 
REMARK   10  A    between atoms: C29_32  and  O4_33 
ROOT
HETATM    1  C3  UNL     1       0.805   8.713  15.212  1.00  0.00     0.151 A 
HETATM    2  O2  UNL     1       0.800   8.140  16.536  1.00  0.00    -0.360 OA
HETATM    3  C4  UNL     1       1.360   9.442  16.411  1.00  0.00     0.166 A 
HETATM    4  C5  UNL     1       0.590  10.603  16.919  1.00  0.00     0.041 C 
HETATM    5  C6  UNL     1      -0.935  10.376  17.045  1.00  0.00     0.006 C 
HETATM    6  C7  UNL     1      -1.601   9.506  15.875  1.00  0.00    -0.030 C 
HETATM    7  C8  UNL     1      -2.120   8.147  16.444  1.00  0.00     0.016 C 
HETATM    8  C9  UNL     1      -2.862  10.220  15.271  1.00  0.00     0.042 C 
HETATM    9  C10 UNL     1      -3.833  10.962  16.222  1.00  0.00     0.128 C 
HETATM   10  C11 UNL     1      -3.216  11.484  17.541  1.00  0.00    -0.006 C 
HETATM   11  C12 UNL     1      -3.511  10.444  18.674  1.00  0.00     0.019 C 
HETATM   12  C13 UNL     1      -3.687  12.887  18.083  1.00  0.00     0.001 C 
HETATM   13  C22 UNL     1      -2.488  13.324  18.980  1.00  0.00     0.007 C 
HETATM   14  C23 UNL     1      -1.297  12.413  18.645  1.00  0.00     0.011 C 
HETATM   15  C24 UNL     1      -1.678  11.732  17.317  1.00  0.00    -0.029 C 
HETATM   16  C25 UNL     1      -1.346  12.767  16.189  1.00  0.00     0.016 C 
HETATM   17  C26 UNL     1      -0.548   9.225  14.697  1.00  0.00     0.039 C 
ENDROOT
BRANCH  12  18
HETATM   18  C14 UNL     1      -5.055  13.016  18.829  1.00  0.00    -0.013 C 
HETATM   19  C15 UNL     1      -5.943  14.114  18.232  1.00  0.00     0.010 C 
BRANCH  18  20
HETATM   20  C16 UNL     1      -4.818  13.290  20.341  1.00  0.00     0.008 C 
BRANCH  20  21
HETATM   21  C17 UNL     1      -5.861  14.216  20.979  1.00  0.00     0.028 C 
BRANCH  21  22
HETATM   22  C18 UNL     1      -6.847  13.434  21.804  1.00  0.00    -0.025 C 
HETATM   23  C19 UNL     1      -7.383  13.775  22.992  1.00  0.00    -0.091 C 
HETATM   24  C20 UNL     1      -7.053  15.022  23.767  1.00  0.00     0.042 C 
HETATM   25  C21 UNL     1      -8.384  12.875  23.668  1.00  0.00     0.042 C 
ENDBRANCH  21  22
ENDBRANCH  20  21
ENDBRANCH  18  20
ENDBRANCH  12  18
BRANCH   9  26
HETATM   26  O3  UNL     1      -4.399  12.038  15.470  1.00  0.00    -0.395 OA
HETATM   27  H14 UNL     1      -4.888  11.651  14.723  1.00  0.00     0.210 HD
ENDBRANCH   9  26
BRANCH  17  28
HETATM   28  C27 UNL     1      -1.113   8.306  13.573  1.00  0.00     0.011 C 
BRANCH  28  29
HETATM   29  C28 UNL     1      -1.253   8.915  12.171  1.00  0.00     0.027 C 
BRANCH  29  30
HETATM   30  C29 UNL     1      -0.116   8.577  11.216  1.00  0.00     0.164 C 
BRANCH  30  31
HETATM   31  O4  UNL     1      -0.261   7.226  10.798  1.00  0.00    -0.401 OA
HETATM   32  H48 UNL     1       0.538   6.994  10.295  1.00  0.00     0.209 HD
ENDBRANCH  30  31
ENDBRANCH  29  30
ENDBRANCH  28  29
ENDBRANCH  17  28
BRANCH   1  33
HETATM   33  C2  UNL     1       1.845   8.169  14.292  1.00  0.00     0.160 C 
HETATM   34  C1  UNL     1       2.622   9.166  13.482  1.00  0.00     0.094 C 
HETATM   35  O1  UNL     1       2.002   6.957  14.199  1.00  0.00    -0.295 OA
ENDBRANCH   1  33
TORSDOF 10
ENDMDL
MODEL 8
REMARK minimizedAffinity -7.14351559
REMARK CNNscore 0.344357193
REMARK CNNaffinity 6.30569792
REMARK  10 active torsions:
REMARK  status: ('A' for Active; 'I' for Inactive)
REMARK    1  A    between atoms: C2_2  and  C3_4 
REMARK    2  A    between atoms: C10_12  and  O3_13 
REMARK    3  A    between atoms: C13_16  and  C14_17 
REMARK    4  A    between atoms: C14_17  and  C16_19 
REMARK    5  A    between atoms: C16_19  and  C17_20 
REMARK    6  A    between atoms: C17_20  and  C18_21 
REMARK    7  A    between atoms: C26_29  and  C27_30 
REMARK    8  A    between atoms: C27_30  and  C28_31 
REMARK    9  A    between atoms: C28_31  and  C29_32 
REMARK   10  A    between atoms: C29_32  and  O4_33 
ROOT
HETATM    1  C3  UNL     1       1.986   7.391  10.620  1.00  0.00     0.151 A 
HETATM    2  O2  UNL     1       1.633   8.742  10.258  1.00  0.00    -0.360 OA
HETATM    3  C4  UNL     1       0.562   7.889  10.645  1.00  0.00     0.166 A 
HETATM    4  C5  UNL     1      -0.066   8.088  11.974  1.00  0.00     0.041 C 
HETATM    5  C6  UNL     1       0.814   8.822  13.013  1.00  0.00     0.006 C 
HETATM    6  C7  UNL     1       2.372   8.446  12.985  1.00  0.00    -0.030 C 
HETATM    7  C8  UNL     1       3.214   9.680  12.529  1.00  0.00     0.016 C 
HETATM    8  C9  UNL     1       2.902   8.077  14.415  1.00  0.00     0.042 C 
HETATM    9  C10 UNL     1       2.409   8.894  15.634  1.00  0.00     0.128 C 
HETATM   10  C11 UNL     1       1.020   9.559  15.481  1.00  0.00    -0.006 C 
HETATM   11  C12 UNL     1       1.228  11.050  15.051  1.00  0.00     0.019 C 
HETATM   12  C13 UNL     1       0.059   9.580  16.730  1.00  0.00     0.001 C 
HETATM   13  C22 UNL     1      -1.348   9.725  16.073  1.00  0.00     0.007 C 
HETATM   14  C23 UNL     1      -1.198   9.418  14.574  1.00  0.00     0.011 C 
HETATM   15  C24 UNL     1       0.174   8.731  14.444  1.00  0.00    -0.029 C 
HETATM   16  C25 UNL     1      -0.052   7.233  14.842  1.00  0.00     0.016 C 
HETATM   17  C26 UNL     1       2.648   7.214  11.994  1.00  0.00     0.039 C 
ENDROOT
BRANCH  12  18
HETATM   18  C14 UNL     1       0.284  10.625  17.871  1.00  0.00    -0.013 C 
HETATM   19  C15 UNL     1       0.014  12.061  17.407  1.00  0.00     0.010 C 
BRANCH  18  20
HETATM   20  C16 UNL     1       1.732  10.510  18.426  1.00  0.00     0.008 C 
BRANCH  20  21
HETATM   21  C17 UNL     1       1.913  11.113  19.825  1.00  0.00     0.028 C 
BRANCH  21  22
HETATM   22  C18 UNL     1       1.756  10.062  20.891  1.00  0.00    -0.025 C 
HETATM   23  C19 UNL     1       2.702   9.582  21.722  1.00  0.00    -0.091 C 
HETATM   24  C20 UNL     1       4.151   9.984  21.712  1.00  0.00     0.042 C 
HETATM   25  C21 UNL     1       2.356   8.542  22.756  1.00  0.00     0.042 C 
ENDBRANCH  21  22
ENDBRANCH  20  21
ENDBRANCH  18  20
ENDBRANCH  12  18
BRANCH   9  26
HETATM   26  O3  UNL     1       2.421   8.006  16.755  1.00  0.00    -0.395 OA
HETATM   27  H14 UNL     1       3.339   7.716  16.892  1.00  0.00     0.210 HD
ENDBRANCH   9  26
BRANCH  17  28
HETATM   28  C27 UNL     1       4.160   6.863  11.856  1.00  0.00     0.011 C 
BRANCH  28  29
HETATM   29  C28 UNL     1       4.990   7.700  10.873  1.00  0.00     0.027 C 
BRANCH  29  30
HETATM   30  C29 UNL     1       6.467   7.335  10.821  1.00  0.00     0.164 C 
BRANCH  30  31
HETATM   31  O4  UNL     1       7.124   7.939  11.927  1.00  0.00    -0.401 OA
HETATM   32  H48 UNL     1       8.079   7.801  11.805  1.00  0.00     0.209 HD
ENDBRANCH  30  31
ENDBRANCH  29  30
ENDBRANCH  28  29
ENDBRANCH  17  28
BRANCH   1  33
HETATM   33  C2  UNL     1       2.298   6.491   9.472  1.00  0.00     0.160 C 
HETATM   34  C1  UNL     1       2.594   7.150   8.156  1.00  0.00     0.094 C 
HETATM   35  O1  UNL     1       2.263   5.275   9.624  1.00  0.00    -0.295 OA
ENDBRANCH   1  33
TORSDOF 10
ENDMDL
MODEL 9
REMARK minimizedAffinity -7.66912889
REMARK CNNscore 0.344312221
REMARK CNNaffinity 6.63969421
REMARK  10 active torsions:
REMARK  status: ('A' for Active; 'I' for Inactive)
REMARK    1  A    between atoms: C2_2  and  C3_4 
REMARK    2  A    between atoms: C10_12  and  O3_13 
REMARK    3  A    between atoms: C13_16  and  C14_17 
REMARK    4  A    between atoms: C14_17  and  C16_19 
REMARK    5  A    between atoms: C16_19  and  C17_20 
REMARK    6  A    between atoms: C17_20  and  C18_21 
REMARK    7  A    between atoms: C26_29  and  C27_30 
REMARK    8  A    between atoms: C27_30  and  C28_31 
REMARK    9  A    between atoms: C28_31  and  C29_32 
REMARK   10  A    between atoms: C29_32  and  O4_33 
ROOT
HETATM    1  C3  UNL     1      -2.090   4.469  11.982  1.00  0.00     0.151 A 
HETATM    2  O2  UNL     1      -0.927   4.503  12.837  1.00  0.00    -0.360 OA
HETATM    3  C4  UNL     1      -1.013   5.517  11.844  1.00  0.00     0.166 A 
HETATM    4  C5  UNL     1      -1.351   6.899  12.262  1.00  0.00     0.041 C 
HETATM    5  C6  UNL     1      -2.088   7.015  13.617  1.00  0.00     0.006 C 
HETATM    6  C7  UNL     1      -3.173   5.871  13.910  1.00  0.00    -0.030 C 
HETATM    7  C8  UNL     1      -2.706   4.981  15.105  1.00  0.00     0.016 C 
HETATM    8  C9  UNL     1      -4.550   6.482  14.351  1.00  0.00     0.042 C 
HETATM    9  C10 UNL     1      -4.560   7.706  15.298  1.00  0.00     0.128 C 
HETATM   10  C11 UNL     1      -3.305   8.609  15.246  1.00  0.00    -0.006 C 
HETATM   11  C12 UNL     1      -2.347   8.196  16.414  1.00  0.00     0.019 C 
HETATM   12  C13 UNL     1      -3.500  10.169  15.353  1.00  0.00     0.001 C 
HETATM   13  C22 UNL     1      -2.211  10.720  14.669  1.00  0.00     0.007 C 
HETATM   14  C23 UNL     1      -1.554   9.558  13.906  1.00  0.00     0.011 C 
HETATM   15  C24 UNL     1      -2.640   8.469  13.826  1.00  0.00    -0.029 C 
HETATM   16  C25 UNL     1      -3.571   8.873  12.633  1.00  0.00     0.016 C 
HETATM   17  C26 UNL     1      -3.402   4.952  12.615  1.00  0.00     0.039 C 
ENDROOT
BRANCH  12  18
HETATM   18  C14 UNL     1      -3.752  10.830  16.747  1.00  0.00    -0.013 C 
HETATM   19  C15 UNL     1      -3.771  12.361  16.670  1.00  0.00     0.010 C 
BRANCH  18  20
HETATM   20  C16 UNL     1      -2.673  10.364  17.765  1.00  0.00     0.008 C 
BRANCH  20  21
HETATM   21  C17 UNL     1      -1.824  11.505  18.341  1.00  0.00     0.028 C 
BRANCH  21  22
HETATM   22  C18 UNL     1      -0.663  10.968  19.133  1.00  0.00    -0.025 C 
HETATM   23  C19 UNL     1       0.263  11.668  19.818  1.00  0.00    -0.091 C 
HETATM   24  C20 UNL     1       0.342  13.168  19.885  1.00  0.00     0.042 C 
HETATM   25  C21 UNL     1       1.349  10.957  20.583  1.00  0.00     0.042 C 
ENDBRANCH  21  22
ENDBRANCH  20  21
ENDBRANCH  18  20
ENDBRANCH  12  18
BRANCH   9  26
HETATM   26  O3  UNL     1      -5.734   8.459  14.982  1.00  0.00    -0.395 OA
HETATM   27  H14 UNL     1      -6.505   7.891  15.156  1.00  0.00     0.210 HD
ENDBRANCH   9  26
BRANCH  17  28
HETATM   28  C27 UNL     1      -4.381   3.766  12.869  1.00  0.00     0.011 C 
BRANCH  28  29
HETATM   29  C28 UNL     1      -5.641   3.695  11.996  1.00  0.00     0.027 C 
BRANCH  29  30
HETATM   30  C29 UNL     1      -6.040   2.288  11.570  1.00  0.00     0.164 C 
BRANCH  30  31
HETATM   31  O4  UNL     1      -4.915   1.660  10.969  1.00  0.00    -0.401 OA
HETATM   32  H48 UNL     1      -5.223   0.818  10.593  1.00  0.00     0.209 HD
ENDBRANCH  30  31
ENDBRANCH  29  30
ENDBRANCH  28  29
ENDBRANCH  17  28
BRANCH   1  33
HETATM   33  C2  UNL     1      -2.062   3.422  10.920  1.00  0.00     0.160 C 
HETATM   34  C1  UNL     1      -1.202   2.219  11.177  1.00  0.00     0.094 C 
HETATM   35  O1  UNL     1      -2.693   3.591   9.882  1.00  0.00    -0.295 OA
ENDBRANCH   1  33
TORSDOF 10
ENDMDL
