MODEL 1
REMARK minimizedAffinity -8.81626701
REMARK CNNscore 0.751937628
REMARK CNNaffinity 7.61731195
REMARK  10 active torsions:
REMARK  status: ('A' for Active; 'I' for Inactive)
REMARK    1  A    between atoms: C19_21  and  O3_22 
REMARK    2  A    between atoms: C19_21  and  C20_23 
REMARK    3  A    between atoms: C20_23  and  C21_25 
REMARK    4  A    between atoms: C21_25  and  O5_26 
REMARK    5  A    between atoms: O5_26  and  C22_27 
REMARK    6  A    between atoms: C22_27  and  C23_29 
REMARK    7  A    between atoms: C23_29  and  C24_30 
REMARK    8  A    between atoms: C24_30  and  C25_31 
REMARK       I    between atoms: C25_31  and  N1_33 
REMARK    9  A    between atoms: N1_33  and  C26_34 
REMARK   10  A    between atoms: C26_34  and  C27_35 
ROOT
HETATM    1  C1  UNL     1       3.319   7.988  10.271  1.00  0.00     0.021 C 
HETATM    2  C2  UNL     1       2.078   7.079  10.047  1.00  0.00    -0.009 C 
HETATM    3  C3  UNL     1       2.513   5.892   9.141  1.00  0.00     0.022 C 
HETATM    4  C4  UNL     1       2.941   6.319   7.739  1.00  0.00     0.084 C 
HETATM    5  C5  UNL     1       1.906   7.216   7.099  1.00  0.00     0.149 C 
HETATM    6  O1  UNL     1       1.849   7.376   5.878  1.00  0.00    -0.293 OA
HETATM    7  C6  UNL     1       0.954   7.947   7.971  1.00  0.00     0.053 C 
HETATM    8  C7  UNL     1       1.021   7.891   9.316  1.00  0.00    -0.067 C 
HETATM    9  C8  UNL     1      -0.018   8.611  10.134  1.00  0.00     0.035 C 
HETATM   10  C9  UNL     1       0.350   8.888  11.595  1.00  0.00     0.010 C 
HETATM   11  C10 UNL     1       1.124   7.781  12.351  1.00  0.00     0.003 C 
HETATM   12  C11 UNL     1       1.551   6.594  11.442  1.00  0.00     0.072 C 
HETATM   13  C12 UNL     1       0.457   5.514  11.405  1.00  0.00     0.133 C 
HETATM   14  O2  UNL     1       0.646   4.414  10.883  1.00  0.00    -0.297 OA
HETATM   15  C13 UNL     1      -0.859   5.797  12.094  1.00  0.00     0.091 C 
HETATM   16  C14 UNL     1      -0.627   6.211  13.555  1.00  0.00     0.005 C 
HETATM   17  C15 UNL     1      -0.187   4.955  14.348  1.00  0.00     0.019 C 
HETATM   18  C16 UNL     1       0.521   7.269  13.687  1.00  0.00     0.002 C 
HETATM   19  C17 UNL     1       0.024   8.348  14.670  1.00  0.00     0.009 C 
HETATM   20  C18 UNL     1      -1.243   7.771  15.306  1.00  0.00     0.047 C 
HETATM   21  C19 UNL     1      -1.855   6.931  14.186  1.00  0.00     0.128 C 
ENDROOT
BRANCH  21  22
HETATM   22  O3  UNL     1      -2.337   7.906  13.216  1.00  0.00    -0.381 OA
HETATM   23  H25 UNL     1      -3.257   7.645  12.985  1.00  0.00     0.211 HD
ENDBRANCH  21  22
BRANCH  21  24
HETATM   24  C20 UNL     1      -3.111   6.104  14.551  1.00  0.00     0.185 C 
HETATM   25  O4  UNL     1      -3.463   6.076  15.742  1.00  0.00    -0.292 OA
BRANCH  24  26
HETATM   26  C21 UNL     1      -3.955   5.393  13.505  1.00  0.00     0.260 C 
BRANCH  26  27
HETATM   27  O5  UNL     1      -3.757   3.989  13.438  1.00  0.00    -0.314 OA
BRANCH  27  28
HETATM   28  C22 UNL     1      -3.835   3.490  12.173  1.00  0.00     0.259 C 
HETATM   29  O6  UNL     1      -2.930   2.887  11.611  1.00  0.00    -0.265 OA
BRANCH  28  30
HETATM   30  C23 UNL     1      -5.209   3.666  11.572  1.00  0.00     0.120 C 
BRANCH  30  31
HETATM   31  C24 UNL     1      -6.257   2.675  12.063  1.00  0.00     0.112 C 
BRANCH  31  32
HETATM   32  C25 UNL     1      -7.377   3.359  12.820  1.00  0.00     0.218 C 
HETATM   33  O7  UNL     1      -7.987   2.824  13.739  1.00  0.00    -0.274 OA
HETATM   34  N1  UNL     1      -7.659   4.616  12.343  1.00  0.00    -0.356 N 
HETATM   35  H32 UNL     1      -7.090   5.014  11.609  1.00  0.00     0.162 HD
BRANCH  34  36
HETATM   36  C26 UNL     1      -8.623   5.482  12.986  1.00  0.00     0.168 C 
BRANCH  36  37
HETATM   37  C27 UNL     1      -7.917   6.233  14.070  1.00  0.00     0.000 A 
HETATM   38  C28 UNL     1      -6.860   7.118  13.957  1.00  0.00     0.017 A 
HETATM   39  C29 UNL     1      -6.449   7.636  15.220  1.00  0.00     0.008 A 
HETATM   40  C30 UNL     1      -7.210   7.138  16.253  1.00  0.00     0.050 A 
HETATM   41  S1  UNL     1      -8.403   6.044  15.705  1.00  0.00    -0.105 SA
ENDBRANCH  36  37
ENDBRANCH  34  36
ENDBRANCH  31  32
ENDBRANCH  30  31
ENDBRANCH  28  30
ENDBRANCH  27  28
ENDBRANCH  26  27
ENDBRANCH  24  26
ENDBRANCH  21  24
TORSDOF 10
ENDMDL
MODEL 2
REMARK minimizedAffinity -8.08387947
REMARK CNNscore 0.612442076
REMARK CNNaffinity 6.15474558
REMARK  10 active torsions:
REMARK  status: ('A' for Active; 'I' for Inactive)
REMARK    1  A    between atoms: C19_21  and  O3_22 
REMARK    2  A    between atoms: C19_21  and  C20_23 
REMARK    3  A    between atoms: C20_23  and  C21_25 
REMARK    4  A    between atoms: C21_25  and  O5_26 
REMARK    5  A    between atoms: O5_26  and  C22_27 
REMARK    6  A    between atoms: C22_27  and  C23_29 
REMARK    7  A    between atoms: C23_29  and  C24_30 
REMARK    8  A    between atoms: C24_30  and  C25_31 
REMARK       I    between atoms: C25_31  and  N1_33 
REMARK    9  A    between atoms: N1_33  and  C26_34 
REMARK   10  A    between atoms: C26_34  and  C27_35 
ROOT
HETATM    1  C1  UNL     1       2.859  12.656  22.057  1.00  0.00     0.021 C 
HETATM    2  C2  UNL     1       3.803  11.647  21.344  1.00  0.00    -0.009 C 
HETATM    3  C3  UNL     1       2.965  10.878  20.283  1.00  0.00     0.022 C 
HETATM    4  C4  UNL     1       1.859  10.016  20.888  1.00  0.00     0.084 C 
HETATM    5  C5  UNL     1       2.393   9.130  21.990  1.00  0.00     0.149 C 
HETATM    6  O1  UNL     1       1.796   8.116  22.357  1.00  0.00    -0.293 OA
HETATM    7  C6  UNL     1       3.656   9.514  22.668  1.00  0.00     0.053 C 
HETATM    8  C7  UNL     1       4.308  10.658  22.382  1.00  0.00    -0.067 C 
HETATM    9  C8  UNL     1       5.616  10.949  23.068  1.00  0.00     0.035 C 
HETATM   10  C9  UNL     1       6.072  12.411  23.054  1.00  0.00     0.010 C 
HETATM   11  C10 UNL     1       5.822  13.217  21.756  1.00  0.00     0.003 C 
HETATM   12  C11 UNL     1       4.990  12.440  20.696  1.00  0.00     0.072 C 
HETATM   13  C12 UNL     1       5.909  11.628  19.769  1.00  0.00     0.133 C 
HETATM   14  O2  UNL     1       5.483  11.068  18.757  1.00  0.00    -0.297 OA
HETATM   15  C13 UNL     1       7.388  11.581  20.080  1.00  0.00     0.091 C 
HETATM   16  C14 UNL     1       7.958  13.001  20.215  1.00  0.00     0.005 C 
HETATM   17  C15 UNL     1       8.013  13.635  18.802  1.00  0.00     0.019 C 
HETATM   18  C16 UNL     1       7.044  13.915  21.100  1.00  0.00     0.002 C 
HETATM   19  C17 UNL     1       7.975  14.696  22.049  1.00  0.00     0.009 C 
HETATM   20  C18 UNL     1       9.392  14.457  21.521  1.00  0.00     0.047 C 
HETATM   21  C19 UNL     1       9.328  13.039  20.955  1.00  0.00     0.128 C 
ENDROOT
BRANCH  21  22
HETATM   22  O3  UNL     1       9.218  12.179  22.126  1.00  0.00    -0.381 OA
HETATM   23  H25 UNL     1       9.880  11.460  22.013  1.00  0.00     0.211 HD
ENDBRANCH  21  22
BRANCH  21  24
HETATM   24  C20 UNL     1      10.595  12.529  20.226  1.00  0.00     0.185 C 
HETATM   25  O4  UNL     1      10.999  11.385  20.494  1.00  0.00    -0.292 OA
BRANCH  24  26
HETATM   26  C21 UNL     1      11.308  13.343  19.158  1.00  0.00     0.260 C 
BRANCH  26  27
HETATM   27  O5  UNL     1      12.578  13.843  19.544  1.00  0.00    -0.314 OA
BRANCH  27  28
HETATM   28  C22 UNL     1      13.614  13.037  19.177  1.00  0.00     0.259 C 
HETATM   29  O6  UNL     1      14.258  12.344  19.952  1.00  0.00    -0.265 OA
BRANCH  28  30
HETATM   30  C23 UNL     1      13.811  13.006  17.680  1.00  0.00     0.120 C 
BRANCH  30  31
HETATM   31  C24 UNL     1      13.723  11.623  17.048  1.00  0.00     0.112 C 
BRANCH  31  32
HETATM   32  C25 UNL     1      13.088  11.664  15.674  1.00  0.00     0.218 C 
HETATM   33  O7  UNL     1      12.727  12.704  15.136  1.00  0.00    -0.274 OA
HETATM   34  N1  UNL     1      12.925  10.418  15.118  1.00  0.00    -0.356 N 
HETATM   35  H32 UNL     1      13.282   9.604  15.598  1.00  0.00     0.162 HD
BRANCH  34  36
HETATM   36  C26 UNL     1      12.432  10.237  13.770  1.00  0.00     0.168 C 
BRANCH  36  37
HETATM   37  C27 UNL     1      11.101   9.557  13.854  1.00  0.00     0.000 A 
HETATM   38  C28 UNL     1      10.830   8.205  13.951  1.00  0.00     0.017 A 
HETATM   39  C29 UNL     1       9.432   7.934  14.005  1.00  0.00     0.008 A 
HETATM   40  C30 UNL     1       8.682   9.088  13.958  1.00  0.00     0.050 A 
HETATM   41  S1  UNL     1       9.659  10.486  13.836  1.00  0.00    -0.105 SA
ENDBRANCH  36  37
ENDBRANCH  34  36
ENDBRANCH  31  32
ENDBRANCH  30  31
ENDBRANCH  28  30
ENDBRANCH  27  28
ENDBRANCH  26  27
ENDBRANCH  24  26
ENDBRANCH  21  24
TORSDOF 10
ENDMDL
MODEL 3
REMARK minimizedAffinity -8.7446661
REMARK CNNscore 0.58638829
REMARK CNNaffinity 7.2045517
REMARK  10 active torsions:
REMARK  status: ('A' for Active; 'I' for Inactive)
REMARK    1  A    between atoms: C19_21  and  O3_22 
REMARK    2  A    between atoms: C19_21  and  C20_23 
REMARK    3  A    between atoms: C20_23  and  C21_25 
REMARK    4  A    between atoms: C21_25  and  O5_26 
REMARK    5  A    between atoms: O5_26  and  C22_27 
REMARK    6  A    between atoms: C22_27  and  C23_29 
REMARK    7  A    between atoms: C23_29  and  C24_30 
REMARK    8  A    between atoms: C24_30  and  C25_31 
REMARK       I    between atoms: C25_31  and  N1_33 
REMARK    9  A    between atoms: N1_33  and  C26_34 
REMARK   10  A    between atoms: C26_34  and  C27_35 
ROOT
HETATM    1  C1  UNL     1       3.611   7.280  10.890  1.00  0.00     0.021 C 
HETATM    2  C2  UNL     1       2.239   6.595  10.637  1.00  0.00    -0.009 C 
HETATM    3  C3  UNL     1       2.509   5.234   9.934  1.00  0.00     0.022 C 
HETATM    4  C4  UNL     1       3.135   5.376   8.548  1.00  0.00     0.084 C 
HETATM    5  C5  UNL     1       2.360   6.351   7.692  1.00  0.00     0.149 C 
HETATM    6  O1  UNL     1       2.445   6.348   6.463  1.00  0.00    -0.293 OA
HETATM    7  C6  UNL     1       1.498   7.360   8.358  1.00  0.00     0.053 C 
HETATM    8  C7  UNL     1       1.434   7.479   9.699  1.00  0.00    -0.067 C 
HETATM    9  C8  UNL     1       0.490   8.486  10.302  1.00  0.00     0.035 C 
HETATM   10  C9  UNL     1       0.775   8.890  11.752  1.00  0.00     0.010 C 
HETATM   11  C10 UNL     1       1.244   7.774  12.717  1.00  0.00     0.003 C 
HETATM   12  C11 UNL     1       1.505   6.414  12.010  1.00  0.00     0.072 C 
HETATM   13  C12 UNL     1       0.226   5.561  11.977  1.00  0.00     0.133 C 
HETATM   14  O2  UNL     1       0.238   4.383  11.615  1.00  0.00    -0.297 OA
HETATM   15  C13 UNL     1      -1.063   6.176  12.474  1.00  0.00     0.091 C 
HETATM   16  C14 UNL     1      -0.885   6.738  13.892  1.00  0.00     0.005 C 
HETATM   17  C15 UNL     1      -0.774   5.544  14.874  1.00  0.00     0.019 C 
HETATM   18  C16 UNL     1       0.434   7.573  14.027  1.00  0.00     0.002 C 
HETATM   19  C17 UNL     1       0.077   8.851  14.812  1.00  0.00     0.009 C 
HETATM   20  C18 UNL     1      -1.331   8.612  15.364  1.00  0.00     0.047 C 
HETATM   21  C19 UNL     1      -1.996   7.754  14.289  1.00  0.00     0.128 C 
ENDROOT
BRANCH  21  22
HETATM   22  O3  UNL     1      -2.187   8.656  13.161  1.00  0.00    -0.381 OA
HETATM   23  H25 UNL     1      -3.116   8.541  12.860  1.00  0.00     0.211 HD
ENDBRANCH  21  22
BRANCH  21  24
HETATM   24  C20 UNL     1      -3.419   7.232  14.604  1.00  0.00     0.185 C 
HETATM   25  O4  UNL     1      -3.672   6.043  14.350  1.00  0.00    -0.292 OA
BRANCH  24  26
HETATM   26  C21 UNL     1      -4.478   8.096  15.270  1.00  0.00     0.260 C 
BRANCH  26  27
HETATM   27  O5  UNL     1      -5.491   8.570  14.396  1.00  0.00    -0.314 OA
BRANCH  27  28
HETATM   28  C22 UNL     1      -6.753   8.279  14.820  1.00  0.00     0.259 C 
HETATM   29  O6  UNL     1      -7.560   9.113  15.207  1.00  0.00    -0.265 OA
BRANCH  28  30
HETATM   30  C23 UNL     1      -7.089   6.816  14.656  1.00  0.00     0.120 C 
BRANCH  30  31
HETATM   31  C24 UNL     1      -8.479   6.534  14.098  1.00  0.00     0.112 C 
BRANCH  31  32
HETATM   32  C25 UNL     1      -8.465   5.422  13.070  1.00  0.00     0.218 C 
HETATM   33  O7  UNL     1      -8.794   5.589  11.901  1.00  0.00    -0.274 OA
HETATM   34  N1  UNL     1      -8.086   4.210  13.594  1.00  0.00    -0.356 N 
HETATM   35  H32 UNL     1      -7.788   4.150  14.557  1.00  0.00     0.162 HD
BRANCH  34  36
HETATM   36  C26 UNL     1      -7.908   3.038  12.764  1.00  0.00     0.168 C 
BRANCH  36  37
HETATM   37  C27 UNL     1      -6.462   2.954  12.390  1.00  0.00     0.000 A 
HETATM   38  C28 UNL     1      -5.431   3.806  12.741  1.00  0.00     0.017 A 
HETATM   39  C29 UNL     1      -4.181   3.402  12.187  1.00  0.00     0.008 A 
HETATM   40  C30 UNL     1      -4.296   2.251  11.440  1.00  0.00     0.050 A 
HETATM   41  S1  UNL     1      -5.904   1.671  11.397  1.00  0.00    -0.105 SA
ENDBRANCH  36  37
ENDBRANCH  34  36
ENDBRANCH  31  32
ENDBRANCH  30  31
ENDBRANCH  28  30
ENDBRANCH  27  28
ENDBRANCH  26  27
ENDBRANCH  24  26
ENDBRANCH  21  24
TORSDOF 10
ENDMDL
MODEL 4
REMARK minimizedAffinity -6.82219505
REMARK CNNscore 0.515941441
REMARK CNNaffinity 7.35827208
REMARK  10 active torsions:
REMARK  status: ('A' for Active; 'I' for Inactive)
REMARK    1  A    between atoms: C19_21  and  O3_22 
REMARK    2  A    between atoms: C19_21  and  C20_23 
REMARK    3  A    between atoms: C20_23  and  C21_25 
REMARK    4  A    between atoms: C21_25  and  O5_26 
REMARK    5  A    between atoms: O5_26  and  C22_27 
REMARK    6  A    between atoms: C22_27  and  C23_29 
REMARK    7  A    between atoms: C23_29  and  C24_30 
REMARK    8  A    between atoms: C24_30  and  C25_31 
REMARK       I    between atoms: C25_31  and  N1_33 
REMARK    9  A    between atoms: N1_33  and  C26_34 
REMARK   10  A    between atoms: C26_34  and  C27_35 
ROOT
HETATM    1  C1  UNL     1      -4.174   3.322   9.445  1.00  0.00     0.021 C 
HETATM    2  C2  UNL     1      -3.756   3.530  10.929  1.00  0.00    -0.009 C 
HETATM    3  C3  UNL     1      -2.236   3.861  10.954  1.00  0.00     0.022 C 
HETATM    4  C4  UNL     1      -1.354   2.718  10.457  1.00  0.00     0.084 C 
HETATM    5  C5  UNL     1      -1.697   1.419  11.149  1.00  0.00     0.149 C 
HETATM    6  O1  UNL     1      -0.906   0.475  11.192  1.00  0.00    -0.293 OA
HETATM    7  C6  UNL     1      -3.039   1.268  11.765  1.00  0.00     0.053 C 
HETATM    8  C7  UNL     1      -3.985   2.224  11.672  1.00  0.00    -0.067 C 
HETATM    9  C8  UNL     1      -5.302   2.025  12.376  1.00  0.00     0.035 C 
HETATM   10  C9  UNL     1      -6.465   2.892  11.884  1.00  0.00     0.010 C 
HETATM   11  C10 UNL     1      -6.142   4.358  11.504  1.00  0.00     0.003 C 
HETATM   12  C11 UNL     1      -4.622   4.686  11.539  1.00  0.00     0.072 C 
HETATM   13  C12 UNL     1      -4.199   5.172  12.934  1.00  0.00     0.133 C 
HETATM   14  O2  UNL     1      -3.081   5.643  13.149  1.00  0.00    -0.297 OA
HETATM   15  C13 UNL     1      -5.219   5.132  14.051  1.00  0.00     0.091 C 
HETATM   16  C14 UNL     1      -6.501   5.872  13.641  1.00  0.00     0.005 C 
HETATM   17  C15 UNL     1      -6.197   7.391  13.624  1.00  0.00     0.019 C 
HETATM   18  C16 UNL     1      -6.967   5.476  12.198  1.00  0.00     0.002 C 
HETATM   19  C17 UNL     1      -8.492   5.259  12.263  1.00  0.00     0.009 C 
HETATM   20  C18 UNL     1      -8.924   5.801  13.628  1.00  0.00     0.047 C 
HETATM   21  C19 UNL     1      -7.726   5.504  14.528  1.00  0.00     0.128 C 
ENDROOT
BRANCH  21  22
HETATM   22  O3  UNL     1      -7.734   4.055  14.685  1.00  0.00    -0.381 OA
HETATM   23  H25 UNL     1      -7.633   3.874  15.647  1.00  0.00     0.211 HD
ENDBRANCH  21  22
BRANCH  21  24
HETATM   24  C20 UNL     1      -7.800   6.044  15.976  1.00  0.00     0.185 C 
HETATM   25  O4  UNL     1      -6.866   5.768  16.748  1.00  0.00    -0.292 OA
BRANCH  24  26
HETATM   26  C21 UNL     1      -8.925   6.947  16.457  1.00  0.00     0.260 C 
BRANCH  26  27
HETATM   27  O5  UNL     1      -8.784   8.312  16.097  1.00  0.00    -0.314 OA
BRANCH  27  28
HETATM   28  C22 UNL     1      -9.926   8.864  15.600  1.00  0.00     0.259 C 
HETATM   29  O6  UNL     1     -10.203   8.922  14.409  1.00  0.00    -0.265 OA
BRANCH  28  30
HETATM   30  C23 UNL     1     -10.874   9.299  16.692  1.00  0.00     0.120 C 
BRANCH  30  31
HETATM   31  C24 UNL     1     -10.602  10.685  17.264  1.00  0.00     0.112 C 
BRANCH  31  32
HETATM   32  C25 UNL     1     -11.275  10.888  18.606  1.00  0.00     0.218 C 
HETATM   33  O7  UNL     1     -12.402  10.478  18.857  1.00  0.00    -0.274 OA
HETATM   34  N1  UNL     1     -10.509  11.611  19.488  1.00  0.00    -0.356 N 
HETATM   35  H32 UNL     1      -9.571  11.884  19.231  1.00  0.00     0.162 HD
BRANCH  34  36
HETATM   36  C26 UNL     1     -10.919  11.833  20.858  1.00  0.00     0.168 C 
BRANCH  36  37
HETATM   37  C27 UNL     1      -9.742  12.371  21.609  1.00  0.00     0.000 A 
HETATM   38  C28 UNL     1      -9.437  12.227  22.950  1.00  0.00     0.017 A 
HETATM   39  C29 UNL     1      -8.226  12.890  23.306  1.00  0.00     0.008 A 
HETATM   40  C30 UNL     1      -7.642  13.510  22.224  1.00  0.00     0.050 A 
HETATM   41  S1  UNL     1      -8.555  13.303  20.793  1.00  0.00    -0.105 SA
ENDBRANCH  36  37
ENDBRANCH  34  36
ENDBRANCH  31  32
ENDBRANCH  30  31
ENDBRANCH  28  30
ENDBRANCH  27  28
ENDBRANCH  26  27
ENDBRANCH  24  26
ENDBRANCH  21  24
TORSDOF 10
ENDMDL
MODEL 5
REMARK minimizedAffinity -9.05744076
REMARK CNNscore 0.509640574
REMARK CNNaffinity 7.1524024
REMARK  10 active torsions:
REMARK  status: ('A' for Active; 'I' for Inactive)
REMARK    1  A    between atoms: C19_21  and  O3_22 
REMARK    2  A    between atoms: C19_21  and  C20_23 
REMARK    3  A    between atoms: C20_23  and  C21_25 
REMARK    4  A    between atoms: C21_25  and  O5_26 
REMARK    5  A    between atoms: O5_26  and  C22_27 
REMARK    6  A    between atoms: C22_27  and  C23_29 
REMARK    7  A    between atoms: C23_29  and  C24_30 
REMARK    8  A    between atoms: C24_30  and  C25_31 
REMARK       I    between atoms: C25_31  and  N1_33 
REMARK    9  A    between atoms: N1_33  and  C26_34 
REMARK   10  A    between atoms: C26_34  and  C27_35 
ROOT
HETATM    1  C1  UNL     1       2.962   7.925  10.766  1.00  0.00     0.021 C 
HETATM    2  C2  UNL     1       1.733   7.039  10.415  1.00  0.00    -0.009 C 
HETATM    3  C3  UNL     1       2.240   5.834   9.572  1.00  0.00     0.022 C 
HETATM    4  C4  UNL     1       2.829   6.237   8.222  1.00  0.00     0.084 C 
HETATM    5  C5  UNL     1       1.889   7.148   7.464  1.00  0.00     0.149 C 
HETATM    6  O1  UNL     1       1.971   7.296   6.244  1.00  0.00    -0.293 OA
HETATM    7  C6  UNL     1       0.863   7.907   8.221  1.00  0.00     0.053 C 
HETATM    8  C7  UNL     1       0.781   7.865   9.565  1.00  0.00    -0.067 C 
HETATM    9  C8  UNL     1      -0.326   8.614  10.258  1.00  0.00     0.035 C 
HETATM   10  C9  UNL     1      -0.115   8.899  11.748  1.00  0.00     0.010 C 
HETATM   11  C10 UNL     1       0.548   7.785  12.594  1.00  0.00     0.003 C 
HETATM   12  C11 UNL     1       1.046   6.579  11.747  1.00  0.00     0.072 C 
HETATM   13  C12 UNL     1      -0.059   5.521  11.599  1.00  0.00     0.133 C 
HETATM   14  O2  UNL     1       0.162   4.413  11.110  1.00  0.00    -0.297 OA
HETATM   15  C13 UNL     1      -1.437   5.838  12.137  1.00  0.00     0.091 C 
HETATM   16  C14 UNL     1      -1.358   6.263  13.611  1.00  0.00     0.005 C 
HETATM   17  C15 UNL     1      -1.034   5.006  14.458  1.00  0.00     0.019 C 
HETATM   18  C16 UNL     1      -0.210   7.299  13.859  1.00  0.00     0.002 C 
HETATM   19  C17 UNL     1      -0.788   8.399  14.773  1.00  0.00     0.009 C 
HETATM   20  C18 UNL     1      -2.129   7.854  15.271  1.00  0.00     0.047 C 
HETATM   21  C19 UNL     1      -2.632   7.015  14.097  1.00  0.00     0.128 C 
ENDROOT
BRANCH  21  22
HETATM   22  O3  UNL     1      -2.984   7.988  13.072  1.00  0.00    -0.381 OA
HETATM   23  H25 UNL     1      -3.878   7.744  12.743  1.00  0.00     0.211 HD
ENDBRANCH  21  22
BRANCH  21  24
HETATM   24  C20 UNL     1      -3.938   6.217  14.328  1.00  0.00     0.185 C 
HETATM   25  O4  UNL     1      -4.429   6.224  15.470  1.00  0.00    -0.292 OA
BRANCH  24  26
HETATM   26  C21 UNL     1      -4.666   5.494  13.206  1.00  0.00     0.260 C 
BRANCH  26  27
HETATM   27  O5  UNL     1      -5.309   4.291  13.595  1.00  0.00    -0.314 OA
BRANCH  27  28
HETATM   28  C22 UNL     1      -6.381   3.972  12.817  1.00  0.00     0.259 C 
HETATM   29  O6  UNL     1      -6.307   3.381  11.748  1.00  0.00    -0.265 OA
BRANCH  28  30
HETATM   30  C23 UNL     1      -7.692   4.330  13.475  1.00  0.00     0.120 C 
BRANCH  30  31
HETATM   31  C24 UNL     1      -7.596   4.676  14.955  1.00  0.00     0.112 C 
BRANCH  31  32
HETATM   32  C25 UNL     1      -8.169   6.045  15.259  1.00  0.00     0.218 C 
HETATM   33  O7  UNL     1      -7.649   6.827  16.047  1.00  0.00    -0.274 OA
HETATM   34  N1  UNL     1      -9.344   6.296  14.593  1.00  0.00    -0.356 N 
HETATM   35  H32 UNL     1      -9.696   5.624  13.927  1.00  0.00     0.162 HD
BRANCH  34  36
HETATM   36  C26 UNL     1     -10.005   7.582  14.661  1.00  0.00     0.168 C 
BRANCH  36  37
HETATM   37  C27 UNL     1     -11.390   7.417  14.120  1.00  0.00     0.000 A 
HETATM   38  C28 UNL     1     -12.298   6.406  14.372  1.00  0.00     0.017 A 
HETATM   39  C29 UNL     1     -13.523   6.588  13.666  1.00  0.00     0.008 A 
HETATM   40  C30 UNL     1     -13.514   7.737  12.907  1.00  0.00     0.050 A 
HETATM   41  S1  UNL     1     -12.032   8.581  13.035  1.00  0.00    -0.105 SA
ENDBRANCH  36  37
ENDBRANCH  34  36
ENDBRANCH  31  32
ENDBRANCH  30  31
ENDBRANCH  28  30
ENDBRANCH  27  28
ENDBRANCH  26  27
ENDBRANCH  24  26
ENDBRANCH  21  24
TORSDOF 10
ENDMDL
MODEL 6
REMARK minimizedAffinity -7.53394604
REMARK CNNscore 0.463482499
REMARK CNNaffinity 7.13015032
REMARK  10 active torsions:
REMARK  status: ('A' for Active; 'I' for Inactive)
REMARK    1  A    between atoms: C19_21  and  O3_22 
REMARK    2  A    between atoms: C19_21  and  C20_23 
REMARK    3  A    between atoms: C20_23  and  C21_25 
REMARK    4  A    between atoms: C21_25  and  O5_26 
REMARK    5  A    between atoms: O5_26  and  C22_27 
REMARK    6  A    between atoms: C22_27  and  C23_29 
REMARK    7  A    between atoms: C23_29  and  C24_30 
REMARK    8  A    between atoms: C24_30  and  C25_31 
REMARK       I    between atoms: C25_31  and  N1_33 
REMARK    9  A    between atoms: N1_33  and  C26_34 
REMARK   10  A    between atoms: C26_34  and  C27_35 
ROOT
HETATM    1  C1  UNL     1      -1.670   6.264  15.081  1.00  0.00     0.021 C 
HETATM    2  C2  UNL     1      -2.577   6.290  13.818  1.00  0.00    -0.009 C 
HETATM    3  C3  UNL     1      -1.865   5.474  12.702  1.00  0.00     0.022 C 
HETATM    4  C4  UNL     1      -0.544   6.089  12.245  1.00  0.00     0.084 C 
HETATM    5  C5  UNL     1      -0.708   7.553  11.907  1.00  0.00     0.149 C 
HETATM    6  O1  UNL     1       0.094   8.149  11.186  1.00  0.00    -0.293 OA
HETATM    7  C6  UNL     1      -1.852   8.298  12.490  1.00  0.00     0.053 C 
HETATM    8  C7  UNL     1      -2.711   7.733  13.361  1.00  0.00    -0.067 C 
HETATM    9  C8  UNL     1      -3.883   8.535  13.862  1.00  0.00     0.035 C 
HETATM   10  C9  UNL     1      -4.544   8.028  15.148  1.00  0.00     0.010 C 
HETATM   11  C10 UNL     1      -4.683   6.495  15.313  1.00  0.00     0.003 C 
HETATM   12  C11 UNL     1      -3.975   5.684  14.191  1.00  0.00     0.072 C 
HETATM   13  C12 UNL     1      -4.931   5.434  13.012  1.00  0.00     0.133 C 
HETATM   14  O2  UNL     1      -4.638   4.675  12.087  1.00  0.00    -0.297 OA
HETATM   15  C13 UNL     1      -6.293   6.090  13.038  1.00  0.00     0.091 C 
HETATM   16  C14 UNL     1      -7.029   5.759  14.345  1.00  0.00     0.005 C 
HETATM   17  C15 UNL     1      -7.460   4.272  14.293  1.00  0.00     0.019 C 
HETATM   18  C16 UNL     1      -6.101   5.931  15.596  1.00  0.00     0.002 C 
HETATM   19  C17 UNL     1      -6.929   6.667  16.670  1.00  0.00     0.009 C 
HETATM   20  C18 UNL     1      -8.371   6.651  16.157  1.00  0.00     0.047 C 
HETATM   21  C19 UNL     1      -8.212   6.728  14.639  1.00  0.00     0.128 C 
ENDROOT
BRANCH  21  22
HETATM   22  O3  UNL     1      -7.742   8.083  14.385  1.00  0.00    -0.381 OA
HETATM   23  H25 UNL     1      -8.299   8.445  13.660  1.00  0.00     0.211 HD
ENDBRANCH  21  22
BRANCH  21  24
HETATM   24  C20 UNL     1      -9.509   6.612  13.803  1.00  0.00     0.185 C 
HETATM   25  O4  UNL     1      -9.429   6.101  12.673  1.00  0.00    -0.292 OA
BRANCH  24  26
HETATM   26  C21 UNL     1     -10.869   7.031  14.339  1.00  0.00     0.260 C 
BRANCH  26  27
HETATM   27  O5  UNL     1     -10.865   8.237  15.087  1.00  0.00    -0.314 OA
BRANCH  27  28
HETATM   28  C22 UNL     1     -11.054   9.349  14.323  1.00  0.00     0.259 C 
HETATM   29  O6  UNL     1     -11.922   9.460  13.467  1.00  0.00    -0.265 OA
BRANCH  28  30
HETATM   30  C23 UNL     1     -10.140  10.481  14.724  1.00  0.00     0.120 C 
BRANCH  30  31
HETATM   31  C24 UNL     1     -10.118  10.792  16.216  1.00  0.00     0.112 C 
BRANCH  31  32
HETATM   32  C25 UNL     1      -9.671  12.213  16.494  1.00  0.00     0.218 C 
HETATM   33  O7  UNL     1      -9.883  12.783  17.558  1.00  0.00    -0.274 OA
HETATM   34  N1  UNL     1      -9.043  12.800  15.422  1.00  0.00    -0.356 N 
HETATM   35  H32 UNL     1      -8.864  12.259  14.588  1.00  0.00     0.162 HD
BRANCH  34  36
HETATM   36  C26 UNL     1      -8.448  14.116  15.507  1.00  0.00     0.168 C 
BRANCH  36  37
HETATM   37  C27 UNL     1      -9.167  15.009  14.547  1.00  0.00     0.000 A 
HETATM   38  C28 UNL     1      -8.760  16.227  14.033  1.00  0.00     0.017 A 
HETATM   39  C29 UNL     1      -9.721  16.789  13.143  1.00  0.00     0.008 A 
HETATM   40  C30 UNL     1     -10.825  15.978  12.998  1.00  0.00     0.050 A 
HETATM   41  S1  UNL     1     -10.707  14.556  13.940  1.00  0.00    -0.105 SA
ENDBRANCH  36  37
ENDBRANCH  34  36
ENDBRANCH  31  32
ENDBRANCH  30  31
ENDBRANCH  28  30
ENDBRANCH  27  28
ENDBRANCH  26  27
ENDBRANCH  24  26
ENDBRANCH  21  24
TORSDOF 10
ENDMDL
MODEL 7
REMARK minimizedAffinity -7.25589657
REMARK CNNscore 0.426988244
REMARK CNNaffinity 5.86805391
REMARK  10 active torsions:
REMARK  status: ('A' for Active; 'I' for Inactive)
REMARK    1  A    between atoms: C19_21  and  O3_22 
REMARK    2  A    between atoms: C19_21  and  C20_23 
REMARK    3  A    between atoms: C20_23  and  C21_25 
REMARK    4  A    between atoms: C21_25  and  O5_26 
REMARK    5  A    between atoms: O5_26  and  C22_27 
REMARK    6  A    between atoms: C22_27  and  C23_29 
REMARK    7  A    between atoms: C23_29  and  C24_30 
REMARK    8  A    between atoms: C24_30  and  C25_31 
REMARK       I    between atoms: C25_31  and  N1_33 
REMARK    9  A    between atoms: N1_33  and  C26_34 
REMARK   10  A    between atoms: C26_34  and  C27_35 
ROOT
HETATM    1  C1  UNL     1       5.574  14.165  22.929  1.00  0.00     0.021 C 
HETATM    2  C2  UNL     1       5.635  12.852  22.097  1.00  0.00    -0.009 C 
HETATM    3  C3  UNL     1       6.373  11.781  22.949  1.00  0.00     0.022 C 
HETATM    4  C4  UNL     1       7.833  12.129  23.236  1.00  0.00     0.084 C 
HETATM    5  C5  UNL     1       8.568  12.499  21.968  1.00  0.00     0.149 C 
HETATM    6  O1  UNL     1       9.797  12.455  21.892  1.00  0.00    -0.293 OA
HETATM    7  C6  UNL     1       7.785  12.961  20.795  1.00  0.00     0.053 C 
HETATM    8  C7  UNL     1       6.448  13.125  20.842  1.00  0.00    -0.067 C 
HETATM    9  C8  UNL     1       5.714  13.537  19.593  1.00  0.00     0.035 C 
HETATM   10  C9  UNL     1       4.317  14.131  19.798  1.00  0.00     0.010 C 
HETATM   11  C10 UNL     1       3.432  13.490  20.894  1.00  0.00     0.003 C 
HETATM   12  C11 UNL     1       4.173  12.415  21.738  1.00  0.00     0.072 C 
HETATM   13  C12 UNL     1       4.029  11.024  21.100  1.00  0.00     0.133 C 
HETATM   14  O2  UNL     1       4.393  10.000  21.681  1.00  0.00    -0.297 OA
HETATM   15  C13 UNL     1       3.354  10.916  19.751  1.00  0.00     0.091 C 
HETATM   16  C14 UNL     1       1.972  11.588  19.781  1.00  0.00     0.005 C 
HETATM   17  C15 UNL     1       1.021  10.696  20.616  1.00  0.00     0.019 C 
HETATM   18  C16 UNL     1       2.022  12.992  20.475  1.00  0.00     0.002 C 
HETATM   19  C17 UNL     1       1.189  13.953  19.601  1.00  0.00     0.009 C 
HETATM   20  C18 UNL     1       0.447  13.060  18.604  1.00  0.00     0.047 C 
HETATM   21  C19 UNL     1       1.421  11.908  18.361  1.00  0.00     0.128 C 
ENDROOT
BRANCH  21  22
HETATM   22  O3  UNL     1       2.507  12.500  17.591  1.00  0.00    -0.381 OA
HETATM   23  H25 UNL     1       2.675  11.900  16.830  1.00  0.00     0.211 HD
ENDBRANCH  21  22
BRANCH  21  24
HETATM   24  C20 UNL     1       0.910  10.750  17.470  1.00  0.00     0.185 C 
HETATM   25  O4  UNL     1       1.552   9.686  17.475  1.00  0.00    -0.292 OA
BRANCH  24  26
HETATM   26  C21 UNL     1      -0.371  10.846  16.656  1.00  0.00     0.260 C 
BRANCH  26  27
HETATM   27  O5  UNL     1      -0.175  11.018  15.261  1.00  0.00    -0.314 OA
BRANCH  27  28
HETATM   28  C22 UNL     1      -1.327  10.943  14.538  1.00  0.00     0.259 C 
HETATM   29  O6  UNL     1      -1.860  11.897  13.988  1.00  0.00    -0.265 OA
BRANCH  28  30
HETATM   30  C23 UNL     1      -1.821   9.523  14.394  1.00  0.00     0.120 C 
BRANCH  30  31
HETATM   31  C24 UNL     1      -2.197   9.114  12.975  1.00  0.00     0.112 C 
BRANCH  31  32
HETATM   32  C25 UNL     1      -1.600   7.776  12.592  1.00  0.00     0.218 C 
HETATM   33  O7  UNL     1      -2.161   6.708  12.806  1.00  0.00    -0.274 OA
HETATM   34  N1  UNL     1      -0.355   7.886  12.021  1.00  0.00    -0.356 N 
HETATM   35  H32 UNL     1       0.033   8.799  11.835  1.00  0.00     0.162 HD
BRANCH  34  36
HETATM   36  C26 UNL     1       0.349   6.739  11.489  1.00  0.00     0.168 C 
BRANCH  36  37
HETATM   37  C27 UNL     1       0.879   7.109  10.140  1.00  0.00     0.000 A 
HETATM   38  C28 UNL     1       0.438   8.101   9.284  1.00  0.00     0.017 A 
HETATM   39  C29 UNL     1       1.194   8.151   8.076  1.00  0.00     0.008 A 
HETATM   40  C30 UNL     1       2.192   7.203   8.053  1.00  0.00     0.050 A 
HETATM   41  S1  UNL     1       2.209   6.252   9.474  1.00  0.00    -0.105 SA
ENDBRANCH  36  37
ENDBRANCH  34  36
ENDBRANCH  31  32
ENDBRANCH  30  31
ENDBRANCH  28  30
ENDBRANCH  27  28
ENDBRANCH  26  27
ENDBRANCH  24  26
ENDBRANCH  21  24
TORSDOF 10
ENDMDL
MODEL 8
REMARK minimizedAffinity -8.17650318
REMARK CNNscore 0.395371586
REMARK CNNaffinity 6.82210016
REMARK  10 active torsions:
REMARK  status: ('A' for Active; 'I' for Inactive)
REMARK    1  A    between atoms: C19_21  and  O3_22 
REMARK    2  A    between atoms: C19_21  and  C20_23 
REMARK    3  A    between atoms: C20_23  and  C21_25 
REMARK    4  A    between atoms: C21_25  and  O5_26 
REMARK    5  A    between atoms: O5_26  and  C22_27 
REMARK    6  A    between atoms: C22_27  and  C23_29 
REMARK    7  A    between atoms: C23_29  and  C24_30 
REMARK    8  A    between atoms: C24_30  and  C25_31 
REMARK       I    between atoms: C25_31  and  N1_33 
REMARK    9  A    between atoms: N1_33  and  C26_34 
REMARK   10  A    between atoms: C26_34  and  C27_35 
ROOT
HETATM    1  C1  UNL     1      -1.723   6.578  15.150  1.00  0.00     0.021 C 
HETATM    2  C2  UNL     1      -2.618   6.501  13.880  1.00  0.00    -0.009 C 
HETATM    3  C3  UNL     1      -1.866   5.648  12.819  1.00  0.00     0.022 C 
HETATM    4  C4  UNL     1      -0.562   6.281  12.339  1.00  0.00     0.084 C 
HETATM    5  C5  UNL     1      -0.772   7.717  11.917  1.00  0.00     0.149 C 
HETATM    6  O1  UNL     1       0.017   8.299  11.170  1.00  0.00    -0.293 OA
HETATM    7  C6  UNL     1      -1.947   8.455  12.446  1.00  0.00     0.053 C 
HETATM    8  C7  UNL     1      -2.795   7.910  13.340  1.00  0.00    -0.067 C 
HETATM    9  C8  UNL     1      -4.000   8.698  13.784  1.00  0.00     0.035 C 
HETATM   10  C9  UNL     1      -4.657   8.242  15.090  1.00  0.00     0.010 C 
HETATM   11  C10 UNL     1      -4.745   6.717  15.342  1.00  0.00     0.003 C 
HETATM   12  C11 UNL     1      -3.998   5.869  14.274  1.00  0.00     0.072 C 
HETATM   13  C12 UNL     1      -4.931   5.519  13.104  1.00  0.00     0.133 C 
HETATM   14  O2  UNL     1      -4.603   4.719  12.226  1.00  0.00    -0.297 OA
HETATM   15  C13 UNL     1      -6.316   6.127  13.080  1.00  0.00     0.091 C 
HETATM   16  C14 UNL     1      -7.054   5.846  14.397  1.00  0.00     0.005 C 
HETATM   17  C15 UNL     1      -7.433   4.344  14.426  1.00  0.00     0.019 C 
HETATM   18  C16 UNL     1      -6.147   6.121  15.644  1.00  0.00     0.002 C 
HETATM   19  C17 UNL     1      -7.010   6.887  16.666  1.00  0.00     0.009 C 
HETATM   20  C18 UNL     1      -8.445   6.792  16.143  1.00  0.00     0.047 C 
HETATM   21  C19 UNL     1      -8.273   6.788  14.624  1.00  0.00     0.128 C 
ENDROOT
BRANCH  21  22
HETATM   22  O3  UNL     1      -7.847   8.142  14.297  1.00  0.00    -0.381 OA
HETATM   23  H25 UNL     1      -8.408   8.443  13.547  1.00  0.00     0.211 HD
ENDBRANCH  21  22
BRANCH  21  24
HETATM   24  C20 UNL     1      -9.556   6.579  13.785  1.00  0.00     0.185 C 
HETATM   25  O4  UNL     1      -9.434   6.096  12.646  1.00  0.00    -0.292 OA
BRANCH  24  26
HETATM   26  C21 UNL     1     -10.946   6.876  14.326  1.00  0.00     0.260 C 
BRANCH  26  27
HETATM   27  O5  UNL     1     -11.322   8.243  14.274  1.00  0.00    -0.314 OA
BRANCH  27  28
HETATM   28  C22 UNL     1     -12.593   8.439  13.823  1.00  0.00     0.259 C 
HETATM   29  O6  UNL     1     -13.267   9.431  14.068  1.00  0.00    -0.265 OA
BRANCH  28  30
HETATM   30  C23 UNL     1     -13.044   7.342  12.890  1.00  0.00     0.120 C 
BRANCH  30  31
HETATM   31  C24 UNL     1     -14.536   7.033  12.934  1.00  0.00     0.112 C 
BRANCH  31  32
HETATM   32  C25 UNL     1     -14.912   6.217  14.153  1.00  0.00     0.218 C 
HETATM   33  O7  UNL     1     -14.247   6.209  15.182  1.00  0.00    -0.274 OA
HETATM   34  N1  UNL     1     -16.047   5.464  13.967  1.00  0.00    -0.356 N 
HETATM   35  H32 UNL     1     -16.570   5.550  13.108  1.00  0.00     0.162 HD
BRANCH  34  36
HETATM   36  C26 UNL     1     -16.638   4.691  15.038  1.00  0.00     0.168 C 
BRANCH  36  37
HETATM   37  C27 UNL     1     -16.370   3.245  14.764  1.00  0.00     0.000 A 
HETATM   38  C28 UNL     1     -15.157   2.582  14.748  1.00  0.00     0.017 A 
HETATM   39  C29 UNL     1     -15.299   1.197  14.441  1.00  0.00     0.008 A 
HETATM   40  C30 UNL     1     -16.616   0.846  14.243  1.00  0.00     0.050 A 
HETATM   41  S1  UNL     1     -17.671   2.181  14.413  1.00  0.00    -0.105 SA
ENDBRANCH  36  37
ENDBRANCH  34  36
ENDBRANCH  31  32
ENDBRANCH  30  31
ENDBRANCH  28  30
ENDBRANCH  27  28
ENDBRANCH  26  27
ENDBRANCH  24  26
ENDBRANCH  21  24
TORSDOF 10
ENDMDL
MODEL 9
REMARK minimizedAffinity -7.88517332
REMARK CNNscore 0.352022648
REMARK CNNaffinity 6.59823751
REMARK  10 active torsions:
REMARK  status: ('A' for Active; 'I' for Inactive)
REMARK    1  A    between atoms: C19_21  and  O3_22 
REMARK    2  A    between atoms: C19_21  and  C20_23 
REMARK    3  A    between atoms: C20_23  and  C21_25 
REMARK    4  A    between atoms: C21_25  and  O5_26 
REMARK    5  A    between atoms: O5_26  and  C22_27 
REMARK    6  A    between atoms: C22_27  and  C23_29 
REMARK    7  A    between atoms: C23_29  and  C24_30 
REMARK    8  A    between atoms: C24_30  and  C25_31 
REMARK       I    between atoms: C25_31  and  N1_33 
REMARK    9  A    between atoms: N1_33  and  C26_34 
REMARK   10  A    between atoms: C26_34  and  C27_35 
ROOT
HETATM    1  C1  UNL     1      -8.059   5.306  15.951  1.00  0.00     0.021 C 
HETATM    2  C2  UNL     1      -7.769   6.609  15.152  1.00  0.00    -0.009 C 
HETATM    3  C3  UNL     1      -8.849   7.658  15.542  1.00  0.00     0.022 C 
HETATM    4  C4  UNL     1     -10.265   7.256  15.132  1.00  0.00     0.084 C 
HETATM    5  C5  UNL     1     -10.321   6.848  13.678  1.00  0.00     0.149 C 
HETATM    6  O1  UNL     1     -11.377   6.844  13.043  1.00  0.00    -0.293 OA
HETATM    7  C6  UNL     1      -9.071   6.406  13.010  1.00  0.00     0.053 C 
HETATM    8  C7  UNL     1      -7.902   6.295  13.671  1.00  0.00    -0.067 C 
HETATM    9  C8  UNL     1      -6.663   5.900  12.911  1.00  0.00     0.035 C 
HETATM   10  C9  UNL     1      -5.502   5.362  13.752  1.00  0.00     0.010 C 
HETATM   11  C10 UNL     1      -5.241   6.046  15.116  1.00  0.00     0.003 C 
HETATM   12  C11 UNL     1      -6.320   7.099  15.497  1.00  0.00     0.072 C 
HETATM   13  C12 UNL     1      -5.940   8.489  14.962  1.00  0.00     0.133 C 
HETATM   14  O2  UNL     1      -6.562   9.503  15.283  1.00  0.00    -0.297 OA
HETATM   15  C13 UNL     1      -4.722   8.611  14.073  1.00  0.00     0.091 C 
HETATM   16  C14 UNL     1      -3.491   7.993  14.753  1.00  0.00     0.005 C 
HETATM   17  C15 UNL     1      -3.059   8.928  15.910  1.00  0.00     0.019 C 
HETATM   18  C16 UNL     1      -3.812   6.594  15.381  1.00  0.00     0.002 C 
HETATM   19  C17 UNL     1      -2.642   5.659  15.014  1.00  0.00     0.009 C 
HETATM   20  C18 UNL     1      -1.551   6.571  14.449  1.00  0.00     0.047 C 
HETATM   21  C19 UNL     1      -2.337   7.683  13.755  1.00  0.00     0.128 C 
ENDROOT
BRANCH  21  22
HETATM   22  O3  UNL     1      -2.927   7.043  12.587  1.00  0.00    -0.381 OA
HETATM   23  H25 UNL     1      -2.744   7.630  11.819  1.00  0.00     0.211 HD
ENDBRANCH  21  22
BRANCH  21  24
HETATM   24  C20 UNL     1      -1.508   8.852  13.171  1.00  0.00     0.185 C 
HETATM   25  O4  UNL     1      -1.849   9.312  12.068  1.00  0.00    -0.292 OA
BRANCH  24  26
HETATM   26  C21 UNL     1      -0.352   9.493  13.923  1.00  0.00     0.260 C 
BRANCH  26  27
HETATM   27  O5  UNL     1       0.873   9.526  13.209  1.00  0.00    -0.314 OA
BRANCH  27  28
HETATM   28  C22 UNL     1       1.884   8.859  13.834  1.00  0.00     0.259 C 
HETATM   29  O6  UNL     1       2.324   9.150  14.938  1.00  0.00    -0.265 OA
BRANCH  28  30
HETATM   30  C23 UNL     1       2.331   7.643  13.059  1.00  0.00     0.120 C 
BRANCH  30  31
HETATM   31  C24 UNL     1       3.841   7.453  12.975  1.00  0.00     0.112 C 
BRANCH  31  32
HETATM   32  C25 UNL     1       4.268   6.874  11.642  1.00  0.00     0.218 C 
HETATM   33  O7  UNL     1       5.407   6.981  11.202  1.00  0.00    -0.274 OA
HETATM   34  N1  UNL     1       3.241   6.257  10.969  1.00  0.00    -0.356 N 
HETATM   35  H32 UNL     1       2.336   6.168  11.408  1.00  0.00     0.162 HD
BRANCH  34  36
HETATM   36  C26 UNL     1       3.455   5.549   9.726  1.00  0.00     0.168 C 
BRANCH  36  37
HETATM   37  C27 UNL     1       2.775   6.316   8.636  1.00  0.00     0.000 A 
HETATM   38  C28 UNL     1       2.141   7.542   8.713  1.00  0.00     0.017 A 
HETATM   39  C29 UNL     1       1.603   7.955   7.459  1.00  0.00     0.008 A 
HETATM   40  C30 UNL     1       1.852   7.036   6.465  1.00  0.00     0.050 A 
HETATM   41  S1  UNL     1       2.717   5.679   7.044  1.00  0.00    -0.105 SA
ENDBRANCH  36  37
ENDBRANCH  34  36
ENDBRANCH  31  32
ENDBRANCH  30  31
ENDBRANCH  28  30
ENDBRANCH  27  28
ENDBRANCH  26  27
ENDBRANCH  24  26
ENDBRANCH  21  24
TORSDOF 10
ENDMDL
