MODEL 1
REMARK minimizedAffinity -6.45051193
REMARK CNNscore 0.661303401
REMARK CNNaffinity 6.69370842
REMARK  20 active torsions:
REMARK  status: ('A' for Active; 'I' for Inactive)
REMARK    1  A    between atoms: C2_2  and  C3_3 
REMARK    2  A    between atoms: C2_2  and  C27_34 
REMARK    3  A    between atoms: C4_4  and  C5_5 
REMARK    4  A    between atoms: C6_6  and  C7_7 
REMARK    5  A    between atoms: C6_6  and  C10_12 
REMARK    6  A    between atoms: C7_7  and  O1_8 
REMARK    7  A    between atoms: O1_8  and  C8_9 
REMARK    8  A    between atoms: C8_9  and  C9_10 
REMARK    9  A    between atoms: C9_10  and  O2_11 
REMARK   10  A    between atoms: C14_16  and  O3_17 
REMARK   11  A    between atoms: C15_18  and  C16_19 
REMARK   12  A    between atoms: C16_19  and  C17_20 
REMARK   13  A    between atoms: C17_20  and  C18_21 
REMARK   14  A    between atoms: C18_21  and  O4_22 
REMARK   15  A    between atoms: C20_24  and  C22_26 
REMARK   16  A    between atoms: C25_30  and  O6_31 
REMARK   17  A    between atoms: C25_30  and  C26_32 
REMARK   18  A    between atoms: C26_32  and  O7_33 
REMARK   19  A    between atoms: C27_34  and  C28_35 
REMARK   20  A    between atoms: C28_35  and  C29_36 
ROOT
HETATM    1  C10 UNL     1      -3.410   9.200  13.687  1.00  0.00     0.046 C 
HETATM    2  C11 UNL     1      -1.977   9.583  13.309  1.00  0.00     0.013 C 
HETATM    3  C12 UNL     1      -1.260   9.747  14.637  1.00  0.00     0.017 C 
HETATM    4  C13 UNL     1      -2.257  10.399  15.637  1.00  0.00     0.027 C 
HETATM    5  C14 UNL     1      -3.650   9.954  15.024  1.00  0.00     0.138 C 
HETATM    6  C15 UNL     1      -2.194  11.991  15.710  1.00  0.00     0.029 C 
HETATM    7  C19 UNL     1      -3.445  12.484  16.488  1.00  0.00    -0.066 C 
HETATM    8  C20 UNL     1      -4.431  13.350  16.126  1.00  0.00    -0.021 C 
HETATM    9  C21 UNL     1      -5.566  13.811  17.012  1.00  0.00     0.052 C 
HETATM   10  C23 UNL     1      -3.609  11.768  17.830  1.00  0.00     0.038 C 
HETATM   11  C24 UNL     1      -2.470  10.840  18.229  1.00  0.00     0.045 C 
HETATM   12  C25 UNL     1      -1.935   9.899  17.115  1.00  0.00     0.090 C 
ENDROOT
BRANCH   5  13
HETATM   13  O3  UNL     1      -4.519   9.267  15.906  1.00  0.00    -0.394 OA
HETATM   14  H19 UNL     1      -3.963   8.667  16.448  1.00  0.00     0.210 HD
ENDBRANCH   5  13
BRANCH   6  15
HETATM   15  C16 UNL     1      -1.756  12.721  14.417  1.00  0.00     0.012 C 
BRANCH  15  16
HETATM   16  C17 UNL     1      -0.847  13.951  14.617  1.00  0.00     0.027 C 
BRANCH  16  17
HETATM   17  C18 UNL     1      -0.826  14.928  13.444  1.00  0.00     0.164 C 
BRANCH  17  18
HETATM   18  O4  UNL     1      -2.006  14.800  12.662  1.00  0.00    -0.401 OA
HETATM   19  H27 UNL     1      -2.742  15.135  13.202  1.00  0.00     0.209 HD
ENDBRANCH  17  18
ENDBRANCH  16  17
ENDBRANCH  15  16
ENDBRANCH   6  15
BRANCH  12  20
HETATM   20  O6  UNL     1      -2.508   8.591  17.319  1.00  0.00    -0.387 OA
HETATM   21  H36 UNL     1      -2.117   8.275  18.163  1.00  0.00     0.210 HD
ENDBRANCH  12  20
BRANCH  12  22
HETATM   22  C26 UNL     1      -0.404   9.715  17.395  1.00  0.00     0.202 C 
BRANCH  22  23
HETATM   23  O7  UNL     1       0.046   8.522  16.738  1.00  0.00    -0.398 OA
HETATM   24  H39 UNL     1       0.980   8.401  16.986  1.00  0.00     0.209 HD
ENDBRANCH  22  23
ENDBRANCH  12  22
BRANCH   1  25
HETATM   25  C6  UNL     1      -3.735   7.700  13.642  1.00  0.00    -0.050 C 
HETATM   26  C5  UNL     1      -2.848   6.732  13.976  1.00  0.00     0.005 C 
BRANCH  26  27
HETATM   27  C4  UNL     1      -1.459   6.883  14.356  1.00  0.00     0.001 C 
HETATM   28  C3  UNL     1      -0.339   6.594  13.669  1.00  0.00     0.006 C 
BRANCH  28  29
HETATM   29  C2  UNL     1      -0.094   6.073  12.323  1.00  0.00    -0.067 C 
HETATM   30  C1  UNL     1      -0.897   5.086  11.885  1.00  0.00     0.019 C 
BRANCH  29  31
HETATM   31  C27 UNL     1       1.076   6.598  11.509  1.00  0.00     0.041 C 
BRANCH  31  32
HETATM   32  C28 UNL     1       0.852   7.805  10.573  1.00  0.00     0.032 C 
BRANCH  32  33
HETATM   33  C29 UNL     1       0.870   7.439   9.111  1.00  0.00    -0.024 C 
HETATM   34  C30 UNL     1       1.836   7.681   8.203  1.00  0.00    -0.091 C 
HETATM   35  C31 UNL     1       1.662   7.247   6.770  1.00  0.00     0.042 C 
HETATM   36  C32 UNL     1       3.143   8.370   8.479  1.00  0.00     0.042 C 
ENDBRANCH  32  33
ENDBRANCH  31  32
ENDBRANCH  29  31
ENDBRANCH  28  29
ENDBRANCH  26  27
BRANCH  25  37
HETATM   37  C7  UNL     1      -5.147   7.329  13.209  1.00  0.00     0.202 C 
BRANCH  37  38
HETATM   38  O1  UNL     1      -5.516   6.014  13.631  1.00  0.00    -0.385 OA
BRANCH  38  39
HETATM   39  C8  UNL     1      -6.862   5.966  14.094  1.00  0.00     0.194 C 
BRANCH  39  40
HETATM   40  C9  UNL     1      -6.869   5.727  15.599  1.00  0.00     0.190 C 
BRANCH  40  41
HETATM   41  O2  UNL     1      -7.742   4.656  15.938  1.00  0.00    -0.399 OA
HETATM   42  H12 UNL     1      -8.652   4.976  15.818  1.00  0.00     0.209 HD
ENDBRANCH  40  41
ENDBRANCH  39  40
ENDBRANCH  38  39
ENDBRANCH  37  38
ENDBRANCH  25  37
ENDBRANCH   1  25
BRANCH   8  43
HETATM   43  C22 UNL     1      -4.609  13.895  14.750  1.00  0.00     0.265 C 
HETATM   44  O5  UNL     1      -4.260  15.027  14.435  1.00  0.00    -0.302 OA
ENDBRANCH   8  43
TORSDOF 20
ENDMDL
MODEL 2
REMARK minimizedAffinity -7.18103027
REMARK CNNscore 0.551195204
REMARK CNNaffinity 6.8873558
REMARK  20 active torsions:
REMARK  status: ('A' for Active; 'I' for Inactive)
REMARK    1  A    between atoms: C2_2  and  C3_3 
REMARK    2  A    between atoms: C2_2  and  C27_34 
REMARK    3  A    between atoms: C4_4  and  C5_5 
REMARK    4  A    between atoms: C6_6  and  C7_7 
REMARK    5  A    between atoms: C6_6  and  C10_12 
REMARK    6  A    between atoms: C7_7  and  O1_8 
REMARK    7  A    between atoms: O1_8  and  C8_9 
REMARK    8  A    between atoms: C8_9  and  C9_10 
REMARK    9  A    between atoms: C9_10  and  O2_11 
REMARK   10  A    between atoms: C14_16  and  O3_17 
REMARK   11  A    between atoms: C15_18  and  C16_19 
REMARK   12  A    between atoms: C16_19  and  C17_20 
REMARK   13  A    between atoms: C17_20  and  C18_21 
REMARK   14  A    between atoms: C18_21  and  O4_22 
REMARK   15  A    between atoms: C20_24  and  C22_26 
REMARK   16  A    between atoms: C25_30  and  O6_31 
REMARK   17  A    between atoms: C25_30  and  C26_32 
REMARK   18  A    between atoms: C26_32  and  O7_33 
REMARK   19  A    between atoms: C27_34  and  C28_35 
REMARK   20  A    between atoms: C28_35  and  C29_36 
ROOT
HETATM    1  C10 UNL     1       2.048   7.643  10.594  1.00  0.00     0.046 C 
HETATM    2  C11 UNL     1       2.753   6.368  11.064  1.00  0.00     0.013 C 
HETATM    3  C12 UNL     1       2.615   6.389  12.577  1.00  0.00     0.017 C 
HETATM    4  C13 UNL     1       2.763   7.864  13.046  1.00  0.00     0.027 C 
HETATM    5  C14 UNL     1       2.309   8.652  11.746  1.00  0.00     0.138 C 
HETATM    6  C15 UNL     1       4.245   8.301  13.441  1.00  0.00     0.029 C 
HETATM    7  C19 UNL     1       4.270   9.850  13.565  1.00  0.00    -0.066 C 
HETATM    8  C20 UNL     1       5.035  10.779  12.930  1.00  0.00    -0.021 C 
HETATM    9  C21 UNL     1       5.015  12.267  13.198  1.00  0.00     0.052 C 
HETATM   10  C23 UNL     1       3.162  10.372  14.481  1.00  0.00     0.038 C 
HETATM   11  C24 UNL     1       2.351   9.311  15.212  1.00  0.00     0.045 C 
HETATM   12  C25 UNL     1       1.894   8.096  14.360  1.00  0.00     0.090 C 
ENDROOT
BRANCH   5  13
HETATM   13  O3  UNL     1       1.256   9.581  11.926  1.00  0.00    -0.394 OA
HETATM   14  H19 UNL     1       0.616   9.174  12.549  1.00  0.00     0.210 HD
ENDBRANCH   5  13
BRANCH   6  15
HETATM   15  C16 UNL     1       5.395   7.571  12.706  1.00  0.00     0.012 C 
BRANCH  15  16
HETATM   16  C17 UNL     1       6.541   7.056  13.600  1.00  0.00     0.027 C 
BRANCH  16  17
HETATM   17  C18 UNL     1       6.888   7.962  14.780  1.00  0.00     0.164 C 
BRANCH  17  18
HETATM   18  O4  UNL     1       6.183   7.559  15.947  1.00  0.00    -0.401 OA
HETATM   19  H27 UNL     1       6.555   6.703  16.222  1.00  0.00     0.209 HD
ENDBRANCH  17  18
ENDBRANCH  16  17
ENDBRANCH  15  16
ENDBRANCH   6  15
BRANCH  12  20
HETATM   20  O6  UNL     1       0.512   8.296  13.999  1.00  0.00    -0.387 OA
HETATM   21  H36 UNL     1       0.020   8.243  14.847  1.00  0.00     0.210 HD
ENDBRANCH  12  20
BRANCH  12  22
HETATM   22  C26 UNL     1       1.880   6.864  15.329  1.00  0.00     0.202 C 
BRANCH  22  23
HETATM   23  O7  UNL     1       3.187   6.709  15.899  1.00  0.00    -0.398 OA
HETATM   24  H39 UNL     1       3.164   5.901  16.440  1.00  0.00     0.209 HD
ENDBRANCH  22  23
ENDBRANCH  12  22
BRANCH   1  25
HETATM   25  C6  UNL     1       0.602   7.468  10.109  1.00  0.00    -0.050 C 
HETATM   26  C5  UNL     1      -0.257   6.560  10.632  1.00  0.00     0.005 C 
BRANCH  26  27
HETATM   27  C4  UNL     1       0.002   5.565  11.651  1.00  0.00     0.001 C 
HETATM   28  C3  UNL     1      -0.780   4.569  12.104  1.00  0.00     0.006 C 
BRANCH  28  29
HETATM   29  C2  UNL     1      -2.117   4.098  11.740  1.00  0.00    -0.067 C 
HETATM   30  C1  UNL     1      -2.286   3.611  10.497  1.00  0.00     0.019 C 
BRANCH  29  31
HETATM   31  C27 UNL     1      -3.264   4.237  12.728  1.00  0.00     0.041 C 
BRANCH  31  32
HETATM   32  C28 UNL     1      -4.678   3.790  12.298  1.00  0.00     0.032 C 
BRANCH  32  33
HETATM   33  C29 UNL     1      -5.773   4.673  12.837  1.00  0.00    -0.024 C 
HETATM   34  C30 UNL     1      -7.010   4.316  13.237  1.00  0.00    -0.091 C 
HETATM   35  C31 UNL     1      -7.980   5.357  13.736  1.00  0.00     0.042 C 
HETATM   36  C32 UNL     1      -7.556   2.916  13.245  1.00  0.00     0.042 C 
ENDBRANCH  32  33
ENDBRANCH  31  32
ENDBRANCH  29  31
ENDBRANCH  28  29
ENDBRANCH  26  27
BRANCH  25  37
HETATM   37  C7  UNL     1       0.149   8.396   8.991  1.00  0.00     0.202 C 
BRANCH  37  38
HETATM   38  O1  UNL     1       0.402   7.848   7.694  1.00  0.00    -0.385 OA
BRANCH  38  39
HETATM   39  C8  UNL     1       1.791   7.858   7.379  1.00  0.00     0.194 C 
BRANCH  39  40
HETATM   40  C9  UNL     1       2.167   6.536   6.720  1.00  0.00     0.190 C 
BRANCH  40  41
HETATM   41  O2  UNL     1       2.656   5.610   7.684  1.00  0.00    -0.399 OA
HETATM   42  H12 UNL     1       3.538   5.916   7.955  1.00  0.00     0.209 HD
ENDBRANCH  40  41
ENDBRANCH  39  40
ENDBRANCH  38  39
ENDBRANCH  37  38
ENDBRANCH  25  37
ENDBRANCH   1  25
BRANCH   8  43
HETATM   43  C22 UNL     1       5.939  10.483  11.782  1.00  0.00     0.265 C 
HETATM   44  O5  UNL     1       5.528  10.324  10.638  1.00  0.00    -0.302 OA
ENDBRANCH   8  43
TORSDOF 20
ENDMDL
MODEL 3
REMARK minimizedAffinity -6.47767639
REMARK CNNscore 0.534355044
REMARK CNNaffinity 5.95544195
REMARK  20 active torsions:
REMARK  status: ('A' for Active; 'I' for Inactive)
REMARK    1  A    between atoms: C2_2  and  C3_3 
REMARK    2  A    between atoms: C2_2  and  C27_34 
REMARK    3  A    between atoms: C4_4  and  C5_5 
REMARK    4  A    between atoms: C6_6  and  C7_7 
REMARK    5  A    between atoms: C6_6  and  C10_12 
REMARK    6  A    between atoms: C7_7  and  O1_8 
REMARK    7  A    between atoms: O1_8  and  C8_9 
REMARK    8  A    between atoms: C8_9  and  C9_10 
REMARK    9  A    between atoms: C9_10  and  O2_11 
REMARK   10  A    between atoms: C14_16  and  O3_17 
REMARK   11  A    between atoms: C15_18  and  C16_19 
REMARK   12  A    between atoms: C16_19  and  C17_20 
REMARK   13  A    between atoms: C17_20  and  C18_21 
REMARK   14  A    between atoms: C18_21  and  O4_22 
REMARK   15  A    between atoms: C20_24  and  C22_26 
REMARK   16  A    between atoms: C25_30  and  O6_31 
REMARK   17  A    between atoms: C25_30  and  C26_32 
REMARK   18  A    between atoms: C26_32  and  O7_33 
REMARK   19  A    between atoms: C27_34  and  C28_35 
REMARK   20  A    between atoms: C28_35  and  C29_36 
ROOT
HETATM    1  C10 UNL     1     -14.862  -3.704  13.635  1.00  0.00     0.046 C 
HETATM    2  C11 UNL     1     -16.226  -4.245  14.072  1.00  0.00     0.013 C 
HETATM    3  C12 UNL     1     -17.232  -3.450  13.258  1.00  0.00     0.017 C 
HETATM    4  C13 UNL     1     -16.705  -1.991  13.146  1.00  0.00     0.027 C 
HETATM    5  C14 UNL     1     -15.144  -2.209  13.322  1.00  0.00     0.138 C 
HETATM    6  C15 UNL     1     -17.233  -0.996  14.275  1.00  0.00     0.029 C 
HETATM    7  C19 UNL     1     -16.375   0.298  14.212  1.00  0.00    -0.066 C 
HETATM    8  C20 UNL     1     -15.621   0.910  15.165  1.00  0.00    -0.021 C 
HETATM    9  C21 UNL     1     -14.887   2.222  14.997  1.00  0.00     0.052 C 
HETATM   10  C23 UNL     1     -16.312   0.878  12.798  1.00  0.00     0.038 C 
HETATM   11  C24 UNL     1     -17.199   0.200  11.762  1.00  0.00     0.045 C 
HETATM   12  C25 UNL     1     -17.187  -1.354  11.768  1.00  0.00     0.090 C 
ENDROOT
BRANCH   5  13
HETATM   13  O3  UNL     1     -14.331  -1.691  12.285  1.00  0.00    -0.394 OA
HETATM   14  H19 UNL     1     -14.797  -1.863  11.439  1.00  0.00     0.210 HD
ENDBRANCH   5  13
BRANCH   6  15
HETATM   15  C16 UNL     1     -17.566  -1.630  15.648  1.00  0.00     0.012 C 
BRANCH  15  16
HETATM   16  C17 UNL     1     -16.357  -2.128  16.467  1.00  0.00     0.027 C 
BRANCH  16  17
HETATM   17  C18 UNL     1     -16.716  -2.952  17.701  1.00  0.00     0.164 C 
BRANCH  17  18
HETATM   18  O4  UNL     1     -16.250  -2.316  18.884  1.00  0.00    -0.401 OA
HETATM   19  H27 UNL     1     -16.785  -1.512  19.003  1.00  0.00     0.209 HD
ENDBRANCH  17  18
ENDBRANCH  16  17
ENDBRANCH  15  16
ENDBRANCH   6  15
BRANCH  12  20
HETATM   20  O6  UNL     1     -16.325  -1.799  10.701  1.00  0.00    -0.387 OA
HETATM   21  H36 UNL     1     -16.784  -1.527   9.877  1.00  0.00     0.210 HD
ENDBRANCH  12  20
BRANCH  12  22
HETATM   22  C26 UNL     1     -18.625  -1.803  11.337  1.00  0.00     0.202 C 
BRANCH  22  23
HETATM   23  O7  UNL     1     -19.232  -0.747  10.579  1.00  0.00    -0.398 OA
HETATM   24  H39 UNL     1     -20.143  -1.029  10.385  1.00  0.00     0.209 HD
ENDBRANCH  22  23
ENDBRANCH  12  22
BRANCH   1  25
HETATM   25  C6  UNL     1     -14.122  -4.531  12.574  1.00  0.00    -0.050 C 
HETATM   26  C5  UNL     1     -13.900  -5.863  12.686  1.00  0.00     0.005 C 
BRANCH  26  27
HETATM   27  C4  UNL     1     -14.226  -6.736  13.794  1.00  0.00     0.001 C 
HETATM   28  C3  UNL     1     -13.586  -6.925  14.961  1.00  0.00     0.006 C 
BRANCH  28  29
HETATM   29  C2  UNL     1     -12.389  -6.330  15.557  1.00  0.00    -0.067 C 
HETATM   30  C1  UNL     1     -11.958  -5.161  15.048  1.00  0.00     0.019 C 
BRANCH  29  31
HETATM   31  C27 UNL     1     -11.643  -7.067  16.657  1.00  0.00     0.041 C 
BRANCH  31  32
HETATM   32  C28 UNL     1     -11.107  -8.487  16.373  1.00  0.00     0.032 C 
BRANCH  32  33
HETATM   33  C29 UNL     1     -11.346  -9.453  17.504  1.00  0.00    -0.024 C 
HETATM   34  C30 UNL     1     -10.573  -9.678  18.586  1.00  0.00    -0.091 C 
HETATM   35  C31 UNL     1     -10.975 -10.707  19.611  1.00  0.00     0.042 C 
HETATM   36  C32 UNL     1      -9.284  -8.971  18.901  1.00  0.00     0.042 C 
ENDBRANCH  32  33
ENDBRANCH  31  32
ENDBRANCH  29  31
ENDBRANCH  28  29
ENDBRANCH  26  27
BRANCH  25  37
HETATM   37  C7  UNL     1     -13.645  -3.775  11.342  1.00  0.00     0.202 C 
BRANCH  37  38
HETATM   38  O1  UNL     1     -14.466  -4.026  10.199  1.00  0.00    -0.385 OA
BRANCH  38  39
HETATM   39  C8  UNL     1     -13.914  -3.457   9.016  1.00  0.00     0.194 C 
BRANCH  39  40
HETATM   40  C9  UNL     1     -14.071  -4.440   7.862  1.00  0.00     0.190 C 
BRANCH  40  41
HETATM   41  O2  UNL     1     -12.871  -5.176   7.656  1.00  0.00    -0.399 OA
HETATM   42  H12 UNL     1     -12.223  -4.566   7.265  1.00  0.00     0.209 HD
ENDBRANCH  40  41
ENDBRANCH  39  40
ENDBRANCH  38  39
ENDBRANCH  37  38
ENDBRANCH  25  37
ENDBRANCH   1  25
BRANCH   8  43
HETATM   43  C22 UNL     1     -15.310   0.322  16.499  1.00  0.00     0.265 C 
HETATM   44  O5  UNL     1     -15.301   0.985  17.530  1.00  0.00    -0.302 OA
ENDBRANCH   8  43
TORSDOF 20
ENDMDL
MODEL 4
REMARK minimizedAffinity -7.08259487
REMARK CNNscore 0.53390485
REMARK CNNaffinity 6.4157548
REMARK  20 active torsions:
REMARK  status: ('A' for Active; 'I' for Inactive)
REMARK    1  A    between atoms: C2_2  and  C3_3 
REMARK    2  A    between atoms: C2_2  and  C27_34 
REMARK    3  A    between atoms: C4_4  and  C5_5 
REMARK    4  A    between atoms: C6_6  and  C7_7 
REMARK    5  A    between atoms: C6_6  and  C10_12 
REMARK    6  A    between atoms: C7_7  and  O1_8 
REMARK    7  A    between atoms: O1_8  and  C8_9 
REMARK    8  A    between atoms: C8_9  and  C9_10 
REMARK    9  A    between atoms: C9_10  and  O2_11 
REMARK   10  A    between atoms: C14_16  and  O3_17 
REMARK   11  A    between atoms: C15_18  and  C16_19 
REMARK   12  A    between atoms: C16_19  and  C17_20 
REMARK   13  A    between atoms: C17_20  and  C18_21 
REMARK   14  A    between atoms: C18_21  and  O4_22 
REMARK   15  A    between atoms: C20_24  and  C22_26 
REMARK   16  A    between atoms: C25_30  and  O6_31 
REMARK   17  A    between atoms: C25_30  and  C26_32 
REMARK   18  A    between atoms: C26_32  and  O7_33 
REMARK   19  A    between atoms: C27_34  and  C28_35 
REMARK   20  A    between atoms: C28_35  and  C29_36 
ROOT
HETATM    1  C10 UNL     1      -3.343   8.687  14.112  1.00  0.00     0.046 C 
HETATM    2  C11 UNL     1      -2.362   9.410  13.185  1.00  0.00     0.013 C 
HETATM    3  C12 UNL     1      -1.102   9.579  14.016  1.00  0.00     0.017 C 
HETATM    4  C13 UNL     1      -1.536   9.888  15.477  1.00  0.00     0.027 C 
HETATM    5  C14 UNL     1      -2.974   9.221  15.524  1.00  0.00     0.138 C 
HETATM    6  C15 UNL     1      -1.658  11.438  15.831  1.00  0.00     0.029 C 
HETATM    7  C19 UNL     1      -2.399  11.562  17.191  1.00  0.00    -0.066 C 
HETATM    8  C20 UNL     1      -3.538  12.228  17.523  1.00  0.00    -0.021 C 
HETATM    9  C21 UNL     1      -4.121  12.334  18.914  1.00  0.00     0.052 C 
HETATM   10  C23 UNL     1      -1.766  10.686  18.273  1.00  0.00     0.038 C 
HETATM   11  C24 UNL     1      -0.469   9.988  17.888  1.00  0.00     0.045 C 
HETATM   12  C25 UNL     1      -0.450   9.311  16.489  1.00  0.00     0.090 C 
ENDROOT
BRANCH   5  13
HETATM   13  O3  UNL     1      -3.179   8.271  16.553  1.00  0.00    -0.394 OA
HETATM   14  H19 UNL     1      -2.352   7.750  16.633  1.00  0.00     0.210 HD
ENDBRANCH   5  13
BRANCH   6  15
HETATM   15  C16 UNL     1      -2.034  12.382  14.662  1.00  0.00     0.012 C 
BRANCH  15  16
HETATM   16  C17 UNL     1      -1.571  13.846  14.808  1.00  0.00     0.027 C 
BRANCH  16  17
HETATM   17  C18 UNL     1      -1.090  14.497  13.513  1.00  0.00     0.164 C 
BRANCH  17  18
HETATM   18  O4  UNL     1      -2.184  14.748  12.641  1.00  0.00    -0.401 OA
HETATM   19  H27 UNL     1      -2.715  15.454  13.048  1.00  0.00     0.209 HD
ENDBRANCH  17  18
ENDBRANCH  16  17
ENDBRANCH  15  16
ENDBRANCH   6  15
BRANCH  12  20
HETATM   20  O6  UNL     1      -0.661   7.896  16.673  1.00  0.00    -0.387 OA
HETATM   21  H36 UNL     1       0.140   7.582  17.146  1.00  0.00     0.210 HD
ENDBRANCH  12  20
BRANCH  12  22
HETATM   22  C26 UNL     1       1.023   9.433  15.966  1.00  0.00     0.202 C 
BRANCH  22  23
HETATM   23  O7  UNL     1       1.912   8.909  16.962  1.00  0.00    -0.398 OA
HETATM   24  H39 UNL     1       2.817   9.059  16.637  1.00  0.00     0.209 HD
ENDBRANCH  22  23
ENDBRANCH  12  22
BRANCH   1  25
HETATM   25  C6  UNL     1      -3.443   7.167  13.926  1.00  0.00    -0.050 C 
HETATM   26  C5  UNL     1      -4.618   6.491  13.913  1.00  0.00     0.005 C 
BRANCH  26  27
HETATM   27  C4  UNL     1      -5.952   7.010  14.130  1.00  0.00     0.001 C 
HETATM   28  C3  UNL     1      -7.144   6.503  13.770  1.00  0.00     0.006 C 
BRANCH  28  29
HETATM   29  C2  UNL     1      -7.547   5.274  13.085  1.00  0.00    -0.067 C 
HETATM   30  C1  UNL     1      -8.429   5.388  12.074  1.00  0.00     0.019 C 
BRANCH  29  31
HETATM   31  C27 UNL     1      -7.028   3.931  13.570  1.00  0.00     0.041 C 
BRANCH  31  32
HETATM   32  C28 UNL     1      -6.505   2.914  12.532  1.00  0.00     0.032 C 
BRANCH  32  33
HETATM   33  C29 UNL     1      -5.434   3.475  11.632  1.00  0.00    -0.024 C 
HETATM   34  C30 UNL     1      -4.244   2.930  11.312  1.00  0.00    -0.091 C 
HETATM   35  C31 UNL     1      -3.291   3.659  10.399  1.00  0.00     0.042 C 
HETATM   36  C32 UNL     1      -3.736   1.598  11.789  1.00  0.00     0.042 C 
ENDBRANCH  32  33
ENDBRANCH  31  32
ENDBRANCH  29  31
ENDBRANCH  28  29
ENDBRANCH  26  27
BRANCH  25  37
HETATM   37  C7  UNL     1      -2.129   6.422  13.734  1.00  0.00     0.202 C 
BRANCH  37  38
HETATM   38  O1  UNL     1      -1.910   6.048  12.371  1.00  0.00    -0.385 OA
BRANCH  38  39
HETATM   39  C8  UNL     1      -0.584   5.575  12.160  1.00  0.00     0.194 C 
BRANCH  39  40
HETATM   40  C9  UNL     1      -0.020   6.207  10.893  1.00  0.00     0.190 C 
BRANCH  40  41
HETATM   41  O2  UNL     1       1.068   5.443  10.386  1.00  0.00    -0.399 OA
HETATM   42  H12 UNL     1       1.820   5.579  10.987  1.00  0.00     0.209 HD
ENDBRANCH  40  41
ENDBRANCH  39  40
ENDBRANCH  38  39
ENDBRANCH  37  38
ENDBRANCH  25  37
ENDBRANCH   1  25
BRANCH   8  43
HETATM   43  C22 UNL     1      -4.456  12.868  16.539  1.00  0.00     0.265 C 
HETATM   44  O5  UNL     1      -4.707  14.068  16.549  1.00  0.00    -0.302 OA
ENDBRANCH   8  43
TORSDOF 20
ENDMDL
MODEL 5
REMARK minimizedAffinity -7.02582788
REMARK CNNscore 0.518445194
REMARK CNNaffinity 6.65531731
REMARK  20 active torsions:
REMARK  status: ('A' for Active; 'I' for Inactive)
REMARK    1  A    between atoms: C2_2  and  C3_3 
REMARK    2  A    between atoms: C2_2  and  C27_34 
REMARK    3  A    between atoms: C4_4  and  C5_5 
REMARK    4  A    between atoms: C6_6  and  C7_7 
REMARK    5  A    between atoms: C6_6  and  C10_12 
REMARK    6  A    between atoms: C7_7  and  O1_8 
REMARK    7  A    between atoms: O1_8  and  C8_9 
REMARK    8  A    between atoms: C8_9  and  C9_10 
REMARK    9  A    between atoms: C9_10  and  O2_11 
REMARK   10  A    between atoms: C14_16  and  O3_17 
REMARK   11  A    between atoms: C15_18  and  C16_19 
REMARK   12  A    between atoms: C16_19  and  C17_20 
REMARK   13  A    between atoms: C17_20  and  C18_21 
REMARK   14  A    between atoms: C18_21  and  O4_22 
REMARK   15  A    between atoms: C20_24  and  C22_26 
REMARK   16  A    between atoms: C25_30  and  O6_31 
REMARK   17  A    between atoms: C25_30  and  C26_32 
REMARK   18  A    between atoms: C26_32  and  O7_33 
REMARK   19  A    between atoms: C27_34  and  C28_35 
REMARK   20  A    between atoms: C28_35  and  C29_36 
ROOT
HETATM    1  C10 UNL     1      -1.603   8.182  12.450  1.00  0.00     0.046 C 
HETATM    2  C11 UNL     1      -1.766   6.732  12.914  1.00  0.00     0.013 C 
HETATM    3  C12 UNL     1      -0.527   6.455  13.748  1.00  0.00     0.017 C 
HETATM    4  C13 UNL     1       0.672   7.178  13.071  1.00  0.00     0.027 C 
HETATM    5  C14 UNL     1      -0.066   8.347  12.294  1.00  0.00     0.138 C 
HETATM    6  C15 UNL     1       1.497   6.290  12.034  1.00  0.00     0.029 C 
HETATM    7  C19 UNL     1       2.427   7.237  11.227  1.00  0.00    -0.066 C 
HETATM    8  C20 UNL     1       2.532   7.448   9.887  1.00  0.00    -0.021 C 
HETATM    9  C21 UNL     1       3.542   8.351   9.215  1.00  0.00     0.052 C 
HETATM   10  C23 UNL     1       3.265   8.136  12.139  1.00  0.00     0.038 C 
HETATM   11  C24 UNL     1       3.161   7.848  13.630  1.00  0.00     0.045 C 
HETATM   12  C25 UNL     1       1.727   7.614  14.181  1.00  0.00     0.090 C 
ENDROOT
BRANCH   5  13
HETATM   13  O3  UNL     1       0.388   9.657  12.579  1.00  0.00    -0.394 OA
HETATM   14  H19 UNL     1       0.572   9.696  13.542  1.00  0.00     0.210 HD
ENDBRANCH   5  13
BRANCH   6  15
HETATM   15  C16 UNL     1       0.705   5.181  11.299  1.00  0.00     0.012 C 
BRANCH  15  16
HETATM   16  C17 UNL     1       0.412   3.910  12.122  1.00  0.00     0.027 C 
BRANCH  16  17
HETATM   17  C18 UNL     1      -0.644   2.986  11.518  1.00  0.00     0.164 C 
BRANCH  17  18
HETATM   18  O4  UNL     1      -1.731   3.738  10.997  1.00  0.00    -0.401 OA
HETATM   19  H27 UNL     1      -1.397   4.216  10.217  1.00  0.00     0.209 HD
ENDBRANCH  17  18
ENDBRANCH  16  17
ENDBRANCH  15  16
ENDBRANCH   6  15
BRANCH  12  20
HETATM   20  O6  UNL     1       1.287   8.832  14.817  1.00  0.00    -0.387 OA
HETATM   21  H36 UNL     1       1.873   8.934  15.598  1.00  0.00     0.210 HD
ENDBRANCH  12  20
BRANCH  12  22
HETATM   22  C26 UNL     1       1.872   6.581  15.351  1.00  0.00     0.202 C 
BRANCH  22  23
HETATM   23  O7  UNL     1       3.248   6.527  15.752  1.00  0.00    -0.398 OA
HETATM   24  H39 UNL     1       3.315   5.831  16.430  1.00  0.00     0.209 HD
ENDBRANCH  22  23
ENDBRANCH  12  22
BRANCH   1  25
HETATM   25  C6  UNL     1      -2.357   9.236  13.274  1.00  0.00    -0.050 C 
HETATM   26  C5  UNL     1      -3.693   9.196  13.498  1.00  0.00     0.005 C 
BRANCH  26  27
HETATM   27  C4  UNL     1      -4.658   8.247  12.984  1.00  0.00     0.001 C 
HETATM   28  C3  UNL     1      -5.305   7.249  13.610  1.00  0.00     0.006 C 
BRANCH  28  29
HETATM   29  C2  UNL     1      -5.316   6.772  14.994  1.00  0.00    -0.067 C 
HETATM   30  C1  UNL     1      -4.202   6.172  15.452  1.00  0.00     0.019 C 
BRANCH  29  31
HETATM   31  C27 UNL     1      -6.579   6.900  15.829  1.00  0.00     0.041 C 
BRANCH  31  32
HETATM   32  C28 UNL     1      -7.844   6.130  15.392  1.00  0.00     0.032 C 
BRANCH  32  33
HETATM   33  C29 UNL     1      -7.548   4.768  14.820  1.00  0.00    -0.024 C 
HETATM   34  C30 UNL     1      -7.719   4.341  13.553  1.00  0.00    -0.091 C 
HETATM   35  C31 UNL     1      -7.376   2.923  13.173  1.00  0.00     0.042 C 
HETATM   36  C32 UNL     1      -8.239   5.172  12.413  1.00  0.00     0.042 C 
ENDBRANCH  32  33
ENDBRANCH  31  32
ENDBRANCH  29  31
ENDBRANCH  28  29
ENDBRANCH  26  27
BRANCH  25  37
HETATM   37  C7  UNL     1      -1.515  10.360  13.862  1.00  0.00     0.202 C 
BRANCH  37  38
HETATM   38  O1  UNL     1      -2.273  11.210  14.728  1.00  0.00    -0.385 OA
BRANCH  38  39
HETATM   39  C8  UNL     1      -1.542  12.375  15.096  1.00  0.00     0.194 C 
BRANCH  39  40
HETATM   40  C9  UNL     1      -2.092  13.576  14.336  1.00  0.00     0.190 C 
BRANCH  40  41
HETATM   41  O2  UNL     1      -1.254  13.906  13.235  1.00  0.00    -0.399 OA
HETATM   42  H12 UNL     1      -0.442  14.299  13.598  1.00  0.00     0.209 HD
ENDBRANCH  40  41
ENDBRANCH  39  40
ENDBRANCH  38  39
ENDBRANCH  37  38
ENDBRANCH  25  37
ENDBRANCH   1  25
BRANCH   8  43
HETATM   43  C22 UNL     1       1.586   6.902   8.872  1.00  0.00     0.265 C 
HETATM   44  O5  UNL     1       1.773   7.009   7.666  1.00  0.00    -0.302 OA
ENDBRANCH   8  43
TORSDOF 20
ENDMDL
MODEL 6
REMARK minimizedAffinity -6.3391943
REMARK CNNscore 0.515559494
REMARK CNNaffinity 6.55263948
REMARK  20 active torsions:
REMARK  status: ('A' for Active; 'I' for Inactive)
REMARK    1  A    between atoms: C2_2  and  C3_3 
REMARK    2  A    between atoms: C2_2  and  C27_34 
REMARK    3  A    between atoms: C4_4  and  C5_5 
REMARK    4  A    between atoms: C6_6  and  C7_7 
REMARK    5  A    between atoms: C6_6  and  C10_12 
REMARK    6  A    between atoms: C7_7  and  O1_8 
REMARK    7  A    between atoms: O1_8  and  C8_9 
REMARK    8  A    between atoms: C8_9  and  C9_10 
REMARK    9  A    between atoms: C9_10  and  O2_11 
REMARK   10  A    between atoms: C14_16  and  O3_17 
REMARK   11  A    between atoms: C15_18  and  C16_19 
REMARK   12  A    between atoms: C16_19  and  C17_20 
REMARK   13  A    between atoms: C17_20  and  C18_21 
REMARK   14  A    between atoms: C18_21  and  O4_22 
REMARK   15  A    between atoms: C20_24  and  C22_26 
REMARK   16  A    between atoms: C25_30  and  O6_31 
REMARK   17  A    between atoms: C25_30  and  C26_32 
REMARK   18  A    between atoms: C26_32  and  O7_33 
REMARK   19  A    between atoms: C27_34  and  C28_35 
REMARK   20  A    between atoms: C28_35  and  C29_36 
ROOT
HETATM    1  C10 UNL     1      -2.812   9.028  14.439  1.00  0.00     0.046 C 
HETATM    2  C11 UNL     1      -3.190   9.006  12.956  1.00  0.00     0.013 C 
HETATM    3  C12 UNL     1      -2.851   7.600  12.494  1.00  0.00     0.017 C 
HETATM    4  C13 UNL     1      -1.543   7.166  13.216  1.00  0.00     0.027 C 
HETATM    5  C14 UNL     1      -1.594   8.066  14.521  1.00  0.00     0.138 C 
HETATM    6  C15 UNL     1      -0.198   7.467  12.414  1.00  0.00     0.029 C 
HETATM    7  C19 UNL     1       0.994   7.280  13.393  1.00  0.00    -0.066 C 
HETATM    8  C20 UNL     1       1.981   8.140  13.765  1.00  0.00    -0.021 C 
HETATM    9  C21 UNL     1       3.140   7.807  14.677  1.00  0.00     0.052 C 
HETATM   10  C23 UNL     1       0.943   5.930  14.111  1.00  0.00     0.038 C 
HETATM   11  C24 UNL     1      -0.144   4.971  13.643  1.00  0.00     0.045 C 
HETATM   12  C25 UNL     1      -1.554   5.589  13.437  1.00  0.00     0.090 C 
ENDROOT
BRANCH   5  13
HETATM   13  O3  UNL     1      -1.510   7.371  15.751  1.00  0.00    -0.394 OA
HETATM   14  H19 UNL     1      -2.038   6.550  15.654  1.00  0.00     0.210 HD
ENDBRANCH   5  13
BRANCH   6  15
HETATM   15  C16 UNL     1      -0.225   8.688  11.462  1.00  0.00     0.012 C 
BRANCH  15  16
HETATM   16  C17 UNL     1      -0.132   8.366   9.957  1.00  0.00     0.027 C 
BRANCH  16  17
HETATM   17  C18 UNL     1       1.146   7.642   9.536  1.00  0.00     0.164 C 
BRANCH  17  18
HETATM   18  O4  UNL     1       2.279   8.210  10.179  1.00  0.00    -0.401 OA
HETATM   19  H27 UNL     1       2.211   7.986  11.124  1.00  0.00     0.209 HD
ENDBRANCH  17  18
ENDBRANCH  16  17
ENDBRANCH  15  16
ENDBRANCH   6  15
BRANCH  12  20
HETATM   20  O6  UNL     1      -2.358   5.266  14.590  1.00  0.00    -0.387 OA
HETATM   21  H36 UNL     1      -2.472   4.291  14.553  1.00  0.00     0.210 HD
ENDBRANCH  12  20
BRANCH  12  22
HETATM   22  C26 UNL     1      -2.210   4.794  12.256  1.00  0.00     0.202 C 
BRANCH  22  23
HETATM   23  O7  UNL     1      -1.171   4.252  11.429  1.00  0.00    -0.398 OA
HETATM   24  H39 UNL     1      -1.608   3.823  10.673  1.00  0.00     0.209 HD
ENDBRANCH  22  23
ENDBRANCH  12  22
BRANCH   1  25
HETATM   25  C6  UNL     1      -3.965   8.807  15.428  1.00  0.00    -0.050 C 
HETATM   26  C5  UNL     1      -4.942   7.886  15.243  1.00  0.00     0.005 C 
BRANCH  26  27
HETATM   27  C4  UNL     1      -5.144   7.010  14.108  1.00  0.00     0.001 C 
HETATM   28  C3  UNL     1      -6.183   6.210  13.809  1.00  0.00     0.006 C 
BRANCH  28  29
HETATM   29  C2  UNL     1      -7.468   5.949  14.458  1.00  0.00    -0.067 C 
HETATM   30  C1  UNL     1      -7.442   5.387  15.681  1.00  0.00     0.019 C 
BRANCH  29  31
HETATM   31  C27 UNL     1      -8.763   6.245  13.721  1.00  0.00     0.041 C 
BRANCH  31  32
HETATM   32  C28 UNL     1      -9.797   7.186  14.377  1.00  0.00     0.032 C 
BRANCH  32  33
HETATM   33  C29 UNL     1     -11.222   6.855  14.014  1.00  0.00    -0.024 C 
HETATM   34  C30 UNL     1     -12.068   7.557  13.234  1.00  0.00    -0.091 C 
HETATM   35  C31 UNL     1     -13.474   7.067  13.000  1.00  0.00     0.042 C 
HETATM   36  C32 UNL     1     -11.743   8.845  12.530  1.00  0.00     0.042 C 
ENDBRANCH  32  33
ENDBRANCH  31  32
ENDBRANCH  29  31
ENDBRANCH  28  29
ENDBRANCH  26  27
BRANCH  25  37
HETATM   37  C7  UNL     1      -3.962   9.680  16.674  1.00  0.00     0.202 C 
BRANCH  37  38
HETATM   38  O1  UNL     1      -2.777  10.475  16.778  1.00  0.00    -0.385 OA
BRANCH  38  39
HETATM   39  C8  UNL     1      -2.294  10.531  18.116  1.00  0.00     0.194 C 
BRANCH  39  40
HETATM   40  C9  UNL     1      -0.775  10.650  18.099  1.00  0.00     0.190 C 
BRANCH  40  41
HETATM   41  O2  UNL     1      -0.214   9.833  17.078  1.00  0.00    -0.399 OA
HETATM   42  H12 UNL     1      -0.303   8.909  17.367  1.00  0.00     0.209 HD
ENDBRANCH  40  41
ENDBRANCH  39  40
ENDBRANCH  38  39
ENDBRANCH  37  38
ENDBRANCH  25  37
ENDBRANCH   1  25
BRANCH   8  43
HETATM   43  C22 UNL     1       2.010   9.589  13.416  1.00  0.00     0.265 C 
HETATM   44  O5  UNL     1       3.018  10.152  13.005  1.00  0.00    -0.302 OA
ENDBRANCH   8  43
TORSDOF 20
ENDMDL
MODEL 7
REMARK minimizedAffinity -7.17464828
REMARK CNNscore 0.448629051
REMARK CNNaffinity 6.58664703
REMARK  20 active torsions:
REMARK  status: ('A' for Active; 'I' for Inactive)
REMARK    1  A    between atoms: C2_2  and  C3_3 
REMARK    2  A    between atoms: C2_2  and  C27_34 
REMARK    3  A    between atoms: C4_4  and  C5_5 
REMARK    4  A    between atoms: C6_6  and  C7_7 
REMARK    5  A    between atoms: C6_6  and  C10_12 
REMARK    6  A    between atoms: C7_7  and  O1_8 
REMARK    7  A    between atoms: O1_8  and  C8_9 
REMARK    8  A    between atoms: C8_9  and  C9_10 
REMARK    9  A    between atoms: C9_10  and  O2_11 
REMARK   10  A    between atoms: C14_16  and  O3_17 
REMARK   11  A    between atoms: C15_18  and  C16_19 
REMARK   12  A    between atoms: C16_19  and  C17_20 
REMARK   13  A    between atoms: C17_20  and  C18_21 
REMARK   14  A    between atoms: C18_21  and  O4_22 
REMARK   15  A    between atoms: C20_24  and  C22_26 
REMARK   16  A    between atoms: C25_30  and  O6_31 
REMARK   17  A    between atoms: C25_30  and  C26_32 
REMARK   18  A    between atoms: C26_32  and  O7_33 
REMARK   19  A    between atoms: C27_34  and  C28_35 
REMARK   20  A    between atoms: C28_35  and  C29_36 
ROOT
HETATM    1  C10 UNL     1       0.014   8.188  13.684  1.00  0.00     0.046 C 
HETATM    2  C11 UNL     1      -0.999   8.543  12.594  1.00  0.00     0.013 C 
HETATM    3  C12 UNL     1      -1.223   7.243  11.840  1.00  0.00     0.017 C 
HETATM    4  C13 UNL     1       0.142   6.503  11.757  1.00  0.00     0.027 C 
HETATM    5  C14 UNL     1       0.894   7.090  13.024  1.00  0.00     0.138 C 
HETATM    6  C15 UNL     1       0.996   6.808  10.445  1.00  0.00     0.029 C 
HETATM    7  C19 UNL     1       2.433   6.263  10.671  1.00  0.00    -0.066 C 
HETATM    8  C20 UNL     1       3.639   6.891  10.619  1.00  0.00    -0.021 C 
HETATM    9  C21 UNL     1       4.986   6.224  10.786  1.00  0.00     0.052 C 
HETATM   10  C23 UNL     1       2.429   4.804  11.132  1.00  0.00     0.038 C 
HETATM   11  C24 UNL     1       1.072   4.113  11.138  1.00  0.00     0.045 C 
HETATM   12  C25 UNL     1      -0.104   4.930  11.740  1.00  0.00     0.090 C 
ENDROOT
BRANCH   5  13
HETATM   13  O3  UNL     1       1.384   6.135  13.946  1.00  0.00    -0.394 OA
HETATM   14  H19 UNL     1       0.708   5.426  14.013  1.00  0.00     0.210 HD
ENDBRANCH   5  13
BRANCH   6  15
HETATM   15  C16 UNL     1       0.796   8.203   9.804  1.00  0.00     0.012 C 
BRANCH  15  16
HETATM   16  C17 UNL     1       0.610   8.217   8.273  1.00  0.00     0.027 C 
BRANCH  16  17
HETATM   17  C18 UNL     1       1.894   8.019   7.471  1.00  0.00     0.164 C 
BRANCH  17  18
HETATM   18  O4  UNL     1       2.047   6.657   7.096  1.00  0.00    -0.401 OA
HETATM   19  H27 UNL     1       1.356   6.464   6.439  1.00  0.00     0.209 HD
ENDBRANCH  17  18
ENDBRANCH  16  17
ENDBRANCH  15  16
ENDBRANCH   6  15
BRANCH  12  20
HETATM   20  O6  UNL     1      -0.334   4.460  13.084  1.00  0.00    -0.387 OA
HETATM   21  H36 UNL     1      -0.659   3.539  12.977  1.00  0.00     0.210 HD
ENDBRANCH  12  20
BRANCH  12  22
HETATM   22  C26 UNL     1      -1.384   4.504  10.942  1.00  0.00     0.202 C 
BRANCH  22  23
HETATM   23  O7  UNL     1      -1.271   3.117  10.591  1.00  0.00    -0.398 OA
HETATM   24  H39 UNL     1      -2.046   2.902  10.043  1.00  0.00     0.209 HD
ENDBRANCH  22  23
ENDBRANCH  12  22
BRANCH   1  25
HETATM   25  C6  UNL     1      -0.570   7.896  15.074  1.00  0.00    -0.050 C 
HETATM   26  C5  UNL     1      -1.593   7.033  15.288  1.00  0.00     0.005 C 
BRANCH  26  27
HETATM   27  C4  UNL     1      -2.360   6.293  14.309  1.00  0.00     0.001 C 
HETATM   28  C3  UNL     1      -3.629   6.467  13.896  1.00  0.00     0.006 C 
BRANCH  28  29
HETATM   29  C2  UNL     1      -4.668   7.442  14.230  1.00  0.00    -0.067 C 
HETATM   30  C1  UNL     1      -4.774   8.528  13.442  1.00  0.00     0.019 C 
BRANCH  29  31
HETATM   31  C27 UNL     1      -5.527   7.240  15.467  1.00  0.00     0.041 C 
BRANCH  31  32
HETATM   32  C28 UNL     1      -6.555   6.088  15.483  1.00  0.00     0.032 C 
BRANCH  32  33
HETATM   33  C29 UNL     1      -7.497   6.112  14.307  1.00  0.00    -0.024 C 
HETATM   34  C30 UNL     1      -7.473   5.338  13.203  1.00  0.00    -0.091 C 
HETATM   35  C31 UNL     1      -8.502   5.524  12.118  1.00  0.00     0.042 C 
HETATM   36  C32 UNL     1      -6.478   4.246  12.924  1.00  0.00     0.042 C 
ENDBRANCH  32  33
ENDBRANCH  31  32
ENDBRANCH  29  31
ENDBRANCH  28  29
ENDBRANCH  26  27
BRANCH  25  37
HETATM   37  C7  UNL     1       0.073   8.627  16.244  1.00  0.00     0.202 C 
BRANCH  37  38
HETATM   38  O1  UNL     1       1.362   8.100  16.571  1.00  0.00    -0.385 OA
BRANCH  38  39
HETATM   39  C8  UNL     1       2.410   8.972  16.160  1.00  0.00     0.194 C 
BRANCH  39  40
HETATM   40  C9  UNL     1       2.511  10.134  17.141  1.00  0.00     0.190 C 
BRANCH  40  41
HETATM   41  O2  UNL     1       2.473   9.669  18.485  1.00  0.00    -0.399 OA
HETATM   42  H12 UNL     1       1.561   9.381  18.664  1.00  0.00     0.209 HD
ENDBRANCH  40  41
ENDBRANCH  39  40
ENDBRANCH  38  39
ENDBRANCH  37  38
ENDBRANCH  25  37
ENDBRANCH   1  25
BRANCH   8  43
HETATM   43  C22 UNL     1       3.815   8.366  10.500  1.00  0.00     0.265 C 
HETATM   44  O5  UNL     1       4.500   8.884   9.626  1.00  0.00    -0.302 OA
ENDBRANCH   8  43
TORSDOF 20
ENDMDL
MODEL 8
REMARK minimizedAffinity -6.77260828
REMARK CNNscore 0.420638651
REMARK CNNaffinity 6.48969889
REMARK  20 active torsions:
REMARK  status: ('A' for Active; 'I' for Inactive)
REMARK    1  A    between atoms: C2_2  and  C3_3 
REMARK    2  A    between atoms: C2_2  and  C27_34 
REMARK    3  A    between atoms: C4_4  and  C5_5 
REMARK    4  A    between atoms: C6_6  and  C7_7 
REMARK    5  A    between atoms: C6_6  and  C10_12 
REMARK    6  A    between atoms: C7_7  and  O1_8 
REMARK    7  A    between atoms: O1_8  and  C8_9 
REMARK    8  A    between atoms: C8_9  and  C9_10 
REMARK    9  A    between atoms: C9_10  and  O2_11 
REMARK   10  A    between atoms: C14_16  and  O3_17 
REMARK   11  A    between atoms: C15_18  and  C16_19 
REMARK   12  A    between atoms: C16_19  and  C17_20 
REMARK   13  A    between atoms: C17_20  and  C18_21 
REMARK   14  A    between atoms: C18_21  and  O4_22 
REMARK   15  A    between atoms: C20_24  and  C22_26 
REMARK   16  A    between atoms: C25_30  and  O6_31 
REMARK   17  A    between atoms: C25_30  and  C26_32 
REMARK   18  A    between atoms: C26_32  and  O7_33 
REMARK   19  A    between atoms: C27_34  and  C28_35 
REMARK   20  A    between atoms: C28_35  and  C29_36 
ROOT
HETATM    1  C10 UNL     1      -2.543   9.270  14.322  1.00  0.00     0.046 C 
HETATM    2  C11 UNL     1      -2.883   9.164  12.833  1.00  0.00     0.013 C 
HETATM    3  C12 UNL     1      -2.593   7.716  12.476  1.00  0.00     0.017 C 
HETATM    4  C13 UNL     1      -1.325   7.279  13.263  1.00  0.00     0.027 C 
HETATM    5  C14 UNL     1      -1.370   8.267  14.502  1.00  0.00     0.138 C 
HETATM    6  C15 UNL     1       0.052   7.469  12.481  1.00  0.00     0.029 C 
HETATM    7  C19 UNL     1       1.210   7.299  13.504  1.00  0.00    -0.066 C 
HETATM    8  C20 UNL     1       2.222   8.141  13.846  1.00  0.00    -0.021 C 
HETATM    9  C21 UNL     1       3.342   7.823  14.811  1.00  0.00     0.052 C 
HETATM   10  C23 UNL     1       1.081   6.004  14.308  1.00  0.00     0.038 C 
HETATM   11  C24 UNL     1      -0.033   5.062  13.875  1.00  0.00     0.045 C 
HETATM   12  C25 UNL     1      -1.410   5.722  13.587  1.00  0.00     0.090 C 
ENDROOT
BRANCH   5  13
HETATM   13  O3  UNL     1      -1.349   7.654  15.778  1.00  0.00    -0.394 OA
HETATM   14  H19 UNL     1      -1.909   6.850  15.721  1.00  0.00     0.210 HD
ENDBRANCH   5  13
BRANCH   6  15
HETATM   15  C16 UNL     1       0.102   8.623  11.450  1.00  0.00     0.012 C 
BRANCH  15  16
HETATM   16  C17 UNL     1       0.981   8.372  10.207  1.00  0.00     0.027 C 
BRANCH  16  17
HETATM   17  C18 UNL     1       0.213   8.259   8.892  1.00  0.00     0.164 C 
BRANCH  17  18
HETATM   18  O4  UNL     1      -0.762   9.288   8.790  1.00  0.00    -0.401 OA
HETATM   19  H27 UNL     1      -0.279  10.126   8.682  1.00  0.00     0.209 HD
ENDBRANCH  17  18
ENDBRANCH  16  17
ENDBRANCH  15  16
ENDBRANCH   6  15
BRANCH  12  20
HETATM   20  O6  UNL     1      -2.256   5.512  14.737  1.00  0.00    -0.387 OA
HETATM   21  H36 UNL     1      -2.411   4.542  14.761  1.00  0.00     0.210 HD
ENDBRANCH  12  20
BRANCH  12  22
HETATM   22  C26 UNL     1      -2.069   4.877  12.444  1.00  0.00     0.202 C 
BRANCH  22  23
HETATM   23  O7  UNL     1      -1.064   4.047  11.844  1.00  0.00    -0.398 OA
HETATM   24  H39 UNL     1      -1.488   3.587  11.099  1.00  0.00     0.209 HD
ENDBRANCH  22  23
ENDBRANCH  12  22
BRANCH   1  25
HETATM   25  C6  UNL     1      -3.730   9.165  15.289  1.00  0.00    -0.050 C 
HETATM   26  C5  UNL     1      -4.888   8.529  14.986  1.00  0.00     0.005 C 
BRANCH  26  27
HETATM   27  C4  UNL     1      -5.267   7.910  13.733  1.00  0.00     0.001 C 
HETATM   28  C3  UNL     1      -5.978   6.791  13.504  1.00  0.00     0.006 C 
BRANCH  28  29
HETATM   29  C2  UNL     1      -6.645   5.828  14.383  1.00  0.00    -0.067 C 
HETATM   30  C1  UNL     1      -6.900   6.215  15.647  1.00  0.00     0.019 C 
BRANCH  29  31
HETATM   31  C27 UNL     1      -6.956   4.430  13.876  1.00  0.00     0.041 C 
BRANCH  31  32
HETATM   32  C28 UNL     1      -6.641   4.081  12.406  1.00  0.00     0.032 C 
BRANCH  32  33
HETATM   33  C29 UNL     1      -5.312   3.393  12.227  1.00  0.00    -0.024 C 
HETATM   34  C30 UNL     1      -5.068   2.169  11.718  1.00  0.00    -0.091 C 
HETATM   35  C31 UNL     1      -3.658   1.643  11.636  1.00  0.00     0.042 C 
HETATM   36  C32 UNL     1      -6.108   1.219  11.191  1.00  0.00     0.042 C 
ENDBRANCH  32  33
ENDBRANCH  31  32
ENDBRANCH  29  31
ENDBRANCH  28  29
ENDBRANCH  26  27
BRANCH  25  37
HETATM   37  C7  UNL     1      -3.546   9.809  16.656  1.00  0.00     0.202 C 
BRANCH  37  38
HETATM   38  O1  UNL     1      -2.527  10.813  16.650  1.00  0.00    -0.385 OA
BRANCH  38  39
HETATM   39  C8  UNL     1      -2.418  11.462  17.913  1.00  0.00     0.194 C 
BRANCH  39  40
HETATM   40  C9  UNL     1      -2.121  12.941  17.695  1.00  0.00     0.190 C 
BRANCH  40  41
HETATM   41  O2  UNL     1      -3.058  13.519  16.793  1.00  0.00    -0.399 OA
HETATM   42  H12 UNL     1      -2.852  13.177  15.906  1.00  0.00     0.209 HD
ENDBRANCH  40  41
ENDBRANCH  39  40
ENDBRANCH  38  39
ENDBRANCH  37  38
ENDBRANCH  25  37
ENDBRANCH   1  25
BRANCH   8  43
HETATM   43  C22 UNL     1       2.324   9.561  13.402  1.00  0.00     0.265 C 
HETATM   44  O5  UNL     1       1.893  10.495  14.067  1.00  0.00    -0.302 OA
ENDBRANCH   8  43
TORSDOF 20
ENDMDL
MODEL 9
REMARK minimizedAffinity -6.52258253
REMARK CNNscore 0.333367854
REMARK CNNaffinity 6.53595304
REMARK  20 active torsions:
REMARK  status: ('A' for Active; 'I' for Inactive)
REMARK    1  A    between atoms: C2_2  and  C3_3 
REMARK    2  A    between atoms: C2_2  and  C27_34 
REMARK    3  A    between atoms: C4_4  and  C5_5 
REMARK    4  A    between atoms: C6_6  and  C7_7 
REMARK    5  A    between atoms: C6_6  and  C10_12 
REMARK    6  A    between atoms: C7_7  and  O1_8 
REMARK    7  A    between atoms: O1_8  and  C8_9 
REMARK    8  A    between atoms: C8_9  and  C9_10 
REMARK    9  A    between atoms: C9_10  and  O2_11 
REMARK   10  A    between atoms: C14_16  and  O3_17 
REMARK   11  A    between atoms: C15_18  and  C16_19 
REMARK   12  A    between atoms: C16_19  and  C17_20 
REMARK   13  A    between atoms: C17_20  and  C18_21 
REMARK   14  A    between atoms: C18_21  and  O4_22 
REMARK   15  A    between atoms: C20_24  and  C22_26 
REMARK   16  A    between atoms: C25_30  and  O6_31 
REMARK   17  A    between atoms: C25_30  and  C26_32 
REMARK   18  A    between atoms: C26_32  and  O7_33 
REMARK   19  A    between atoms: C27_34  and  C28_35 
REMARK   20  A    between atoms: C28_35  and  C29_36 
ROOT
HETATM    1  C10 UNL     1      -3.500   5.013  13.121  1.00  0.00     0.046 C 
HETATM    2  C11 UNL     1      -2.673   4.580  14.334  1.00  0.00     0.013 C 
HETATM    3  C12 UNL     1      -2.298   5.879  15.026  1.00  0.00     0.017 C 
HETATM    4  C13 UNL     1      -2.010   6.938  13.924  1.00  0.00     0.027 C 
HETATM    5  C14 UNL     1      -2.875   6.377  12.719  1.00  0.00     0.138 C 
HETATM    6  C15 UNL     1      -0.484   7.047  13.476  1.00  0.00     0.029 C 
HETATM    7  C19 UNL     1      -0.426   7.891  12.173  1.00  0.00    -0.066 C 
HETATM    8  C20 UNL     1       0.079   7.594  10.945  1.00  0.00    -0.021 C 
HETATM    9  C21 UNL     1       0.143   8.541   9.768  1.00  0.00     0.052 C 
HETATM   10  C23 UNL     1      -1.168   9.221  12.316  1.00  0.00     0.038 C 
HETATM   11  C24 UNL     1      -1.683   9.547  13.711  1.00  0.00     0.045 C 
HETATM   12  C25 UNL     1      -2.392   8.387  14.463  1.00  0.00     0.090 C 
ENDROOT
BRANCH   5  13
HETATM   13  O3  UNL     1      -3.812   7.280  12.162  1.00  0.00    -0.394 OA
HETATM   14  H19 UNL     1      -4.206   7.783  12.907  1.00  0.00     0.210 HD
ENDBRANCH   5  13
BRANCH   6  15
HETATM   15  C16 UNL     1       0.359   5.753  13.591  1.00  0.00     0.012 C 
BRANCH  15  16
HETATM   16  C17 UNL     1      -0.366   4.445  13.211  1.00  0.00     0.027 C 
BRANCH  16  17
HETATM   17  C18 UNL     1       0.026   3.867  11.853  1.00  0.00     0.164 C 
BRANCH  17  18
HETATM   18  O4  UNL     1      -0.279   2.480  11.791  1.00  0.00    -0.401 OA
HETATM   19  H27 UNL     1      -1.249   2.403  11.781  1.00  0.00     0.209 HD
ENDBRANCH  17  18
ENDBRANCH  16  17
ENDBRANCH  15  16
ENDBRANCH   6  15
BRANCH  12  20
HETATM   20  O6  UNL     1      -3.817   8.586  14.351  1.00  0.00    -0.387 OA
HETATM   21  H36 UNL     1      -3.997   9.403  14.865  1.00  0.00     0.210 HD
ENDBRANCH  12  20
BRANCH  12  22
HETATM   22  C26 UNL     1      -2.076   8.595  15.984  1.00  0.00     0.202 C 
BRANCH  22  23
HETATM   23  O7  UNL     1      -2.751   7.579  16.739  1.00  0.00    -0.398 OA
HETATM   24  H39 UNL     1      -2.589   7.774  17.679  1.00  0.00     0.209 HD
ENDBRANCH  22  23
ENDBRANCH  12  22
BRANCH   1  25
HETATM   25  C6  UNL     1      -5.025   4.947  13.292  1.00  0.00    -0.050 C 
HETATM   26  C5  UNL     1      -5.700   5.628  14.250  1.00  0.00     0.005 C 
BRANCH  26  27
HETATM   27  C4  UNL     1      -5.161   6.461  15.304  1.00  0.00     0.001 C 
HETATM   28  C3  UNL     1      -5.776   7.359  16.095  1.00  0.00     0.006 C 
BRANCH  28  29
HETATM   29  C2  UNL     1      -7.166   7.800  16.221  1.00  0.00    -0.067 C 
HETATM   30  C1  UNL     1      -7.940   7.161  17.117  1.00  0.00     0.019 C 
BRANCH  29  31
HETATM   31  C27 UNL     1      -7.701   8.889  15.307  1.00  0.00     0.041 C 
BRANCH  31  32
HETATM   32  C28 UNL     1      -9.221   8.967  15.048  1.00  0.00     0.032 C 
BRANCH  32  33
HETATM   33  C29 UNL     1      -9.768  10.370  15.116  1.00  0.00    -0.024 C 
HETATM   34  C30 UNL     1     -10.894  10.853  14.554  1.00  0.00    -0.091 C 
HETATM   35  C31 UNL     1     -11.268  12.304  14.723  1.00  0.00     0.042 C 
HETATM   36  C32 UNL     1     -11.873  10.059  13.736  1.00  0.00     0.042 C 
ENDBRANCH  32  33
ENDBRANCH  31  32
ENDBRANCH  29  31
ENDBRANCH  28  29
ENDBRANCH  26  27
BRANCH  25  37
HETATM   37  C7  UNL     1      -5.777   4.070  12.302  1.00  0.00     0.202 C 
BRANCH  37  38
HETATM   38  O1  UNL     1      -7.080   4.580  12.005  1.00  0.00    -0.385 OA
BRANCH  38  39
HETATM   39  C8  UNL     1      -8.085   3.960  12.801  1.00  0.00     0.194 C 
BRANCH  39  40
HETATM   40  C9  UNL     1      -7.543   2.653  13.367  1.00  0.00     0.190 C 
BRANCH  40  41
HETATM   41  O2  UNL     1      -7.953   1.547  12.572  1.00  0.00    -0.399 OA
HETATM   42  H12 UNL     1      -8.903   1.414  12.731  1.00  0.00     0.209 HD
ENDBRANCH  40  41
ENDBRANCH  39  40
ENDBRANCH  38  39
ENDBRANCH  37  38
ENDBRANCH  25  37
ENDBRANCH   1  25
BRANCH   8  43
HETATM   43  C22 UNL     1       0.550   6.241  10.533  1.00  0.00     0.265 C 
HETATM   44  O5  UNL     1       1.544   6.068   9.837  1.00  0.00    -0.302 OA
ENDBRANCH   8  43
TORSDOF 20
ENDMDL
