MODEL 1
REMARK minimizedAffinity -10.328064
REMARK  8 active torsions:
REMARK  status: ('A' for Active; 'I' for Inactive)
REMARK    1  A    between atoms: C2_2  and  C3_3 
REMARK    2  A    between atoms: C2_2  and  C11_14 
REMARK    3  A    between atoms: C3_3  and  C4_4 
REMARK    4  A    between atoms: C4_4  and  C5_5 
REMARK       I    between atoms: C5_5  and  N1_7 
REMARK    5  A    between atoms: N1_7  and  C6_8 
REMARK    6  A    between atoms: C6_8  and  C7_9 
REMARK    7  A    between atoms: C16_19  and  O3_20 
REMARK    8  A    between atoms: C20_24  and  O4_25 
ROOT
HETATM    1  C11 UNL     1      -0.544  51.697 -20.814  1.00  0.00    -0.002 C 
HETATM    2  C12 UNL     1       0.017  53.124 -20.531  1.00  0.00     0.006 C 
HETATM    3  C13 UNL     1       0.471  53.157 -19.068  1.00  0.00     0.006 C 
HETATM    4  C14 UNL     1       0.396  51.704 -18.628  1.00  0.00     0.001 C 
HETATM    5  C15 UNL     1       0.406  51.406 -17.118  1.00  0.00     0.024 C 
HETATM    6  C16 UNL     1       1.691  51.974 -16.466  1.00  0.00     0.123 C 
HETATM    7  C17 UNL     1       2.156  51.188 -15.233  1.00  0.00     0.037 C 
HETATM    8  C18 UNL     1       0.954  50.604 -14.481  1.00  0.00    -0.001 C 
HETATM    9  C19 UNL     1       1.324  50.144 -13.055  1.00  0.00     0.037 C 
HETATM   10  C20 UNL     1       1.981  48.770 -12.974  1.00  0.00     0.118 C 
HETATM   11  C21 UNL     1       1.153  47.722 -13.707  1.00  0.00     0.032 C 
HETATM   12  C22 UNL     1       0.903  48.117 -15.160  1.00  0.00     0.012 C 
HETATM   13  C23 UNL     1       0.232  49.510 -15.343  1.00  0.00    -0.036 C 
HETATM   14  C24 UNL     1      -1.233  49.426 -14.845  1.00  0.00     0.016 C 
HETATM   15  C25 UNL     1       0.307  49.874 -16.888  1.00  0.00     0.001 C 
HETATM   16  C26 UNL     1      -0.789  49.196 -17.747  1.00  0.00     0.007 C 
HETATM   17  C27 UNL     1      -0.780  49.620 -19.224  1.00  0.00     0.010 C 
HETATM   18  C28 UNL     1      -0.840  51.151 -19.380  1.00  0.00    -0.036 C 
HETATM   19  C29 UNL     1      -2.182  51.705 -18.844  1.00  0.00     0.016 C 
ENDROOT
BRANCH   1  20
HETATM   20  C2  UNL     1      -1.682  51.728 -21.880  1.00  0.00    -0.013 C 
HETATM   21  C1  UNL     1      -2.502  50.436 -21.899  1.00  0.00     0.010 C 
BRANCH  20  22
HETATM   22  C3  UNL     1      -1.092  52.021 -23.290  1.00  0.00     0.014 C 
BRANCH  22  23
HETATM   23  C4  UNL     1       0.328  52.601 -23.274  1.00  0.00     0.103 C 
BRANCH  23  24
HETATM   24  C5  UNL     1       0.593  53.652 -24.338  1.00  0.00     0.217 C 
HETATM   25  O1  UNL     1       1.422  54.547 -24.220  1.00  0.00    -0.274 OA
HETATM   26  N1  UNL     1      -0.245  53.519 -25.431  1.00  0.00    -0.359 N 
HETATM   27  H9  UNL     1      -0.793  52.673 -25.506  1.00  0.00     0.162 HD
BRANCH  26  28
HETATM   28  C6  UNL     1      -0.021  54.282 -26.647  1.00  0.00     0.154 C 
BRANCH  28  29
HETATM   29  C7  UNL     1      -0.629  53.588 -27.882  1.00  0.00     0.139 C 
HETATM   30  C8  UNL     1      -0.057  52.198 -28.108  1.00  0.00     0.035 C 
HETATM   31  C9  UNL     1      -0.957  51.333 -27.261  1.00  0.00     0.029 C 
HETATM   32  C10 UNL     1      -2.298  52.020 -27.404  1.00  0.00     0.168 C 
HETATM   33  O2  UNL     1      -2.046  53.400 -27.708  1.00  0.00    -0.384 OA
ENDBRANCH  28  29
ENDBRANCH  26  28
ENDBRANCH  23  24
ENDBRANCH  22  23
ENDBRANCH  20  22
ENDBRANCH   1  20
BRANCH   6  34
HETATM   34  O3  UNL     1       1.427  53.326 -16.084  1.00  0.00    -0.395 OA
HETATM   35  H27 UNL     1       2.256  53.699 -15.739  1.00  0.00     0.210 HD
ENDBRANCH   6  34
BRANCH  10  36
HETATM   36  O4  UNL     1       3.291  48.839 -13.527  1.00  0.00    -0.396 OA
HETATM   37  H34 UNL     1       3.689  47.955 -13.449  1.00  0.00     0.210 HD
ENDBRANCH  10  36
TORSDOF 8
ENDMDL
MODEL 2
REMARK minimizedAffinity -10.0346069
REMARK  8 active torsions:
REMARK  status: ('A' for Active; 'I' for Inactive)
REMARK    1  A    between atoms: C2_2  and  C3_3 
REMARK    2  A    between atoms: C2_2  and  C11_14 
REMARK    3  A    between atoms: C3_3  and  C4_4 
REMARK    4  A    between atoms: C4_4  and  C5_5 
REMARK       I    between atoms: C5_5  and  N1_7 
REMARK    5  A    between atoms: N1_7  and  C6_8 
REMARK    6  A    between atoms: C6_8  and  C7_9 
REMARK    7  A    between atoms: C16_19  and  O3_20 
REMARK    8  A    between atoms: C20_24  and  O4_25 
ROOT
HETATM    1  C11 UNL     1      -0.709  51.169 -20.785  1.00  0.00    -0.002 C 
HETATM    2  C12 UNL     1      -0.152  52.624 -20.720  1.00  0.00     0.006 C 
HETATM    3  C13 UNL     1       0.367  52.854 -19.297  1.00  0.00     0.006 C 
HETATM    4  C14 UNL     1       0.330  51.472 -18.665  1.00  0.00     0.001 C 
HETATM    5  C15 UNL     1       0.412  51.378 -17.131  1.00  0.00     0.024 C 
HETATM    6  C16 UNL     1       1.718  52.034 -16.621  1.00  0.00     0.123 C 
HETATM    7  C17 UNL     1       2.249  51.422 -15.318  1.00  0.00     0.037 C 
HETATM    8  C18 UNL     1       1.088  50.936 -14.440  1.00  0.00    -0.001 C 
HETATM    9  C19 UNL     1       1.529  50.672 -12.984  1.00  0.00     0.037 C 
HETATM   10  C20 UNL     1       2.204  49.326 -12.753  1.00  0.00     0.118 C 
HETATM   11  C21 UNL     1       1.357  48.184 -13.300  1.00  0.00     0.032 C 
HETATM   12  C22 UNL     1       1.035  48.381 -14.780  1.00  0.00     0.012 C 
HETATM   13  C23 UNL     1       0.341  49.734 -15.115  1.00  0.00    -0.036 C 
HETATM   14  C24 UNL     1      -1.098  49.709 -14.542  1.00  0.00     0.016 C 
HETATM   15  C25 UNL     1       0.342  49.890 -16.696  1.00  0.00     0.001 C 
HETATM   16  C26 UNL     1      -0.785  49.097 -17.405  1.00  0.00     0.007 C 
HETATM   17  C27 UNL     1      -0.848  49.321 -18.924  1.00  0.00     0.010 C 
HETATM   18  C28 UNL     1      -0.933  50.817 -19.278  1.00  0.00    -0.036 C 
HETATM   19  C29 UNL     1      -2.255  51.430 -18.759  1.00  0.00     0.016 C 
ENDROOT
BRANCH   1  20
HETATM   20  C2  UNL     1      -1.895  51.052 -21.791  1.00  0.00    -0.013 C 
HETATM   21  C1  UNL     1      -1.960  49.677 -22.461  1.00  0.00     0.010 C 
BRANCH  20  22
HETATM   22  C3  UNL     1      -1.804  52.177 -22.863  1.00  0.00     0.014 C 
BRANCH  22  23
HETATM   23  C4  UNL     1      -2.950  52.174 -23.882  1.00  0.00     0.103 C 
BRANCH  23  24
HETATM   24  C5  UNL     1      -2.505  52.208 -25.334  1.00  0.00     0.217 C 
HETATM   25  O1  UNL     1      -3.004  52.937 -26.183  1.00  0.00    -0.274 OA
HETATM   26  N1  UNL     1      -1.512  51.283 -25.603  1.00  0.00    -0.359 N 
HETATM   27  H9  UNL     1      -1.063  50.830 -24.818  1.00  0.00     0.162 HD
BRANCH  26  28
HETATM   28  C6  UNL     1      -0.797  51.294 -26.868  1.00  0.00     0.154 C 
BRANCH  28  29
HETATM   29  C7  UNL     1       0.290  52.386 -26.904  1.00  0.00     0.139 C 
HETATM   30  C8  UNL     1       1.283  52.258 -25.760  1.00  0.00     0.035 C 
HETATM   31  C9  UNL     1       2.310  51.308 -26.324  1.00  0.00     0.029 C 
HETATM   32  C10 UNL     1       2.345  51.698 -27.787  1.00  0.00     0.168 C 
HETATM   33  O2  UNL     1       1.073  52.279 -28.108  1.00  0.00    -0.384 OA
ENDBRANCH  28  29
ENDBRANCH  26  28
ENDBRANCH  23  24
ENDBRANCH  22  23
ENDBRANCH  20  22
ENDBRANCH   1  20
BRANCH   6  34
HETATM   34  O3  UNL     1       1.456  53.424 -16.409  1.00  0.00    -0.395 OA
HETATM   35  H27 UNL     1       2.296  53.844 -16.157  1.00  0.00     0.210 HD
ENDBRANCH   6  34
BRANCH  10  36
HETATM   36  O4  UNL     1       3.487  49.327 -13.370  1.00  0.00    -0.396 OA
HETATM   37  H34 UNL     1       3.899  48.463 -13.194  1.00  0.00     0.210 HD
ENDBRANCH  10  36
TORSDOF 8
ENDMDL
MODEL 3
REMARK minimizedAffinity -9.76277161
REMARK  8 active torsions:
REMARK  status: ('A' for Active; 'I' for Inactive)
REMARK    1  A    between atoms: C2_2  and  C3_3 
REMARK    2  A    between atoms: C2_2  and  C11_14 
REMARK    3  A    between atoms: C3_3  and  C4_4 
REMARK    4  A    between atoms: C4_4  and  C5_5 
REMARK       I    between atoms: C5_5  and  N1_7 
REMARK    5  A    between atoms: N1_7  and  C6_8 
REMARK    6  A    between atoms: C6_8  and  C7_9 
REMARK    7  A    between atoms: C16_19  and  O3_20 
REMARK    8  A    between atoms: C20_24  and  O4_25 
ROOT
HETATM    1  C11 UNL     1      -0.611  51.440 -20.817  1.00  0.00    -0.002 C 
HETATM    2  C12 UNL     1      -0.050  52.887 -20.669  1.00  0.00     0.006 C 
HETATM    3  C13 UNL     1       0.436  53.047 -19.224  1.00  0.00     0.006 C 
HETATM    4  C14 UNL     1       0.379  51.636 -18.661  1.00  0.00     0.001 C 
HETATM    5  C15 UNL     1       0.424  51.468 -17.132  1.00  0.00     0.024 C 
HETATM    6  C16 UNL     1       1.720  52.092 -16.559  1.00  0.00     0.123 C 
HETATM    7  C17 UNL     1       2.217  51.416 -15.276  1.00  0.00     0.037 C 
HETATM    8  C18 UNL     1       1.034  50.894 -14.449  1.00  0.00    -0.001 C 
HETATM    9  C19 UNL     1       1.439  50.558 -12.998  1.00  0.00     0.037 C 
HETATM   10  C20 UNL     1       2.104  49.199 -12.816  1.00  0.00     0.118 C 
HETATM   11  C21 UNL     1       1.265  48.089 -13.437  1.00  0.00     0.032 C 
HETATM   12  C22 UNL     1       0.980  48.359 -14.913  1.00  0.00     0.012 C 
HETATM   13  C23 UNL     1       0.299  49.729 -15.199  1.00  0.00    -0.036 C 
HETATM   14  C24 UNL     1      -1.154  49.684 -14.662  1.00  0.00     0.016 C 
HETATM   15  C25 UNL     1       0.338  49.961 -16.770  1.00  0.00     0.001 C 
HETATM   16  C26 UNL     1      -0.775  49.208 -17.543  1.00  0.00     0.007 C 
HETATM   17  C27 UNL     1      -0.800  49.505 -19.051  1.00  0.00     0.010 C 
HETATM   18  C28 UNL     1      -0.871  51.018 -19.335  1.00  0.00    -0.036 C 
HETATM   19  C29 UNL     1      -2.204  51.611 -18.818  1.00  0.00     0.016 C 
ENDROOT
BRANCH   1  20
HETATM   20  C2  UNL     1      -1.772  51.378 -21.855  1.00  0.00    -0.013 C 
HETATM   21  C1  UNL     1      -2.098  49.944 -22.282  1.00  0.00     0.010 C 
BRANCH  20  22
HETATM   22  C3  UNL     1      -1.432  52.252 -23.097  1.00  0.00     0.014 C 
BRANCH  22  23
HETATM   23  C4  UNL     1      -0.386  51.640 -24.036  1.00  0.00     0.103 C 
BRANCH  23  24
HETATM   24  C5  UNL     1      -0.907  51.288 -25.420  1.00  0.00     0.217 C 
HETATM   25  O1  UNL     1      -0.189  50.941 -26.350  1.00  0.00    -0.274 OA
HETATM   26  N1  UNL     1      -2.276  51.460 -25.526  1.00  0.00    -0.359 N 
HETATM   27  H9  UNL     1      -2.801  51.608 -24.676  1.00  0.00     0.162 HD
BRANCH  26  28
HETATM   28  C6  UNL     1      -3.004  50.981 -26.689  1.00  0.00     0.154 C 
BRANCH  28  29
HETATM   29  C7  UNL     1      -2.769  49.478 -26.936  1.00  0.00     0.139 C 
HETATM   30  C8  UNL     1      -3.225  48.618 -25.768  1.00  0.00     0.035 C 
HETATM   31  C9  UNL     1      -4.679  48.376 -26.090  1.00  0.00     0.029 C 
HETATM   32  C10 UNL     1      -4.667  48.282 -27.601  1.00  0.00     0.168 C 
HETATM   33  O2  UNL     1      -3.533  49.027 -28.070  1.00  0.00    -0.384 OA
ENDBRANCH  28  29
ENDBRANCH  26  28
ENDBRANCH  23  24
ENDBRANCH  22  23
ENDBRANCH  20  22
ENDBRANCH   1  20
BRANCH   6  34
HETATM   34  O3  UNL     1       1.458  53.472 -16.288  1.00  0.00    -0.395 OA
HETATM   35  H27 UNL     1       2.293  53.875 -15.995  1.00  0.00     0.210 HD
ENDBRANCH   6  34
BRANCH  10  36
HETATM   36  O4  UNL     1       3.401  49.224 -13.402  1.00  0.00    -0.396 OA
HETATM   37  H34 UNL     1       3.805  48.351 -13.258  1.00  0.00     0.210 HD
ENDBRANCH  10  36
TORSDOF 8
ENDMDL
MODEL 4
REMARK minimizedAffinity -9.26821899
REMARK  8 active torsions:
REMARK  status: ('A' for Active; 'I' for Inactive)
REMARK    1  A    between atoms: C2_2  and  C3_3 
REMARK    2  A    between atoms: C2_2  and  C11_14 
REMARK    3  A    between atoms: C3_3  and  C4_4 
REMARK    4  A    between atoms: C4_4  and  C5_5 
REMARK       I    between atoms: C5_5  and  N1_7 
REMARK    5  A    between atoms: N1_7  and  C6_8 
REMARK    6  A    between atoms: C6_8  and  C7_9 
REMARK    7  A    between atoms: C16_19  and  O3_20 
REMARK    8  A    between atoms: C20_24  and  O4_25 
ROOT
HETATM    1  C11 UNL     1      -0.709  51.107 -25.189  1.00  0.00    -0.002 C 
HETATM    2  C12 UNL     1       0.085  52.411 -25.506  1.00  0.00     0.006 C 
HETATM    3  C13 UNL     1       0.464  53.055 -24.167  1.00  0.00     0.006 C 
HETATM    4  C14 UNL     1       0.107  51.995 -23.137  1.00  0.00     0.001 C 
HETATM    5  C15 UNL     1      -0.012  52.431 -21.666  1.00  0.00     0.024 C 
HETATM    6  C16 UNL     1       1.320  53.054 -21.180  1.00  0.00     0.123 C 
HETATM    7  C17 UNL     1       1.574  52.872 -19.678  1.00  0.00     0.037 C 
HETATM    8  C18 UNL     1       0.250  52.872 -18.903  1.00  0.00    -0.001 C 
HETATM    9  C19 UNL     1       0.460  53.078 -17.388  1.00  0.00     0.037 C 
HETATM   10  C20 UNL     1       0.855  51.822 -16.619  1.00  0.00     0.118 C 
HETATM   11  C21 UNL     1      -0.110  50.678 -16.903  1.00  0.00     0.032 C 
HETATM   12  C22 UNL     1      -0.213  50.387 -18.398  1.00  0.00     0.012 C 
HETATM   13  C23 UNL     1      -0.612  51.614 -19.269  1.00  0.00    -0.036 C 
HETATM   14  C24 UNL     1      -2.091  51.971 -18.976  1.00  0.00     0.016 C 
HETATM   15  C25 UNL     1      -0.395  51.209 -20.790  1.00  0.00     0.001 C 
HETATM   16  C26 UNL     1      -1.552  50.367 -21.385  1.00  0.00     0.007 C 
HETATM   17  C27 UNL     1      -1.393  50.054 -22.882  1.00  0.00     0.010 C 
HETATM   18  C28 UNL     1      -1.169  51.332 -23.712  1.00  0.00    -0.036 C 
HETATM   19  C29 UNL     1      -2.415  52.248 -23.656  1.00  0.00     0.016 C 
ENDROOT
BRANCH   1  20
HETATM   20  C2  UNL     1      -1.768  50.797 -26.291  1.00  0.00    -0.013 C 
HETATM   21  C1  UNL     1      -2.420  52.065 -26.848  1.00  0.00     0.010 C 
BRANCH  20  22
HETATM   22  C3  UNL     1      -2.850  49.824 -25.740  1.00  0.00     0.014 C 
BRANCH  22  23
HETATM   23  C4  UNL     1      -3.077  48.576 -26.601  1.00  0.00     0.103 C 
BRANCH  23  24
HETATM   24  C5  UNL     1      -4.046  48.771 -27.755  1.00  0.00     0.217 C 
HETATM   25  O1  UNL     1      -3.790  49.430 -28.756  1.00  0.00    -0.274 OA
HETATM   26  N1  UNL     1      -5.270  48.169 -27.523  1.00  0.00    -0.359 N 
HETATM   27  H9  UNL     1      -5.342  47.530 -26.743  1.00  0.00     0.162 HD
BRANCH  26  28
HETATM   28  C6  UNL     1      -6.261  48.052 -28.579  1.00  0.00     0.154 C 
BRANCH  28  29
HETATM   29  C7  UNL     1      -5.792  47.112 -29.707  1.00  0.00     0.139 C 
HETATM   30  C8  UNL     1      -6.726  45.930 -29.907  1.00  0.00     0.035 C 
HETATM   31  C9  UNL     1      -7.743  46.478 -30.877  1.00  0.00     0.029 C 
HETATM   32  C10 UNL     1      -6.904  47.391 -31.746  1.00  0.00     0.168 C 
HETATM   33  O2  UNL     1      -5.772  47.807 -30.968  1.00  0.00    -0.384 OA
ENDBRANCH  28  29
ENDBRANCH  26  28
ENDBRANCH  23  24
ENDBRANCH  22  23
ENDBRANCH  20  22
ENDBRANCH   1  20
BRANCH   6  34
HETATM   34  O3  UNL     1       1.284  54.452 -21.480  1.00  0.00    -0.395 OA
HETATM   35  H27 UNL     1       2.149  54.824 -21.237  1.00  0.00     0.210 HD
ENDBRANCH   6  34
BRANCH  10  36
HETATM   36  O4  UNL     1       2.182  51.448 -16.972  1.00  0.00    -0.396 OA
HETATM   37  H34 UNL     1       2.410  50.655 -16.457  1.00  0.00     0.210 HD
ENDBRANCH  10  36
TORSDOF 8
ENDMDL
MODEL 5
REMARK minimizedAffinity -9.0818491
REMARK  8 active torsions:
REMARK  status: ('A' for Active; 'I' for Inactive)
REMARK    1  A    between atoms: C2_2  and  C3_3 
REMARK    2  A    between atoms: C2_2  and  C11_14 
REMARK    3  A    between atoms: C3_3  and  C4_4 
REMARK    4  A    between atoms: C4_4  and  C5_5 
REMARK       I    between atoms: C5_5  and  N1_7 
REMARK    5  A    between atoms: N1_7  and  C6_8 
REMARK    6  A    between atoms: C6_8  and  C7_9 
REMARK    7  A    between atoms: C16_19  and  O3_20 
REMARK    8  A    between atoms: C20_24  and  O4_25 
ROOT
HETATM    1  C11 UNL     1      -1.016  50.952 -21.474  1.00  0.00    -0.002 C 
HETATM    2  C12 UNL     1      -0.483  52.416 -21.414  1.00  0.00     0.006 C 
HETATM    3  C13 UNL     1      -0.010  52.675 -19.979  1.00  0.00     0.006 C 
HETATM    4  C14 UNL     1      -0.046  51.302 -19.328  1.00  0.00     0.001 C 
HETATM    5  C15 UNL     1      -0.009  51.231 -17.791  1.00  0.00     0.024 C 
HETATM    6  C16 UNL     1       1.272  51.915 -17.252  1.00  0.00     0.123 C 
HETATM    7  C17 UNL     1       1.772  51.330 -15.925  1.00  0.00     0.037 C 
HETATM    8  C18 UNL     1       0.593  50.839 -15.074  1.00  0.00    -0.001 C 
HETATM    9  C19 UNL     1       0.993  50.603 -13.603  1.00  0.00     0.037 C 
HETATM   10  C20 UNL     1       1.681  49.270 -13.331  1.00  0.00     0.118 C 
HETATM   11  C21 UNL     1       0.867  48.108 -13.886  1.00  0.00     0.032 C 
HETATM   12  C22 UNL     1       0.588  48.279 -15.377  1.00  0.00     0.012 C 
HETATM   13  C23 UNL     1      -0.116  49.616 -15.753  1.00  0.00    -0.036 C 
HETATM   14  C24 UNL     1      -1.572  49.577 -15.224  1.00  0.00     0.016 C 
HETATM   15  C25 UNL     1      -0.070  49.749 -17.336  1.00  0.00     0.001 C 
HETATM   16  C26 UNL     1      -1.163  48.929 -18.066  1.00  0.00     0.007 C 
HETATM   17  C27 UNL     1      -1.183  49.129 -19.590  1.00  0.00     0.010 C 
HETATM   18  C28 UNL     1      -1.280  50.619 -19.969  1.00  0.00    -0.036 C 
HETATM   19  C29 UNL     1      -2.626  51.219 -19.499  1.00  0.00     0.016 C 
ENDROOT
BRANCH   1  20
HETATM   20  C2  UNL     1      -2.169  50.803 -22.513  1.00  0.00    -0.013 C 
HETATM   21  C1  UNL     1      -3.291  51.820 -22.292  1.00  0.00     0.010 C 
BRANCH  20  22
HETATM   22  C3  UNL     1      -2.734  49.353 -22.486  1.00  0.00     0.014 C 
BRANCH  22  23
HETATM   23  C4  UNL     1      -2.886  48.707 -23.868  1.00  0.00     0.103 C 
BRANCH  23  24
HETATM   24  C5  UNL     1      -3.088  49.691 -25.008  1.00  0.00     0.217 C 
HETATM   25  O1  UNL     1      -4.152  50.252 -25.244  1.00  0.00    -0.274 OA
HETATM   26  N1  UNL     1      -1.951  49.840 -25.783  1.00  0.00    -0.359 N 
HETATM   27  H9  UNL     1      -1.086  49.454 -25.432  1.00  0.00     0.162 HD
BRANCH  26  28
HETATM   28  C6  UNL     1      -1.860  50.886 -26.788  1.00  0.00     0.154 C 
BRANCH  28  29
HETATM   29  C7  UNL     1      -0.874  51.996 -26.374  1.00  0.00     0.139 C 
HETATM   30  C8  UNL     1       0.559  51.681 -26.773  1.00  0.00     0.035 C 
HETATM   31  C9  UNL     1       0.634  52.229 -28.177  1.00  0.00     0.029 C 
HETATM   32  C10 UNL     1      -0.254  53.453 -28.097  1.00  0.00     0.168 C 
HETATM   33  O2  UNL     1      -1.197  53.232 -27.038  1.00  0.00    -0.384 OA
ENDBRANCH  28  29
ENDBRANCH  26  28
ENDBRANCH  23  24
ENDBRANCH  22  23
ENDBRANCH  20  22
ENDBRANCH   1  20
BRANCH   6  34
HETATM   34  O3  UNL     1       0.983  53.303 -17.069  1.00  0.00    -0.395 OA
HETATM   35  H27 UNL     1       1.809  53.739 -16.798  1.00  0.00     0.210 HD
ENDBRANCH   6  34
BRANCH  10  36
HETATM   36  O4  UNL     1       2.982  49.282 -13.909  1.00  0.00    -0.396 OA
HETATM   37  H34 UNL     1       3.401  48.427 -13.709  1.00  0.00     0.210 HD
ENDBRANCH  10  36
TORSDOF 8
ENDMDL
MODEL 6
REMARK minimizedAffinity -9.06368256
REMARK  8 active torsions:
REMARK  status: ('A' for Active; 'I' for Inactive)
REMARK    1  A    between atoms: C2_2  and  C3_3 
REMARK    2  A    between atoms: C2_2  and  C11_14 
REMARK    3  A    between atoms: C3_3  and  C4_4 
REMARK    4  A    between atoms: C4_4  and  C5_5 
REMARK       I    between atoms: C5_5  and  N1_7 
REMARK    5  A    between atoms: N1_7  and  C6_8 
REMARK    6  A    between atoms: C6_8  and  C7_9 
REMARK    7  A    between atoms: C16_19  and  O3_20 
REMARK    8  A    between atoms: C20_24  and  O4_25 
ROOT
HETATM    1  C11 UNL     1      -0.520  51.255 -18.646  1.00  0.00    -0.002 C 
HETATM    2  C12 UNL     1      -2.046  51.376 -18.348  1.00  0.00     0.006 C 
HETATM    3  C13 UNL     1      -2.759  51.605 -19.685  1.00  0.00     0.006 C 
HETATM    4  C14 UNL     1      -1.676  51.360 -20.724  1.00  0.00     0.001 C 
HETATM    5  C15 UNL     1      -1.920  51.873 -22.155  1.00  0.00     0.024 C 
HETATM    6  C16 UNL     1      -3.208  51.244 -22.739  1.00  0.00     0.123 C 
HETATM    7  C17 UNL     1      -3.183  51.092 -24.265  1.00  0.00     0.037 C 
HETATM    8  C18 UNL     1      -2.369  52.223 -24.906  1.00  0.00    -0.001 C 
HETATM    9  C19 UNL     1      -2.626  52.341 -26.424  1.00  0.00     0.037 C 
HETATM   10  C20 UNL     1      -1.845  51.356 -27.285  1.00  0.00     0.118 C 
HETATM   11  C21 UNL     1      -0.357  51.403 -26.961  1.00  0.00     0.032 C 
HETATM   12  C22 UNL     1      -0.096  51.150 -25.478  1.00  0.00     0.012 C 
HETATM   13  C23 UNL     1      -0.854  52.112 -24.517  1.00  0.00    -0.036 C 
HETATM   14  C24 UNL     1      -0.241  53.529 -24.647  1.00  0.00     0.016 C 
HETATM   15  C25 UNL     1      -0.694  51.535 -23.045  1.00  0.00     0.001 C 
HETATM   16  C26 UNL     1       0.661  51.882 -22.379  1.00  0.00     0.007 C 
HETATM   17  C27 UNL     1       0.782  51.409 -20.921  1.00  0.00     0.010 C 
HETATM   18  C28 UNL     1      -0.391  51.912 -20.058  1.00  0.00    -0.036 C 
HETATM   19  C29 UNL     1      -0.370  53.455 -19.949  1.00  0.00     0.016 C 
ENDROOT
BRANCH   1  20
HETATM   20  C2  UNL     1       0.340  51.791 -17.461  1.00  0.00    -0.013 C 
HETATM   21  C1  UNL     1       1.614  52.494 -17.935  1.00  0.00     0.010 C 
BRANCH  20  22
HETATM   22  C3  UNL     1       0.689  50.633 -16.481  1.00  0.00     0.014 C 
BRANCH  22  23
HETATM   23  C4  UNL     1      -0.321  50.442 -15.343  1.00  0.00     0.103 C 
BRANCH  23  24
HETATM   24  C5  UNL     1      -0.008  51.229 -14.081  1.00  0.00     0.217 C 
HETATM   25  O1  UNL     1       1.129  51.456 -13.684  1.00  0.00    -0.274 OA
HETATM   26  N1  UNL     1      -1.151  51.610 -13.401  1.00  0.00    -0.359 N 
HETATM   27  H9  UNL     1      -2.039  51.506 -13.872  1.00  0.00     0.162 HD
BRANCH  26  28
HETATM   28  C6  UNL     1      -1.087  52.547 -12.291  1.00  0.00     0.154 C 
BRANCH  28  29
HETATM   29  C7  UNL     1      -1.995  52.117 -11.123  1.00  0.00     0.139 C 
HETATM   30  C8  UNL     1      -2.114  53.191 -10.053  1.00  0.00     0.035 C 
HETATM   31  C9  UNL     1      -3.266  54.025 -10.554  1.00  0.00     0.029 C 
HETATM   32  C10 UNL     1      -4.166  52.988 -11.193  1.00  0.00     0.168 C 
HETATM   33  O2  UNL     1      -3.338  51.883 -11.586  1.00  0.00    -0.384 OA
ENDBRANCH  28  29
ENDBRANCH  26  28
ENDBRANCH  23  24
ENDBRANCH  22  23
ENDBRANCH  20  22
ENDBRANCH   1  20
BRANCH   6  34
HETATM   34  O3  UNL     1      -4.308  52.080 -22.372  1.00  0.00    -0.395 OA
HETATM   35  H27 UNL     1      -5.121  51.644 -22.682  1.00  0.00     0.210 HD
ENDBRANCH   6  34
BRANCH  10  36
HETATM   36  O4  UNL     1      -2.353  50.042 -27.081  1.00  0.00    -0.396 OA
HETATM   37  H34 UNL     1      -1.847  49.439 -27.652  1.00  0.00     0.210 HD
ENDBRANCH  10  36
TORSDOF 8
ENDMDL
MODEL 7
REMARK minimizedAffinity -9.01501369
REMARK  8 active torsions:
REMARK  status: ('A' for Active; 'I' for Inactive)
REMARK    1  A    between atoms: C2_2  and  C3_3 
REMARK    2  A    between atoms: C2_2  and  C11_14 
REMARK    3  A    between atoms: C3_3  and  C4_4 
REMARK    4  A    between atoms: C4_4  and  C5_5 
REMARK       I    between atoms: C5_5  and  N1_7 
REMARK    5  A    between atoms: N1_7  and  C6_8 
REMARK    6  A    between atoms: C6_8  and  C7_9 
REMARK    7  A    between atoms: C16_19  and  O3_20 
REMARK    8  A    between atoms: C20_24  and  O4_25 
ROOT
HETATM    1  C11 UNL     1      -5.871  49.742 -23.477  1.00  0.00    -0.002 C 
HETATM    2  C12 UNL     1      -6.661  49.506 -22.153  1.00  0.00     0.006 C 
HETATM    3  C13 UNL     1      -5.714  49.820 -20.990  1.00  0.00     0.006 C 
HETATM    4  C14 UNL     1      -4.510  50.460 -21.661  1.00  0.00     0.001 C 
HETATM    5  C15 UNL     1      -3.201  50.552 -20.857  1.00  0.00     0.024 C 
HETATM    6  C16 UNL     1      -3.426  51.355 -19.552  1.00  0.00     0.123 C 
HETATM    7  C17 UNL     1      -2.177  52.096 -19.060  1.00  0.00     0.037 C 
HETATM    8  C18 UNL     1      -0.908  51.313 -19.422  1.00  0.00    -0.001 C 
HETATM    9  C19 UNL     1       0.325  51.802 -18.632  1.00  0.00     0.037 C 
HETATM   10  C20 UNL     1       0.993  53.051 -19.195  1.00  0.00     0.118 C 
HETATM   11  C21 UNL     1       1.303  52.887 -20.678  1.00  0.00     0.032 C 
HETATM   12  C22 UNL     1       0.052  52.535 -21.479  1.00  0.00     0.012 C 
HETATM   13  C23 UNL     1      -0.701  51.269 -20.976  1.00  0.00    -0.036 C 
HETATM   14  C24 UNL     1       0.161  50.021 -21.289  1.00  0.00     0.016 C 
HETATM   15  C25 UNL     1      -2.101  51.219 -21.726  1.00  0.00     0.001 C 
HETATM   16  C26 UNL     1      -2.022  50.643 -23.162  1.00  0.00     0.007 C 
HETATM   17  C27 UNL     1      -3.387  50.504 -23.857  1.00  0.00     0.010 C 
HETATM   18  C28 UNL     1      -4.382  49.696 -23.003  1.00  0.00    -0.036 C 
HETATM   19  C29 UNL     1      -3.902  48.235 -22.834  1.00  0.00     0.016 C 
ENDROOT
BRANCH   1  20
HETATM   20  C2  UNL     1      -6.352  48.786 -24.611  1.00  0.00    -0.013 C 
HETATM   21  C1  UNL     1      -6.853  47.444 -24.071  1.00  0.00     0.010 C 
BRANCH  20  22
HETATM   22  C3  UNL     1      -5.214  48.566 -25.649  1.00  0.00     0.014 C 
BRANCH  22  23
HETATM   23  C4  UNL     1      -5.630  47.759 -26.884  1.00  0.00     0.103 C 
BRANCH  23  24
HETATM   24  C5  UNL     1      -4.921  48.156 -28.168  1.00  0.00     0.217 C 
HETATM   25  O1  UNL     1      -3.710  48.321 -28.254  1.00  0.00    -0.274 OA
HETATM   26  N1  UNL     1      -5.802  48.365 -29.214  1.00  0.00    -0.359 N 
HETATM   27  H9  UNL     1      -6.760  48.067 -29.092  1.00  0.00     0.162 HD
BRANCH  26  28
HETATM   28  C6  UNL     1      -5.324  48.542 -30.575  1.00  0.00     0.154 C 
BRANCH  28  29
HETATM   29  C7  UNL     1      -5.376  47.228 -31.378  1.00  0.00     0.139 C 
HETATM   30  C8  UNL     1      -6.287  47.322 -32.591  1.00  0.00     0.035 C 
HETATM   31  C9  UNL     1      -5.360  47.858 -33.654  1.00  0.00     0.029 C 
HETATM   32  C10 UNL     1      -4.044  47.197 -33.301  1.00  0.00     0.168 C 
HETATM   33  O2  UNL     1      -4.073  46.901 -31.897  1.00  0.00    -0.384 OA
ENDBRANCH  28  29
ENDBRANCH  26  28
ENDBRANCH  23  24
ENDBRANCH  22  23
ENDBRANCH  20  22
ENDBRANCH   1  20
BRANCH   6  34
HETATM   34  O3  UNL     1      -3.851  50.437 -18.542  1.00  0.00    -0.395 OA
HETATM   35  H27 UNL     1      -4.058  50.956 -17.746  1.00  0.00     0.210 HD
ENDBRANCH   6  34
BRANCH  10  36
HETATM   36  O4  UNL     1       0.145  54.176 -18.990  1.00  0.00    -0.396 OA
HETATM   37  H34 UNL     1       0.602  54.958 -19.346  1.00  0.00     0.210 HD
ENDBRANCH  10  36
TORSDOF 8
ENDMDL
MODEL 8
REMARK minimizedAffinity -8.90908051
REMARK  8 active torsions:
REMARK  status: ('A' for Active; 'I' for Inactive)
REMARK    1  A    between atoms: C2_2  and  C3_3 
REMARK    2  A    between atoms: C2_2  and  C11_14 
REMARK    3  A    between atoms: C3_3  and  C4_4 
REMARK    4  A    between atoms: C4_4  and  C5_5 
REMARK       I    between atoms: C5_5  and  N1_7 
REMARK    5  A    between atoms: N1_7  and  C6_8 
REMARK    6  A    between atoms: C6_8  and  C7_9 
REMARK    7  A    between atoms: C16_19  and  O3_20 
REMARK    8  A    between atoms: C20_24  and  O4_25 
ROOT
HETATM    1  C11 UNL     1      -1.305  48.694 -20.922  1.00  0.00    -0.002 C 
HETATM    2  C12 UNL     1      -1.681  47.848 -19.668  1.00  0.00     0.006 C 
HETATM    3  C13 UNL     1      -3.109  47.331 -19.872  1.00  0.00     0.006 C 
HETATM    4  C14 UNL     1      -3.418  47.672 -21.321  1.00  0.00     0.001 C 
HETATM    5  C15 UNL     1      -4.890  47.652 -21.768  1.00  0.00     0.024 C 
HETATM    6  C16 UNL     1      -5.507  46.252 -21.529  1.00  0.00     0.123 C 
HETATM    7  C17 UNL     1      -6.629  45.896 -22.512  1.00  0.00     0.037 C 
HETATM    8  C18 UNL     1      -7.402  47.156 -22.927  1.00  0.00    -0.001 C 
HETATM    9  C19 UNL     1      -8.752  46.819 -23.594  1.00  0.00     0.037 C 
HETATM   10  C20 UNL     1      -8.664  46.445 -25.069  1.00  0.00     0.118 C 
HETATM   11  C21 UNL     1      -7.894  47.496 -25.857  1.00  0.00     0.032 C 
HETATM   12  C22 UNL     1      -6.503  47.730 -25.274  1.00  0.00     0.012 C 
HETATM   13  C23 UNL     1      -6.491  48.118 -23.767  1.00  0.00    -0.036 C 
HETATM   14  C24 UNL     1      -7.074  49.546 -23.617  1.00  0.00     0.016 C 
HETATM   15  C25 UNL     1      -4.985  48.042 -23.268  1.00  0.00     0.001 C 
HETATM   16  C26 UNL     1      -4.141  49.290 -23.630  1.00  0.00     0.007 C 
HETATM   17  C27 UNL     1      -2.711  49.264 -23.067  1.00  0.00     0.010 C 
HETATM   18  C28 UNL     1      -2.700  49.026 -21.545  1.00  0.00    -0.036 C 
HETATM   19  C29 UNL     1      -3.370  50.206 -20.801  1.00  0.00     0.016 C 
ENDROOT
BRANCH   1  20
HETATM   20  C2  UNL     1      -0.323  49.850 -20.563  1.00  0.00    -0.013 C 
HETATM   21  C1  UNL     1      -0.441  50.284 -19.100  1.00  0.00     0.010 C 
BRANCH  20  22
HETATM   22  C3  UNL     1      -0.549  51.063 -21.511  1.00  0.00     0.014 C 
BRANCH  22  23
HETATM   23  C4  UNL     1       0.348  52.272 -21.218  1.00  0.00     0.103 C 
BRANCH  23  24
HETATM   24  C5  UNL     1       0.748  53.075 -22.445  1.00  0.00     0.217 C 
HETATM   25  O1  UNL     1       1.388  54.119 -22.397  1.00  0.00    -0.274 OA
HETATM   26  N1  UNL     1       0.258  52.526 -23.617  1.00  0.00    -0.359 N 
HETATM   27  H9  UNL     1      -0.132  51.594 -23.575  1.00  0.00     0.162 HD
BRANCH  26  28
HETATM   28  C6  UNL     1       0.698  53.010 -24.914  1.00  0.00     0.154 C 
BRANCH  28  29
HETATM   29  C7  UNL     1       1.295  51.881 -25.777  1.00  0.00     0.139 C 
HETATM   30  C8  UNL     1       0.255  50.853 -26.191  1.00  0.00     0.035 C 
HETATM   31  C9  UNL     1      -0.300  51.443 -27.464  1.00  0.00     0.029 C 
HETATM   32  C10 UNL     1       0.920  52.099 -28.076  1.00  0.00     0.168 C 
HETATM   33  O2  UNL     1       1.824  52.411 -27.007  1.00  0.00    -0.384 OA
ENDBRANCH  28  29
ENDBRANCH  26  28
ENDBRANCH  23  24
ENDBRANCH  22  23
ENDBRANCH  20  22
ENDBRANCH   1  20
BRANCH   6  34
HETATM   34  O3  UNL     1      -6.028  46.226 -20.198  1.00  0.00    -0.395 OA
HETATM   35  H27 UNL     1      -6.350  45.323 -20.029  1.00  0.00     0.210 HD
ENDBRANCH   6  34
BRANCH  10  36
HETATM   36  O4  UNL     1      -8.037  45.173 -25.198  1.00  0.00    -0.396 OA
HETATM   37  H34 UNL     1      -8.007  44.955 -26.146  1.00  0.00     0.210 HD
ENDBRANCH  10  36
TORSDOF 8
ENDMDL
MODEL 9
REMARK minimizedAffinity -8.86681747
REMARK  8 active torsions:
REMARK  status: ('A' for Active; 'I' for Inactive)
REMARK    1  A    between atoms: C2_2  and  C3_3 
REMARK    2  A    between atoms: C2_2  and  C11_14 
REMARK    3  A    between atoms: C3_3  and  C4_4 
REMARK    4  A    between atoms: C4_4  and  C5_5 
REMARK       I    between atoms: C5_5  and  N1_7 
REMARK    5  A    between atoms: N1_7  and  C6_8 
REMARK    6  A    between atoms: C6_8  and  C7_9 
REMARK    7  A    between atoms: C16_19  and  O3_20 
REMARK    8  A    between atoms: C20_24  and  O4_25 
ROOT
HETATM    1  C11 UNL     1      -0.573  52.489 -19.413  1.00  0.00    -0.002 C 
HETATM    2  C12 UNL     1       0.849  53.084 -19.651  1.00  0.00     0.006 C 
HETATM    3  C13 UNL     1       1.124  53.029 -21.158  1.00  0.00     0.006 C 
HETATM    4  C14 UNL     1      -0.218  52.649 -21.762  1.00  0.00     0.001 C 
HETATM    5  C15 UNL     1      -0.236  52.126 -23.209  1.00  0.00     0.024 C 
HETATM    6  C16 UNL     1       0.370  53.179 -24.169  1.00  0.00     0.123 C 
HETATM    7  C17 UNL     1      -0.202  53.120 -25.591  1.00  0.00     0.037 C 
HETATM    8  C18 UNL     1      -0.573  51.678 -25.963  1.00  0.00    -0.001 C 
HETATM    9  C19 UNL     1      -0.785  51.502 -27.481  1.00  0.00     0.037 C 
HETATM   10  C20 UNL     1      -2.154  51.935 -27.992  1.00  0.00     0.118 C 
HETATM   11  C21 UNL     1      -3.272  51.282 -27.189  1.00  0.00     0.032 C 
HETATM   12  C22 UNL     1      -3.135  51.572 -25.696  1.00  0.00     0.012 C 
HETATM   13  C23 UNL     1      -1.765  51.162 -25.082  1.00  0.00    -0.036 C 
HETATM   14  C24 UNL     1      -1.676  49.616 -25.051  1.00  0.00     0.016 C 
HETATM   15  C25 UNL     1      -1.693  51.784 -23.622  1.00  0.00     0.001 C 
HETATM   16  C26 UNL     1      -2.455  50.963 -22.552  1.00  0.00     0.007 C 
HETATM   17  C27 UNL     1      -2.309  51.508 -21.122  1.00  0.00     0.010 C 
HETATM   18  C28 UNL     1      -0.831  51.677 -20.724  1.00  0.00    -0.036 C 
HETATM   19  C29 UNL     1      -0.116  50.305 -20.672  1.00  0.00     0.016 C 
ENDROOT
BRANCH   1  20
HETATM   20  C2  UNL     1      -0.674  51.778 -18.029  1.00  0.00    -0.013 C 
HETATM   21  C1  UNL     1       0.700  51.471 -17.428  1.00  0.00     0.010 C 
BRANCH  20  22
HETATM   22  C3  UNL     1      -1.519  50.477 -18.153  1.00  0.00     0.014 C 
BRANCH  22  23
HETATM   23  C4  UNL     1      -2.886  50.542 -17.462  1.00  0.00     0.103 C 
BRANCH  23  24
HETATM   24  C5  UNL     1      -2.875  50.136 -15.997  1.00  0.00     0.217 C 
HETATM   25  O1  UNL     1      -2.592  49.010 -15.605  1.00  0.00    -0.274 OA
HETATM   26  N1  UNL     1      -3.275  51.164 -15.162  1.00  0.00    -0.359 N 
HETATM   27  H9  UNL     1      -3.349  52.092 -15.556  1.00  0.00     0.162 HD
BRANCH  26  28
HETATM   28  C6  UNL     1      -3.132  51.058 -13.720  1.00  0.00     0.154 C 
BRANCH  28  29
HETATM   29  C7  UNL     1      -2.864  52.428 -13.067  1.00  0.00     0.139 C 
HETATM   30  C8  UNL     1      -3.918  52.798 -12.036  1.00  0.00     0.035 C 
HETATM   31  C9  UNL     1      -3.379  52.166 -10.776  1.00  0.00     0.029 C 
HETATM   32  C10 UNL     1      -1.883  52.330 -10.945  1.00  0.00     0.168 C 
HETATM   33  O2  UNL     1      -1.614  52.410 -12.352  1.00  0.00    -0.384 OA
ENDBRANCH  28  29
ENDBRANCH  26  28
ENDBRANCH  23  24
ENDBRANCH  22  23
ENDBRANCH  20  22
ENDBRANCH   1  20
BRANCH   6  34
HETATM   34  O3  UNL     1       1.782  52.959 -24.225  1.00  0.00    -0.395 OA
HETATM   35  H27 UNL     1       2.165  53.665 -24.774  1.00  0.00     0.210 HD
ENDBRANCH   6  34
BRANCH  10  36
HETATM   36  O4  UNL     1      -2.259  53.353 -27.922  1.00  0.00    -0.396 OA
HETATM   37  H34 UNL     1      -3.135  53.600 -28.266  1.00  0.00     0.210 HD
ENDBRANCH  10  36
TORSDOF 8
ENDMDL
