MODEL 1
REMARK minimizedAffinity -9.90774918
REMARK  8 active torsions:
REMARK  status: ('A' for Active; 'I' for Inactive)
REMARK    1  A    between atoms: C2_2  and  C3_3 
REMARK    2  A    between atoms: C2_2  and  C11_14 
REMARK    3  A    between atoms: C3_3  and  C4_4 
REMARK    4  A    between atoms: C4_4  and  C5_5 
REMARK       I    between atoms: C5_5  and  N1_7 
REMARK    5  A    between atoms: N1_7  and  C6_8 
REMARK    6  A    between atoms: C6_8  and  C7_9 
REMARK    7  A    between atoms: C16_19  and  O3_20 
REMARK    8  A    between atoms: C20_24  and  O4_25 
ROOT
HETATM    1  C11 UNL     1      -5.703   6.805  13.665  1.00  0.00    -0.002 C 
HETATM    2  C12 UNL     1      -5.704   8.349  13.878  1.00  0.00     0.006 C 
HETATM    3  C13 UNL     1      -4.286   8.854  13.592  1.00  0.00     0.006 C 
HETATM    4  C14 UNL     1      -3.585   7.651  12.983  1.00  0.00     0.001 C 
HETATM    5  C15 UNL     1      -2.047   7.665  12.925  1.00  0.00     0.024 C 
HETATM    6  C16 UNL     1      -1.551   8.888  12.115  1.00  0.00     0.123 C 
HETATM    7  C17 UNL     1      -0.198   8.667  11.428  1.00  0.00     0.037 C 
HETATM    8  C18 UNL     1       0.675   7.708  12.247  1.00  0.00    -0.001 C 
HETATM    9  C19 UNL     1       2.155   7.744  11.807  1.00  0.00     0.037 C 
HETATM   10  C20 UNL     1       2.477   6.913  10.572  1.00  0.00     0.118 C 
HETATM   11  C21 UNL     1       1.967   5.484  10.718  1.00  0.00     0.032 C 
HETATM   12  C22 UNL     1       0.471   5.449  11.023  1.00  0.00     0.012 C 
HETATM   13  C23 UNL     1       0.050   6.270  12.278  1.00  0.00    -0.036 C 
HETATM   14  C24 UNL     1       0.595   5.559  13.542  1.00  0.00     0.016 C 
HETATM   15  C25 UNL     1      -1.536   6.346  12.286  1.00  0.00     0.001 C 
HETATM   16  C26 UNL     1      -2.223   5.082  12.859  1.00  0.00     0.007 C 
HETATM   17  C27 UNL     1      -3.753   5.190  12.962  1.00  0.00     0.010 C 
HETATM   18  C28 UNL     1      -4.185   6.444  13.748  1.00  0.00    -0.036 C 
HETATM   19  C29 UNL     1      -3.717   6.357  15.220  1.00  0.00     0.016 C 
ENDROOT
BRANCH   1  20
HETATM   20  C2  UNL     1      -6.721   6.092  14.608  1.00  0.00    -0.013 C 
HETATM   21  C1  UNL     1      -6.249   6.065  16.063  1.00  0.00     0.010 C 
BRANCH  20  22
HETATM   22  C3  UNL     1      -7.004   4.649  14.099  1.00  0.00     0.014 C 
BRANCH  22  23
HETATM   23  C4  UNL     1      -7.581   4.575  12.682  1.00  0.00     0.103 C 
BRANCH  23  24
HETATM   24  C5  UNL     1      -8.729   5.531  12.414  1.00  0.00     0.217 C 
HETATM   25  O1  UNL     1      -8.976   6.027  11.321  1.00  0.00    -0.274 OA
HETATM   26  N1  UNL     1      -9.467   5.796  13.548  1.00  0.00    -0.359 N 
HETATM   27  H9  UNL     1      -9.043   5.604  14.449  1.00  0.00     0.162 HD
BRANCH  26  28
HETATM   28  C6  UNL     1     -10.507   6.809  13.546  1.00  0.00     0.154 C 
BRANCH  28  29
HETATM   29  C7  UNL     1     -10.549   7.547  14.891  1.00  0.00     0.139 C 
HETATM   30  C8  UNL     1     -11.641   8.604  14.954  1.00  0.00     0.035 C 
HETATM   31  C9  UNL     1     -10.931   9.845  14.478  1.00  0.00     0.029 C 
HETATM   32  C10 UNL     1      -9.545   9.656  15.055  1.00  0.00     0.168 C 
HETATM   33  O2  UNL     1      -9.294   8.244  15.072  1.00  0.00    -0.384 OA
ENDBRANCH  28  29
ENDBRANCH  26  28
ENDBRANCH  23  24
ENDBRANCH  22  23
ENDBRANCH  20  22
ENDBRANCH   1  20
BRANCH   6  34
HETATM   34  O3  UNL     1      -1.444   9.994  13.015  1.00  0.00    -0.395 OA
HETATM   35  H27 UNL     1      -1.190  10.772  12.491  1.00  0.00     0.210 HD
ENDBRANCH   6  34
BRANCH  10  36
HETATM   36  O4  UNL     1       1.901   7.527   9.423  1.00  0.00    -0.396 OA
HETATM   37  H34 UNL     1       2.145   6.990   8.650  1.00  0.00     0.210 HD
ENDBRANCH  10  36
TORSDOF 8
ENDMDL
MODEL 2
REMARK minimizedAffinity -9.7206049
REMARK  8 active torsions:
REMARK  status: ('A' for Active; 'I' for Inactive)
REMARK    1  A    between atoms: C2_2  and  C3_3 
REMARK    2  A    between atoms: C2_2  and  C11_14 
REMARK    3  A    between atoms: C3_3  and  C4_4 
REMARK    4  A    between atoms: C4_4  and  C5_5 
REMARK       I    between atoms: C5_5  and  N1_7 
REMARK    5  A    between atoms: N1_7  and  C6_8 
REMARK    6  A    between atoms: C6_8  and  C7_9 
REMARK    7  A    between atoms: C16_19  and  O3_20 
REMARK    8  A    between atoms: C20_24  and  O4_25 
ROOT
HETATM    1  C11 UNL     1      -5.380   6.365  13.655  1.00  0.00    -0.002 C 
HETATM    2  C12 UNL     1      -5.559   7.907  13.795  1.00  0.00     0.006 C 
HETATM    3  C13 UNL     1      -4.213   8.558  13.463  1.00  0.00     0.006 C 
HETATM    4  C14 UNL     1      -3.383   7.417  12.900  1.00  0.00     0.001 C 
HETATM    5  C15 UNL     1      -1.858   7.606  12.817  1.00  0.00     0.024 C 
HETATM    6  C16 UNL     1      -1.516   8.838  11.943  1.00  0.00     0.123 C 
HETATM    7  C17 UNL     1      -0.154   8.743  11.246  1.00  0.00     0.037 C 
HETATM    8  C18 UNL     1       0.834   7.932  12.094  1.00  0.00    -0.001 C 
HETATM    9  C19 UNL     1       2.294   8.119  11.629  1.00  0.00     0.037 C 
HETATM   10  C20 UNL     1       2.698   7.271  10.430  1.00  0.00     0.118 C 
HETATM   11  C21 UNL     1       2.360   5.802  10.651  1.00  0.00     0.032 C 
HETATM   12  C22 UNL     1       0.882   5.609  10.982  1.00  0.00     0.012 C 
HETATM   13  C23 UNL     1       0.382   6.435  12.204  1.00  0.00    -0.036 C 
HETATM   14  C24 UNL     1       1.019   5.855  13.491  1.00  0.00     0.016 C 
HETATM   15  C25 UNL     1      -1.203   6.326  12.233  1.00  0.00     0.001 C 
HETATM   16  C26 UNL     1      -1.732   5.020  12.876  1.00  0.00     0.007 C 
HETATM   17  C27 UNL     1      -3.263   4.955  12.999  1.00  0.00     0.010 C 
HETATM   18  C28 UNL     1      -3.830   6.187  13.731  1.00  0.00    -0.036 C 
HETATM   19  C29 UNL     1      -3.340   6.227  15.198  1.00  0.00     0.016 C 
ENDROOT
BRANCH   1  20
HETATM   20  C2  UNL     1      -6.298   5.585  14.647  1.00  0.00    -0.013 C 
HETATM   21  C1  UNL     1      -7.363   4.754  13.929  1.00  0.00     0.010 C 
BRANCH  20  22
HETATM   22  C3  UNL     1      -6.961   6.571  15.652  1.00  0.00     0.014 C 
BRANCH  22  23
HETATM   23  C4  UNL     1      -8.446   6.304  15.921  1.00  0.00     0.103 C 
BRANCH  23  24
HETATM   24  C5  UNL     1      -9.389   7.358  15.370  1.00  0.00     0.217 C 
HETATM   25  O1  UNL     1      -9.071   8.519  15.141  1.00  0.00    -0.274 OA
HETATM   26  N1  UNL     1     -10.662   6.869  15.166  1.00  0.00    -0.359 N 
HETATM   27  H9  UNL     1     -10.928   6.017  15.646  1.00  0.00     0.162 HD
BRANCH  26  28
HETATM   28  C6  UNL     1     -11.755   7.752  14.800  1.00  0.00     0.154 C 
BRANCH  28  29
HETATM   29  C7  UNL     1     -12.100   7.602  13.312  1.00  0.00     0.139 C 
HETATM   30  C8  UNL     1     -12.464   8.923  12.652  1.00  0.00     0.035 C 
HETATM   31  C9  UNL     1     -13.960   8.981  12.827  1.00  0.00     0.029 C 
HETATM   32  C10 UNL     1     -14.352   7.528  12.675  1.00  0.00     0.168 C 
HETATM   33  O2  UNL     1     -13.264   6.750  13.193  1.00  0.00    -0.384 OA
ENDBRANCH  28  29
ENDBRANCH  26  28
ENDBRANCH  23  24
ENDBRANCH  22  23
ENDBRANCH  20  22
ENDBRANCH   1  20
BRANCH   6  34
HETATM   34  O3  UNL     1      -1.530   9.992  12.788  1.00  0.00    -0.395 OA
HETATM   35  H27 UNL     1      -1.374  10.767  12.223  1.00  0.00     0.210 HD
ENDBRANCH   6  34
BRANCH  10  36
HETATM   36  O4  UNL     1       2.043   7.758   9.263  1.00  0.00    -0.396 OA
HETATM   37  H34 UNL     1       2.339   7.216   8.513  1.00  0.00     0.210 HD
ENDBRANCH  10  36
TORSDOF 8
ENDMDL
MODEL 3
REMARK minimizedAffinity -9.49143219
REMARK  8 active torsions:
REMARK  status: ('A' for Active; 'I' for Inactive)
REMARK    1  A    between atoms: C2_2  and  C3_3 
REMARK    2  A    between atoms: C2_2  and  C11_14 
REMARK    3  A    between atoms: C3_3  and  C4_4 
REMARK    4  A    between atoms: C4_4  and  C5_5 
REMARK       I    between atoms: C5_5  and  N1_7 
REMARK    5  A    between atoms: N1_7  and  C6_8 
REMARK    6  A    between atoms: C6_8  and  C7_9 
REMARK    7  A    between atoms: C16_19  and  O3_20 
REMARK    8  A    between atoms: C20_24  and  O4_25 
ROOT
HETATM    1  C11 UNL     1       0.230   6.077  11.937  1.00  0.00    -0.002 C 
HETATM    2  C12 UNL     1       0.381   4.590  11.495  1.00  0.00     0.006 C 
HETATM    3  C13 UNL     1      -0.963   3.897  11.744  1.00  0.00     0.006 C 
HETATM    4  C14 UNL     1      -1.909   5.041  12.070  1.00  0.00     0.001 C 
HETATM    5  C15 UNL     1      -3.248   4.698  12.748  1.00  0.00     0.024 C 
HETATM    6  C16 UNL     1      -4.065   3.724  11.864  1.00  0.00     0.123 C 
HETATM    7  C17 UNL     1      -5.582   3.843  12.051  1.00  0.00     0.037 C 
HETATM    8  C18 UNL     1      -5.919   4.262  13.488  1.00  0.00    -0.001 C 
HETATM    9  C19 UNL     1      -7.408   4.035  13.828  1.00  0.00     0.037 C 
HETATM   10  C20 UNL     1      -8.351   5.126  13.336  1.00  0.00     0.118 C 
HETATM   11  C21 UNL     1      -7.876   6.507  13.772  1.00  0.00     0.032 C 
HETATM   12  C22 UNL     1      -6.443   6.779  13.318  1.00  0.00     0.012 C 
HETATM   13  C23 UNL     1      -5.407   5.714  13.783  1.00  0.00    -0.036 C 
HETATM   14  C24 UNL     1      -5.225   5.835  15.317  1.00  0.00     0.016 C 
HETATM   15  C25 UNL     1      -4.051   6.001  13.007  1.00  0.00     0.001 C 
HETATM   16  C26 UNL     1      -3.197   7.133  13.631  1.00  0.00     0.007 C 
HETATM   17  C27 UNL     1      -1.838   7.346  12.944  1.00  0.00     0.010 C 
HETATM   18  C28 UNL     1      -1.027   6.038  12.864  1.00  0.00    -0.036 C 
HETATM   19  C29 UNL     1      -0.655   5.536  14.279  1.00  0.00     0.016 C 
ENDROOT
BRANCH   1  20
HETATM   20  C2  UNL     1       1.573   6.657  12.478  1.00  0.00    -0.013 C 
HETATM   21  C1  UNL     1       1.408   7.349  13.832  1.00  0.00     0.010 C 
BRANCH  20  22
HETATM   22  C3  UNL     1       2.193   7.635  11.438  1.00  0.00     0.014 C 
BRANCH  22  23
HETATM   23  C4  UNL     1       2.696   6.966  10.155  1.00  0.00     0.103 C 
BRANCH  23  24
HETATM   24  C5  UNL     1       4.165   6.583  10.174  1.00  0.00     0.217 C 
HETATM   25  O1  UNL     1       4.593   5.469   9.898  1.00  0.00    -0.274 OA
HETATM   26  N1  UNL     1       4.976   7.632  10.552  1.00  0.00    -0.359 N 
HETATM   27  H9  UNL     1       4.552   8.409  11.046  1.00  0.00     0.162 HD
BRANCH  26  28
HETATM   28  C6  UNL     1       6.395   7.434  10.793  1.00  0.00     0.154 C 
BRANCH  28  29
HETATM   29  C7  UNL     1       6.652   7.081  12.263  1.00  0.00     0.139 C 
HETATM   30  C8  UNL     1       5.737   7.828  13.222  1.00  0.00     0.035 C 
HETATM   31  C9  UNL     1       6.533   9.065  13.547  1.00  0.00     0.029 C 
HETATM   32  C10 UNL     1       7.950   8.532  13.564  1.00  0.00     0.168 C 
HETATM   33  O2  UNL     1       8.004   7.472  12.600  1.00  0.00    -0.384 OA
ENDBRANCH  28  29
ENDBRANCH  26  28
ENDBRANCH  23  24
ENDBRANCH  22  23
ENDBRANCH  20  22
ENDBRANCH   1  20
BRANCH   6  34
HETATM   34  O3  UNL     1      -3.655   2.392  12.187  1.00  0.00    -0.395 OA
HETATM   35  H27 UNL     1      -4.127   1.790  11.588  1.00  0.00     0.210 HD
ENDBRANCH   6  34
BRANCH  10  36
HETATM   36  O4  UNL     1      -8.448   5.063  11.917  1.00  0.00    -0.396 OA
HETATM   37  H34 UNL     1      -9.074   5.752  11.636  1.00  0.00     0.210 HD
ENDBRANCH  10  36
TORSDOF 8
ENDMDL
MODEL 4
REMARK minimizedAffinity -9.42563915
REMARK  8 active torsions:
REMARK  status: ('A' for Active; 'I' for Inactive)
REMARK    1  A    between atoms: C2_2  and  C3_3 
REMARK    2  A    between atoms: C2_2  and  C11_14 
REMARK    3  A    between atoms: C3_3  and  C4_4 
REMARK    4  A    between atoms: C4_4  and  C5_5 
REMARK       I    between atoms: C5_5  and  N1_7 
REMARK    5  A    between atoms: N1_7  and  C6_8 
REMARK    6  A    between atoms: C6_8  and  C7_9 
REMARK    7  A    between atoms: C16_19  and  O3_20 
REMARK    8  A    between atoms: C20_24  and  O4_25 
ROOT
HETATM    1  C11 UNL     1      -2.674   6.641  13.683  1.00  0.00    -0.002 C 
HETATM    2  C12 UNL     1      -2.945   5.325  12.895  1.00  0.00     0.006 C 
HETATM    3  C13 UNL     1      -4.455   5.069  12.930  1.00  0.00     0.006 C 
HETATM    4  C14 UNL     1      -5.030   6.355  13.503  1.00  0.00     0.001 C 
HETATM    5  C15 UNL     1      -6.471   6.323  14.040  1.00  0.00     0.024 C 
HETATM    6  C16 UNL     1      -7.453   5.892  12.923  1.00  0.00     0.123 C 
HETATM    7  C17 UNL     1      -8.870   6.451  13.094  1.00  0.00     0.037 C 
HETATM    8  C18 UNL     1      -9.208   6.624  14.581  1.00  0.00    -0.001 C 
HETATM    9  C19 UNL     1     -10.721   6.824  14.816  1.00  0.00     0.037 C 
HETATM   10  C20 UNL     1     -11.224   8.243  14.582  1.00  0.00     0.118 C 
HETATM   11  C21 UNL     1     -10.394   9.259  15.356  1.00  0.00     0.032 C 
HETATM   12  C22 UNL     1      -8.908   9.145  15.020  1.00  0.00     0.012 C 
HETATM   13  C23 UNL     1      -8.306   7.726  15.237  1.00  0.00    -0.036 C 
HETATM   14  C24 UNL     1      -8.255   7.434  16.757  1.00  0.00     0.016 C 
HETATM   15  C25 UNL     1      -6.855   7.723  14.590  1.00  0.00     0.001 C 
HETATM   16  C26 UNL     1      -5.762   8.346  15.495  1.00  0.00     0.007 C 
HETATM   17  C27 UNL     1      -4.341   8.254  14.917  1.00  0.00     0.010 C 
HETATM   18  C28 UNL     1      -3.970   6.806  14.539  1.00  0.00    -0.036 C 
HETATM   19  C29 UNL     1      -3.920   5.907  15.797  1.00  0.00     0.016 C 
ENDROOT
BRANCH   1  20
HETATM   20  C2  UNL     1      -1.280   6.617  14.385  1.00  0.00    -0.013 C 
HETATM   21  C1  UNL     1      -0.516   7.931  14.214  1.00  0.00     0.010 C 
BRANCH  20  22
HETATM   22  C3  UNL     1      -0.435   5.421  13.858  1.00  0.00     0.014 C 
BRANCH  22  23
HETATM   23  C4  UNL     1       0.779   5.823  13.014  1.00  0.00     0.103 C 
BRANCH  23  24
HETATM   24  C5  UNL     1       0.535   5.833  11.516  1.00  0.00     0.217 C 
HETATM   25  O1  UNL     1       0.201   4.852  10.864  1.00  0.00    -0.274 OA
HETATM   26  N1  UNL     1       0.744   7.077  10.959  1.00  0.00    -0.359 N 
HETATM   27  H9  UNL     1       1.295   7.748  11.482  1.00  0.00     0.162 HD
BRANCH  26  28
HETATM   28  C6  UNL     1       0.724   7.267   9.519  1.00  0.00     0.154 C 
BRANCH  28  29
HETATM   29  C7  UNL     1       2.144   7.203   8.943  1.00  0.00     0.139 C 
HETATM   30  C8  UNL     1       2.347   8.138   7.761  1.00  0.00     0.035 C 
HETATM   31  C9  UNL     1       2.003   7.264   6.582  1.00  0.00     0.029 C 
HETATM   32  C10 UNL     1       2.529   5.916   7.025  1.00  0.00     0.168 C 
HETATM   33  O2  UNL     1       2.380   5.862   8.450  1.00  0.00    -0.384 OA
ENDBRANCH  28  29
ENDBRANCH  26  28
ENDBRANCH  23  24
ENDBRANCH  22  23
ENDBRANCH  20  22
ENDBRANCH   1  20
BRANCH   6  34
HETATM   34  O3  UNL     1      -7.511   4.462  12.921  1.00  0.00    -0.395 OA
HETATM   35  H27 UNL     1      -8.081   4.197  12.180  1.00  0.00     0.210 HD
ENDBRANCH   6  34
BRANCH  10  36
HETATM   36  O4  UNL     1     -11.189   8.535  13.189  1.00  0.00    -0.396 OA
HETATM   37  H34 UNL     1     -11.538   9.434  13.069  1.00  0.00     0.210 HD
ENDBRANCH  10  36
TORSDOF 8
ENDMDL
MODEL 5
REMARK minimizedAffinity -9.238307
REMARK  8 active torsions:
REMARK  status: ('A' for Active; 'I' for Inactive)
REMARK    1  A    between atoms: C2_2  and  C3_3 
REMARK    2  A    between atoms: C2_2  and  C11_14 
REMARK    3  A    between atoms: C3_3  and  C4_4 
REMARK    4  A    between atoms: C4_4  and  C5_5 
REMARK       I    between atoms: C5_5  and  N1_7 
REMARK    5  A    between atoms: N1_7  and  C6_8 
REMARK    6  A    between atoms: C6_8  and  C7_9 
REMARK    7  A    between atoms: C16_19  and  O3_20 
REMARK    8  A    between atoms: C20_24  and  O4_25 
ROOT
HETATM    1  C11 UNL     1      -6.014   6.888  13.916  1.00  0.00    -0.002 C 
HETATM    2  C12 UNL     1      -6.061   8.415  14.223  1.00  0.00     0.006 C 
HETATM    3  C13 UNL     1      -4.651   8.973  14.002  1.00  0.00     0.006 C 
HETATM    4  C14 UNL     1      -3.906   7.829  13.335  1.00  0.00     0.001 C 
HETATM    5  C15 UNL     1      -2.368   7.886  13.313  1.00  0.00     0.024 C 
HETATM    6  C16 UNL     1      -1.888   9.170  12.592  1.00  0.00     0.123 C 
HETATM    7  C17 UNL     1      -0.515   9.027  11.924  1.00  0.00     0.037 C 
HETATM    8  C18 UNL     1       0.366   8.042  12.701  1.00  0.00    -0.001 C 
HETATM    9  C19 UNL     1       1.853   8.143  12.298  1.00  0.00     0.037 C 
HETATM   10  C20 UNL     1       2.223   7.399  11.022  1.00  0.00     0.118 C 
HETATM   11  C21 UNL     1       1.749   5.951  11.068  1.00  0.00     0.032 C 
HETATM   12  C22 UNL     1       0.249   5.859  11.337  1.00  0.00     0.012 C 
HETATM   13  C23 UNL     1      -0.220   6.588  12.630  1.00  0.00    -0.036 C 
HETATM   14  C24 UNL     1       0.317   5.815  13.860  1.00  0.00     0.016 C 
HETATM   15  C25 UNL     1      -1.808   6.623  12.606  1.00  0.00     0.001 C 
HETATM   16  C26 UNL     1      -2.472   5.308  13.084  1.00  0.00     0.007 C 
HETATM   17  C27 UNL     1      -4.007   5.371  13.159  1.00  0.00     0.010 C 
HETATM   18  C28 UNL     1      -4.489   6.562  14.011  1.00  0.00    -0.036 C 
HETATM   19  C29 UNL     1      -4.050   6.396  15.485  1.00  0.00     0.016 C 
ENDROOT
BRANCH   1  20
HETATM   20  C2  UNL     1      -7.032   6.092  14.790  1.00  0.00    -0.013 C 
HETATM   21  C1  UNL     1      -6.752   6.232  16.287  1.00  0.00     0.010 C 
BRANCH  20  22
HETATM   22  C3  UNL     1      -7.038   4.592  14.374  1.00  0.00     0.014 C 
BRANCH  22  23
HETATM   23  C4  UNL     1      -7.290   4.345  12.883  1.00  0.00     0.103 C 
BRANCH  23  24
HETATM   24  C5  UNL     1      -6.758   3.023  12.361  1.00  0.00     0.217 C 
HETATM   25  O1  UNL     1      -7.223   1.928  12.650  1.00  0.00    -0.274 OA
HETATM   26  N1  UNL     1      -5.673   3.187  11.526  1.00  0.00    -0.359 N 
HETATM   27  H9  UNL     1      -5.165   4.064  11.569  1.00  0.00     0.162 HD
BRANCH  26  28
HETATM   28  C6  UNL     1      -4.914   2.045  11.049  1.00  0.00     0.154 C 
BRANCH  28  29
HETATM   29  C7  UNL     1      -3.662   1.828  11.908  1.00  0.00     0.139 C 
HETATM   30  C8  UNL     1      -2.650   2.956  11.777  1.00  0.00     0.035 C 
HETATM   31  C9  UNL     1      -1.764   2.480  10.654  1.00  0.00     0.029 C 
HETATM   32  C10 UNL     1      -1.726   0.987  10.894  1.00  0.00     0.168 C 
HETATM   33  O2  UNL     1      -2.996   0.626  11.455  1.00  0.00    -0.384 OA
ENDBRANCH  28  29
ENDBRANCH  26  28
ENDBRANCH  23  24
ENDBRANCH  22  23
ENDBRANCH  20  22
ENDBRANCH   1  20
BRANCH   6  34
HETATM   34  O3  UNL     1      -1.830  10.220  13.561  1.00  0.00    -0.395 OA
HETATM   35  H27 UNL     1      -1.586  11.035  13.091  1.00  0.00     0.210 HD
ENDBRANCH   6  34
BRANCH  10  36
HETATM   36  O4  UNL     1       1.656   8.069   9.900  1.00  0.00    -0.396 OA
HETATM   37  H34 UNL     1       1.930   7.587   9.102  1.00  0.00     0.210 HD
ENDBRANCH  10  36
TORSDOF 8
ENDMDL
MODEL 6
REMARK minimizedAffinity -9.18719387
REMARK  8 active torsions:
REMARK  status: ('A' for Active; 'I' for Inactive)
REMARK    1  A    between atoms: C2_2  and  C3_3 
REMARK    2  A    between atoms: C2_2  and  C11_14 
REMARK    3  A    between atoms: C3_3  and  C4_4 
REMARK    4  A    between atoms: C4_4  and  C5_5 
REMARK       I    between atoms: C5_5  and  N1_7 
REMARK    5  A    between atoms: N1_7  and  C6_8 
REMARK    6  A    between atoms: C6_8  and  C7_9 
REMARK    7  A    between atoms: C16_19  and  O3_20 
REMARK    8  A    between atoms: C20_24  and  O4_25 
ROOT
HETATM    1  C11 UNL     1      -2.355   4.850  11.596  1.00  0.00    -0.002 C 
HETATM    2  C12 UNL     1      -2.964   3.436  11.351  1.00  0.00     0.006 C 
HETATM    3  C13 UNL     1      -4.335   3.401  12.034  1.00  0.00     0.006 C 
HETATM    4  C14 UNL     1      -4.587   4.848  12.423  1.00  0.00     0.001 C 
HETATM    5  C15 UNL     1      -5.684   5.135  13.464  1.00  0.00     0.024 C 
HETATM    6  C16 UNL     1      -7.049   4.595  12.970  1.00  0.00     0.123 C 
HETATM    7  C17 UNL     1      -8.255   5.364  13.522  1.00  0.00     0.037 C 
HETATM    8  C18 UNL     1      -7.952   5.917  14.920  1.00  0.00    -0.001 C 
HETATM    9  C19 UNL     1      -9.230   6.367  15.660  1.00  0.00     0.037 C 
HETATM   10  C20 UNL     1      -9.742   7.748  15.273  1.00  0.00     0.118 C 
HETATM   11  C21 UNL     1      -8.638   8.794  15.367  1.00  0.00     0.032 C 
HETATM   12  C22 UNL     1      -7.423   8.408  14.526  1.00  0.00     0.012 C 
HETATM   13  C23 UNL     1      -6.827   7.009  14.859  1.00  0.00    -0.036 C 
HETATM   14  C24 UNL     1      -6.169   7.069  16.261  1.00  0.00     0.016 C 
HETATM   15  C25 UNL     1      -5.768   6.662  13.728  1.00  0.00     0.001 C 
HETATM   16  C26 UNL     1      -4.383   7.323  13.941  1.00  0.00     0.007 C 
HETATM   17  C27 UNL     1      -3.324   6.911  12.904  1.00  0.00     0.010 C 
HETATM   18  C28 UNL     1      -3.184   5.379  12.810  1.00  0.00    -0.036 C 
HETATM   19  C29 UNL     1      -2.652   4.794  14.139  1.00  0.00     0.016 C 
ENDROOT
BRANCH   1  20
HETATM   20  C2  UNL     1      -0.798   4.800  11.684  1.00  0.00    -0.013 C 
HETATM   21  C1  UNL     1      -0.270   3.381  11.905  1.00  0.00     0.010 C 
BRANCH  20  22
HETATM   22  C3  UNL     1      -0.294   5.751  12.807  1.00  0.00     0.014 C 
BRANCH  22  23
HETATM   23  C4  UNL     1       0.160   7.131  12.318  1.00  0.00     0.103 C 
BRANCH  23  24
HETATM   24  C5  UNL     1       1.664   7.296  12.192  1.00  0.00     0.217 C 
HETATM   25  O1  UNL     1       2.471   6.944  13.043  1.00  0.00    -0.274 OA
HETATM   26  N1  UNL     1       2.028   7.903  11.009  1.00  0.00    -0.359 N 
HETATM   27  H9  UNL     1       1.322   8.428  10.505  1.00  0.00     0.162 HD
BRANCH  26  28
HETATM   28  C6  UNL     1       3.403   8.302  10.763  1.00  0.00     0.154 C 
BRANCH  28  29
HETATM   29  C7  UNL     1       3.864   7.835   9.377  1.00  0.00     0.139 C 
HETATM   30  C8  UNL     1       2.939   8.292   8.259  1.00  0.00     0.035 C 
HETATM   31  C9  UNL     1       1.966   7.147   8.143  1.00  0.00     0.029 C 
HETATM   32  C10 UNL     1       2.851   5.952   8.424  1.00  0.00     0.168 C 
HETATM   33  O2  UNL     1       3.853   6.388   9.352  1.00  0.00    -0.384 OA
ENDBRANCH  28  29
ENDBRANCH  26  28
ENDBRANCH  23  24
ENDBRANCH  22  23
ENDBRANCH  20  22
ENDBRANCH   1  20
BRANCH   6  34
HETATM   34  O3  UNL     1      -7.146   3.224  13.368  1.00  0.00    -0.395 OA
HETATM   35  H27 UNL     1      -7.976   2.875  13.004  1.00  0.00     0.210 HD
ENDBRANCH   6  34
BRANCH  10  36
HETATM   36  O4  UNL     1     -10.270   7.705  13.951  1.00  0.00    -0.396 OA
HETATM   37  H34 UNL     1     -10.610   8.592  13.743  1.00  0.00     0.210 HD
ENDBRANCH  10  36
TORSDOF 8
ENDMDL
MODEL 7
REMARK minimizedAffinity -9.12517548
REMARK  8 active torsions:
REMARK  status: ('A' for Active; 'I' for Inactive)
REMARK    1  A    between atoms: C2_2  and  C3_3 
REMARK    2  A    between atoms: C2_2  and  C11_14 
REMARK    3  A    between atoms: C3_3  and  C4_4 
REMARK    4  A    between atoms: C4_4  and  C5_5 
REMARK       I    between atoms: C5_5  and  N1_7 
REMARK    5  A    between atoms: N1_7  and  C6_8 
REMARK    6  A    between atoms: C6_8  and  C7_9 
REMARK    7  A    between atoms: C16_19  and  O3_20 
REMARK    8  A    between atoms: C20_24  and  O4_25 
ROOT
HETATM    1  C11 UNL     1      -5.932   4.906  13.941  1.00  0.00    -0.002 C 
HETATM    2  C12 UNL     1      -5.572   4.155  12.623  1.00  0.00     0.006 C 
HETATM    3  C13 UNL     1      -4.128   4.521  12.265  1.00  0.00     0.006 C 
HETATM    4  C14 UNL     1      -3.619   5.250  13.497  1.00  0.00     0.001 C 
HETATM    5  C15 UNL     1      -2.341   6.097  13.358  1.00  0.00     0.024 C 
HETATM    6  C16 UNL     1      -1.161   5.216  12.881  1.00  0.00     0.123 C 
HETATM    7  C17 UNL     1       0.212   5.720  13.339  1.00  0.00     0.037 C 
HETATM    8  C18 UNL     1       0.215   7.249  13.462  1.00  0.00    -0.001 C 
HETATM    9  C19 UNL     1       1.645   7.825  13.554  1.00  0.00     0.037 C 
HETATM   10  C20 UNL     1       2.275   7.757  14.939  1.00  0.00     0.118 C 
HETATM   11  C21 UNL     1       1.356   8.358  15.995  1.00  0.00     0.032 C 
HETATM   12  C22 UNL     1      -0.018   7.692  15.989  1.00  0.00     0.012 C 
HETATM   13  C23 UNL     1      -0.742   7.721  14.611  1.00  0.00    -0.036 C 
HETATM   14  C24 UNL     1      -1.154   9.181  14.295  1.00  0.00     0.016 C 
HETATM   15  C25 UNL     1      -2.006   6.765  14.718  1.00  0.00     0.001 C 
HETATM   16  C26 UNL     1      -3.234   7.421  15.398  1.00  0.00     0.007 C 
HETATM   17  C27 UNL     1      -4.491   6.535  15.413  1.00  0.00     0.010 C 
HETATM   18  C28 UNL     1      -4.855   6.036  14.001  1.00  0.00    -0.036 C 
HETATM   19  C29 UNL     1      -5.245   7.220  13.085  1.00  0.00     0.016 C 
ENDROOT
BRANCH   1  20
HETATM   20  C2  UNL     1      -7.447   5.275  13.999  1.00  0.00    -0.013 C 
HETATM   21  C1  UNL     1      -8.079   5.368  12.609  1.00  0.00     0.010 C 
BRANCH  20  22
HETATM   22  C3  UNL     1      -7.645   6.607  14.778  1.00  0.00     0.014 C 
BRANCH  22  23
HETATM   23  C4  UNL     1      -8.836   6.611  15.742  1.00  0.00     0.103 C 
BRANCH  23  24
HETATM   24  C5  UNL     1      -9.977   7.525  15.335  1.00  0.00     0.217 C 
HETATM   25  O1  UNL     1      -9.912   8.749  15.321  1.00  0.00    -0.274 OA
HETATM   26  N1  UNL     1     -11.115   6.825  14.992  1.00  0.00    -0.359 N 
HETATM   27  H9  UNL     1     -11.198   5.866  15.308  1.00  0.00     0.162 HD
BRANCH  26  28
HETATM   28  C6  UNL     1     -12.368   7.511  14.731  1.00  0.00     0.154 C 
BRANCH  28  29
HETATM   29  C7  UNL     1     -12.658   7.558  13.226  1.00  0.00     0.139 C 
HETATM   30  C8  UNL     1     -13.102   8.932  12.749  1.00  0.00     0.035 C 
HETATM   31  C9  UNL     1     -14.603   8.859  12.873  1.00  0.00     0.029 C 
HETATM   32  C10 UNL     1     -14.879   7.420  12.498  1.00  0.00     0.168 C 
HETATM   33  O2  UNL     1     -13.751   6.653  12.940  1.00  0.00    -0.384 OA
ENDBRANCH  28  29
ENDBRANCH  26  28
ENDBRANCH  23  24
ENDBRANCH  22  23
ENDBRANCH  20  22
ENDBRANCH   1  20
BRANCH   6  34
HETATM   34  O3  UNL     1      -1.193   5.179  11.451  1.00  0.00    -0.395 OA
HETATM   35  H27 UNL     1      -0.487   4.577  11.161  1.00  0.00     0.210 HD
ENDBRANCH   6  34
BRANCH  10  36
HETATM   36  O4  UNL     1       2.575   6.402  15.257  1.00  0.00    -0.396 OA
HETATM   37  H34 UNL     1       2.998   6.394  16.133  1.00  0.00     0.210 HD
ENDBRANCH  10  36
TORSDOF 8
ENDMDL
MODEL 8
REMARK minimizedAffinity -9.12040329
REMARK  8 active torsions:
REMARK  status: ('A' for Active; 'I' for Inactive)
REMARK    1  A    between atoms: C2_2  and  C3_3 
REMARK    2  A    between atoms: C2_2  and  C11_14 
REMARK    3  A    between atoms: C3_3  and  C4_4 
REMARK    4  A    between atoms: C4_4  and  C5_5 
REMARK       I    between atoms: C5_5  and  N1_7 
REMARK    5  A    between atoms: N1_7  and  C6_8 
REMARK    6  A    between atoms: C6_8  and  C7_9 
REMARK    7  A    between atoms: C16_19  and  O3_20 
REMARK    8  A    between atoms: C20_24  and  O4_25 
ROOT
HETATM    1  C11 UNL     1       0.226   6.767  12.710  1.00  0.00    -0.002 C 
HETATM    2  C12 UNL     1       0.540   5.327  12.206  1.00  0.00     0.006 C 
HETATM    3  C13 UNL     1      -0.760   4.519  12.281  1.00  0.00     0.006 C 
HETATM    4  C14 UNL     1      -1.824   5.564  12.573  1.00  0.00     0.001 C 
HETATM    5  C15 UNL     1      -3.188   5.078  13.094  1.00  0.00     0.024 C 
HETATM    6  C16 UNL     1      -3.834   4.101  12.081  1.00  0.00     0.123 C 
HETATM    7  C17 UNL     1      -5.366   4.091  12.123  1.00  0.00     0.037 C 
HETATM    8  C18 UNL     1      -5.872   4.392  13.539  1.00  0.00    -0.001 C 
HETATM    9  C19 UNL     1      -7.363   4.032  13.716  1.00  0.00     0.037 C 
HETATM   10  C20 UNL     1      -8.341   5.076  13.193  1.00  0.00     0.118 C 
HETATM   11  C21 UNL     1      -8.025   6.459  13.749  1.00  0.00     0.032 C 
HETATM   12  C22 UNL     1      -6.584   6.868  13.455  1.00  0.00     0.012 C 
HETATM   13  C23 UNL     1      -5.512   5.859  13.963  1.00  0.00    -0.036 C 
HETATM   14  C24 UNL     1      -5.487   5.897  15.511  1.00  0.00     0.016 C 
HETATM   15  C25 UNL     1      -4.117   6.297  13.343  1.00  0.00     0.001 C 
HETATM   16  C26 UNL     1      -3.422   7.450  14.109  1.00  0.00     0.007 C 
HETATM   17  C27 UNL     1      -2.026   7.809  13.574  1.00  0.00     0.010 C 
HETATM   18  C28 UNL     1      -1.106   6.574  13.504  1.00  0.00    -0.036 C 
HETATM   19  C29 UNL     1      -0.830   6.015  14.919  1.00  0.00     0.016 C 
ENDROOT
BRANCH   1  20
HETATM   20  C2  UNL     1       1.459   7.414  13.414  1.00  0.00    -0.013 C 
HETATM   21  C1  UNL     1       1.343   7.386  14.939  1.00  0.00     0.010 C 
BRANCH  20  22
HETATM   22  C3  UNL     1       1.661   8.872  12.908  1.00  0.00     0.014 C 
BRANCH  22  23
HETATM   23  C4  UNL     1       3.102   9.215  12.513  1.00  0.00     0.103 C 
BRANCH  23  24
HETATM   24  C5  UNL     1       3.779   8.184  11.630  1.00  0.00     0.217 C 
HETATM   25  O1  UNL     1       4.944   7.824  11.754  1.00  0.00    -0.274 OA
HETATM   26  N1  UNL     1       2.939   7.698  10.650  1.00  0.00    -0.359 N 
HETATM   27  H9  UNL     1       2.114   8.239  10.417  1.00  0.00     0.162 HD
BRANCH  26  28
HETATM   28  C6  UNL     1       3.436   6.826   9.600  1.00  0.00     0.154 C 
BRANCH  28  29
HETATM   29  C7  UNL     1       2.276   6.264   8.768  1.00  0.00     0.139 C 
HETATM   30  C8  UNL     1       2.555   6.287   7.272  1.00  0.00     0.035 C 
HETATM   31  C9  UNL     1       1.998   7.622   6.850  1.00  0.00     0.029 C 
HETATM   32  C10 UNL     1       0.788   7.757   7.749  1.00  0.00     0.168 C 
HETATM   33  O2  UNL     1       1.111   7.097   8.980  1.00  0.00    -0.384 OA
ENDBRANCH  28  29
ENDBRANCH  26  28
ENDBRANCH  23  24
ENDBRANCH  22  23
ENDBRANCH  20  22
ENDBRANCH   1  20
BRANCH   6  34
HETATM   34  O3  UNL     1      -3.349   2.787  12.371  1.00  0.00    -0.395 OA
HETATM   35  H27 UNL     1      -3.711   2.189  11.695  1.00  0.00     0.210 HD
ENDBRANCH   6  34
BRANCH  10  36
HETATM   36  O4  UNL     1      -8.298   5.094  11.770  1.00  0.00    -0.396 OA
HETATM   37  H34 UNL     1      -8.949   5.749  11.465  1.00  0.00     0.210 HD
ENDBRANCH  10  36
TORSDOF 8
ENDMDL
MODEL 9
REMARK minimizedAffinity -9.08354568
REMARK  8 active torsions:
REMARK  status: ('A' for Active; 'I' for Inactive)
REMARK    1  A    between atoms: C2_2  and  C3_3 
REMARK    2  A    between atoms: C2_2  and  C11_14 
REMARK    3  A    between atoms: C3_3  and  C4_4 
REMARK    4  A    between atoms: C4_4  and  C5_5 
REMARK       I    between atoms: C5_5  and  N1_7 
REMARK    5  A    between atoms: N1_7  and  C6_8 
REMARK    6  A    between atoms: C6_8  and  C7_9 
REMARK    7  A    between atoms: C16_19  and  O3_20 
REMARK    8  A    between atoms: C20_24  and  O4_25 
ROOT
HETATM    1  C11 UNL     1      -5.988   6.532  13.655  1.00  0.00    -0.002 C 
HETATM    2  C12 UNL     1      -6.058   8.068  13.905  1.00  0.00     0.006 C 
HETATM    3  C13 UNL     1      -4.659   8.640  13.655  1.00  0.00     0.006 C 
HETATM    4  C14 UNL     1      -3.898   7.484  13.027  1.00  0.00     0.001 C 
HETATM    5  C15 UNL     1      -2.362   7.565  12.994  1.00  0.00     0.024 C 
HETATM    6  C16 UNL     1      -1.906   8.828  12.222  1.00  0.00     0.123 C 
HETATM    7  C17 UNL     1      -0.535   8.682  11.552  1.00  0.00     0.037 C 
HETATM    8  C18 UNL     1       0.366   7.741  12.360  1.00  0.00    -0.001 C 
HETATM    9  C19 UNL     1       1.849   7.851  11.945  1.00  0.00     0.037 C 
HETATM   10  C20 UNL     1       2.225   7.065  10.695  1.00  0.00     0.118 C 
HETATM   11  C21 UNL     1       1.774   5.613  10.797  1.00  0.00     0.032 C 
HETATM   12  C22 UNL     1       0.277   5.507  11.078  1.00  0.00     0.012 C 
HETATM   13  C23 UNL     1      -0.197   6.277  12.346  1.00  0.00    -0.036 C 
HETATM   14  C24 UNL     1       0.359   5.558  13.601  1.00  0.00     0.016 C 
HETATM   15  C25 UNL     1      -1.785   6.285  12.331  1.00  0.00     0.001 C 
HETATM   16  C26 UNL     1      -2.426   4.979  12.862  1.00  0.00     0.007 C 
HETATM   17  C27 UNL     1      -3.961   5.020  12.943  1.00  0.00     0.010 C 
HETATM   18  C28 UNL     1      -4.457   6.234  13.752  1.00  0.00    -0.036 C 
HETATM   19  C29 UNL     1      -4.008   6.130  15.229  1.00  0.00     0.016 C 
ENDROOT
BRANCH   1  20
HETATM   20  C2  UNL     1      -6.988   5.753  14.564  1.00  0.00    -0.013 C 
HETATM   21  C1  UNL     1      -7.195   4.309  14.102  1.00  0.00     0.010 C 
BRANCH  20  22
HETATM   22  C3  UNL     1      -8.348   6.505  14.632  1.00  0.00     0.014 C 
BRANCH  22  23
HETATM   23  C4  UNL     1      -8.732   7.002  16.030  1.00  0.00     0.103 C 
BRANCH  23  24
HETATM   24  C5  UNL     1      -9.453   8.337  16.052  1.00  0.00     0.217 C 
HETATM   25  O1  UNL     1      -9.392   9.171  15.157  1.00  0.00    -0.274 OA
HETATM   26  N1  UNL     1     -10.183   8.521  17.207  1.00  0.00    -0.359 N 
HETATM   27  H9  UNL     1      -9.955   7.949  18.012  1.00  0.00     0.162 HD
BRANCH  26  28
HETATM   28  C6  UNL     1     -10.814   9.795  17.502  1.00  0.00     0.154 C 
BRANCH  28  29
HETATM   29  C7  UNL     1     -11.841   9.645  18.631  1.00  0.00     0.139 C 
HETATM   30  C8  UNL     1     -12.377  10.979  19.127  1.00  0.00     0.035 C 
HETATM   31  C9  UNL     1     -11.432  11.321  20.250  1.00  0.00     0.029 C 
HETATM   32  C10 UNL     1     -11.143   9.959  20.843  1.00  0.00     0.168 C 
HETATM   33  O2  UNL     1     -11.192   9.018  19.763  1.00  0.00    -0.384 OA
ENDBRANCH  28  29
ENDBRANCH  26  28
ENDBRANCH  23  24
ENDBRANCH  22  23
ENDBRANCH  20  22
ENDBRANCH   1  20
BRANCH   6  34
HETATM   34  O3  UNL     1      -1.860   9.915  13.151  1.00  0.00    -0.395 OA
HETATM   35  H27 UNL     1      -1.632  10.715  12.650  1.00  0.00     0.210 HD
ENDBRANCH   6  34
BRANCH  10  36
HETATM   36  O4  UNL     1       1.640   7.684   9.553  1.00  0.00    -0.396 OA
HETATM   37  H34 UNL     1       1.918   7.177   8.771  1.00  0.00     0.210 HD
ENDBRANCH  10  36
TORSDOF 8
ENDMDL
