MODEL 1
REMARK minimizedAffinity -8.67888355
REMARK  10 active torsions:
REMARK  status: ('A' for Active; 'I' for Inactive)
REMARK    1  A    between atoms: C3_3  and  C5_5 
REMARK    2  A    between atoms: C6_6  and  C7_7 
REMARK    3  A    between atoms: C8_8  and  C9_9 
REMARK    4  A    between atoms: C10_10  and  C12_12 
REMARK    5  A    between atoms: C12_12  and  O1_13 
REMARK    6  A    between atoms: C12_12  and  C13_14 
REMARK    7  A    between atoms: C13_14  and  C15_16 
REMARK    8  A    between atoms: C15_16  and  O2_17 
REMARK    9  A    between atoms: C18_20  and  O3_21 
REMARK   10  A    between atoms: C19_22  and  O4_24 
ROOT
HETATM    1  C5  UNL     1      -0.929   6.466  11.298  1.00  0.00     0.058 C 
HETATM    2  C6  UNL     1      -1.589   7.033  12.612  1.00  0.00     0.024 C 
HETATM    3  C16 UNL     1      -0.526   7.356  13.702  1.00  0.00     0.003 C 
HETATM    4  C17 UNL     1      -1.134   7.736  15.071  1.00  0.00     0.040 C 
HETATM    5  C18 UNL     1      -0.061   8.063  16.120  1.00  0.00     0.152 C 
HETATM    6  C19 UNL     1       0.951   9.127  15.626  1.00  0.00     0.080 C 
HETATM    7  C20 UNL     1       2.104   9.317  16.617  1.00  0.00     0.048 C 
HETATM    8  C21 UNL     1       1.510   8.765  14.238  1.00  0.00     0.047 C 
HETATM    9  C22 UNL     1       0.386   8.506  13.219  1.00  0.00     0.025 C 
HETATM   10  C23 UNL     1       0.939   8.245  11.842  1.00  0.00     0.162 A 
HETATM   11  O5  UNL     1       0.038   8.704  10.815  1.00  0.00    -0.368 OA
HETATM   12  C24 UNL     1       0.281   7.291  10.862  1.00  0.00     0.092 A 
HETATM   13  C25 UNL     1       1.043   6.828   9.652  1.00  0.00     0.049 C 
ENDROOT
BRANCH   2  14
HETATM   14  C7  UNL     1      -2.703   6.131  13.115  1.00  0.00    -0.021 C 
HETATM   15  C8  UNL     1      -4.007   6.436  13.019  1.00  0.00    -0.003 C 
BRANCH  15  16
HETATM   16  C9  UNL     1      -5.050   5.559  13.502  1.00  0.00     0.005 C 
HETATM   17  C10 UNL     1      -6.220   5.947  14.049  1.00  0.00    -0.055 C 
HETATM   18  C11 UNL     1      -6.587   7.397  14.248  1.00  0.00     0.046 C 
BRANCH  17  19
HETATM   19  C12 UNL     1      -7.217   4.899  14.524  1.00  0.00     0.152 C 
BRANCH  19  20
HETATM   20  O1  UNL     1      -8.083   5.466  15.500  1.00  0.00    -0.391 OA
HETATM   21  H17 UNL     1      -7.528   5.959  16.125  1.00  0.00     0.210 HD
ENDBRANCH  19  20
BRANCH  19  22
HETATM   22  C13 UNL     1      -7.987   4.161  13.399  1.00  0.00     0.038 C 
HETATM   23  C14 UNL     1      -8.406   5.152  12.304  1.00  0.00     0.015 C 
BRANCH  22  24
HETATM   24  C15 UNL     1      -7.273   2.956  12.769  1.00  0.00     0.171 C 
BRANCH  24  25
HETATM   25  O2  UNL     1      -8.117   1.822  12.650  1.00  0.00    -0.400 OA
HETATM   26  H24 UNL     1      -7.596   1.112  12.243  1.00  0.00     0.209 HD
ENDBRANCH  24  25
ENDBRANCH  22  24
ENDBRANCH  19  22
ENDBRANCH  17  19
ENDBRANCH  15  16
ENDBRANCH   2  14
BRANCH   1  27
HETATM   27  C3  UNL     1      -0.650   4.943  11.319  1.00  0.00    -0.080 C 
HETATM   28  C2  UNL     1      -1.603   4.085  10.896  1.00  0.00    -0.028 C 
HETATM   29  C1  UNL     1      -1.549   2.590  10.866  1.00  0.00     0.036 C 
HETATM   30  C4  UNL     1       0.706   4.486  11.788  1.00  0.00     0.043 C 
ENDBRANCH   1  27
BRANCH   5  31
HETATM   31  O3  UNL     1       0.592   6.859  16.528  1.00  0.00    -0.393 OA
HETATM   32  H29 UNL     1       1.040   6.467  15.762  1.00  0.00     0.210 HD
ENDBRANCH   5  31
BRANCH   6  33
HETATM   33  O4  UNL     1       0.279  10.389  15.497  1.00  0.00    -0.388 OA
HETATM   34  H33 UNL     1       0.006  10.676  16.386  1.00  0.00     0.210 HD
ENDBRANCH   6  33
TORSDOF 10
ENDMDL
MODEL 2
REMARK minimizedAffinity -8.41993237
REMARK  10 active torsions:
REMARK  status: ('A' for Active; 'I' for Inactive)
REMARK    1  A    between atoms: C3_3  and  C5_5 
REMARK    2  A    between atoms: C6_6  and  C7_7 
REMARK    3  A    between atoms: C8_8  and  C9_9 
REMARK    4  A    between atoms: C10_10  and  C12_12 
REMARK    5  A    between atoms: C12_12  and  O1_13 
REMARK    6  A    between atoms: C12_12  and  C13_14 
REMARK    7  A    between atoms: C13_14  and  C15_16 
REMARK    8  A    between atoms: C15_16  and  O2_17 
REMARK    9  A    between atoms: C18_20  and  O3_21 
REMARK   10  A    between atoms: C19_22  and  O4_24 
ROOT
HETATM    1  C5  UNL     1      -0.366   7.405  14.436  1.00  0.00     0.058 C 
HETATM    2  C6  UNL     1      -0.360   6.497  13.147  1.00  0.00     0.024 C 
HETATM    3  C16 UNL     1       0.385   7.175  11.962  1.00  0.00     0.003 C 
HETATM    4  C17 UNL     1       0.257   6.410  10.626  1.00  0.00     0.040 C 
HETATM    5  C18 UNL     1       1.016   7.097   9.480  1.00  0.00     0.152 C 
HETATM    6  C19 UNL     1       2.496   7.389   9.835  1.00  0.00     0.080 C 
HETATM    7  C20 UNL     1       3.187   8.219   8.748  1.00  0.00     0.048 C 
HETATM    8  C21 UNL     1       2.613   8.105  11.193  1.00  0.00     0.047 C 
HETATM    9  C22 UNL     1       1.882   7.337  12.309  1.00  0.00     0.025 C 
HETATM   10  C23 UNL     1       2.082   7.992  13.651  1.00  0.00     0.162 A 
HETATM   11  O5  UNL     1       2.074   7.024  14.718  1.00  0.00    -0.368 OA
HETATM   12  C24 UNL     1       1.014   7.990  14.730  1.00  0.00     0.092 A 
HETATM   13  C25 UNL     1       1.141   8.925  15.901  1.00  0.00     0.049 C 
ENDROOT
BRANCH   2  14
HETATM   14  C7  UNL     1      -1.759   6.030  12.783  1.00  0.00    -0.021 C 
HETATM   15  C8  UNL     1      -2.239   4.813  13.082  1.00  0.00    -0.003 C 
BRANCH  15  16
HETATM   16  C9  UNL     1      -3.576   4.393  12.728  1.00  0.00     0.005 C 
HETATM   17  C10 UNL     1      -3.942   3.808  11.568  1.00  0.00    -0.055 C 
HETATM   18  C11 UNL     1      -2.964   3.528  10.452  1.00  0.00     0.046 C 
BRANCH  17  19
HETATM   19  C12 UNL     1      -5.398   3.435  11.336  1.00  0.00     0.152 C 
BRANCH  19  20
HETATM   20  O1  UNL     1      -5.474   2.164  10.700  1.00  0.00    -0.391 OA
HETATM   21  H17 UNL     1      -4.829   2.167   9.975  1.00  0.00     0.210 HD
ENDBRANCH  19  20
BRANCH  19  22
HETATM   22  C13 UNL     1      -6.314   3.534  12.584  1.00  0.00     0.038 C 
HETATM   23  C14 UNL     1      -6.929   4.937  12.679  1.00  0.00     0.015 C 
BRANCH  22  24
HETATM   24  C15 UNL     1      -7.415   2.471  12.702  1.00  0.00     0.171 C 
BRANCH  24  25
HETATM   25  O2  UNL     1      -8.678   3.027  13.025  1.00  0.00    -0.400 OA
HETATM   26  H24 UNL     1      -9.314   2.295  13.077  1.00  0.00     0.209 HD
ENDBRANCH  24  25
ENDBRANCH  22  24
ENDBRANCH  19  22
ENDBRANCH  17  19
ENDBRANCH  15  16
ENDBRANCH   2  14
BRANCH   1  27
HETATM   27  C3  UNL     1      -1.495   8.463  14.476  1.00  0.00    -0.080 C 
HETATM   28  C2  UNL     1      -2.483   8.348  15.391  1.00  0.00    -0.028 C 
HETATM   29  C1  UNL     1      -3.675   9.235  15.575  1.00  0.00     0.036 C 
HETATM   30  C4  UNL     1      -1.421   9.605  13.498  1.00  0.00     0.043 C 
ENDBRANCH   1  27
BRANCH   5  31
HETATM   31  O3  UNL     1       0.320   8.283   9.089  1.00  0.00    -0.393 OA
HETATM   32  H29 UNL     1       0.299   8.899   9.838  1.00  0.00     0.210 HD
ENDBRANCH   5  31
BRANCH   6  33
HETATM   33  O4  UNL     1       3.205   6.146   9.946  1.00  0.00    -0.388 OA
HETATM   34  H33 UNL     1       3.221   5.729   9.067  1.00  0.00     0.210 HD
ENDBRANCH   6  33
TORSDOF 10
ENDMDL
MODEL 3
REMARK minimizedAffinity -8.18351269
REMARK  10 active torsions:
REMARK  status: ('A' for Active; 'I' for Inactive)
REMARK    1  A    between atoms: C3_3  and  C5_5 
REMARK    2  A    between atoms: C6_6  and  C7_7 
REMARK    3  A    between atoms: C8_8  and  C9_9 
REMARK    4  A    between atoms: C10_10  and  C12_12 
REMARK    5  A    between atoms: C12_12  and  O1_13 
REMARK    6  A    between atoms: C12_12  and  C13_14 
REMARK    7  A    between atoms: C13_14  and  C15_16 
REMARK    8  A    between atoms: C15_16  and  O2_17 
REMARK    9  A    between atoms: C18_20  and  O3_21 
REMARK   10  A    between atoms: C19_22  and  O4_24 
ROOT
HETATM    1  C5  UNL     1      -0.078   6.914  14.976  1.00  0.00     0.058 C 
HETATM    2  C6  UNL     1       0.131   5.853  13.830  1.00  0.00     0.024 C 
HETATM    3  C16 UNL     1       0.777   6.485  12.563  1.00  0.00     0.003 C 
HETATM    4  C17 UNL     1       0.829   5.531  11.349  1.00  0.00     0.040 C 
HETATM    5  C18 UNL     1       1.486   6.179  10.120  1.00  0.00     0.152 C 
HETATM    6  C19 UNL     1       2.877   6.783  10.437  1.00  0.00     0.080 C 
HETATM    7  C20 UNL     1       3.440   7.566   9.246  1.00  0.00     0.048 C 
HETATM    8  C21 UNL     1       2.823   7.689  11.680  1.00  0.00     0.047 C 
HETATM    9  C22 UNL     1       2.209   6.964  12.890  1.00  0.00     0.025 C 
HETATM   10  C23 UNL     1       2.247   7.824  14.126  1.00  0.00     0.162 A 
HETATM   11  O5  UNL     1       2.381   7.028  15.320  1.00  0.00    -0.368 OA
HETATM   12  C24 UNL     1       1.165   7.777  15.190  1.00  0.00     0.092 A 
HETATM   13  C25 UNL     1       1.086   8.873  16.217  1.00  0.00     0.049 C 
ENDROOT
BRANCH   2  14
HETATM   14  C7  UNL     1      -1.150   5.093  13.529  1.00  0.00    -0.021 C 
HETATM   15  C8  UNL     1      -1.975   5.397  12.515  1.00  0.00    -0.003 C 
BRANCH  15  16
HETATM   16  C9  UNL     1      -3.187   4.655  12.247  1.00  0.00     0.005 C 
HETATM   17  C10 UNL     1      -4.434   5.015  12.618  1.00  0.00    -0.055 C 
HETATM   18  C11 UNL     1      -4.721   6.272  13.403  1.00  0.00     0.046 C 
BRANCH  17  19
HETATM   19  C12 UNL     1      -5.613   4.118  12.272  1.00  0.00     0.152 C 
BRANCH  19  20
HETATM   20  O1  UNL     1      -5.188   2.762  12.216  1.00  0.00    -0.391 OA
HETATM   21  H17 UNL     1      -4.366   2.740  11.700  1.00  0.00     0.210 HD
ENDBRANCH  19  20
BRANCH  19  22
HETATM   22  C13 UNL     1      -6.873   4.312  13.156  1.00  0.00     0.038 C 
HETATM   23  C14 UNL     1      -7.929   5.133  12.402  1.00  0.00     0.015 C 
BRANCH  22  24
HETATM   24  C15 UNL     1      -7.509   3.033  13.719  1.00  0.00     0.171 C 
BRANCH  24  25
HETATM   25  O2  UNL     1      -7.965   2.157  12.702  1.00  0.00    -0.400 OA
HETATM   26  H24 UNL     1      -8.347   1.378  13.138  1.00  0.00     0.209 HD
ENDBRANCH  24  25
ENDBRANCH  22  24
ENDBRANCH  19  22
ENDBRANCH  17  19
ENDBRANCH  15  16
ENDBRANCH   2  14
BRANCH   1  27
HETATM   27  C3  UNL     1      -1.380   7.743  14.861  1.00  0.00    -0.080 C 
HETATM   28  C2  UNL     1      -1.536   8.600  13.829  1.00  0.00    -0.028 C 
HETATM   29  C1  UNL     1      -2.692   9.511  13.554  1.00  0.00     0.036 C 
HETATM   30  C4  UNL     1      -2.442   7.527  15.907  1.00  0.00     0.043 C 
ENDBRANCH   1  27
BRANCH   5  31
HETATM   31  O3  UNL     1       0.600   7.152   9.562  1.00  0.00    -0.393 OA
HETATM   32  H29 UNL     1       0.445   7.851  10.216  1.00  0.00     0.210 HD
ENDBRANCH   5  31
BRANCH   6  33
HETATM   33  O4  UNL     1       3.795   5.718  10.726  1.00  0.00    -0.388 OA
HETATM   34  H33 UNL     1       3.912   5.193   9.915  1.00  0.00     0.210 HD
ENDBRANCH   6  33
TORSDOF 10
ENDMDL
MODEL 4
REMARK minimizedAffinity -7.94779634
REMARK  10 active torsions:
REMARK  status: ('A' for Active; 'I' for Inactive)
REMARK    1  A    between atoms: C3_3  and  C5_5 
REMARK    2  A    between atoms: C6_6  and  C7_7 
REMARK    3  A    between atoms: C8_8  and  C9_9 
REMARK    4  A    between atoms: C10_10  and  C12_12 
REMARK    5  A    between atoms: C12_12  and  O1_13 
REMARK    6  A    between atoms: C12_12  and  C13_14 
REMARK    7  A    between atoms: C13_14  and  C15_16 
REMARK    8  A    between atoms: C15_16  and  O2_17 
REMARK    9  A    between atoms: C18_20  and  O3_21 
REMARK   10  A    between atoms: C19_22  and  O4_24 
ROOT
HETATM    1  C5  UNL     1      -0.405   6.910  11.411  1.00  0.00     0.058 C 
HETATM    2  C6  UNL     1      -0.999   7.921  12.464  1.00  0.00     0.024 C 
HETATM    3  C16 UNL     1       0.047   8.314  13.547  1.00  0.00     0.003 C 
HETATM    4  C17 UNL     1      -0.539   9.153  14.704  1.00  0.00     0.040 C 
HETATM    5  C18 UNL     1       0.522   9.536  15.748  1.00  0.00     0.152 C 
HETATM    6  C19 UNL     1       1.762  10.217  15.116  1.00  0.00     0.080 C 
HETATM    7  C20 UNL     1       2.873  10.441  16.146  1.00  0.00     0.048 C 
HETATM    8  C21 UNL     1       2.304   9.399  13.930  1.00  0.00     0.047 C 
HETATM    9  C22 UNL     1       1.207   9.098  12.894  1.00  0.00     0.025 C 
HETATM   10  C23 UNL     1       1.766   8.380  11.692  1.00  0.00     0.162 A 
HETATM   11  O5  UNL     1       1.039   8.713  10.493  1.00  0.00    -0.368 OA
HETATM   12  C24 UNL     1       0.973   7.344  10.916  1.00  0.00     0.092 A 
HETATM   13  C25 UNL     1       1.684   6.439   9.948  1.00  0.00     0.049 C 
ENDROOT
BRANCH   2  14
HETATM   14  C7  UNL     1      -2.305   7.416  13.053  1.00  0.00    -0.021 C 
HETATM   15  C8  UNL     1      -3.494   8.002  12.840  1.00  0.00    -0.003 C 
BRANCH  15  16
HETATM   16  C9  UNL     1      -4.724   7.499  13.409  1.00  0.00     0.005 C 
HETATM   17  C10 UNL     1      -5.109   6.206  13.446  1.00  0.00    -0.055 C 
HETATM   18  C11 UNL     1      -4.279   5.091  12.858  1.00  0.00     0.046 C 
BRANCH  17  19
HETATM   19  C12 UNL     1      -6.445   5.832  14.070  1.00  0.00     0.152 C 
BRANCH  19  20
HETATM   20  O1  UNL     1      -7.113   7.006  14.519  1.00  0.00    -0.391 OA
HETATM   21  H17 UNL     1      -6.461   7.542  14.999  1.00  0.00     0.210 HD
ENDBRANCH  19  20
BRANCH  19  22
HETATM   22  C13 UNL     1      -7.353   4.926  13.198  1.00  0.00     0.038 C 
HETATM   23  C14 UNL     1      -7.600   3.586  13.905  1.00  0.00     0.015 C 
BRANCH  22  24
HETATM   24  C15 UNL     1      -8.689   5.536  12.750  1.00  0.00     0.171 C 
BRANCH  24  25
HETATM   25  O2  UNL     1      -9.562   5.796  13.836  1.00  0.00    -0.400 OA
HETATM   26  H24 UNL     1     -10.375   6.181  13.471  1.00  0.00     0.209 HD
ENDBRANCH  24  25
ENDBRANCH  22  24
ENDBRANCH  19  22
ENDBRANCH  17  19
ENDBRANCH  15  16
ENDBRANCH   2  14
BRANCH   1  27
HETATM   27  C3  UNL     1      -0.457   5.424  11.840  1.00  0.00    -0.080 C 
HETATM   28  C2  UNL     1      -1.193   4.548  11.123  1.00  0.00    -0.028 C 
HETATM   29  C1  UNL     1      -1.403   3.090  11.384  1.00  0.00     0.036 C 
HETATM   30  C4  UNL     1       0.355   5.013  13.040  1.00  0.00     0.043 C 
ENDBRANCH   1  27
BRANCH   5  31
HETATM   31  O3  UNL     1       0.882   8.382  16.511  1.00  0.00    -0.393 OA
HETATM   32  H29 UNL     1       1.276   7.722  15.919  1.00  0.00     0.210 HD
ENDBRANCH   5  31
BRANCH   6  33
HETATM   33  O4  UNL     1       1.380  11.503  14.605  1.00  0.00    -0.388 OA
HETATM   34  H33 UNL     1       1.126  12.063  15.360  1.00  0.00     0.210 HD
ENDBRANCH   6  33
TORSDOF 10
ENDMDL
MODEL 5
REMARK minimizedAffinity -7.8553915
REMARK  10 active torsions:
REMARK  status: ('A' for Active; 'I' for Inactive)
REMARK    1  A    between atoms: C3_3  and  C5_5 
REMARK    2  A    between atoms: C6_6  and  C7_7 
REMARK    3  A    between atoms: C8_8  and  C9_9 
REMARK    4  A    between atoms: C10_10  and  C12_12 
REMARK    5  A    between atoms: C12_12  and  O1_13 
REMARK    6  A    between atoms: C12_12  and  C13_14 
REMARK    7  A    between atoms: C13_14  and  C15_16 
REMARK    8  A    between atoms: C15_16  and  O2_17 
REMARK    9  A    between atoms: C18_20  and  O3_21 
REMARK   10  A    between atoms: C19_22  and  O4_24 
ROOT
HETATM    1  C5  UNL     1      -2.596   7.332  12.897  1.00  0.00     0.058 C 
HETATM    2  C6  UNL     1      -3.310   8.562  13.577  1.00  0.00     0.024 C 
HETATM    3  C16 UNL     1      -2.654   8.936  14.937  1.00  0.00     0.003 C 
HETATM    4  C17 UNL     1      -3.431  10.011  15.728  1.00  0.00     0.040 C 
HETATM    5  C18 UNL     1      -2.749  10.369  17.058  1.00  0.00     0.152 C 
HETATM    6  C19 UNL     1      -1.259  10.753  16.880  1.00  0.00     0.080 C 
HETATM    7  C20 UNL     1      -0.557  10.945  18.229  1.00  0.00     0.048 C 
HETATM    8  C21 UNL     1      -0.507   9.701  16.045  1.00  0.00     0.047 C 
HETATM    9  C22 UNL     1      -1.208   9.430  14.702  1.00  0.00     0.025 C 
HETATM   10  C23 UNL     1      -0.417   8.472  13.850  1.00  0.00     0.162 A 
HETATM   11  O5  UNL     1      -0.598   8.740  12.446  1.00  0.00    -0.368 OA
HETATM   12  C24 UNL     1      -1.074   7.472  12.916  1.00  0.00     0.092 A 
HETATM   13  C25 UNL     1      -0.262   6.340  12.351  1.00  0.00     0.049 C 
ENDROOT
BRANCH   2  14
HETATM   14  C7  UNL     1      -4.811   8.353  13.677  1.00  0.00    -0.021 C 
HETATM   15  C8  UNL     1      -5.466   8.209  14.840  1.00  0.00    -0.003 C 
BRANCH  15  16
HETATM   16  C9  UNL     1      -6.898   8.015  14.910  1.00  0.00     0.005 C 
HETATM   17  C10 UNL     1      -7.527   6.928  15.403  1.00  0.00    -0.055 C 
HETATM   18  C11 UNL     1      -6.783   5.731  15.944  1.00  0.00     0.046 C 
BRANCH  17  19
HETATM   19  C12 UNL     1      -9.047   6.866  15.396  1.00  0.00     0.152 C 
BRANCH  19  20
HETATM   20  O1  UNL     1      -9.567   7.684  16.436  1.00  0.00    -0.391 OA
HETATM   21  H17 UNL     1      -9.055   7.490  17.238  1.00  0.00     0.210 HD
ENDBRANCH  19  20
BRANCH  19  22
HETATM   22  C13 UNL     1      -9.714   7.148  14.024  1.00  0.00     0.038 C 
HETATM   23  C14 UNL     1      -9.310   6.071  13.007  1.00  0.00     0.015 C 
BRANCH  22  24
HETATM   24  C15 UNL     1     -11.241   7.311  14.035  1.00  0.00     0.171 C 
BRANCH  24  25
HETATM   25  O2  UNL     1     -11.879   6.416  14.929  1.00  0.00    -0.400 OA
HETATM   26  H24 UNL     1     -12.834   6.586  14.879  1.00  0.00     0.209 HD
ENDBRANCH  24  25
ENDBRANCH  22  24
ENDBRANCH  19  22
ENDBRANCH  17  19
ENDBRANCH  15  16
ENDBRANCH   2  14
BRANCH   1  27
HETATM   27  C3  UNL     1      -3.085   5.948  13.388  1.00  0.00    -0.080 C 
HETATM   28  C2  UNL     1      -3.799   5.160  12.555  1.00  0.00    -0.028 C 
HETATM   29  C1  UNL     1      -4.389   3.814  12.840  1.00  0.00     0.036 C 
HETATM   30  C4  UNL     1      -2.707   5.525  14.783  1.00  0.00     0.043 C 
ENDBRANCH   1  27
BRANCH   5  31
HETATM   31  O3  UNL     1      -2.913   9.293  17.984  1.00  0.00    -0.393 OA
HETATM   32  H29 UNL     1      -2.474   8.503  17.632  1.00  0.00     0.210 HD
ENDBRANCH   5  31
BRANCH   6  33
HETATM   33  O4  UNL     1      -1.178  11.998  16.169  1.00  0.00    -0.388 OA
HETATM   34  H33 UNL     1      -1.564  12.691  16.732  1.00  0.00     0.210 HD
ENDBRANCH   6  33
TORSDOF 10
ENDMDL
MODEL 6
REMARK minimizedAffinity -7.77327824
REMARK  10 active torsions:
REMARK  status: ('A' for Active; 'I' for Inactive)
REMARK    1  A    between atoms: C3_3  and  C5_5 
REMARK    2  A    between atoms: C6_6  and  C7_7 
REMARK    3  A    between atoms: C8_8  and  C9_9 
REMARK    4  A    between atoms: C10_10  and  C12_12 
REMARK    5  A    between atoms: C12_12  and  O1_13 
REMARK    6  A    between atoms: C12_12  and  C13_14 
REMARK    7  A    between atoms: C13_14  and  C15_16 
REMARK    8  A    between atoms: C15_16  and  O2_17 
REMARK    9  A    between atoms: C18_20  and  O3_21 
REMARK   10  A    between atoms: C19_22  and  O4_24 
ROOT
HETATM    1  C5  UNL     1      -2.234   7.323  13.574  1.00  0.00     0.058 C 
HETATM    2  C6  UNL     1      -2.002   6.610  12.187  1.00  0.00     0.024 C 
HETATM    3  C16 UNL     1      -2.448   5.120  12.218  1.00  0.00     0.003 C 
HETATM    4  C17 UNL     1      -2.070   4.330  10.946  1.00  0.00     0.040 C 
HETATM    5  C18 UNL     1      -2.537   2.867  11.002  1.00  0.00     0.152 C 
HETATM    6  C19 UNL     1      -4.045   2.735  11.332  1.00  0.00     0.080 C 
HETATM    7  C20 UNL     1      -4.453   1.274  11.546  1.00  0.00     0.048 C 
HETATM    8  C21 UNL     1      -4.420   3.569  12.571  1.00  0.00     0.047 C 
HETATM    9  C22 UNL     1      -3.977   5.036  12.428  1.00  0.00     0.025 C 
HETATM   10  C23 UNL     1      -4.431   5.866  13.600  1.00  0.00     0.162 A 
HETATM   11  O5  UNL     1      -4.691   7.230  13.213  1.00  0.00    -0.368 OA
HETATM   12  C24 UNL     1      -3.620   7.028  14.144  1.00  0.00     0.092 A 
HETATM   13  C25 UNL     1      -3.955   7.599  15.495  1.00  0.00     0.049 C 
ENDROOT
BRANCH   2  14
HETATM   14  C7  UNL     1      -0.578   6.796  11.692  1.00  0.00    -0.021 C 
HETATM   15  C8  UNL     1      -0.126   6.306  10.527  1.00  0.00    -0.003 C 
BRANCH  15  16
HETATM   16  C9  UNL     1       1.234   6.499  10.075  1.00  0.00     0.005 C 
HETATM   17  C10 UNL     1       1.662   7.471   9.242  1.00  0.00    -0.055 C 
HETATM   18  C11 UNL     1       0.733   8.499   8.644  1.00  0.00     0.046 C 
BRANCH  17  19
HETATM   19  C12 UNL     1       3.129   7.536   8.846  1.00  0.00     0.152 C 
BRANCH  19  20
HETATM   20  O1  UNL     1       3.341   8.625   7.956  1.00  0.00    -0.391 OA
HETATM   21  H17 UNL     1       2.636   8.592   7.289  1.00  0.00     0.210 HD
ENDBRANCH  19  20
BRANCH  19  22
HETATM   22  C13 UNL     1       4.134   7.527  10.028  1.00  0.00     0.038 C 
HETATM   23  C14 UNL     1       3.806   8.660  11.011  1.00  0.00     0.015 C 
BRANCH  22  24
HETATM   24  C15 UNL     1       4.275   6.200  10.788  1.00  0.00     0.171 C 
BRANCH  24  25
HETATM   25  O2  UNL     1       4.983   5.220  10.048  1.00  0.00    -0.400 OA
HETATM   26  H24 UNL     1       5.031   4.420  10.595  1.00  0.00     0.209 HD
ENDBRANCH  24  25
ENDBRANCH  22  24
ENDBRANCH  19  22
ENDBRANCH  17  19
ENDBRANCH  15  16
ENDBRANCH   2  14
BRANCH   1  27
HETATM   27  C3  UNL     1      -1.096   7.120  14.604  1.00  0.00    -0.080 C 
HETATM   28  C2  UNL     1      -0.387   8.186  15.033  1.00  0.00    -0.028 C 
HETATM   29  C1  UNL     1       0.764   8.203  15.990  1.00  0.00     0.036 C 
HETATM   30  C4  UNL     1      -0.851   5.723  15.110  1.00  0.00     0.043 C 
ENDBRANCH   1  27
BRANCH   5  31
HETATM   31  O3  UNL     1      -1.725   2.141  11.927  1.00  0.00    -0.393 OA
HETATM   32  H29 UNL     1      -1.839   2.520  12.813  1.00  0.00     0.210 HD
ENDBRANCH   5  31
BRANCH   6  33
HETATM   33  O4  UNL     1      -4.812   3.242  10.230  1.00  0.00    -0.388 OA
HETATM   34  H33 UNL     1      -4.657   2.662   9.464  1.00  0.00     0.210 HD
ENDBRANCH   6  33
TORSDOF 10
ENDMDL
MODEL 7
REMARK minimizedAffinity -7.73283911
REMARK  10 active torsions:
REMARK  status: ('A' for Active; 'I' for Inactive)
REMARK    1  A    between atoms: C3_3  and  C5_5 
REMARK    2  A    between atoms: C6_6  and  C7_7 
REMARK    3  A    between atoms: C8_8  and  C9_9 
REMARK    4  A    between atoms: C10_10  and  C12_12 
REMARK    5  A    between atoms: C12_12  and  O1_13 
REMARK    6  A    between atoms: C12_12  and  C13_14 
REMARK    7  A    between atoms: C13_14  and  C15_16 
REMARK    8  A    between atoms: C15_16  and  O2_17 
REMARK    9  A    between atoms: C18_20  and  O3_21 
REMARK   10  A    between atoms: C19_22  and  O4_24 
ROOT
HETATM    1  C5  UNL     1      -4.824   3.183  12.248  1.00  0.00     0.058 C 
HETATM    2  C6  UNL     1      -4.107   4.245  13.166  1.00  0.00     0.024 C 
HETATM    3  C16 UNL     1      -4.954   5.540  13.328  1.00  0.00     0.003 C 
HETATM    4  C17 UNL     1      -4.215   6.680  14.062  1.00  0.00     0.040 C 
HETATM    5  C18 UNL     1      -5.084   7.938  14.219  1.00  0.00     0.152 C 
HETATM    6  C19 UNL     1      -6.459   7.636  14.866  1.00  0.00     0.080 C 
HETATM    7  C20 UNL     1      -7.371   8.867  14.862  1.00  0.00     0.048 C 
HETATM    8  C21 UNL     1      -7.163   6.463  14.160  1.00  0.00     0.047 C 
HETATM    9  C22 UNL     1      -6.262   5.217  14.086  1.00  0.00     0.025 C 
HETATM   10  C23 UNL     1      -6.990   4.045  13.479  1.00  0.00     0.162 A 
HETATM   11  O5  UNL     1      -6.521   2.795  14.021  1.00  0.00    -0.368 OA
HETATM   12  C24 UNL     1      -6.294   3.004  12.621  1.00  0.00     0.092 A 
HETATM   13  C25 UNL     1      -7.117   2.061  11.787  1.00  0.00     0.049 C 
ENDROOT
BRANCH   2  14
HETATM   14  C7  UNL     1      -2.685   4.518  12.704  1.00  0.00    -0.021 C 
HETATM   15  C8  UNL     1      -1.873   5.414  13.285  1.00  0.00    -0.003 C 
BRANCH  15  16
HETATM   16  C9  UNL     1      -0.522   5.653  12.829  1.00  0.00     0.005 C 
HETATM   17  C10 UNL     1      -0.069   6.786  12.252  1.00  0.00    -0.055 C 
HETATM   18  C11 UNL     1      -0.957   7.978  11.988  1.00  0.00     0.046 C 
BRANCH  17  19
HETATM   19  C12 UNL     1       1.384   6.882  11.812  1.00  0.00     0.152 C 
BRANCH  19  20
HETATM   20  O1  UNL     1       2.232   6.371  12.833  1.00  0.00    -0.391 OA
HETATM   21  H17 UNL     1       1.931   6.751  13.673  1.00  0.00     0.210 HD
ENDBRANCH  19  20
BRANCH  19  22
HETATM   22  C13 UNL     1       1.693   6.275  10.418  1.00  0.00     0.038 C 
HETATM   23  C14 UNL     1       1.720   7.380   9.353  1.00  0.00     0.015 C 
BRANCH  22  24
HETATM   24  C15 UNL     1       2.966   5.421  10.319  1.00  0.00     0.171 C 
BRANCH  24  25
HETATM   25  O2  UNL     1       3.591   5.519   9.050  1.00  0.00    -0.400 OA
HETATM   26  H24 UNL     1       4.383   4.957   9.072  1.00  0.00     0.209 HD
ENDBRANCH  24  25
ENDBRANCH  22  24
ENDBRANCH  19  22
ENDBRANCH  17  19
ENDBRANCH  15  16
ENDBRANCH   2  14
BRANCH   1  27
HETATM   27  C3  UNL     1      -4.602   3.386  10.729  1.00  0.00    -0.080 C 
HETATM   28  C2  UNL     1      -5.665   3.394   9.896  1.00  0.00    -0.028 C 
HETATM   29  C1  UNL     1      -5.667   3.540   8.406  1.00  0.00     0.036 C 
HETATM   30  C4  UNL     1      -3.191   3.598  10.250  1.00  0.00     0.043 C 
ENDBRANCH   1  27
BRANCH   5  31
HETATM   31  O3  UNL     1      -5.224   8.584  12.952  1.00  0.00    -0.393 OA
HETATM   32  H29 UNL     1      -5.681   7.986  12.340  1.00  0.00     0.210 HD
ENDBRANCH   5  31
BRANCH   6  33
HETATM   33  O4  UNL     1      -6.259   7.250  16.234  1.00  0.00    -0.388 OA
HETATM   34  H33 UNL     1      -5.904   8.019  16.714  1.00  0.00     0.210 HD
ENDBRANCH   6  33
TORSDOF 10
ENDMDL
MODEL 8
REMARK minimizedAffinity -7.56054497
REMARK  10 active torsions:
REMARK  status: ('A' for Active; 'I' for Inactive)
REMARK    1  A    between atoms: C3_3  and  C5_5 
REMARK    2  A    between atoms: C6_6  and  C7_7 
REMARK    3  A    between atoms: C8_8  and  C9_9 
REMARK    4  A    between atoms: C10_10  and  C12_12 
REMARK    5  A    between atoms: C12_12  and  O1_13 
REMARK    6  A    between atoms: C12_12  and  C13_14 
REMARK    7  A    between atoms: C13_14  and  C15_16 
REMARK    8  A    between atoms: C15_16  and  O2_17 
REMARK    9  A    between atoms: C18_20  and  O3_21 
REMARK   10  A    between atoms: C19_22  and  O4_24 
ROOT
HETATM    1  C5  UNL     1       3.683   7.905  13.668  1.00  0.00     0.058 C 
HETATM    2  C6  UNL     1       2.555   7.078  12.940  1.00  0.00     0.024 C 
HETATM    3  C16 UNL     1       2.354   7.540  11.468  1.00  0.00     0.003 C 
HETATM    4  C17 UNL     1       1.138   6.891  10.772  1.00  0.00     0.040 C 
HETATM    5  C18 UNL     1       0.976   7.356   9.316  1.00  0.00     0.152 C 
HETATM    6  C19 UNL     1       2.273   7.180   8.487  1.00  0.00     0.080 C 
HETATM    7  C20 UNL     1       2.143   7.799   7.092  1.00  0.00     0.048 C 
HETATM    8  C21 UNL     1       3.488   7.784   9.215  1.00  0.00     0.047 C 
HETATM    9  C22 UNL     1       3.627   7.235  10.646  1.00  0.00     0.025 C 
HETATM   10  C23 UNL     1       4.870   7.758  11.319  1.00  0.00     0.162 A 
HETATM   11  O5  UNL     1       5.405   6.802  12.256  1.00  0.00    -0.368 OA
HETATM   12  C24 UNL     1       4.938   8.040  12.808  1.00  0.00     0.092 A 
HETATM   13  C25 UNL     1       6.075   8.857  13.357  1.00  0.00     0.049 C 
ENDROOT
BRANCH   2  14
HETATM   14  C7  UNL     1       1.264   7.064  13.741  1.00  0.00    -0.021 C 
HETATM   15  C8  UNL     1       0.470   5.987  13.853  1.00  0.00    -0.003 C 
BRANCH  15  16
HETATM   16  C9  UNL     1      -0.752   5.997  14.625  1.00  0.00     0.005 C 
HETATM   17  C10 UNL     1      -1.917   6.570  14.256  1.00  0.00    -0.055 C 
HETATM   18  C11 UNL     1      -2.085   7.312  12.953  1.00  0.00     0.046 C 
BRANCH  17  19
HETATM   19  C12 UNL     1      -3.119   6.507  15.187  1.00  0.00     0.152 C 
BRANCH  19  20
HETATM   20  O1  UNL     1      -2.990   7.490  16.208  1.00  0.00    -0.391 OA
HETATM   21  H17 UNL     1      -2.082   7.435  16.546  1.00  0.00     0.210 HD
ENDBRANCH  19  20
BRANCH  19  22
HETATM   22  C13 UNL     1      -4.502   6.552  14.487  1.00  0.00     0.038 C 
HETATM   23  C14 UNL     1      -4.714   5.282  13.651  1.00  0.00     0.015 C 
BRANCH  22  24
HETATM   24  C15 UNL     1      -5.715   6.788  15.397  1.00  0.00     0.171 C 
BRANCH  24  25
HETATM   25  O2  UNL     1      -5.753   8.103  15.926  1.00  0.00    -0.400 OA
HETATM   26  H24 UNL     1      -6.546   8.170  16.483  1.00  0.00     0.209 HD
ENDBRANCH  24  25
ENDBRANCH  22  24
ENDBRANCH  19  22
ENDBRANCH  17  19
ENDBRANCH  15  16
ENDBRANCH   2  14
BRANCH   1  27
HETATM   27  C3  UNL     1       3.211   9.250  14.271  1.00  0.00    -0.080 C 
HETATM   28  C2  UNL     1       3.093   9.375  15.611  1.00  0.00    -0.028 C 
HETATM   29  C1  UNL     1       2.626  10.566  16.388  1.00  0.00     0.036 C 
HETATM   30  C4  UNL     1       2.932  10.385  13.321  1.00  0.00     0.043 C 
ENDBRANCH   1  27
BRANCH   5  31
HETATM   31  O3  UNL     1       0.511   8.707   9.295  1.00  0.00    -0.393 OA
HETATM   32  H29 UNL     1       1.175   9.277   9.713  1.00  0.00     0.210 HD
ENDBRANCH   5  31
BRANCH   6  33
HETATM   33  O4  UNL     1       2.534   5.779   8.316  1.00  0.00    -0.388 OA
HETATM   34  H33 UNL     1       1.819   5.405   7.772  1.00  0.00     0.210 HD
ENDBRANCH   6  33
TORSDOF 10
ENDMDL
MODEL 9
REMARK minimizedAffinity -7.32757807
REMARK  10 active torsions:
REMARK  status: ('A' for Active; 'I' for Inactive)
REMARK    1  A    between atoms: C3_3  and  C5_5 
REMARK    2  A    between atoms: C6_6  and  C7_7 
REMARK    3  A    between atoms: C8_8  and  C9_9 
REMARK    4  A    between atoms: C10_10  and  C12_12 
REMARK    5  A    between atoms: C12_12  and  O1_13 
REMARK    6  A    between atoms: C12_12  and  C13_14 
REMARK    7  A    between atoms: C13_14  and  C15_16 
REMARK    8  A    between atoms: C15_16  and  O2_17 
REMARK    9  A    between atoms: C18_20  and  O3_21 
REMARK   10  A    between atoms: C19_22  and  O4_24 
ROOT
HETATM    1  C5  UNL     1      -0.898   4.767  12.508  1.00  0.00     0.058 C 
HETATM    2  C6  UNL     1      -1.097   5.390  13.942  1.00  0.00     0.024 C 
HETATM    3  C16 UNL     1      -2.263   6.420  13.972  1.00  0.00     0.003 C 
HETATM    4  C17 UNL     1      -2.376   7.194  15.304  1.00  0.00     0.040 C 
HETATM    5  C18 UNL     1      -3.546   8.191  15.307  1.00  0.00     0.152 C 
HETATM    6  C19 UNL     1      -4.891   7.533  14.909  1.00  0.00     0.080 C 
HETATM    7  C20 UNL     1      -6.008   8.571  14.757  1.00  0.00     0.048 C 
HETATM    8  C21 UNL     1      -4.752   6.720  13.609  1.00  0.00     0.047 C 
HETATM    9  C22 UNL     1      -3.602   5.701  13.691  1.00  0.00     0.025 C 
HETATM   10  C23 UNL     1      -3.533   4.845  12.453  1.00  0.00     0.162 A 
HETATM   11  O5  UNL     1      -3.038   3.525  12.750  1.00  0.00    -0.368 OA
HETATM   12  C24 UNL     1      -2.223   4.329  11.886  1.00  0.00     0.092 A 
HETATM   13  C25 UNL     1      -2.188   3.769  10.491  1.00  0.00     0.049 C 
ENDROOT
BRANCH   2  14
HETATM   14  C7  UNL     1       0.203   5.947  14.497  1.00  0.00    -0.021 C 
HETATM   15  C8  UNL     1       0.622   7.205  14.290  1.00  0.00    -0.003 C 
BRANCH  15  16
HETATM   16  C9  UNL     1       1.863   7.713  14.832  1.00  0.00     0.005 C 
HETATM   17  C10 UNL     1       2.691   8.590  14.228  1.00  0.00    -0.055 C 
HETATM   18  C11 UNL     1       2.421   9.154  12.853  1.00  0.00     0.046 C 
BRANCH  17  19
HETATM   19  C12 UNL     1       3.973   9.022  14.924  1.00  0.00     0.152 C 
BRANCH  19  20
HETATM   20  O1  UNL     1       3.702   9.335  16.285  1.00  0.00    -0.391 OA
HETATM   21  H17 UNL     1       2.905   9.889  16.299  1.00  0.00     0.210 HD
ENDBRANCH  19  20
BRANCH  19  22
HETATM   22  C13 UNL     1       5.173   8.053  14.761  1.00  0.00     0.038 C 
HETATM   23  C14 UNL     1       5.325   7.639  13.291  1.00  0.00     0.015 C 
BRANCH  22  24
HETATM   24  C15 UNL     1       6.520   8.545  15.309  1.00  0.00     0.171 C 
BRANCH  24  25
HETATM   25  O2  UNL     1       6.847   7.961  16.559  1.00  0.00    -0.400 OA
HETATM   26  H24 UNL     1       7.708   8.319  16.831  1.00  0.00     0.209 HD
ENDBRANCH  24  25
ENDBRANCH  22  24
ENDBRANCH  19  22
ENDBRANCH  17  19
ENDBRANCH  15  16
ENDBRANCH   2  14
BRANCH   1  27
HETATM   27  C3  UNL     1      -0.027   5.614  11.549  1.00  0.00    -0.080 C 
HETATM   28  C2  UNL     1      -0.509   6.780  11.066  1.00  0.00    -0.028 C 
HETATM   29  C1  UNL     1       0.151   7.723  10.110  1.00  0.00     0.036 C 
HETATM   30  C4  UNL     1       1.351   5.105  11.220  1.00  0.00     0.043 C 
ENDBRANCH   1  27
BRANCH   5  31
HETATM   31  O3  UNL     1      -3.229   9.302  14.465  1.00  0.00    -0.393 OA
HETATM   32  H29 UNL     1      -3.114   8.986  13.555  1.00  0.00     0.210 HD
ENDBRANCH   5  31
BRANCH   6  33
HETATM   33  O4  UNL     1      -5.288   6.618  15.941  1.00  0.00    -0.388 OA
HETATM   34  H33 UNL     1      -5.473   7.135  16.745  1.00  0.00     0.210 HD
ENDBRANCH   6  33
TORSDOF 10
ENDMDL
