MODEL 1
REMARK minimizedAffinity -7.37632084
REMARK CNNscore 0.793455482
REMARK CNNaffinity 7.28001022
REMARK  6 active torsions:
REMARK  status: ('A' for Active; 'I' for Inactive)
REMARK    1  A    between atoms: C2_2  and  C30_31 
REMARK    2  A    between atoms: C3_3  and  C4_4 
REMARK    3  A    between atoms: C4_4  and  C5_5 
REMARK    4  A    between atoms: C5_5  and  C6_6 
REMARK    5  A    between atoms: C6_6  and  C8_8 
REMARK    6  A    between atoms: C30_31  and  O2_32 
ROOT
HETATM    1  C8  UNL     1      -1.863  52.472 -10.980  1.00  0.00    -0.002 C 
HETATM    2  C9  UNL     1      -1.237  51.070 -11.252  1.00  0.00     0.007 C 
HETATM    3  C10 UNL     1       0.275  51.173 -10.974  1.00  0.00     0.015 C 
HETATM    4  C11 UNL     1       0.550  52.685 -10.879  1.00  0.00    -0.013 C 
HETATM    5  C12 UNL     1       0.711  53.188 -12.348  1.00  0.00     0.021 C 
HETATM    6  C13 UNL     1       1.802  53.140 -10.134  1.00  0.00    -0.070 C 
HETATM    7  C14 UNL     1       2.935  52.412 -10.098  1.00  0.00    -0.022 C 
HETATM    8  C15 UNL     1       4.214  52.857  -9.448  1.00  0.00     0.034 C 
HETATM    9  C16 UNL     1       4.082  54.157  -8.622  1.00  0.00     0.013 C 
HETATM   10  C17 UNL     1       5.442  54.674  -8.037  1.00  0.00     0.018 C 
HETATM   11  C18 UNL     1       6.593  54.815  -9.046  1.00  0.00     0.023 C 
HETATM   12  C19 UNL     1       5.928  53.686  -6.946  1.00  0.00     0.023 C 
HETATM   13  C20 UNL     1       5.231  56.043  -7.375  1.00  0.00     0.135 C 
HETATM   14  O1  UNL     1       5.763  56.350  -6.306  1.00  0.00    -0.297 OA
HETATM   15  C21 UNL     1       4.418  57.062  -8.130  1.00  0.00     0.080 C 
HETATM   16  C22 UNL     1       3.062  56.483  -8.495  1.00  0.00     0.017 C 
HETATM   17  C23 UNL     1       3.157  55.200  -9.357  1.00  0.00    -0.031 C 
HETATM   18  C24 UNL     1       3.655  55.585 -10.773  1.00  0.00     0.016 C 
HETATM   19  C25 UNL     1       1.732  54.513  -9.453  1.00  0.00     0.024 C 
HETATM   20  C26 UNL     1       0.608  55.407 -10.023  1.00  0.00     0.010 C 
HETATM   21  C27 UNL     1      -0.775  54.726 -10.151  1.00  0.00     0.011 C 
HETATM   22  C28 UNL     1      -0.746  53.181 -10.144  1.00  0.00    -0.029 C 
HETATM   23  C29 UNL     1      -0.847  52.676  -8.669  1.00  0.00     0.016 C 
ENDROOT
BRANCH   1  24
HETATM   24  C6  UNL     1      -3.314  52.370 -10.416  1.00  0.00    -0.014 C 
HETATM   25  C7  UNL     1      -4.087  53.682 -10.597  1.00  0.00     0.010 C 
BRANCH  24  26
HETATM   26  C5  UNL     1      -4.079  51.204 -11.106  1.00  0.00     0.008 C 
BRANCH  26  27
HETATM   27  C4  UNL     1      -4.756  50.235 -10.129  1.00  0.00     0.028 C 
BRANCH  27  28
HETATM   28  C3  UNL     1      -5.575  49.202 -10.856  1.00  0.00    -0.022 C 
HETATM   29  C2  UNL     1      -6.800  48.752 -10.517  1.00  0.00    -0.064 C 
HETATM   30  C1  UNL     1      -7.528  47.765 -11.389  1.00  0.00     0.045 C 
BRANCH  29  31
HETATM   31  C30 UNL     1      -7.549  49.189  -9.285  1.00  0.00     0.197 C 
BRANCH  31  32
HETATM   32  O2  UNL     1      -8.278  50.380  -9.551  1.00  0.00    -0.397 OA
HETATM   33  H48 UNL     1      -8.216  50.554 -10.506  1.00  0.00     0.209 HD
ENDBRANCH  31  32
ENDBRANCH  29  31
ENDBRANCH  27  28
ENDBRANCH  26  27
ENDBRANCH  24  26
ENDBRANCH   1  24
TORSDOF 6
ENDMDL
MODEL 2
REMARK minimizedAffinity -7.32996035
REMARK CNNscore 0.707390249
REMARK CNNaffinity 7.15151215
REMARK  6 active torsions:
REMARK  status: ('A' for Active; 'I' for Inactive)
REMARK    1  A    between atoms: C2_2  and  C30_31 
REMARK    2  A    between atoms: C3_3  and  C4_4 
REMARK    3  A    between atoms: C4_4  and  C5_5 
REMARK    4  A    between atoms: C5_5  and  C6_6 
REMARK    5  A    between atoms: C6_6  and  C8_8 
REMARK    6  A    between atoms: C30_31  and  O2_32 
ROOT
HETATM    1  C8  UNL     1       3.487  55.575  -7.793  1.00  0.00    -0.002 C 
HETATM    2  C9  UNL     1       4.396  54.384  -8.226  1.00  0.00     0.007 C 
HETATM    3  C10 UNL     1       3.504  53.355  -8.947  1.00  0.00     0.015 C 
HETATM    4  C11 UNL     1       2.064  53.796  -8.625  1.00  0.00    -0.013 C 
HETATM    5  C12 UNL     1       1.736  53.205  -7.218  1.00  0.00     0.021 C 
HETATM    6  C13 UNL     1       0.948  53.328  -9.555  1.00  0.00    -0.070 C 
HETATM    7  C14 UNL     1       0.987  52.151 -10.207  1.00  0.00    -0.022 C 
HETATM    8  C15 UNL     1      -0.124  51.614 -11.065  1.00  0.00     0.034 C 
HETATM    9  C16 UNL     1      -1.267  52.623 -11.321  1.00  0.00     0.013 C 
HETATM   10  C17 UNL     1      -2.472  52.022 -12.124  1.00  0.00     0.018 C 
HETATM   11  C18 UNL     1      -3.052  50.709 -11.576  1.00  0.00     0.023 C 
HETATM   12  C19 UNL     1      -2.013  51.731 -13.576  1.00  0.00     0.023 C 
HETATM   13  C20 UNL     1      -3.613  53.048 -12.187  1.00  0.00     0.135 C 
HETATM   14  O1  UNL     1      -4.277  53.237 -13.208  1.00  0.00    -0.297 OA
HETATM   15  C21 UNL     1      -3.973  53.763 -10.911  1.00  0.00     0.080 C 
HETATM   16  C22 UNL     1      -2.744  54.436 -10.323  1.00  0.00     0.017 C 
HETATM   17  C23 UNL     1      -1.594  53.446 -10.017  1.00  0.00    -0.031 C 
HETATM   18  C24 UNL     1      -1.999  52.565  -8.809  1.00  0.00     0.016 C 
HETATM   19  C25 UNL     1      -0.271  54.252  -9.679  1.00  0.00     0.024 C 
HETATM   20  C26 UNL     1      -0.390  55.247  -8.503  1.00  0.00     0.010 C 
HETATM   21  C27 UNL     1       0.910  56.007  -8.148  1.00  0.00     0.011 C 
HETATM   22  C28 UNL     1       2.210  55.359  -8.673  1.00  0.00    -0.029 C 
HETATM   23  C29 UNL     1       2.509  55.904 -10.107  1.00  0.00     0.016 C 
ENDROOT
BRANCH   1  24
HETATM   24  C6  UNL     1       4.242  56.940  -7.836  1.00  0.00    -0.014 C 
HETATM   25  C7  UNL     1       3.402  58.072  -7.232  1.00  0.00     0.010 C 
BRANCH  24  26
HETATM   26  C5  UNL     1       5.599  56.826  -7.083  1.00  0.00     0.008 C 
BRANCH  26  27
HETATM   27  C4  UNL     1       5.581  57.418  -5.668  1.00  0.00     0.028 C 
BRANCH  27  28
HETATM   28  C3  UNL     1       6.746  58.346  -5.444  1.00  0.00    -0.022 C 
HETATM   29  C2  UNL     1       7.990  58.004  -5.054  1.00  0.00    -0.064 C 
HETATM   30  C1  UNL     1       9.076  59.041  -4.943  1.00  0.00     0.045 C 
BRANCH  29  31
HETATM   31  C30 UNL     1       8.414  56.598  -4.718  1.00  0.00     0.197 C 
BRANCH  31  32
HETATM   32  O2  UNL     1       9.106  56.019  -5.817  1.00  0.00    -0.397 OA
HETATM   33  H48 UNL     1       9.248  56.720  -6.475  1.00  0.00     0.209 HD
ENDBRANCH  31  32
ENDBRANCH  29  31
ENDBRANCH  27  28
ENDBRANCH  26  27
ENDBRANCH  24  26
ENDBRANCH   1  24
TORSDOF 6
ENDMDL
MODEL 3
REMARK minimizedAffinity -7.02793264
REMARK CNNscore 0.640543997
REMARK CNNaffinity 6.95515871
REMARK  6 active torsions:
REMARK  status: ('A' for Active; 'I' for Inactive)
REMARK    1  A    between atoms: C2_2  and  C30_31 
REMARK    2  A    between atoms: C3_3  and  C4_4 
REMARK    3  A    between atoms: C4_4  and  C5_5 
REMARK    4  A    between atoms: C5_5  and  C6_6 
REMARK    5  A    between atoms: C6_6  and  C8_8 
REMARK    6  A    between atoms: C30_31  and  O2_32 
ROOT
HETATM    1  C8  UNL     1      -2.341  52.098 -10.287  1.00  0.00    -0.002 C 
HETATM    2  C9  UNL     1      -1.825  52.400 -11.726  1.00  0.00     0.007 C 
HETATM    3  C10 UNL     1      -0.643  53.380 -11.601  1.00  0.00     0.015 C 
HETATM    4  C11 UNL     1      -0.711  53.888 -10.149  1.00  0.00    -0.013 C 
HETATM    5  C12 UNL     1      -1.764  55.040 -10.144  1.00  0.00     0.021 C 
HETATM    6  C13 UNL     1       0.559  54.468  -9.533  1.00  0.00    -0.070 C 
HETATM    7  C14 UNL     1       1.490  55.118 -10.257  1.00  0.00    -0.022 C 
HETATM    8  C15 UNL     1       2.712  55.776  -9.681  1.00  0.00     0.034 C 
HETATM    9  C16 UNL     1       2.943  55.475  -8.182  1.00  0.00     0.013 C 
HETATM   10  C17 UNL     1       4.156  56.250  -7.562  1.00  0.00     0.018 C 
HETATM   11  C18 UNL     1       4.167  57.769  -7.793  1.00  0.00     0.023 C 
HETATM   12  C19 UNL     1       5.470  55.700  -8.173  1.00  0.00     0.023 C 
HETATM   13  C20 UNL     1       4.202  56.008  -6.046  1.00  0.00     0.135 C 
HETATM   14  O1  UNL     1       5.258  55.815  -5.439  1.00  0.00    -0.297 OA
HETATM   15  C21 UNL     1       2.906  56.113  -5.286  1.00  0.00     0.080 C 
HETATM   16  C22 UNL     1       1.865  55.189  -5.897  1.00  0.00     0.017 C 
HETATM   17  C23 UNL     1       1.581  55.490  -7.389  1.00  0.00    -0.031 C 
HETATM   18  C24 UNL     1       0.815  56.832  -7.491  1.00  0.00     0.016 C 
HETATM   19  C25 UNL     1       0.711  54.321  -8.013  1.00  0.00     0.024 C 
HETATM   20  C26 UNL     1      -0.633  54.050  -7.301  1.00  0.00     0.010 C 
HETATM   21  C27 UNL     1      -1.500  52.934  -7.931  1.00  0.00     0.011 C 
HETATM   22  C28 UNL     1      -1.150  52.582  -9.395  1.00  0.00    -0.029 C 
HETATM   23  C29 UNL     1      -0.052  51.470  -9.403  1.00  0.00     0.016 C 
ENDROOT
BRANCH   1  24
HETATM   24  C6  UNL     1      -2.879  50.640 -10.146  1.00  0.00    -0.014 C 
HETATM   25  C7  UNL     1      -2.957  50.202  -8.679  1.00  0.00     0.010 C 
BRANCH  24  26
HETATM   26  C5  UNL     1      -4.280  50.518 -10.811  1.00  0.00     0.008 C 
BRANCH  26  27
HETATM   27  C4  UNL     1      -5.343  49.868  -9.915  1.00  0.00     0.028 C 
BRANCH  27  28
HETATM   28  C3  UNL     1      -6.612  49.592 -10.678  1.00  0.00    -0.022 C 
HETATM   29  C2  UNL     1      -7.755  49.070 -10.187  1.00  0.00    -0.064 C 
HETATM   30  C1  UNL     1      -8.970  48.920 -11.062  1.00  0.00     0.045 C 
BRANCH  29  31
HETATM   31  C30 UNL     1      -7.933  48.616  -8.763  1.00  0.00     0.197 C 
BRANCH  31  32
HETATM   32  O2  UNL     1      -8.363  49.703  -7.952  1.00  0.00    -0.397 OA
HETATM   33  H48 UNL     1      -8.559  50.449  -8.544  1.00  0.00     0.209 HD
ENDBRANCH  31  32
ENDBRANCH  29  31
ENDBRANCH  27  28
ENDBRANCH  26  27
ENDBRANCH  24  26
ENDBRANCH   1  24
TORSDOF 6
ENDMDL
MODEL 4
REMARK minimizedAffinity -7.50342894
REMARK CNNscore 0.485444486
REMARK CNNaffinity 5.8733654
REMARK  6 active torsions:
REMARK  status: ('A' for Active; 'I' for Inactive)
REMARK    1  A    between atoms: C2_2  and  C30_31 
REMARK    2  A    between atoms: C3_3  and  C4_4 
REMARK    3  A    between atoms: C4_4  and  C5_5 
REMARK    4  A    between atoms: C5_5  and  C6_6 
REMARK    5  A    between atoms: C6_6  and  C8_8 
REMARK    6  A    between atoms: C30_31  and  O2_32 
ROOT
HETATM    1  C8  UNL     1     -10.766  45.829 -28.274  1.00  0.00    -0.002 C 
HETATM    2  C9  UNL     1     -10.947  44.492 -29.054  1.00  0.00     0.007 C 
HETATM    3  C10 UNL     1     -12.300  43.885 -28.632  1.00  0.00     0.015 C 
HETATM    4  C11 UNL     1     -12.714  44.689 -27.386  1.00  0.00    -0.013 C 
HETATM    5  C12 UNL     1     -11.962  44.037 -26.183  1.00  0.00     0.021 C 
HETATM    6  C13 UNL     1     -14.191  44.709 -27.005  1.00  0.00    -0.070 C 
HETATM    7  C14 UNL     1     -15.020  43.675 -27.243  1.00  0.00    -0.022 C 
HETATM    8  C15 UNL     1     -16.458  43.617 -26.812  1.00  0.00     0.034 C 
HETATM    9  C16 UNL     1     -16.997  44.948 -26.238  1.00  0.00     0.013 C 
HETATM   10  C17 UNL     1     -18.463  44.851 -25.690  1.00  0.00     0.018 C 
HETATM   11  C18 UNL     1     -18.731  43.710 -24.696  1.00  0.00     0.023 C 
HETATM   12  C19 UNL     1     -19.431  44.636 -26.881  1.00  0.00     0.023 C 
HETATM   13  C20 UNL     1     -18.845  46.169 -25.002  1.00  0.00     0.135 C 
HETATM   14  O1  UNL     1     -19.956  46.687 -25.134  1.00  0.00    -0.297 OA
HETATM   15  C21 UNL     1     -17.838  46.779 -24.063  1.00  0.00     0.080 C 
HETATM   16  C22 UNL     1     -16.507  46.965 -24.770  1.00  0.00     0.017 C 
HETATM   17  C23 UNL     1     -15.919  45.645 -25.324  1.00  0.00    -0.031 C 
HETATM   18  C24 UNL     1     -15.449  44.770 -24.135  1.00  0.00     0.016 C 
HETATM   19  C25 UNL     1     -14.694  45.963 -26.278  1.00  0.00     0.024 C 
HETATM   20  C26 UNL     1     -13.551  46.778 -25.631  1.00  0.00     0.010 C 
HETATM   21  C27 UNL     1     -12.339  47.058 -26.550  1.00  0.00     0.011 C 
HETATM   22  C28 UNL     1     -12.220  46.128 -27.778  1.00  0.00    -0.029 C 
HETATM   23  C29 UNL     1     -13.022  46.748 -28.967  1.00  0.00     0.016 C 
ENDROOT
BRANCH   1  24
HETATM   24  C6  UNL     1      -9.990  46.898 -29.105  1.00  0.00    -0.014 C 
HETATM   25  C7  UNL     1      -9.429  48.013 -28.215  1.00  0.00     0.010 C 
BRANCH  24  26
HETATM   26  C5  UNL     1      -8.837  46.224 -29.903  1.00  0.00     0.008 C 
BRANCH  26  27
HETATM   27  C4  UNL     1      -7.742  47.197 -30.361  1.00  0.00     0.028 C 
BRANCH  27  28
HETATM   28  C3  UNL     1      -6.656  47.331 -29.326  1.00  0.00    -0.022 C 
HETATM   29  C2  UNL     1      -5.574  48.133 -29.386  1.00  0.00    -0.064 C 
HETATM   30  C1  UNL     1      -4.609  48.212 -28.233  1.00  0.00     0.045 C 
BRANCH  29  31
HETATM   31  C30 UNL     1      -5.239  49.014 -30.560  1.00  0.00     0.197 C 
BRANCH  31  32
HETATM   32  O2  UNL     1      -4.252  49.968 -30.191  1.00  0.00    -0.397 OA
HETATM   33  H48 UNL     1      -3.939  49.736 -29.300  1.00  0.00     0.209 HD
ENDBRANCH  31  32
ENDBRANCH  29  31
ENDBRANCH  27  28
ENDBRANCH  26  27
ENDBRANCH  24  26
ENDBRANCH   1  24
TORSDOF 6
ENDMDL
MODEL 5
REMARK minimizedAffinity -7.46747017
REMARK CNNscore 0.457405537
REMARK CNNaffinity 5.91441298
REMARK  6 active torsions:
REMARK  status: ('A' for Active; 'I' for Inactive)
REMARK    1  A    between atoms: C2_2  and  C30_31 
REMARK    2  A    between atoms: C3_3  and  C4_4 
REMARK    3  A    between atoms: C4_4  and  C5_5 
REMARK    4  A    between atoms: C5_5  and  C6_6 
REMARK    5  A    between atoms: C6_6  and  C8_8 
REMARK    6  A    between atoms: C30_31  and  O2_32 
ROOT
HETATM    1  C8  UNL     1     -12.824  46.404 -26.729  1.00  0.00    -0.002 C 
HETATM    2  C9  UNL     1     -13.623  45.670 -27.849  1.00  0.00     0.007 C 
HETATM    3  C10 UNL     1     -12.769  45.707 -29.132  1.00  0.00     0.015 C 
HETATM    4  C11 UNL     1     -11.665  46.738 -28.833  1.00  0.00    -0.013 C 
HETATM    5  C12 UNL     1     -12.292  48.138 -29.121  1.00  0.00     0.021 C 
HETATM    6  C13 UNL     1     -10.381  46.669 -29.654  1.00  0.00    -0.070 C 
HETATM    7  C14 UNL     1     -10.354  46.249 -30.934  1.00  0.00    -0.022 C 
HETATM    8  C15 UNL     1      -9.130  46.244 -31.805  1.00  0.00     0.034 C 
HETATM    9  C16 UNL     1      -7.820  46.570 -31.052  1.00  0.00     0.013 C 
HETATM   10  C17 UNL     1      -6.564  46.670 -31.985  1.00  0.00     0.018 C 
HETATM   11  C18 UNL     1      -6.707  47.596 -33.202  1.00  0.00     0.023 C 
HETATM   12  C19 UNL     1      -6.236  45.259 -32.538  1.00  0.00     0.023 C 
HETATM   13  C20 UNL     1      -5.354  47.151 -31.171  1.00  0.00     0.135 C 
HETATM   14  O1  UNL     1      -4.226  46.675 -31.318  1.00  0.00    -0.297 OA
HETATM   15  C21 UNL     1      -5.564  48.313 -30.236  1.00  0.00     0.080 C 
HETATM   16  C22 UNL     1      -6.708  48.017 -29.281  1.00  0.00     0.017 C 
HETATM   17  C23 UNL     1      -8.046  47.725 -30.003  1.00  0.00    -0.031 C 
HETATM   18  C24 UNL     1      -8.575  49.039 -30.627  1.00  0.00     0.016 C 
HETATM   19  C25 UNL     1      -9.100  47.156 -28.964  1.00  0.00     0.024 C 
HETATM   20  C26 UNL     1      -9.384  48.068 -27.750  1.00  0.00     0.010 C 
HETATM   21  C27 UNL     1     -10.440  47.531 -26.754  1.00  0.00     0.011 C 
HETATM   22  C28 UNL     1     -11.374  46.437 -27.319  1.00  0.00    -0.029 C 
HETATM   23  C29 UNL     1     -10.721  45.037 -27.086  1.00  0.00     0.016 C 
ENDROOT
BRANCH   1  24
HETATM   24  C6  UNL     1     -13.078  45.784 -25.320  1.00  0.00    -0.014 C 
HETATM   25  C7  UNL     1     -12.462  46.638 -24.205  1.00  0.00     0.010 C 
BRANCH  24  26
HETATM   26  C5  UNL     1     -14.605  45.614 -25.076  1.00  0.00     0.008 C 
BRANCH  26  27
HETATM   27  C4  UNL     1     -15.341  46.927 -24.778  1.00  0.00     0.028 C 
BRANCH  27  28
HETATM   28  C3  UNL     1     -16.323  46.764 -23.649  1.00  0.00    -0.022 C 
HETATM   29  C2  UNL     1     -17.637  46.475 -23.753  1.00  0.00    -0.064 C 
HETATM   30  C1  UNL     1     -18.480  46.270 -22.522  1.00  0.00     0.045 C 
BRANCH  29  31
HETATM   31  C30 UNL     1     -18.366  46.316 -25.060  1.00  0.00     0.197 C 
BRANCH  31  32
HETATM   32  O2  UNL     1     -19.604  47.015 -25.019  1.00  0.00    -0.397 OA
HETATM   33  H48 UNL     1     -19.620  47.533 -24.196  1.00  0.00     0.209 HD
ENDBRANCH  31  32
ENDBRANCH  29  31
ENDBRANCH  27  28
ENDBRANCH  26  27
ENDBRANCH  24  26
ENDBRANCH   1  24
TORSDOF 6
ENDMDL
MODEL 6
REMARK minimizedAffinity -7.44646883
REMARK CNNscore 0.454771876
REMARK CNNaffinity 6.25182772
REMARK  6 active torsions:
REMARK  status: ('A' for Active; 'I' for Inactive)
REMARK    1  A    between atoms: C2_2  and  C30_31 
REMARK    2  A    between atoms: C3_3  and  C4_4 
REMARK    3  A    between atoms: C4_4  and  C5_5 
REMARK    4  A    between atoms: C5_5  and  C6_6 
REMARK    5  A    between atoms: C6_6  and  C8_8 
REMARK    6  A    between atoms: C30_31  and  O2_32 
ROOT
HETATM    1  C8  UNL     1       1.733  55.373  -8.187  1.00  0.00    -0.002 C 
HETATM    2  C9  UNL     1       0.871  56.532  -7.599  1.00  0.00     0.007 C 
HETATM    3  C10 UNL     1       1.762  57.331  -6.629  1.00  0.00     0.015 C 
HETATM    4  C11 UNL     1       2.998  56.438  -6.412  1.00  0.00    -0.013 C 
HETATM    5  C12 UNL     1       2.597  55.406  -5.311  1.00  0.00     0.021 C 
HETATM    6  C13 UNL     1       4.284  57.100  -5.927  1.00  0.00    -0.070 C 
HETATM    7  C14 UNL     1       4.290  58.182  -5.125  1.00  0.00    -0.022 C 
HETATM    8  C15 UNL     1       5.528  58.816  -4.557  1.00  0.00     0.034 C 
HETATM    9  C16 UNL     1       6.846  58.252  -5.134  1.00  0.00     0.013 C 
HETATM   10  C17 UNL     1       8.134  58.840  -4.459  1.00  0.00     0.018 C 
HETATM   11  C18 UNL     1       8.171  58.779  -2.924  1.00  0.00     0.023 C 
HETATM   12  C19 UNL     1       8.265  60.335  -4.846  1.00  0.00     0.023 C 
HETATM   13  C20 UNL     1       9.374  58.104  -4.987  1.00  0.00     0.135 C 
HETATM   14  O1  UNL     1      10.423  58.691  -5.264  1.00  0.00    -0.297 OA
HETATM   15  C21 UNL     1       9.309  56.602  -5.065  1.00  0.00     0.080 C 
HETATM   16  C22 UNL     1       8.103  56.172  -5.882  1.00  0.00     0.017 C 
HETATM   17  C23 UNL     1       6.761  56.687  -5.309  1.00  0.00    -0.031 C 
HETATM   18  C24 UNL     1       6.454  55.929  -3.993  1.00  0.00     0.016 C 
HETATM   19  C25 UNL     1       5.600  56.439  -6.359  1.00  0.00     0.024 C 
HETATM   20  C26 UNL     1       5.414  54.969  -6.799  1.00  0.00     0.010 C 
HETATM   21  C27 UNL     1       4.258  54.720  -7.796  1.00  0.00     0.011 C 
HETATM   22  C28 UNL     1       3.190  55.836  -7.850  1.00  0.00    -0.029 C 
HETATM   23  C29 UNL     1       3.619  56.902  -8.910  1.00  0.00     0.016 C 
ENDROOT
BRANCH   1  24
HETATM   24  C6  UNL     1       1.342  55.033  -9.658  1.00  0.00    -0.014 C 
HETATM   25  C7  UNL     1       2.382  54.128 -10.328  1.00  0.00     0.010 C 
BRANCH  24  26
HETATM   26  C5  UNL     1      -0.057  54.355  -9.700  1.00  0.00     0.008 C 
BRANCH  26  27
HETATM   27  C4  UNL     1      -1.141  55.198 -10.384  1.00  0.00     0.028 C 
BRANCH  27  28
HETATM   28  C3  UNL     1      -2.485  54.520 -10.326  1.00  0.00    -0.022 C 
HETATM   29  C2  UNL     1      -2.842  53.375 -10.942  1.00  0.00    -0.064 C 
HETATM   30  C1  UNL     1      -4.207  52.778 -10.728  1.00  0.00     0.045 C 
BRANCH  29  31
HETATM   31  C30 UNL     1      -1.940  52.592 -11.859  1.00  0.00     0.197 C 
BRANCH  31  32
HETATM   32  O2  UNL     1      -2.407  52.681 -13.199  1.00  0.00    -0.397 OA
HETATM   33  H48 UNL     1      -3.128  53.334 -13.214  1.00  0.00     0.209 HD
ENDBRANCH  31  32
ENDBRANCH  29  31
ENDBRANCH  27  28
ENDBRANCH  26  27
ENDBRANCH  24  26
ENDBRANCH   1  24
TORSDOF 6
ENDMDL
MODEL 7
REMARK minimizedAffinity -9.26002407
REMARK CNNscore 0.449851662
REMARK CNNaffinity 7.04114151
REMARK  6 active torsions:
REMARK  status: ('A' for Active; 'I' for Inactive)
REMARK    1  A    between atoms: C2_2  and  C30_31 
REMARK    2  A    between atoms: C3_3  and  C4_4 
REMARK    3  A    between atoms: C4_4  and  C5_5 
REMARK    4  A    between atoms: C5_5  and  C6_6 
REMARK    5  A    between atoms: C6_6  and  C8_8 
REMARK    6  A    between atoms: C30_31  and  O2_32 
ROOT
HETATM    1  C8  UNL     1      -2.531  49.578 -21.141  1.00  0.00    -0.002 C 
HETATM    2  C9  UNL     1      -2.165  50.987 -21.700  1.00  0.00     0.007 C 
HETATM    3  C10 UNL     1      -1.330  51.712 -20.627  1.00  0.00     0.015 C 
HETATM    4  C11 UNL     1      -1.512  50.865 -19.355  1.00  0.00    -0.013 C 
HETATM    5  C12 UNL     1      -2.863  51.324 -18.721  1.00  0.00     0.021 C 
HETATM    6  C13 UNL     1      -0.462  50.988 -18.255  1.00  0.00    -0.070 C 
HETATM    7  C14 UNL     1       0.213  52.129 -18.016  1.00  0.00    -0.022 C 
HETATM    8  C15 UNL     1       1.194  52.321 -16.894  1.00  0.00     0.034 C 
HETATM    9  C16 UNL     1       1.541  51.021 -16.131  1.00  0.00     0.013 C 
HETATM   10  C17 UNL     1       2.479  51.246 -14.895  1.00  0.00     0.018 C 
HETATM   11  C18 UNL     1       2.026  52.326 -13.900  1.00  0.00     0.023 C 
HETATM   12  C19 UNL     1       3.882  51.668 -15.400  1.00  0.00     0.023 C 
HETATM   13  C20 UNL     1       2.632  49.930 -14.119  1.00  0.00     0.135 C 
HETATM   14  O1  UNL     1       3.712  49.559 -13.651  1.00  0.00    -0.297 OA
HETATM   15  C21 UNL     1       1.384  49.132 -13.851  1.00  0.00     0.080 C 
HETATM   16  C22 UNL     1       0.655  48.848 -15.154  1.00  0.00     0.017 C 
HETATM   17  C23 UNL     1       0.257  50.130 -15.924  1.00  0.00    -0.031 C 
HETATM   18  C24 UNL     1      -0.880  50.845 -15.153  1.00  0.00     0.016 C 
HETATM   19  C25 UNL     1      -0.236  49.748 -17.381  1.00  0.00     0.024 C 
HETATM   20  C26 UNL     1      -1.418  48.754 -17.436  1.00  0.00     0.010 C 
HETATM   21  C27 UNL     1      -1.924  48.408 -18.857  1.00  0.00     0.011 C 
HETATM   22  C28 UNL     1      -1.519  49.414 -19.958  1.00  0.00    -0.029 C 
HETATM   23  C29 UNL     1      -0.138  48.991 -20.553  1.00  0.00     0.016 C 
ENDROOT
BRANCH   1  24
HETATM   24  C6  UNL     1      -2.601  48.497 -22.263  1.00  0.00    -0.014 C 
HETATM   25  C7  UNL     1      -3.105  47.152 -21.725  1.00  0.00     0.010 C 
BRANCH  24  26
HETATM   26  C5  UNL     1      -3.520  48.983 -23.421  1.00  0.00     0.008 C 
BRANCH  26  27
HETATM   27  C4  UNL     1      -2.814  49.080 -24.780  1.00  0.00     0.028 C 
BRANCH  27  28
HETATM   28  C3  UNL     1      -3.649  48.476 -25.878  1.00  0.00    -0.022 C 
HETATM   29  C2  UNL     1      -3.776  48.929 -27.142  1.00  0.00    -0.064 C 
HETATM   30  C1  UNL     1      -4.595  48.172 -28.153  1.00  0.00     0.045 C 
BRANCH  29  31
HETATM   31  C30 UNL     1      -3.122  50.183 -27.660  1.00  0.00     0.197 C 
BRANCH  31  32
HETATM   32  O2  UNL     1      -3.586  50.472 -28.972  1.00  0.00    -0.397 OA
HETATM   33  H48 UNL     1      -4.313  49.856 -29.167  1.00  0.00     0.209 HD
ENDBRANCH  31  32
ENDBRANCH  29  31
ENDBRANCH  27  28
ENDBRANCH  26  27
ENDBRANCH  24  26
ENDBRANCH   1  24
TORSDOF 6
ENDMDL
MODEL 8
REMARK minimizedAffinity -7.26172924
REMARK CNNscore 0.41864574
REMARK CNNaffinity 5.25838375
REMARK  6 active torsions:
REMARK  status: ('A' for Active; 'I' for Inactive)
REMARK    1  A    between atoms: C2_2  and  C30_31 
REMARK    2  A    between atoms: C3_3  and  C4_4 
REMARK    3  A    between atoms: C4_4  and  C5_5 
REMARK    4  A    between atoms: C5_5  and  C6_6 
REMARK    5  A    between atoms: C6_6  and  C8_8 
REMARK    6  A    between atoms: C30_31  and  O2_32 
ROOT
HETATM    1  C8  UNL     1       3.613  67.821 -37.703  1.00  0.00    -0.002 C 
HETATM    2  C9  UNL     1       3.411  69.082 -36.808  1.00  0.00     0.007 C 
HETATM    3  C10 UNL     1       2.253  69.901 -37.412  1.00  0.00     0.015 C 
HETATM    4  C11 UNL     1       2.035  69.294 -38.810  1.00  0.00    -0.013 C 
HETATM    5  C12 UNL     1       3.094  69.964 -39.741  1.00  0.00     0.021 C 
HETATM    6  C13 UNL     1       0.682  69.508 -39.480  1.00  0.00    -0.070 C 
HETATM    7  C14 UNL     1      -0.065  70.611 -39.282  1.00  0.00    -0.022 C 
HETATM    8  C15 UNL     1      -1.361  70.901 -39.984  1.00  0.00     0.034 C 
HETATM    9  C16 UNL     1      -1.902  69.721 -40.823  1.00  0.00     0.013 C 
HETATM   10  C17 UNL     1      -3.196  70.066 -41.638  1.00  0.00     0.018 C 
HETATM   11  C18 UNL     1      -3.121  71.330 -42.508  1.00  0.00     0.023 C 
HETATM   12  C19 UNL     1      -4.370  70.279 -40.649  1.00  0.00     0.023 C 
HETATM   13  C20 UNL     1      -3.558  68.888 -42.554  1.00  0.00     0.135 C 
HETATM   14  O1  UNL     1      -4.720  68.510 -42.717  1.00  0.00    -0.297 OA
HETATM   15  C21 UNL     1      -2.443  68.254 -43.342  1.00  0.00     0.080 C 
HETATM   16  C22 UNL     1      -1.323  67.821 -42.410  1.00  0.00     0.017 C 
HETATM   17  C23 UNL     1      -0.731  68.988 -41.583  1.00  0.00    -0.031 C 
HETATM   18  C24 UNL     1       0.074  69.914 -42.528  1.00  0.00     0.016 C 
HETATM   19  C25 UNL     1       0.218  68.413 -40.451  1.00  0.00     0.024 C 
HETATM   20  C26 UNL     1       1.380  67.528 -40.954  1.00  0.00     0.010 C 
HETATM   21  C27 UNL     1       2.329  66.997 -39.854  1.00  0.00     0.011 C 
HETATM   22  C28 UNL     1       2.277  67.770 -38.517  1.00  0.00    -0.029 C 
HETATM   23  C29 UNL     1       1.176  67.138 -37.605  1.00  0.00     0.016 C 
ENDROOT
BRANCH   1  24
HETATM   24  C6  UNL     1       4.073  66.579 -36.878  1.00  0.00    -0.014 C 
HETATM   25  C7  UNL     1       5.339  65.944 -37.466  1.00  0.00     0.010 C 
BRANCH  24  26
HETATM   26  C5  UNL     1       4.319  66.981 -35.396  1.00  0.00     0.008 C 
BRANCH  26  27
HETATM   27  C4  UNL     1       5.305  66.066 -34.656  1.00  0.00     0.028 C 
BRANCH  27  28
HETATM   28  C3  UNL     1       4.604  65.220 -33.626  1.00  0.00    -0.022 C 
HETATM   29  C2  UNL     1       4.818  63.913 -33.370  1.00  0.00    -0.064 C 
HETATM   30  C1  UNL     1       4.086  63.218 -32.253  1.00  0.00     0.045 C 
BRANCH  29  31
HETATM   31  C30 UNL     1       5.786  63.049 -34.134  1.00  0.00     0.197 C 
BRANCH  31  32
HETATM   32  O2  UNL     1       5.190  62.596 -35.343  1.00  0.00    -0.397 OA
HETATM   33  H48 UNL     1       4.342  63.060 -35.443  1.00  0.00     0.209 HD
ENDBRANCH  31  32
ENDBRANCH  29  31
ENDBRANCH  27  28
ENDBRANCH  26  27
ENDBRANCH  24  26
ENDBRANCH   1  24
TORSDOF 6
ENDMDL
MODEL 9
REMARK minimizedAffinity -8.49528885
REMARK CNNscore 0.346500188
REMARK CNNaffinity 6.74146795
REMARK  6 active torsions:
REMARK  status: ('A' for Active; 'I' for Inactive)
REMARK    1  A    between atoms: C2_2  and  C30_31 
REMARK    2  A    between atoms: C3_3  and  C4_4 
REMARK    3  A    between atoms: C4_4  and  C5_5 
REMARK    4  A    between atoms: C5_5  and  C6_6 
REMARK    5  A    between atoms: C6_6  and  C8_8 
REMARK    6  A    between atoms: C30_31  and  O2_32 
ROOT
HETATM    1  C8  UNL     1      -1.278  51.435 -22.663  1.00  0.00    -0.002 C 
HETATM    2  C9  UNL     1      -2.599  52.052 -23.216  1.00  0.00     0.007 C 
HETATM    3  C10 UNL     1      -3.766  51.177 -22.719  1.00  0.00     0.015 C 
HETATM    4  C11 UNL     1      -3.093  49.900 -22.184  1.00  0.00    -0.013 C 
HETATM    5  C12 UNL     1      -2.843  48.990 -23.428  1.00  0.00     0.021 C 
HETATM    6  C13 UNL     1      -3.867  49.049 -21.182  1.00  0.00    -0.070 C 
HETATM    7  C14 UNL     1      -5.211  48.952 -21.192  1.00  0.00    -0.022 C 
HETATM    8  C15 UNL     1      -6.008  48.063 -20.280  1.00  0.00     0.034 C 
HETATM    9  C16 UNL     1      -5.175  47.399 -19.159  1.00  0.00     0.013 C 
HETATM   10  C17 UNL     1      -5.991  46.390 -18.279  1.00  0.00     0.018 C 
HETATM   11  C18 UNL     1      -6.775  45.315 -19.048  1.00  0.00     0.023 C 
HETATM   12  C19 UNL     1      -7.027  47.179 -17.440  1.00  0.00     0.023 C 
HETATM   13  C20 UNL     1      -5.044  45.672 -17.307  1.00  0.00     0.135 C 
HETATM   14  O1  UNL     1      -5.347  45.447 -16.133  1.00  0.00    -0.297 OA
HETATM   15  C21 UNL     1      -3.745  45.149 -17.861  1.00  0.00     0.080 C 
HETATM   16  C22 UNL     1      -2.981  46.269 -18.549  1.00  0.00     0.017 C 
HETATM   17  C23 UNL     1      -3.773  46.929 -19.704  1.00  0.00    -0.031 C 
HETATM   18  C24 UNL     1      -3.865  45.929 -20.883  1.00  0.00     0.016 C 
HETATM   19  C25 UNL     1      -3.032  48.250 -20.172  1.00  0.00     0.024 C 
HETATM   20  C26 UNL     1      -1.568  48.058 -20.626  1.00  0.00     0.010 C 
HETATM   21  C27 UNL     1      -0.856  49.340 -21.118  1.00  0.00     0.011 C 
HETATM   22  C28 UNL     1      -1.798  50.496 -21.524  1.00  0.00    -0.029 C 
HETATM   23  C29 UNL     1      -2.099  51.375 -20.267  1.00  0.00     0.016 C 
ENDROOT
BRANCH   1  24
HETATM   24  C6  UNL     1      -0.205  52.523 -22.348  1.00  0.00    -0.014 C 
HETATM   25  C7  UNL     1       0.885  51.991 -21.410  1.00  0.00     0.010 C 
BRANCH  24  26
HETATM   26  C5  UNL     1       0.437  53.042 -23.667  1.00  0.00     0.008 C 
BRANCH  26  27
HETATM   27  C4  UNL     1      -0.507  53.014 -24.876  1.00  0.00     0.028 C 
BRANCH  27  28
HETATM   28  C3  UNL     1       0.080  52.221 -26.014  1.00  0.00    -0.022 C 
HETATM   29  C2  UNL     1       0.141  52.589 -27.310  1.00  0.00    -0.064 C 
HETATM   30  C1  UNL     1       0.828  51.717 -28.327  1.00  0.00     0.045 C 
BRANCH  29  31
HETATM   31  C30 UNL     1      -0.434  53.871 -27.853  1.00  0.00     0.197 C 
BRANCH  31  32
HETATM   32  O2  UNL     1      -1.830  53.722 -28.084  1.00  0.00    -0.397 OA
HETATM   33  H48 UNL     1      -2.098  52.864 -27.714  1.00  0.00     0.209 HD
ENDBRANCH  31  32
ENDBRANCH  29  31
ENDBRANCH  27  28
ENDBRANCH  26  27
ENDBRANCH  24  26
ENDBRANCH   1  24
TORSDOF 6
ENDMDL
