MODEL 1
REMARK minimizedAffinity -7.6215744
REMARK CNNscore 0.490763575
REMARK CNNaffinity 6.15940285
REMARK  13 active torsions:
REMARK  status: ('A' for Active; 'I' for Inactive)
REMARK    1  A    between atoms: C3_3  and  O1_4 
REMARK    2  A    between atoms: N1_14  and  O2_16 
REMARK    3  A    between atoms: O2_16  and  C13_17 
REMARK    4  A    between atoms: C13_17  and  C14_18 
REMARK       I    between atoms: C14_18  and  N2_20 
REMARK    5  A    between atoms: N2_20  and  C15_21 
REMARK    6  A    between atoms: C15_21  and  C16_22 
REMARK    7  A    between atoms: C15_21  and  C21_33 
REMARK       I    between atoms: C16_22  and  N3_24 
REMARK    8  A    between atoms: N3_24  and  C17_25 
REMARK    9  A    between atoms: C17_25  and  C18_26 
REMARK   10  A    between atoms: C17_25  and  C20_30 
REMARK   11  A    between atoms: C18_26  and  C19_27 
REMARK   12  A    between atoms: C19_27  and  O6_29 
REMARK   13  A    between atoms: C20_30  and  O8_32 
ROOT
HETATM    1  C1  UNL     1       0.537  50.812 -17.296  1.00  0.00     0.015 C 
HETATM    2  C2  UNL     1      -0.058  50.961 -18.331  1.00  0.00    -0.078 C 
HETATM    3  C3  UNL     1      -0.782  51.145 -19.610  1.00  0.00     0.128 C 
HETATM    4  C4  UNL     1      -0.191  50.209 -20.674  1.00  0.00     0.052 C 
HETATM    5  C5  UNL     1      -1.105  48.977 -20.710  1.00  0.00     0.010 C 
HETATM    6  C6  UNL     1      -2.195  49.193 -19.633  1.00  0.00     0.002 C 
HETATM    7  C7  UNL     1      -3.544  48.441 -19.833  1.00  0.00    -0.004 C 
HETATM    8  C8  UNL     1      -3.341  47.137 -20.623  1.00  0.00     0.010 C 
HETATM    9  C9  UNL     1      -4.618  46.332 -20.749  1.00  0.00     0.035 C 
HETATM   10  C10 UNL     1      -5.684  47.140 -21.437  1.00  0.00    -0.069 C 
HETATM   11  C11 UNL     1      -6.357  46.606 -22.472  1.00  0.00     0.030 C 
HETATM   12  C12 UNL     1      -7.547  47.270 -23.067  1.00  0.00     0.032 C 
HETATM   13  N1  UNL     1      -8.146  46.672 -24.056  1.00  0.00    -0.271 N 
ATOM     14  H1  UNL     1      -7.830  45.796 -24.474  1.00  0.00     0.194 HD
HETATM   15  C24 UNL     1      -8.024  48.561 -22.431  1.00  0.00     0.060 C 
HETATM   16  C25 UNL     1      -6.843  49.329 -21.853  1.00  0.00     0.020 C 
HETATM   17  C26 UNL     1      -5.988  48.513 -20.843  1.00  0.00    -0.016 C 
HETATM   18  C27 UNL     1      -6.839  48.268 -19.565  1.00  0.00     0.020 C 
HETATM   19  C28 UNL     1      -4.693  49.325 -20.406  1.00  0.00     0.002 C 
HETATM   20  C29 UNL     1      -4.103  50.321 -21.415  1.00  0.00     0.007 C 
HETATM   21  C30 UNL     1      -3.082  51.284 -20.777  1.00  0.00     0.014 C 
HETATM   22  C31 UNL     1      -2.291  50.731 -19.551  1.00  0.00     0.003 C 
HETATM   23  C32 UNL     1      -2.953  51.228 -18.248  1.00  0.00     0.020 C 
ENDROOT
BRANCH   3  24
HETATM   24  O1  UNL     1      -0.638  52.502 -20.007  1.00  0.00    -0.377 OA
HETATM   25  H2  UNL     1       0.313  52.706 -19.974  1.00  0.00     0.211 HD
ENDBRANCH   3  24
BRANCH  13  26
HETATM   26  O2  UNL     1      -9.280  47.381 -24.472  1.00  0.00    -0.271 OA
BRANCH  26  27
HETATM   27  C13 UNL     1     -10.397  46.499 -24.489  1.00  0.00     0.303 C 
BRANCH  27  28
HETATM   28  C14 UNL     1     -11.447  46.988 -25.482  1.00  0.00     0.244 C 
HETATM   29  O3  UNL     1     -11.456  48.136 -25.921  1.00  0.00    -0.271 OA
HETATM   30  N2  UNL     1     -12.410  46.051 -25.808  1.00  0.00    -0.346 N 
HETATM   31  H16 UNL     1     -12.503  45.292 -25.139  1.00  0.00     0.163 HD
BRANCH  30  32
HETATM   32  C15 UNL     1     -13.616  46.441 -26.528  1.00  0.00     0.180 C 
BRANCH  32  33
HETATM   33  C16 UNL     1     -14.840  45.821 -25.812  1.00  0.00     0.241 C 
HETATM   34  O4  UNL     1     -15.077  44.614 -25.827  1.00  0.00    -0.271 OA
HETATM   35  N3  UNL     1     -15.675  46.746 -25.212  1.00  0.00    -0.344 N 
HETATM   36  H18 UNL     1     -15.212  47.596 -24.910  1.00  0.00     0.163 HD
BRANCH  35  37
HETATM   37  C17 UNL     1     -16.752  46.290 -24.315  1.00  0.00     0.192 C 
BRANCH  37  38
HETATM   38  C18 UNL     1     -18.024  47.072 -24.610  1.00  0.00     0.146 C 
BRANCH  38  39
HETATM   39  C19 UNL     1     -19.227  46.183 -24.729  1.00  0.00     0.141 C 
HETATM   40  O5  UNL     1     -20.303  46.511 -25.200  1.00  0.00    -0.650 OA
BRANCH  39  41
HETATM   41  O6  UNL     1     -19.004  44.918 -24.334  1.00  0.00    -0.776 OA
HETATM   42  H22 UNL     1     -19.867  44.467 -24.461  1.00  0.00     0.167 HD
ENDBRANCH  39  41
ENDBRANCH  38  39
ENDBRANCH  37  38
BRANCH  37  43
HETATM   43  C20 UNL     1     -16.340  46.525 -22.856  1.00  0.00     0.164 C 
HETATM   44  O7  UNL     1     -15.385  47.181 -22.471  1.00  0.00    -0.648 OA
BRANCH  43  45
HETATM   45  O8  UNL     1     -17.095  45.840 -21.965  1.00  0.00    -0.775 OA
HETATM   46  H23 UNL     1     -16.740  46.107 -21.089  1.00  0.00     0.167 HD
ENDBRANCH  43  45
ENDBRANCH  37  43
ENDBRANCH  35  37
ENDBRANCH  32  33
BRANCH  32  47
HETATM   47  C21 UNL     1     -13.577  46.036 -28.019  1.00  0.00     0.009 C 
HETATM   48  C22 UNL     1     -13.088  47.199 -28.886  1.00  0.00     0.012 C 
HETATM   49  C23 UNL     1     -12.723  44.791 -28.291  1.00  0.00     0.012 C 
ENDBRANCH  32  47
ENDBRANCH  30  32
ENDBRANCH  27  28
ENDBRANCH  26  27
ENDBRANCH  13  26
TORSDOF 13
ENDMDL
MODEL 2
REMARK minimizedAffinity -8.51357841
REMARK CNNscore 0.337310791
REMARK CNNaffinity 6.67149878
REMARK  13 active torsions:
REMARK  status: ('A' for Active; 'I' for Inactive)
REMARK    1  A    between atoms: C3_3  and  O1_4 
REMARK    2  A    between atoms: N1_14  and  O2_16 
REMARK    3  A    between atoms: O2_16  and  C13_17 
REMARK    4  A    between atoms: C13_17  and  C14_18 
REMARK       I    between atoms: C14_18  and  N2_20 
REMARK    5  A    between atoms: N2_20  and  C15_21 
REMARK    6  A    between atoms: C15_21  and  C16_22 
REMARK    7  A    between atoms: C15_21  and  C21_33 
REMARK       I    between atoms: C16_22  and  N3_24 
REMARK    8  A    between atoms: N3_24  and  C17_25 
REMARK    9  A    between atoms: C17_25  and  C18_26 
REMARK   10  A    between atoms: C17_25  and  C20_30 
REMARK   11  A    between atoms: C18_26  and  C19_27 
REMARK   12  A    between atoms: C19_27  and  O6_29 
REMARK   13  A    between atoms: C20_30  and  O8_32 
ROOT
HETATM    1  C1  UNL     1       2.004  51.910 -28.167  1.00  0.00     0.015 C 
HETATM    2  C2  UNL     1       1.078  52.317 -27.515  1.00  0.00    -0.078 C 
HETATM    3  C3  UNL     1      -0.063  52.823 -26.718  1.00  0.00     0.128 C 
HETATM    4  C4  UNL     1      -1.302  52.949 -27.618  1.00  0.00     0.052 C 
HETATM    5  C5  UNL     1      -2.127  51.676 -27.386  1.00  0.00     0.010 C 
HETATM    6  C6  UNL     1      -1.335  50.803 -26.384  1.00  0.00     0.002 C 
HETATM    7  C7  UNL     1      -2.152  49.786 -25.534  1.00  0.00    -0.004 C 
HETATM    8  C8  UNL     1      -3.420  49.332 -26.280  1.00  0.00     0.010 C 
HETATM    9  C9  UNL     1      -4.185  48.267 -25.522  1.00  0.00     0.035 C 
HETATM   10  C10 UNL     1      -4.592  48.774 -24.165  1.00  0.00    -0.069 C 
HETATM   11  C11 UNL     1      -5.869  48.646 -23.764  1.00  0.00     0.030 C 
HETATM   12  C12 UNL     1      -6.292  48.946 -22.370  1.00  0.00     0.032 C 
HETATM   13  N1  UNL     1      -7.546  48.777 -22.066  1.00  0.00    -0.271 N 
ATOM     14  H1  UNL     1      -8.265  48.489 -22.731  1.00  0.00     0.194 HD
HETATM   15  C24 UNL     1      -5.218  49.355 -21.381  1.00  0.00     0.060 C 
HETATM   16  C25 UNL     1      -4.108  50.113 -22.096  1.00  0.00     0.020 C 
HETATM   17  C26 UNL     1      -3.478  49.340 -23.288  1.00  0.00    -0.016 C 
HETATM   18  C27 UNL     1      -2.693  48.122 -22.723  1.00  0.00     0.020 C 
HETATM   19  C28 UNL     1      -2.441  50.253 -24.075  1.00  0.00     0.002 C 
HETATM   20  C29 UNL     1      -2.683  51.769 -24.074  1.00  0.00     0.007 C 
HETATM   21  C30 UNL     1      -1.459  52.571 -24.560  1.00  0.00     0.014 C 
HETATM   22  C31 UNL     1      -0.530  51.849 -25.584  1.00  0.00     0.003 C 
HETATM   23  C32 UNL     1       0.680  51.243 -24.841  1.00  0.00     0.020 C 
ENDROOT
BRANCH   3  24
HETATM   24  O1  UNL     1       0.297  54.092 -26.189  1.00  0.00    -0.377 OA
HETATM   25  H2  UNL     1       0.622  54.626 -26.934  1.00  0.00     0.211 HD
ENDBRANCH   3  24
BRANCH  13  26
HETATM   26  O2  UNL     1      -7.786  49.039 -20.711  1.00  0.00    -0.271 OA
BRANCH  26  27
HETATM   27  C13 UNL     1      -8.340  47.876 -20.105  1.00  0.00     0.303 C 
BRANCH  27  28
HETATM   28  C14 UNL     1      -9.557  48.245 -19.261  1.00  0.00     0.244 C 
HETATM   29  O3  UNL     1      -9.456  48.749 -18.145  1.00  0.00    -0.271 OA
HETATM   30  N2  UNL     1     -10.773  47.922 -19.833  1.00  0.00    -0.346 N 
HETATM   31  H16 UNL     1     -10.721  47.215 -20.561  1.00  0.00     0.163 HD
BRANCH  30  32
HETATM   32  C15 UNL     1     -12.000  47.966 -19.050  1.00  0.00     0.180 C 
BRANCH  32  33
HETATM   33  C16 UNL     1     -12.280  46.551 -18.488  1.00  0.00     0.241 C 
HETATM   34  O4  UNL     1     -11.401  45.698 -18.372  1.00  0.00    -0.271 OA
HETATM   35  N3  UNL     1     -13.608  46.311 -18.190  1.00  0.00    -0.344 N 
HETATM   36  H18 UNL     1     -14.138  47.137 -17.933  1.00  0.00     0.163 HD
BRANCH  35  37
HETATM   37  C17 UNL     1     -13.987  45.094 -17.449  1.00  0.00     0.192 C 
BRANCH  37  38
HETATM   38  C18 UNL     1     -15.345  44.607 -17.931  1.00  0.00     0.146 C 
BRANCH  38  39
HETATM   39  C19 UNL     1     -15.713  45.170 -19.272  1.00  0.00     0.141 C 
HETATM   40  O5  UNL     1     -15.307  44.758 -20.346  1.00  0.00    -0.650 OA
BRANCH  39  41
HETATM   41  O6  UNL     1     -16.623  46.157 -19.211  1.00  0.00    -0.776 OA
HETATM   42  H22 UNL     1     -16.756  46.424 -20.147  1.00  0.00     0.167 HD
ENDBRANCH  39  41
ENDBRANCH  38  39
ENDBRANCH  37  38
BRANCH  37  43
HETATM   43  C20 UNL     1     -14.065  45.409 -15.949  1.00  0.00     0.164 C 
HETATM   44  O7  UNL     1     -13.970  44.604 -15.036  1.00  0.00    -0.648 OA
BRANCH  43  45
HETATM   45  O8  UNL     1     -14.357  46.704 -15.684  1.00  0.00    -0.775 OA
HETATM   46  H23 UNL     1     -14.345  46.759 -14.703  1.00  0.00     0.167 HD
ENDBRANCH  43  45
ENDBRANCH  37  43
ENDBRANCH  35  37
ENDBRANCH  32  33
BRANCH  32  47
HETATM   47  C21 UNL     1     -13.206  48.493 -19.860  1.00  0.00     0.009 C 
HETATM   48  C22 UNL     1     -13.534  47.551 -21.022  1.00  0.00     0.012 C 
HETATM   49  C23 UNL     1     -14.460  48.724 -19.009  1.00  0.00     0.012 C 
ENDBRANCH  32  47
ENDBRANCH  30  32
ENDBRANCH  27  28
ENDBRANCH  26  27
ENDBRANCH  13  26
TORSDOF 13
ENDMDL
MODEL 3
REMARK minimizedAffinity -7.86866808
REMARK CNNscore 0.332842499
REMARK CNNaffinity 6.3913517
REMARK  13 active torsions:
REMARK  status: ('A' for Active; 'I' for Inactive)
REMARK    1  A    between atoms: C3_3  and  O1_4 
REMARK    2  A    between atoms: N1_14  and  O2_16 
REMARK    3  A    between atoms: O2_16  and  C13_17 
REMARK    4  A    between atoms: C13_17  and  C14_18 
REMARK       I    between atoms: C14_18  and  N2_20 
REMARK    5  A    between atoms: N2_20  and  C15_21 
REMARK    6  A    between atoms: C15_21  and  C16_22 
REMARK    7  A    between atoms: C15_21  and  C21_33 
REMARK       I    between atoms: C16_22  and  N3_24 
REMARK    8  A    between atoms: N3_24  and  C17_25 
REMARK    9  A    between atoms: C17_25  and  C18_26 
REMARK   10  A    between atoms: C17_25  and  C20_30 
REMARK   11  A    between atoms: C18_26  and  C19_27 
REMARK   12  A    between atoms: C19_27  and  O6_29 
REMARK   13  A    between atoms: C20_30  and  O8_32 
ROOT
HETATM    1  C1  UNL     1       0.604  52.038 -26.366  1.00  0.00     0.015 C 
HETATM    2  C2  UNL     1      -0.587  51.945 -26.221  1.00  0.00    -0.078 C 
HETATM    3  C3  UNL     1      -2.054  51.828 -26.052  1.00  0.00     0.128 C 
HETATM    4  C4  UNL     1      -2.546  50.535 -26.717  1.00  0.00     0.052 C 
HETATM    5  C5  UNL     1      -2.663  49.497 -25.594  1.00  0.00     0.010 C 
HETATM    6  C6  UNL     1      -2.193  50.188 -24.292  1.00  0.00     0.002 C 
HETATM    7  C7  UNL     1      -2.739  49.614 -22.951  1.00  0.00    -0.004 C 
HETATM    8  C8  UNL     1      -3.060  48.114 -23.079  1.00  0.00     0.010 C 
HETATM    9  C9  UNL     1      -3.499  47.503 -21.765  1.00  0.00     0.035 C 
HETATM   10  C10 UNL     1      -4.722  48.204 -21.239  1.00  0.00    -0.069 C 
HETATM   11  C11 UNL     1      -5.787  47.480 -20.853  1.00  0.00     0.030 C 
HETATM   12  C12 UNL     1      -6.944  48.093 -20.148  1.00  0.00     0.032 C 
HETATM   13  N1  UNL     1      -7.925  47.312 -19.795  1.00  0.00    -0.271 N 
ATOM     14  H1  UNL     1      -7.969  46.315 -20.005  1.00  0.00     0.194 HD
HETATM   15  C24 UNL     1      -6.867  49.571 -19.821  1.00  0.00     0.060 C 
HETATM   16  C25 UNL     1      -6.057  50.302 -20.883  1.00  0.00     0.020 C 
HETATM   17  C26 UNL     1      -4.632  49.722 -21.105  1.00  0.00    -0.016 C 
HETATM   18  C27 UNL     1      -3.783  50.007 -19.833  1.00  0.00     0.020 C 
HETATM   19  C28 UNL     1      -3.911  50.434 -22.331  1.00  0.00     0.002 C 
HETATM   20  C29 UNL     1      -4.797  50.975 -23.461  1.00  0.00     0.007 C 
HETATM   21  C30 UNL     1      -4.043  51.931 -24.408  1.00  0.00     0.014 C 
HETATM   22  C31 UNL     1      -2.512  51.674 -24.562  1.00  0.00     0.003 C 
HETATM   23  C32 UNL     1      -1.735  52.637 -23.640  1.00  0.00     0.020 C 
ENDROOT
BRANCH   3  24
HETATM   24  O1  UNL     1      -2.659  52.961 -26.660  1.00  0.00    -0.377 OA
HETATM   25  H2  UNL     1      -2.296  53.027 -27.560  1.00  0.00     0.211 HD
ENDBRANCH   3  24
BRANCH  13  26
HETATM   26  O2  UNL     1      -8.911  48.014 -19.090  1.00  0.00    -0.271 OA
BRANCH  26  27
HETATM   27  C13 UNL     1      -9.094  47.403 -17.818  1.00  0.00     0.303 C 
BRANCH  27  28
HETATM   28  C14 UNL     1     -10.576  47.158 -17.552  1.00  0.00     0.244 C 
HETATM   29  O3  UNL     1     -11.186  47.722 -16.646  1.00  0.00    -0.271 OA
HETATM   30  N2  UNL     1     -11.162  46.220 -18.382  1.00  0.00    -0.346 N 
HETATM   31  H16 UNL     1     -10.505  45.589 -18.833  1.00  0.00     0.163 HD
BRANCH  30  32
HETATM   32  C15 UNL     1     -12.486  45.688 -18.088  1.00  0.00     0.180 C 
BRANCH  32  33
HETATM   33  C16 UNL     1     -13.538  46.536 -18.842  1.00  0.00     0.241 C 
HETATM   34  O4  UNL     1     -13.345  47.710 -19.152  1.00  0.00    -0.271 OA
HETATM   35  N3  UNL     1     -14.732  45.880 -19.078  1.00  0.00    -0.344 N 
HETATM   36  H18 UNL     1     -14.648  44.873 -19.165  1.00  0.00     0.163 HD
BRANCH  35  37
HETATM   37  C17 UNL     1     -15.737  46.484 -19.972  1.00  0.00     0.192 C 
BRANCH  37  38
HETATM   38  C18 UNL     1     -15.038  47.331 -21.025  1.00  0.00     0.146 C 
BRANCH  38  39
HETATM   39  C19 UNL     1     -15.515  47.025 -22.414  1.00  0.00     0.141 C 
HETATM   40  O5  UNL     1     -16.441  46.282 -22.695  1.00  0.00    -0.650 OA
BRANCH  39  41
HETATM   41  O6  UNL     1     -14.874  47.719 -23.370  1.00  0.00    -0.776 OA
HETATM   42  H22 UNL     1     -15.282  47.413 -24.209  1.00  0.00     0.167 HD
ENDBRANCH  39  41
ENDBRANCH  38  39
ENDBRANCH  37  38
BRANCH  37  43
HETATM   43  C20 UNL     1     -16.685  47.372 -19.155  1.00  0.00     0.164 C 
HETATM   44  O7  UNL     1     -17.905  47.316 -19.153  1.00  0.00    -0.648 OA
BRANCH  43  45
HETATM   45  O8  UNL     1     -16.049  48.346 -18.463  1.00  0.00    -0.775 OA
HETATM   46  H23 UNL     1     -16.767  48.806 -17.976  1.00  0.00     0.167 HD
ENDBRANCH  43  45
ENDBRANCH  37  43
ENDBRANCH  35  37
ENDBRANCH  32  33
BRANCH  32  47
HETATM   47  C21 UNL     1     -12.787  45.641 -16.573  1.00  0.00     0.009 C 
HETATM   48  C22 UNL     1     -14.136  46.298 -16.266  1.00  0.00     0.012 C 
HETATM   49  C23 UNL     1     -12.754  44.225 -15.987  1.00  0.00     0.012 C 
ENDBRANCH  32  47
ENDBRANCH  30  32
ENDBRANCH  27  28
ENDBRANCH  26  27
ENDBRANCH  13  26
TORSDOF 13
ENDMDL
MODEL 4
REMARK minimizedAffinity -7.50836372
REMARK CNNscore 0.332098901
REMARK CNNaffinity 6.54603338
REMARK  13 active torsions:
REMARK  status: ('A' for Active; 'I' for Inactive)
REMARK    1  A    between atoms: C3_3  and  O1_4 
REMARK    2  A    between atoms: N1_14  and  O2_16 
REMARK    3  A    between atoms: O2_16  and  C13_17 
REMARK    4  A    between atoms: C13_17  and  C14_18 
REMARK       I    between atoms: C14_18  and  N2_20 
REMARK    5  A    between atoms: N2_20  and  C15_21 
REMARK    6  A    between atoms: C15_21  and  C16_22 
REMARK    7  A    between atoms: C15_21  and  C21_33 
REMARK       I    between atoms: C16_22  and  N3_24 
REMARK    8  A    between atoms: N3_24  and  C17_25 
REMARK    9  A    between atoms: C17_25  and  C18_26 
REMARK   10  A    between atoms: C17_25  and  C20_30 
REMARK   11  A    between atoms: C18_26  and  C19_27 
REMARK   12  A    between atoms: C19_27  and  O6_29 
REMARK   13  A    between atoms: C20_30  and  O8_32 
ROOT
HETATM    1  C1  UNL     1      -6.895  47.460 -26.028  1.00  0.00     0.015 C 
HETATM    2  C2  UNL     1      -6.829  48.014 -24.963  1.00  0.00    -0.078 C 
HETATM    3  C3  UNL     1      -6.756  48.692 -23.647  1.00  0.00     0.128 C 
HETATM    4  C4  UNL     1      -6.829  47.645 -22.526  1.00  0.00     0.052 C 
HETATM    5  C5  UNL     1      -5.380  47.374 -22.102  1.00  0.00     0.010 C 
HETATM    6  C6  UNL     1      -4.475  48.236 -23.014  1.00  0.00     0.002 C 
HETATM    7  C7  UNL     1      -3.072  48.618 -22.457  1.00  0.00    -0.004 C 
HETATM    8  C8  UNL     1      -2.560  47.558 -21.466  1.00  0.00     0.010 C 
HETATM    9  C9  UNL     1      -1.155  47.850 -20.983  1.00  0.00     0.035 C 
HETATM   10  C10 UNL     1      -1.098  49.194 -20.308  1.00  0.00    -0.069 C 
HETATM   11  C11 UNL     1      -0.529  49.303 -19.094  1.00  0.00     0.030 C 
HETATM   12  C12 UNL     1      -0.266  50.623 -18.462  1.00  0.00     0.032 C 
HETATM   13  N1  UNL     1       0.305  50.634 -17.292  1.00  0.00    -0.271 N 
ATOM     14  H1  UNL     1       0.548  49.796 -16.764  1.00  0.00     0.194 HD
HETATM   15  C24 UNL     1      -0.613  51.866 -19.257  1.00  0.00     0.060 C 
HETATM   16  C25 UNL     1      -1.812  51.597 -20.156  1.00  0.00     0.020 C 
HETATM   17  C26 UNL     1      -1.632  50.380 -21.106  1.00  0.00    -0.016 C 
HETATM   18  C27 UNL     1      -0.544  50.736 -22.159  1.00  0.00     0.020 C 
HETATM   19  C28 UNL     1      -2.977  50.070 -21.895  1.00  0.00     0.002 C 
HETATM   20  C29 UNL     1      -4.304  50.429 -21.211  1.00  0.00     0.007 C 
HETATM   21  C30 UNL     1      -5.502  50.409 -22.181  1.00  0.00     0.014 C 
HETATM   22  C31 UNL     1      -5.394  49.419 -23.382  1.00  0.00     0.003 C 
HETATM   23  C32 UNL     1      -4.921  50.185 -24.636  1.00  0.00     0.020 C 
ENDROOT
BRANCH   3  24
HETATM   24  O1  UNL     1      -7.848  49.596 -23.555  1.00  0.00    -0.377 OA
HETATM   25  H2  UNL     1      -8.650  49.093 -23.778  1.00  0.00     0.211 HD
ENDBRANCH   3  24
BRANCH  13  26
HETATM   26  O2  UNL     1       0.543  51.942 -16.849  1.00  0.00    -0.271 OA
BRANCH  26  27
HETATM   27  C13 UNL     1       1.816  51.991 -16.215  1.00  0.00     0.303 C 
BRANCH  27  28
HETATM   28  C14 UNL     1       1.721  51.458 -14.788  1.00  0.00     0.244 C 
HETATM   29  O3  UNL     1       0.899  50.607 -14.456  1.00  0.00    -0.271 OA
HETATM   30  N2  UNL     1       2.599  52.044 -13.896  1.00  0.00    -0.346 N 
HETATM   31  H16 UNL     1       2.962  52.946 -14.193  1.00  0.00     0.163 HD
BRANCH  30  32
HETATM   32  C15 UNL     1       2.453  51.837 -12.461  1.00  0.00     0.180 C 
BRANCH  32  33
HETATM   33  C16 UNL     1       3.196  50.537 -12.072  1.00  0.00     0.241 C 
HETATM   34  O4  UNL     1       2.955  49.452 -12.598  1.00  0.00    -0.271 OA
HETATM   35  N3  UNL     1       4.105  50.689 -11.041  1.00  0.00    -0.344 N 
HETATM   36  H18 UNL     1       4.512  51.616 -10.972  1.00  0.00     0.163 HD
BRANCH  35  37
HETATM   37  C17 UNL     1       5.037  49.594 -10.715  1.00  0.00     0.192 C 
BRANCH  37  38
HETATM   38  C18 UNL     1       4.619  48.945  -9.404  1.00  0.00     0.146 C 
BRANCH  38  39
HETATM   39  C19 UNL     1       3.780  47.719  -9.613  1.00  0.00     0.141 C 
HETATM   40  O5  UNL     1       4.084  46.767 -10.313  1.00  0.00    -0.650 OA
BRANCH  39  41
HETATM   41  O6  UNL     1       2.653  47.705  -8.882  1.00  0.00    -0.776 OA
HETATM   42  H22 UNL     1       2.214  46.861  -9.126  1.00  0.00     0.167 HD
ENDBRANCH  39  41
ENDBRANCH  38  39
ENDBRANCH  37  38
BRANCH  37  43
HETATM   43  C20 UNL     1       6.459  50.153 -10.573  1.00  0.00     0.164 C 
HETATM   44  O7  UNL     1       7.469  49.695 -11.083  1.00  0.00    -0.648 OA
BRANCH  43  45
HETATM   45  O8  UNL     1       6.545  51.197  -9.716  1.00  0.00    -0.775 OA
HETATM   46  H23 UNL     1       7.490  51.461  -9.749  1.00  0.00     0.167 HD
ENDBRANCH  43  45
ENDBRANCH  37  43
ENDBRANCH  35  37
ENDBRANCH  32  33
BRANCH  32  47
HETATM   47  C21 UNL     1       0.976  51.791 -12.012  1.00  0.00     0.009 C 
HETATM   48  C22 UNL     1       0.841  51.105 -10.650  1.00  0.00     0.012 C 
HETATM   49  C23 UNL     1       0.309  53.171 -11.966  1.00  0.00     0.012 C 
ENDBRANCH  32  47
ENDBRANCH  30  32
ENDBRANCH  27  28
ENDBRANCH  26  27
ENDBRANCH  13  26
TORSDOF 13
ENDMDL
MODEL 5
REMARK minimizedAffinity -9.00654221
REMARK CNNscore 0.258153826
REMARK CNNaffinity 7.00867414
REMARK  13 active torsions:
REMARK  status: ('A' for Active; 'I' for Inactive)
REMARK    1  A    between atoms: C3_3  and  O1_4 
REMARK    2  A    between atoms: N1_14  and  O2_16 
REMARK    3  A    between atoms: O2_16  and  C13_17 
REMARK    4  A    between atoms: C13_17  and  C14_18 
REMARK       I    between atoms: C14_18  and  N2_20 
REMARK    5  A    between atoms: N2_20  and  C15_21 
REMARK    6  A    between atoms: C15_21  and  C16_22 
REMARK    7  A    between atoms: C15_21  and  C21_33 
REMARK       I    between atoms: C16_22  and  N3_24 
REMARK    8  A    between atoms: N3_24  and  C17_25 
REMARK    9  A    between atoms: C17_25  and  C18_26 
REMARK   10  A    between atoms: C17_25  and  C20_30 
REMARK   11  A    between atoms: C18_26  and  C19_27 
REMARK   12  A    between atoms: C19_27  and  O6_29 
REMARK   13  A    between atoms: C20_30  and  O8_32 
ROOT
HETATM    1  C1  UNL     1      -2.592  49.867  -8.767  1.00  0.00     0.015 C 
HETATM    2  C2  UNL     1      -2.891  50.529  -9.726  1.00  0.00    -0.078 C 
HETATM    3  C3  UNL     1      -3.260  51.352 -10.901  1.00  0.00     0.128 C 
HETATM    4  C4  UNL     1      -2.495  52.683 -10.856  1.00  0.00     0.052 C 
HETATM    5  C5  UNL     1      -1.278  52.505 -11.773  1.00  0.00     0.010 C 
HETATM    6  C6  UNL     1      -1.325  51.054 -12.307  1.00  0.00     0.002 C 
HETATM    7  C7  UNL     1      -0.605  50.776 -13.660  1.00  0.00    -0.004 C 
HETATM    8  C8  UNL     1       0.567  51.751 -13.876  1.00  0.00     0.010 C 
HETATM    9  C9  UNL     1       1.350  51.443 -15.134  1.00  0.00     0.035 C 
HETATM   10  C10 UNL     1       0.454  51.506 -16.342  1.00  0.00    -0.069 C 
HETATM   11  C11 UNL     1       0.832  52.230 -17.411  1.00  0.00     0.030 C 
HETATM   12  C12 UNL     1       0.092  52.178 -18.700  1.00  0.00     0.032 C 
HETATM   13  N1  UNL     1       0.539  52.900 -19.687  1.00  0.00    -0.271 N 
ATOM     14  H1  UNL     1       1.341  53.528 -19.622  1.00  0.00     0.194 HD
HETATM   15  C24 UNL     1      -1.087  51.230 -18.798  1.00  0.00     0.060 C 
HETATM   16  C25 UNL     1      -1.766  51.096 -17.441  1.00  0.00     0.020 C 
HETATM   17  C26 UNL     1      -0.813  50.657 -16.295  1.00  0.00    -0.016 C 
HETATM   18  C27 UNL     1      -0.376  49.188 -16.556  1.00  0.00     0.020 C 
HETATM   19  C28 UNL     1      -1.558  50.692 -14.890  1.00  0.00     0.002 C 
HETATM   20  C29 UNL     1      -2.696  51.707 -14.712  1.00  0.00     0.007 C 
HETATM   21  C30 UNL     1      -3.559  51.426 -13.466  1.00  0.00     0.014 C 
HETATM   22  C31 UNL     1      -2.833  50.729 -12.273  1.00  0.00     0.003 C 
HETATM   23  C32 UNL     1      -3.127  49.214 -12.310  1.00  0.00     0.020 C 
ENDROOT
BRANCH   3  24
HETATM   24  O1  UNL     1      -4.661  51.582 -10.856  1.00  0.00    -0.377 OA
HETATM   25  H2  UNL     1      -4.863  51.920  -9.966  1.00  0.00     0.211 HD
ENDBRANCH   3  24
BRANCH  13  26
HETATM   26  O2  UNL     1      -0.218  52.705 -20.849  1.00  0.00    -0.271 OA
BRANCH  26  27
HETATM   27  C13 UNL     1       0.526  51.899 -21.756  1.00  0.00     0.303 C 
BRANCH  27  28
HETATM   28  C14 UNL     1       0.437  52.468 -23.170  1.00  0.00     0.244 C 
HETATM   29  O3  UNL     1       0.743  53.628 -23.434  1.00  0.00    -0.271 OA
HETATM   30  N2  UNL     1      -0.058  51.588 -24.113  1.00  0.00    -0.346 N 
HETATM   31  H16 UNL     1      -0.590  50.812 -23.727  1.00  0.00     0.163 HD
BRANCH  30  32
HETATM   32  C15 UNL     1      -0.448  52.055 -25.437  1.00  0.00     0.180 C 
BRANCH  32  33
HETATM   33  C16 UNL     1      -1.976  51.866 -25.597  1.00  0.00     0.241 C 
HETATM   34  O4  UNL     1      -2.733  52.793 -25.878  1.00  0.00    -0.271 OA
HETATM   35  N3  UNL     1      -2.420  50.583 -25.336  1.00  0.00    -0.344 N 
HETATM   36  H18 UNL     1      -1.736  49.856 -25.520  1.00  0.00     0.163 HD
BRANCH  35  37
HETATM   37  C17 UNL     1      -3.808  50.205 -25.659  1.00  0.00     0.192 C 
BRANCH  37  38
HETATM   38  C18 UNL     1      -4.506  49.709 -24.401  1.00  0.00     0.146 C 
BRANCH  38  39
HETATM   39  C19 UNL     1      -5.282  50.792 -23.713  1.00  0.00     0.141 C 
HETATM   40  O5  UNL     1      -5.782  50.706 -22.603  1.00  0.00    -0.650 OA
BRANCH  39  41
HETATM   41  O6  UNL     1      -5.326  51.945 -24.401  1.00  0.00    -0.776 OA
HETATM   42  H22 UNL     1      -5.863  52.545 -23.839  1.00  0.00     0.167 HD
ENDBRANCH  39  41
ENDBRANCH  38  39
ENDBRANCH  37  38
BRANCH  37  43
HETATM   43  C20 UNL     1      -3.806  49.088 -26.711  1.00  0.00     0.164 C 
HETATM   44  O7  UNL     1      -2.865  48.763 -27.418  1.00  0.00    -0.648 OA
BRANCH  43  45
HETATM   45  O8  UNL     1      -5.017  48.508 -26.884  1.00  0.00    -0.775 OA
HETATM   46  H23 UNL     1      -4.857  47.807 -27.554  1.00  0.00     0.167 HD
ENDBRANCH  43  45
ENDBRANCH  37  43
ENDBRANCH  35  37
ENDBRANCH  32  33
BRANCH  32  47
HETATM   47  C21 UNL     1       0.324  51.345 -26.571  1.00  0.00     0.009 C 
HETATM   48  C22 UNL     1      -0.104  51.881 -27.940  1.00  0.00     0.012 C 
HETATM   49  C23 UNL     1       1.847  51.445 -26.428  1.00  0.00     0.012 C 
ENDBRANCH  32  47
ENDBRANCH  30  32
ENDBRANCH  27  28
ENDBRANCH  26  27
ENDBRANCH  13  26
TORSDOF 13
ENDMDL
MODEL 6
REMARK minimizedAffinity -8.04628277
REMARK CNNscore 0.246074975
REMARK CNNaffinity 6.87387705
REMARK  13 active torsions:
REMARK  status: ('A' for Active; 'I' for Inactive)
REMARK    1  A    between atoms: C3_3  and  O1_4 
REMARK    2  A    between atoms: N1_14  and  O2_16 
REMARK    3  A    between atoms: O2_16  and  C13_17 
REMARK    4  A    between atoms: C13_17  and  C14_18 
REMARK       I    between atoms: C14_18  and  N2_20 
REMARK    5  A    between atoms: N2_20  and  C15_21 
REMARK    6  A    between atoms: C15_21  and  C16_22 
REMARK    7  A    between atoms: C15_21  and  C21_33 
REMARK       I    between atoms: C16_22  and  N3_24 
REMARK    8  A    between atoms: N3_24  and  C17_25 
REMARK    9  A    between atoms: C17_25  and  C18_26 
REMARK   10  A    between atoms: C17_25  and  C20_30 
REMARK   11  A    between atoms: C18_26  and  C19_27 
REMARK   12  A    between atoms: C19_27  and  O6_29 
REMARK   13  A    between atoms: C20_30  and  O8_32 
ROOT
HETATM    1  C1  UNL     1       0.575  51.646 -28.774  1.00  0.00     0.015 C 
HETATM    2  C2  UNL     1       0.120  52.235 -27.829  1.00  0.00    -0.078 C 
HETATM    3  C3  UNL     1      -0.446  52.963 -26.670  1.00  0.00     0.128 C 
HETATM    4  C4  UNL     1      -1.979  52.899 -26.723  1.00  0.00     0.052 C 
HETATM    5  C5  UNL     1      -2.389  51.755 -25.787  1.00  0.00     0.010 C 
HETATM    6  C6  UNL     1      -1.083  51.136 -25.233  1.00  0.00     0.002 C 
HETATM    7  C7  UNL     1      -1.177  50.395 -23.867  1.00  0.00    -0.004 C 
HETATM    8  C8  UNL     1      -2.583  49.810 -23.648  1.00  0.00     0.010 C 
HETATM    9  C9  UNL     1      -2.679  48.997 -22.375  1.00  0.00     0.035 C 
HETATM   10  C10 UNL     1      -2.328  49.843 -21.181  1.00  0.00    -0.069 C 
HETATM   11  C11 UNL     1      -3.151  49.862 -20.117  1.00  0.00     0.030 C 
HETATM   12  C12 UNL     1      -2.770  50.519 -18.838  1.00  0.00     0.032 C 
HETATM   13  N1  UNL     1      -3.623  50.473 -17.854  1.00  0.00    -0.271 N 
ATOM     14  H1  UNL     1      -4.549  50.051 -17.917  1.00  0.00     0.194 HD
HETATM   15  C24 UNL     1      -1.386  51.128 -18.744  1.00  0.00     0.060 C 
HETATM   16  C25 UNL     1      -0.945  51.644 -20.107  1.00  0.00     0.020 C 
HETATM   17  C26 UNL     1      -0.989  50.574 -21.234  1.00  0.00    -0.016 C 
HETATM   18  C27 UNL     1       0.110  49.513 -20.947  1.00  0.00     0.020 C 
HETATM   19  C28 UNL     1      -0.668  51.224 -22.649  1.00  0.00     0.002 C 
HETATM   20  C29 UNL     1      -1.042  52.699 -22.857  1.00  0.00     0.007 C 
HETATM   21  C30 UNL     1      -0.387  53.311 -24.112  1.00  0.00     0.014 C 
HETATM   22  C31 UNL     1      -0.098  52.323 -25.284  1.00  0.00     0.003 C 
HETATM   23  C32 UNL     1       1.382  51.885 -25.231  1.00  0.00     0.020 C 
ENDROOT
BRANCH   3  24
HETATM   24  O1  UNL     1      -0.003  54.312 -26.738  1.00  0.00    -0.377 OA
HETATM   25  H2  UNL     1      -0.204  54.630 -27.635  1.00  0.00     0.211 HD
ENDBRANCH   3  24
BRANCH  13  26
HETATM   26  O2  UNL     1      -3.107  51.077 -16.700  1.00  0.00    -0.271 OA
BRANCH  26  27
HETATM   27  C13 UNL     1      -2.986  50.094 -15.678  1.00  0.00     0.303 C 
BRANCH  27  28
HETATM   28  C14 UNL     1      -2.442  50.721 -14.398  1.00  0.00     0.244 C 
HETATM   29  O3  UNL     1      -1.282  51.112 -14.296  1.00  0.00    -0.271 OA
HETATM   30  N2  UNL     1      -3.345  50.768 -13.352  1.00  0.00    -0.346 N 
HETATM   31  H16 UNL     1      -4.122  50.118 -13.438  1.00  0.00     0.163 HD
BRANCH  30  32
HETATM   32  C15 UNL     1      -2.906  51.089 -12.001  1.00  0.00     0.180 C 
BRANCH  32  33
HETATM   33  C16 UNL     1      -3.965  50.568 -11.000  1.00  0.00     0.241 C 
HETATM   34  O4  UNL     1      -4.442  51.272 -10.112  1.00  0.00    -0.271 OA
HETATM   35  N3  UNL     1      -4.278  49.230 -11.151  1.00  0.00    -0.344 N 
HETATM   36  H18 UNL     1      -4.169  48.876 -12.096  1.00  0.00     0.163 HD
BRANCH  35  37
HETATM   37  C17 UNL     1      -5.421  48.655 -10.418  1.00  0.00     0.192 C 
BRANCH  37  38
HETATM   38  C18 UNL     1      -6.454  49.741 -10.155  1.00  0.00     0.146 C 
BRANCH  38  39
HETATM   39  C19 UNL     1      -7.852  49.283 -10.450  1.00  0.00     0.141 C 
HETATM   40  O5  UNL     1      -8.191  48.631 -11.423  1.00  0.00    -0.650 OA
BRANCH  39  41
HETATM   41  O6  UNL     1      -8.735  49.589  -9.484  1.00  0.00    -0.776 OA
HETATM   42  H22 UNL     1      -9.590  49.239  -9.815  1.00  0.00     0.167 HD
ENDBRANCH  39  41
ENDBRANCH  38  39
ENDBRANCH  37  38
BRANCH  37  43
HETATM   43  C20 UNL     1      -4.937  48.081  -9.080  1.00  0.00     0.164 C 
HETATM   44  O7  UNL     1      -5.299  47.032  -8.571  1.00  0.00    -0.648 OA
BRANCH  43  45
HETATM   45  O8  UNL     1      -4.101  48.908  -8.409  1.00  0.00    -0.775 OA
HETATM   46  H23 UNL     1      -3.858  48.404  -7.601  1.00  0.00     0.167 HD
ENDBRANCH  43  45
ENDBRANCH  37  43
ENDBRANCH  35  37
ENDBRANCH  32  33
BRANCH  32  47
HETATM   47  C21 UNL     1      -2.646  52.600 -11.803  1.00  0.00     0.009 C 
HETATM   48  C22 UNL     1      -3.925  53.408 -12.044  1.00  0.00     0.012 C 
HETATM   49  C23 UNL     1      -2.068  52.943 -10.425  1.00  0.00     0.012 C 
ENDBRANCH  32  47
ENDBRANCH  30  32
ENDBRANCH  27  28
ENDBRANCH  26  27
ENDBRANCH  13  26
TORSDOF 13
ENDMDL
MODEL 7
REMARK minimizedAffinity -8.61638832
REMARK CNNscore 0.243317291
REMARK CNNaffinity 6.78820801
REMARK  13 active torsions:
REMARK  status: ('A' for Active; 'I' for Inactive)
REMARK    1  A    between atoms: C3_3  and  O1_4 
REMARK    2  A    between atoms: N1_14  and  O2_16 
REMARK    3  A    between atoms: O2_16  and  C13_17 
REMARK    4  A    between atoms: C13_17  and  C14_18 
REMARK       I    between atoms: C14_18  and  N2_20 
REMARK    5  A    between atoms: N2_20  and  C15_21 
REMARK    6  A    between atoms: C15_21  and  C16_22 
REMARK    7  A    between atoms: C15_21  and  C21_33 
REMARK       I    between atoms: C16_22  and  N3_24 
REMARK    8  A    between atoms: N3_24  and  C17_25 
REMARK    9  A    between atoms: C17_25  and  C18_26 
REMARK   10  A    between atoms: C17_25  and  C20_30 
REMARK   11  A    between atoms: C18_26  and  C19_27 
REMARK   12  A    between atoms: C19_27  and  O6_29 
REMARK   13  A    between atoms: C20_30  and  O8_32 
ROOT
HETATM    1  C1  UNL     1       0.676  52.599 -17.478  1.00  0.00     0.015 C 
HETATM    2  C2  UNL     1       0.139  51.623 -17.933  1.00  0.00    -0.078 C 
HETATM    3  C3  UNL     1      -0.526  50.419 -18.484  1.00  0.00     0.128 C 
HETATM    4  C4  UNL     1      -2.005  50.416 -18.073  1.00  0.00     0.052 C 
HETATM    5  C5  UNL     1      -2.779  50.990 -19.267  1.00  0.00     0.010 C 
HETATM    6  C6  UNL     1      -1.733  51.362 -20.345  1.00  0.00     0.002 C 
HETATM    7  C7  UNL     1      -2.225  51.400 -21.821  1.00  0.00    -0.004 C 
HETATM    8  C8  UNL     1      -3.723  51.745 -21.900  1.00  0.00     0.010 C 
HETATM    9  C9  UNL     1      -4.209  51.889 -23.326  1.00  0.00     0.035 C 
HETATM   10  C10 UNL     1      -3.977  50.615 -24.093  1.00  0.00    -0.069 C 
HETATM   11  C11 UNL     1      -4.986  50.072 -24.798  1.00  0.00     0.030 C 
HETATM   12  C12 UNL     1      -4.774  48.930 -25.727  1.00  0.00     0.032 C 
HETATM   13  N1  UNL     1      -5.805  48.480 -26.382  1.00  0.00    -0.271 N 
ATOM     14  H1  UNL     1      -6.756  48.833 -26.269  1.00  0.00     0.194 HD
HETATM   15  C24 UNL     1      -3.357  48.421 -25.905  1.00  0.00     0.060 C 
HETATM   16  C25 UNL     1      -2.569  48.602 -24.615  1.00  0.00     0.020 C 
HETATM   17  C26 UNL     1      -2.555  50.061 -24.080  1.00  0.00    -0.016 C 
HETATM   18  C27 UNL     1      -1.726  50.936 -25.062  1.00  0.00     0.020 C 
HETATM   19  C28 UNL     1      -1.848  50.139 -22.657  1.00  0.00     0.002 C 
HETATM   20  C29 UNL     1      -1.926  48.900 -21.755  1.00  0.00     0.007 C 
HETATM   21  C30 UNL     1      -0.937  48.957 -20.573  1.00  0.00     0.014 C 
HETATM   22  C31 UNL     1      -0.578  50.383 -20.049  1.00  0.00     0.003 C 
HETATM   23  C32 UNL     1       0.767  50.830 -20.660  1.00  0.00     0.020 C 
ENDROOT
BRANCH   3  24
HETATM   24  O1  UNL     1       0.136  49.274 -17.966  1.00  0.00    -0.377 OA
HETATM   25  H2  UNL     1       0.178  49.385 -17.000  1.00  0.00     0.211 HD
ENDBRANCH   3  24
BRANCH  13  26
HETATM   26  O2  UNL     1      -5.445  47.449 -27.260  1.00  0.00    -0.271 OA
BRANCH  26  27
HETATM   27  C13 UNL     1      -5.601  47.907 -28.599  1.00  0.00     0.303 C 
BRANCH  27  28
HETATM   28  C14 UNL     1      -6.940  47.446 -29.167  1.00  0.00     0.244 C 
HETATM   29  O3  UNL     1      -7.267  46.262 -29.205  1.00  0.00    -0.271 OA
HETATM   30  N2  UNL     1      -7.728  48.461 -29.675  1.00  0.00    -0.346 N 
HETATM   31  H16 UNL     1      -7.222  49.312 -29.905  1.00  0.00     0.163 HD
BRANCH  30  32
HETATM   32  C15 UNL     1      -8.903  48.160 -30.482  1.00  0.00     0.180 C 
BRANCH  32  33
HETATM   33  C16 UNL     1      -9.966  47.491 -29.577  1.00  0.00     0.241 C 
HETATM   34  O4  UNL     1     -10.431  46.377 -29.811  1.00  0.00    -0.271 OA
HETATM   35  N3  UNL     1     -10.390  48.278 -28.522  1.00  0.00    -0.344 N 
HETATM   36  H18 UNL     1      -9.700  48.944 -28.190  1.00  0.00     0.163 HD
BRANCH  35  37
HETATM   37  C17 UNL     1     -11.229  47.695 -27.460  1.00  0.00     0.192 C 
BRANCH  37  38
HETATM   38  C18 UNL     1     -12.674  48.128 -27.657  1.00  0.00     0.146 C 
BRANCH  38  39
HETATM   39  C19 UNL     1     -13.651  47.139 -27.094  1.00  0.00     0.141 C 
HETATM   40  O5  UNL     1     -14.102  46.175 -27.689  1.00  0.00    -0.650 OA
BRANCH  39  41
HETATM   41  O6  UNL     1     -13.949  47.352 -25.801  1.00  0.00    -0.776 OA
HETATM   42  H22 UNL     1     -14.591  46.643 -25.579  1.00  0.00     0.167 HD
ENDBRANCH  39  41
ENDBRANCH  38  39
ENDBRANCH  37  38
BRANCH  37  43
HETATM   43  C20 UNL     1     -10.737  48.180 -26.090  1.00  0.00     0.164 C 
HETATM   44  O7  UNL     1     -11.011  47.686 -25.008  1.00  0.00    -0.648 OA
BRANCH  43  45
HETATM   45  O8  UNL     1     -10.009  49.320 -26.151  1.00  0.00    -0.775 OA
HETATM   46  H23 UNL     1      -9.745  49.489 -25.221  1.00  0.00     0.167 HD
ENDBRANCH  43  45
ENDBRANCH  37  43
ENDBRANCH  35  37
ENDBRANCH  32  33
BRANCH  32  47
HETATM   47  C21 UNL     1      -8.576  47.275 -31.705  1.00  0.00     0.009 C 
HETATM   48  C22 UNL     1      -9.766  46.379 -32.063  1.00  0.00     0.012 C 
HETATM   49  C23 UNL     1      -8.140  48.075 -32.938  1.00  0.00     0.012 C 
ENDBRANCH  32  47
ENDBRANCH  30  32
ENDBRANCH  27  28
ENDBRANCH  26  27
ENDBRANCH  13  26
TORSDOF 13
ENDMDL
MODEL 8
REMARK minimizedAffinity -9.30730152
REMARK CNNscore 0.232416615
REMARK CNNaffinity 6.26012373
REMARK  13 active torsions:
REMARK  status: ('A' for Active; 'I' for Inactive)
REMARK    1  A    between atoms: C3_3  and  O1_4 
REMARK    2  A    between atoms: N1_14  and  O2_16 
REMARK    3  A    between atoms: O2_16  and  C13_17 
REMARK    4  A    between atoms: C13_17  and  C14_18 
REMARK       I    between atoms: C14_18  and  N2_20 
REMARK    5  A    between atoms: N2_20  and  C15_21 
REMARK    6  A    between atoms: C15_21  and  C16_22 
REMARK    7  A    between atoms: C15_21  and  C21_33 
REMARK       I    between atoms: C16_22  and  N3_24 
REMARK    8  A    between atoms: N3_24  and  C17_25 
REMARK    9  A    between atoms: C17_25  and  C18_26 
REMARK   10  A    between atoms: C17_25  and  C20_30 
REMARK   11  A    between atoms: C18_26  and  C19_27 
REMARK   12  A    between atoms: C19_27  and  O6_29 
REMARK   13  A    between atoms: C20_30  and  O8_32 
ROOT
HETATM    1  C1  UNL     1      -3.608  68.801 -42.879  1.00  0.00     0.015 C 
HETATM    2  C2  UNL     1      -2.481  69.157 -42.657  1.00  0.00    -0.078 C 
HETATM    3  C3  UNL     1      -1.095  69.605 -42.386  1.00  0.00     0.128 C 
HETATM    4  C4  UNL     1      -1.126  70.907 -41.572  1.00  0.00     0.052 C 
HETATM    5  C5  UNL     1      -0.933  70.497 -40.107  1.00  0.00     0.010 C 
HETATM    6  C6  UNL     1      -0.835  68.953 -40.080  1.00  0.00     0.002 C 
HETATM    7  C7  UNL     1      -0.073  68.315 -38.881  1.00  0.00    -0.004 C 
HETATM    8  C8  UNL     1      -0.157  69.208 -37.631  1.00  0.00     0.010 C 
HETATM    9  C9  UNL     1       0.489  68.569 -36.420  1.00  0.00     0.035 C 
HETATM   10  C10 UNL     1       1.939  68.270 -36.691  1.00  0.00    -0.069 C 
HETATM   11  C11 UNL     1       2.874  68.666 -35.810  1.00  0.00     0.030 C 
HETATM   12  C12 UNL     1       4.294  68.237 -35.919  1.00  0.00     0.032 C 
HETATM   13  N1  UNL     1       5.127  68.655 -35.011  1.00  0.00    -0.271 N 
ATOM     14  H1  UNL     1       4.878  69.290 -34.252  1.00  0.00     0.194 HD
HETATM   15  C24 UNL     1       4.655  67.279 -37.037  1.00  0.00     0.060 C 
HETATM   16  C25 UNL     1       3.764  67.524 -38.247  1.00  0.00     0.020 C 
HETATM   17  C26 UNL     1       2.243  67.447 -37.940  1.00  0.00    -0.016 C 
HETATM   18  C27 UNL     1       1.885  65.972 -37.601  1.00  0.00     0.020 C 
HETATM   19  C28 UNL     1       1.383  67.867 -39.211  1.00  0.00     0.002 C 
HETATM   20  C29 UNL     1       2.006  68.870 -40.192  1.00  0.00     0.007 C 
HETATM   21  C30 UNL     1       1.251  68.940 -41.535  1.00  0.00     0.014 C 
HETATM   22  C31 UNL     1      -0.276  68.624 -41.480  1.00  0.00     0.003 C 
HETATM   23  C32 UNL     1      -0.511  67.157 -41.896  1.00  0.00     0.020 C 
ENDROOT
BRANCH   3  24
HETATM   24  O1  UNL     1      -0.447  69.814 -43.633  1.00  0.00    -0.377 OA
HETATM   25  H2  UNL     1      -1.029  70.387 -44.161  1.00  0.00     0.211 HD
ENDBRANCH   3  24
BRANCH  13  26
HETATM   26  O2  UNL     1       6.409  68.124 -35.206  1.00  0.00    -0.271 OA
BRANCH  26  27
HETATM   27  C13 UNL     1       7.001  67.866 -33.938  1.00  0.00     0.303 C 
BRANCH  27  28
HETATM   28  C14 UNL     1       6.462  66.563 -33.354  1.00  0.00     0.244 C 
HETATM   29  O3  UNL     1       6.252  66.417 -32.152  1.00  0.00    -0.271 OA
HETATM   30  N2  UNL     1       6.276  65.552 -34.278  1.00  0.00    -0.346 N 
HETATM   31  H16 UNL     1       6.800  65.669 -35.141  1.00  0.00     0.163 HD
BRANCH  30  32
HETATM   32  C15 UNL     1       6.023  64.184 -33.847  1.00  0.00     0.180 C 
BRANCH  32  33
HETATM   33  C16 UNL     1       7.143  63.274 -34.405  1.00  0.00     0.241 C 
HETATM   34  O4  UNL     1       7.576  63.382 -35.552  1.00  0.00    -0.271 OA
HETATM   35  N3  UNL     1       7.568  62.293 -33.528  1.00  0.00    -0.344 N 
HETATM   36  H18 UNL     1       7.470  62.535 -32.548  1.00  0.00     0.163 HD
BRANCH  35  37
HETATM   37  C17 UNL     1       8.771  61.500 -33.840  1.00  0.00     0.192 C 
BRANCH  37  38
HETATM   38  C18 UNL     1       9.974  62.424 -33.956  1.00  0.00     0.146 C 
BRANCH  38  39
HETATM   39  C19 UNL     1      10.425  62.948 -32.624  1.00  0.00     0.141 C 
HETATM   40  O5  UNL     1      11.204  62.387 -31.873  1.00  0.00    -0.650 OA
BRANCH  39  41
HETATM   41  O6  UNL     1       9.949  64.171 -32.337  1.00  0.00    -0.776 OA
HETATM   42  H22 UNL     1      10.318  64.374 -31.450  1.00  0.00     0.167 HD
ENDBRANCH  39  41
ENDBRANCH  38  39
ENDBRANCH  37  38
BRANCH  37  43
HETATM   43  C20 UNL     1       8.570  60.761 -35.169  1.00  0.00     0.164 C 
HETATM   44  O7  UNL     1       7.900  59.755 -35.343  1.00  0.00    -0.648 OA
BRANCH  43  45
HETATM   45  O8  UNL     1       9.303  61.271 -36.187  1.00  0.00    -0.775 OA
HETATM   46  H23 UNL     1       9.054  60.724 -36.964  1.00  0.00     0.167 HD
ENDBRANCH  43  45
ENDBRANCH  37  43
ENDBRANCH  35  37
ENDBRANCH  32  33
BRANCH  32  47
HETATM   47  C21 UNL     1       4.627  63.675 -34.269  1.00  0.00     0.009 C 
HETATM   48  C22 UNL     1       4.058  62.714 -33.221  1.00  0.00     0.012 C 
HETATM   49  C23 UNL     1       3.623  64.801 -34.540  1.00  0.00     0.012 C 
ENDBRANCH  32  47
ENDBRANCH  30  32
ENDBRANCH  27  28
ENDBRANCH  26  27
ENDBRANCH  13  26
TORSDOF 13
ENDMDL
MODEL 9
REMARK minimizedAffinity -8.65244293
REMARK CNNscore 0.228190601
REMARK CNNaffinity 6.4664216
REMARK  13 active torsions:
REMARK  status: ('A' for Active; 'I' for Inactive)
REMARK    1  A    between atoms: C3_3  and  O1_4 
REMARK    2  A    between atoms: N1_14  and  O2_16 
REMARK    3  A    between atoms: O2_16  and  C13_17 
REMARK    4  A    between atoms: C13_17  and  C14_18 
REMARK       I    between atoms: C14_18  and  N2_20 
REMARK    5  A    between atoms: N2_20  and  C15_21 
REMARK    6  A    between atoms: C15_21  and  C16_22 
REMARK    7  A    between atoms: C15_21  and  C21_33 
REMARK       I    between atoms: C16_22  and  N3_24 
REMARK    8  A    between atoms: N3_24  and  C17_25 
REMARK    9  A    between atoms: C17_25  and  C18_26 
REMARK   10  A    between atoms: C17_25  and  C20_30 
REMARK   11  A    between atoms: C18_26  and  C19_27 
REMARK   12  A    between atoms: C19_27  and  O6_29 
REMARK   13  A    between atoms: C20_30  and  O8_32 
ROOT
HETATM    1  C1  UNL     1       1.819  51.940 -28.146  1.00  0.00     0.015 C 
HETATM    2  C2  UNL     1       0.902  52.398 -27.516  1.00  0.00    -0.078 C 
HETATM    3  C3  UNL     1      -0.229  52.967 -26.747  1.00  0.00     0.128 C 
HETATM    4  C4  UNL     1      -1.506  52.916 -27.598  1.00  0.00     0.052 C 
HETATM    5  C5  UNL     1      -2.263  51.658 -27.154  1.00  0.00     0.010 C 
HETATM    6  C6  UNL     1      -1.394  50.966 -26.077  1.00  0.00     0.002 C 
HETATM    7  C7  UNL     1      -2.131  50.048 -25.058  1.00  0.00    -0.004 C 
HETATM    8  C8  UNL     1      -3.405  49.445 -25.674  1.00  0.00     0.010 C 
HETATM    9  C9  UNL     1      -4.092  48.468 -24.742  1.00  0.00     0.035 C 
HETATM   10  C10 UNL     1      -4.467  49.146 -23.452  1.00  0.00    -0.069 C 
HETATM   11  C11 UNL     1      -5.720  49.025 -22.980  1.00  0.00     0.030 C 
HETATM   12  C12 UNL     1      -6.101  49.503 -21.624  1.00  0.00     0.032 C 
HETATM   13  N1  UNL     1      -7.334  49.329 -21.242  1.00  0.00    -0.271 N 
ATOM     14  H1  UNL     1      -8.064  48.923 -21.828  1.00  0.00     0.194 HD
HETATM   15  C24 UNL     1      -5.009  50.089 -20.751  1.00  0.00     0.060 C 
HETATM   16  C25 UNL     1      -3.962  50.781 -21.614  1.00  0.00     0.020 C 
HETATM   17  C26 UNL     1      -3.346  49.872 -22.714  1.00  0.00    -0.016 C 
HETATM   18  C27 UNL     1      -2.485  48.778 -22.021  1.00  0.00     0.020 C 
HETATM   19  C28 UNL     1      -2.383  50.705 -23.667  1.00  0.00     0.002 C 
HETATM   20  C29 UNL     1      -2.693  52.196 -23.865  1.00  0.00     0.007 C 
HETATM   21  C30 UNL     1      -1.526  52.968 -24.513  1.00  0.00     0.014 C 
HETATM   22  C31 UNL     1      -0.606  52.145 -25.468  1.00  0.00     0.003 C 
HETATM   23  C32 UNL     1       0.658  51.698 -24.703  1.00  0.00     0.020 C 
ENDROOT
BRANCH   3  24
HETATM   24  O1  UNL     1       0.095  54.311 -26.416  1.00  0.00    -0.377 OA
HETATM   25  H2  UNL     1       0.366  54.747 -27.242  1.00  0.00     0.211 HD
ENDBRANCH   3  24
BRANCH  13  26
HETATM   26  O2  UNL     1      -7.531  49.770 -19.928  1.00  0.00    -0.271 OA
BRANCH  26  27
HETATM   27  C13 UNL     1      -7.586  48.641 -19.064  1.00  0.00     0.303 C 
BRANCH  27  28
HETATM   28  C14 UNL     1      -9.031  48.194 -18.863  1.00  0.00     0.244 C 
HETATM   29  O3  UNL     1      -9.728  48.611 -17.941  1.00  0.00    -0.271 OA
HETATM   30  N2  UNL     1      -9.472  47.250 -19.771  1.00  0.00    -0.346 N 
HETATM   31  H16 UNL     1      -8.730  46.740 -20.242  1.00  0.00     0.163 HD
BRANCH  30  32
HETATM   32  C15 UNL     1     -10.724  46.536 -19.556  1.00  0.00     0.180 C 
BRANCH  32  33
HETATM   33  C16 UNL     1     -11.893  47.543 -19.670  1.00  0.00     0.241 C 
HETATM   34  O4  UNL     1     -11.742  48.755 -19.523  1.00  0.00    -0.271 OA
HETATM   35  N3  UNL     1     -13.127  46.959 -19.888  1.00  0.00    -0.344 N 
HETATM   36  H18 UNL     1     -13.091  46.073 -20.382  1.00  0.00     0.163 HD
BRANCH  35  37
HETATM   37  C17 UNL     1     -14.288  47.799 -20.234  1.00  0.00     0.192 C 
BRANCH  37  38
HETATM   38  C18 UNL     1     -15.353  47.663 -19.156  1.00  0.00     0.146 C 
BRANCH  38  39
HETATM   39  C19 UNL     1     -15.201  48.686 -18.069  1.00  0.00     0.141 C 
HETATM   40  O5  UNL     1     -15.977  49.601 -17.847  1.00  0.00    -0.650 OA
BRANCH  39  41
HETATM   41  O6  UNL     1     -14.143  48.470 -17.270  1.00  0.00    -0.776 OA
HETATM   42  H22 UNL     1     -14.170  49.209 -16.624  1.00  0.00     0.167 HD
ENDBRANCH  39  41
ENDBRANCH  38  39
ENDBRANCH  37  38
BRANCH  37  43
HETATM   43  C20 UNL     1     -14.869  47.345 -21.580  1.00  0.00     0.164 C 
HETATM   44  O7  UNL     1     -15.966  46.842 -21.761  1.00  0.00    -0.648 OA
BRANCH  43  45
HETATM   45  O8  UNL     1     -13.998  47.460 -22.610  1.00  0.00    -0.775 OA
HETATM   46  H23 UNL     1     -14.509  47.165 -23.395  1.00  0.00     0.167 HD
ENDBRANCH  43  45
ENDBRANCH  37  43
ENDBRANCH  35  37
ENDBRANCH  32  33
BRANCH  32  47
HETATM   47  C21 UNL     1     -10.760  45.790 -18.203  1.00  0.00     0.009 C 
HETATM   48  C22 UNL     1      -9.370  45.265 -17.833  1.00  0.00     0.012 C 
HETATM   49  C23 UNL     1     -11.317  46.638 -17.053  1.00  0.00     0.012 C 
ENDBRANCH  32  47
ENDBRANCH  30  32
ENDBRANCH  27  28
ENDBRANCH  26  27
ENDBRANCH  13  26
TORSDOF 13
ENDMDL
