MODEL 1
REMARK minimizedAffinity -8.86825752
REMARK  7 active torsions:
REMARK  status: ('A' for Active; 'I' for Inactive)
REMARK    1  A    between atoms: O1_2  and  C2_3 
REMARK    2  A    between atoms: C2_3  and  C3_4 
REMARK       I    between atoms: C3_4  and  N1_6 
REMARK    3  A    between atoms: N1_6  and  C4_7 
REMARK    4  A    between atoms: C7_10  and  C8_11 
REMARK    5  A    between atoms: C9_15  and  C10_16 
REMARK    6  A    between atoms: N3_20  and  C14_21 
REMARK    7  A    between atoms: C14_21  and  C15_22 
ROOT
HETATM    1  C15 UNL     1      -5.788   3.955  12.716  1.00  0.00    -0.029 A 
HETATM    2  C16 UNL     1      -6.774   3.011  12.385  1.00  0.00     0.009 A 
HETATM    3  C17 UNL     1      -6.433   1.808  11.770  1.00  0.00     0.002 A 
HETATM    4  C18 UNL     1      -5.100   1.538  11.464  1.00  0.00     0.022 A 
HETATM    5  C19 UNL     1      -4.107   2.472  11.770  1.00  0.00     0.045 A 
HETATM    6  C20 UNL     1      -2.736   2.195  11.443  1.00  0.00     0.099 C 
HETATM    7  N4  UNL     1      -1.627   1.974  11.177  1.00  0.00    -0.191 NA
HETATM    8  C21 UNL     1      -4.450   3.678  12.395  1.00  0.00     0.031 A 
ENDROOT
BRANCH   1   9
HETATM    9  C14 UNL     1      -6.163   5.274  13.364  1.00  0.00     0.312 C 
BRANCH   9  10
HETATM   10  N3  UNL     1      -5.003   5.997  13.904  1.00  0.00     0.105 N 
HETATM   11  C10 UNL     1      -4.828   7.336  13.287  1.00  0.00     0.299 C 
HETATM   12  C11 UNL     1      -5.731   8.261  14.103  1.00  0.00     0.046 C 
HETATM   13  C12 UNL     1      -5.876   7.593  15.463  1.00  0.00     0.033 C 
HETATM   14  C13 UNL     1      -5.149   6.264  15.343  1.00  0.00     0.274 C 
BRANCH  11  15
HETATM   15  C9  UNL     1      -3.388   7.757  13.331  1.00  0.00     0.182 A 
HETATM   16  O3  UNL     1      -3.141   9.004  13.822  1.00  0.00    -0.220 OA
HETATM   17  N2  UNL     1      -1.768   9.210  13.711  1.00  0.00    -0.242 N 
HETATM   18  C8  UNL     1      -1.316   8.074  13.159  1.00  0.00     0.139 A 
ATOM     19  H2  UNL     1      -1.232  10.034  13.984  1.00  0.00     0.196 HD
HETATM   20  N5  UNL     1      -2.300   7.139  12.926  1.00  0.00    -0.321 N 
ATOM     21  H5  UNL     1      -2.207   6.200  12.536  1.00  0.00     0.169 HD
BRANCH  18  22
HETATM   22  C7  UNL     1       0.072   7.836  12.809  1.00  0.00     0.025 A 
HETATM   23  C6  UNL     1       0.677   8.423  11.699  1.00  0.00     0.020 A 
HETATM   24  C5  UNL     1       2.010   8.130  11.391  1.00  0.00     0.050 A 
HETATM   25  C4  UNL     1       2.715   7.260  12.210  1.00  0.00     0.107 A 
HETATM   26  N6  UNL     1       2.159   6.685  13.296  1.00  0.00    -0.351 N 
HETATM   27  C22 UNL     1       0.861   6.980  13.567  1.00  0.00     0.105 A 
ATOM     28  H6  UNL     1       2.694   6.052  13.891  1.00  0.00     0.166 HD
BRANCH  25  29
HETATM   29  N1  UNL     1       4.033   6.876  11.996  1.00  0.00    -0.311 N 
HETATM   30  C3  UNL     1       4.651   6.529  10.817  1.00  0.00     0.246 C 
HETATM   31  O2  UNL     1       4.149   6.519   9.697  1.00  0.00    -0.271 OA
HETATM   32  H6  UNL     1       4.606   6.906  12.833  1.00  0.00     0.170 HD
BRANCH  30  33
HETATM   33  C2  UNL     1       6.094   6.070  11.046  1.00  0.00     0.270 C 
BRANCH  33  34
HETATM   34  O1  UNL     1       7.060   7.031  10.635  1.00  0.00    -0.387 OA
HETATM   35  C1  UNL     1       6.598   8.363  10.844  1.00  0.00     0.202 C 
ENDBRANCH  33  34
ENDBRANCH  30  33
ENDBRANCH  25  29
ENDBRANCH  18  22
ENDBRANCH  11  15
ENDBRANCH   9  10
ENDBRANCH   1   9
TORSDOF 7
ENDMDL
MODEL 2
REMARK minimizedAffinity -8.68732357
REMARK  7 active torsions:
REMARK  status: ('A' for Active; 'I' for Inactive)
REMARK    1  A    between atoms: O1_2  and  C2_3 
REMARK    2  A    between atoms: C2_3  and  C3_4 
REMARK       I    between atoms: C3_4  and  N1_6 
REMARK    3  A    between atoms: N1_6  and  C4_7 
REMARK    4  A    between atoms: C7_10  and  C8_11 
REMARK    5  A    between atoms: C9_15  and  C10_16 
REMARK    6  A    between atoms: N3_20  and  C14_21 
REMARK    7  A    between atoms: C14_21  and  C15_22 
ROOT
HETATM    1  C15 UNL     1      -3.538   5.057  13.014  1.00  0.00    -0.029 A 
HETATM    2  C16 UNL     1      -4.319   4.142  12.288  1.00  0.00     0.009 A 
HETATM    3  C17 UNL     1      -3.755   3.369  11.277  1.00  0.00     0.002 A 
HETATM    4  C18 UNL     1      -2.403   3.509  10.966  1.00  0.00     0.022 A 
HETATM    5  C19 UNL     1      -1.615   4.425  11.666  1.00  0.00     0.045 A 
HETATM    6  C20 UNL     1      -0.224   4.576  11.336  1.00  0.00     0.099 C 
HETATM    7  N4  UNL     1       0.899   4.700  11.069  1.00  0.00    -0.191 NA
HETATM    8  C21 UNL     1      -2.181   5.198  12.688  1.00  0.00     0.031 A 
ENDROOT
BRANCH   1   9
HETATM    9  C14 UNL     1      -4.159   5.916  14.100  1.00  0.00     0.312 C 
BRANCH   9  10
HETATM   10  N3  UNL     1      -5.479   6.444  13.728  1.00  0.00     0.105 N 
HETATM   11  C10 UNL     1      -6.442   6.416  14.857  1.00  0.00     0.299 C 
HETATM   12  C11 UNL     1      -6.184   7.716  15.620  1.00  0.00     0.046 C 
HETATM   13  C12 UNL     1      -5.579   8.672  14.602  1.00  0.00     0.033 C 
HETATM   14  C13 UNL     1      -5.408   7.858  13.331  1.00  0.00     0.274 C 
BRANCH  11  15
HETATM   15  C9  UNL     1      -7.852   6.320  14.350  1.00  0.00     0.182 A 
HETATM   16  O3  UNL     1      -8.159   5.203  13.634  1.00  0.00    -0.220 OA
HETATM   17  N2  UNL     1      -9.477   5.352  13.211  1.00  0.00    -0.242 N 
HETATM   18  C8  UNL     1      -9.841   6.544  13.706  1.00  0.00     0.139 A 
ATOM     19  H2  UNL     1     -10.035   4.705  12.654  1.00  0.00     0.196 HD
HETATM   20  N5  UNL     1      -8.855   7.167  14.438  1.00  0.00    -0.321 N 
ATOM     21  H5  UNL     1      -8.893   8.062  14.926  1.00  0.00     0.169 HD
BRANCH  18  22
HETATM   22  C7  UNL     1     -11.139   7.155  13.486  1.00  0.00     0.025 A 
HETATM   23  C6  UNL     1     -12.299   6.696  14.108  1.00  0.00     0.020 A 
HETATM   24  C5  UNL     1     -13.529   7.304  13.833  1.00  0.00     0.050 A 
HETATM   25  C4  UNL     1     -13.570   8.369  12.945  1.00  0.00     0.107 A 
HETATM   26  N6  UNL     1     -12.463   8.842  12.337  1.00  0.00    -0.351 N 
HETATM   27  C22 UNL     1     -11.283   8.228  12.616  1.00  0.00     0.105 A 
ATOM     28  H6  UNL     1     -12.510   9.630  11.692  1.00  0.00     0.166 HD
BRANCH  25  29
HETATM   29  N1  UNL     1     -14.730   9.038  12.577  1.00  0.00    -0.311 N 
HETATM   30  C3  UNL     1     -15.717   8.641  11.703  1.00  0.00     0.246 C 
HETATM   31  O2  UNL     1     -15.774   7.579  11.091  1.00  0.00    -0.271 OA
HETATM   32  H6  UNL     1     -14.864   9.918  13.065  1.00  0.00     0.170 HD
BRANCH  30  33
HETATM   33  C2  UNL     1     -16.774   9.732  11.506  1.00  0.00     0.270 C 
BRANCH  33  34
HETATM   34  O1  UNL     1     -17.441   9.645  10.252  1.00  0.00    -0.387 OA
HETATM   35  C1  UNL     1     -18.799   9.237  10.406  1.00  0.00     0.202 C 
ENDBRANCH  33  34
ENDBRANCH  30  33
ENDBRANCH  25  29
ENDBRANCH  18  22
ENDBRANCH  11  15
ENDBRANCH   9  10
ENDBRANCH   1   9
TORSDOF 7
ENDMDL
MODEL 3
REMARK minimizedAffinity -8.6829443
REMARK  7 active torsions:
REMARK  status: ('A' for Active; 'I' for Inactive)
REMARK    1  A    between atoms: O1_2  and  C2_3 
REMARK    2  A    between atoms: C2_3  and  C3_4 
REMARK       I    between atoms: C3_4  and  N1_6 
REMARK    3  A    between atoms: N1_6  and  C4_7 
REMARK    4  A    between atoms: C7_10  and  C8_11 
REMARK    5  A    between atoms: C9_15  and  C10_16 
REMARK    6  A    between atoms: N3_20  and  C14_21 
REMARK    7  A    between atoms: C14_21  and  C15_22 
ROOT
HETATM    1  C15 UNL     1       2.070   6.826   9.300  1.00  0.00    -0.029 A 
HETATM    2  C16 UNL     1       1.480   7.842   8.530  1.00  0.00     0.009 A 
HETATM    3  C17 UNL     1       1.480   7.774   7.139  1.00  0.00     0.002 A 
HETATM    4  C18 UNL     1       2.084   6.695   6.496  1.00  0.00     0.022 A 
HETATM    5  C19 UNL     1       2.690   5.683   7.245  1.00  0.00     0.045 A 
HETATM    6  C20 UNL     1       3.321   4.577   6.579  1.00  0.00     0.099 C 
HETATM    7  N4  UNL     1       3.834   3.684   6.042  1.00  0.00    -0.191 NA
HETATM    8  C21 UNL     1       2.683   5.749   8.644  1.00  0.00     0.031 A 
ENDROOT
BRANCH   1   9
HETATM    9  C14 UNL     1       2.090   6.913  10.815  1.00  0.00     0.312 C 
BRANCH   9  10
HETATM   10  N3  UNL     1       0.757   6.760  11.415  1.00  0.00     0.105 N 
HETATM   11  C10 UNL     1       0.689   5.625  12.369  1.00  0.00     0.299 C 
HETATM   12  C11 UNL     1       1.174   6.206  13.698  1.00  0.00     0.046 C 
HETATM   13  C12 UNL     1       0.900   7.701  13.613  1.00  0.00     0.033 C 
HETATM   14  C13 UNL     1       0.377   7.939  12.207  1.00  0.00     0.274 C 
BRANCH  11  15
HETATM   15  C9  UNL     1      -0.710   5.087  12.456  1.00  0.00     0.182 A 
HETATM   16  O3  UNL     1      -0.908   3.840  11.945  1.00  0.00    -0.220 OA
HETATM   17  N2  UNL     1      -2.268   3.571  12.067  1.00  0.00    -0.242 N 
HETATM   18  C8  UNL     1      -2.765   4.680  12.635  1.00  0.00     0.139 A 
ATOM     19  H2  UNL     1      -2.770   2.728  11.789  1.00  0.00     0.196 HD
HETATM   20  N5  UNL     1      -1.816   5.640  12.907  1.00  0.00    -0.321 N 
ATOM     21  H5  UNL     1      -1.939   6.552  13.349  1.00  0.00     0.169 HD
BRANCH  18  22
HETATM   22  C7  UNL     1      -4.173   4.887  12.924  1.00  0.00     0.025 A 
HETATM   23  C6  UNL     1      -5.144   3.925  12.649  1.00  0.00     0.020 A 
HETATM   24  C5  UNL     1      -6.490   4.193  12.919  1.00  0.00     0.050 A 
HETATM   25  C4  UNL     1      -6.836   5.417  13.472  1.00  0.00     0.107 A 
HETATM   26  N6  UNL     1      -5.918   6.362  13.759  1.00  0.00    -0.351 N 
HETATM   27  C22 UNL     1      -4.618   6.080  13.478  1.00  0.00     0.105 A 
ATOM     28  H6  UNL     1      -6.188   7.255  14.171  1.00  0.00     0.166 HD
BRANCH  25  29
HETATM   29  N1  UNL     1      -8.137   5.806  13.764  1.00  0.00    -0.311 N 
HETATM   30  C3  UNL     1      -9.159   6.125  12.900  1.00  0.00     0.246 C 
HETATM   31  O2  UNL     1      -9.122   6.097  11.673  1.00  0.00    -0.271 OA
HETATM   32  H6  UNL     1      -8.348   5.805  14.757  1.00  0.00     0.170 HD
BRANCH  30  33
HETATM   33  C2  UNL     1     -10.408   6.602  13.647  1.00  0.00     0.270 C 
BRANCH  33  34
HETATM   34  O1  UNL     1     -10.608   8.009  13.562  1.00  0.00    -0.387 OA
HETATM   35  C1  UNL     1     -11.695   8.334  12.698  1.00  0.00     0.202 C 
ENDBRANCH  33  34
ENDBRANCH  30  33
ENDBRANCH  25  29
ENDBRANCH  18  22
ENDBRANCH  11  15
ENDBRANCH   9  10
ENDBRANCH   1   9
TORSDOF 7
ENDMDL
MODEL 4
REMARK minimizedAffinity -8.66224861
REMARK  7 active torsions:
REMARK  status: ('A' for Active; 'I' for Inactive)
REMARK    1  A    between atoms: O1_2  and  C2_3 
REMARK    2  A    between atoms: C2_3  and  C3_4 
REMARK       I    between atoms: C3_4  and  N1_6 
REMARK    3  A    between atoms: N1_6  and  C4_7 
REMARK    4  A    between atoms: C7_10  and  C8_11 
REMARK    5  A    between atoms: C9_15  and  C10_16 
REMARK    6  A    between atoms: N3_20  and  C14_21 
REMARK    7  A    between atoms: C14_21  and  C15_22 
ROOT
HETATM    1  C15 UNL     1      -4.749   4.379  13.070  1.00  0.00    -0.029 A 
HETATM    2  C16 UNL     1      -5.863   3.660  12.606  1.00  0.00     0.009 A 
HETATM    3  C17 UNL     1      -5.704   2.569  11.755  1.00  0.00     0.002 A 
HETATM    4  C18 UNL     1      -4.428   2.187  11.344  1.00  0.00     0.022 A 
HETATM    5  C19 UNL     1      -3.309   2.900  11.783  1.00  0.00     0.045 A 
HETATM    6  C20 UNL     1      -1.996   2.512  11.348  1.00  0.00     0.099 C 
HETATM    7  N4  UNL     1      -0.933   2.200  10.997  1.00  0.00    -0.191 NA
HETATM    8  C21 UNL     1      -3.469   3.993  12.644  1.00  0.00     0.031 A 
ENDROOT
BRANCH   1   9
HETATM    9  C14 UNL     1      -4.925   5.582  13.978  1.00  0.00     0.312 C 
BRANCH   9  10
HETATM   10  N3  UNL     1      -6.109   6.384  13.643  1.00  0.00     0.105 N 
HETATM   11  C10 UNL     1      -7.291   6.026  14.467  1.00  0.00     0.299 C 
HETATM   12  C11 UNL     1      -7.141   6.858  15.742  1.00  0.00     0.046 C 
HETATM   13  C12 UNL     1      -6.289   8.057  15.347  1.00  0.00     0.033 C 
HETATM   14  C13 UNL     1      -5.890   7.814  13.901  1.00  0.00     0.274 C 
BRANCH  11  15
HETATM   15  C9  UNL     1      -8.564   6.331  13.732  1.00  0.00     0.182 A 
HETATM   16  O3  UNL     1      -8.600   5.974  12.418  1.00  0.00    -0.220 OA
HETATM   17  N2  UNL     1      -9.827   6.404  11.922  1.00  0.00    -0.242 N 
HETATM   18  C8  UNL     1     -10.415   6.984  12.979  1.00  0.00     0.139 A 
ATOM     19  H2  UNL     1     -10.194   6.303  10.976  1.00  0.00     0.196 HD
HETATM   20  N5  UNL     1      -9.660   6.940  14.130  1.00  0.00    -0.321 N 
ATOM     21  H5  UNL     1      -9.893   7.291  15.059  1.00  0.00     0.169 HD
BRANCH  18  22
HETATM   22  C7  UNL     1     -11.716   7.627  12.936  1.00  0.00     0.025 A 
HETATM   23  C6  UNL     1     -12.871   7.015  13.421  1.00  0.00     0.020 A 
HETATM   24  C5  UNL     1     -14.104   7.670  13.323  1.00  0.00     0.050 A 
HETATM   25  C4  UNL     1     -14.153   8.932  12.750  1.00  0.00     0.107 A 
HETATM   26  N6  UNL     1     -13.051   9.553  12.282  1.00  0.00    -0.351 N 
HETATM   27  C22 UNL     1     -11.868   8.891  12.382  1.00  0.00     0.105 A 
ATOM     28  H6  UNL     1     -13.103  10.484  11.869  1.00  0.00     0.166 HD
BRANCH  25  29
HETATM   29  N1  UNL     1     -15.317   9.670  12.578  1.00  0.00    -0.311 N 
HETATM   30  C3  UNL     1     -16.259   9.579  11.579  1.00  0.00     0.246 C 
HETATM   31  O2  UNL     1     -16.264   8.787  10.642  1.00  0.00    -0.271 OA
HETATM   32  H6  UNL     1     -15.494  10.330  13.329  1.00  0.00     0.170 HD
BRANCH  30  33
HETATM   33  C2  UNL     1     -17.338  10.658  11.715  1.00  0.00     0.270 C 
BRANCH  33  34
HETATM   34  O1  UNL     1     -17.637  11.310  10.486  1.00  0.00    -0.387 OA
HETATM   35  C1  UNL     1     -18.935  10.962  10.009  1.00  0.00     0.202 C 
ENDBRANCH  33  34
ENDBRANCH  30  33
ENDBRANCH  25  29
ENDBRANCH  18  22
ENDBRANCH  11  15
ENDBRANCH   9  10
ENDBRANCH   1   9
TORSDOF 7
ENDMDL
MODEL 5
REMARK minimizedAffinity -8.53878689
REMARK  7 active torsions:
REMARK  status: ('A' for Active; 'I' for Inactive)
REMARK    1  A    between atoms: O1_2  and  C2_3 
REMARK    2  A    between atoms: C2_3  and  C3_4 
REMARK       I    between atoms: C3_4  and  N1_6 
REMARK    3  A    between atoms: N1_6  and  C4_7 
REMARK    4  A    between atoms: C7_10  and  C8_11 
REMARK    5  A    between atoms: C9_15  and  C10_16 
REMARK    6  A    between atoms: N3_20  and  C14_21 
REMARK    7  A    between atoms: C14_21  and  C15_22 
ROOT
HETATM    1  C15 UNL     1      -3.769   4.905  13.062  1.00  0.00    -0.029 A 
HETATM    2  C16 UNL     1      -2.450   4.811  12.588  1.00  0.00     0.009 A 
HETATM    3  C17 UNL     1      -2.071   3.779  11.733  1.00  0.00     0.002 A 
HETATM    4  C18 UNL     1      -3.004   2.817  11.349  1.00  0.00     0.022 A 
HETATM    5  C19 UNL     1      -4.317   2.885  11.823  1.00  0.00     0.045 A 
HETATM    6  C20 UNL     1      -5.272   1.885  11.435  1.00  0.00     0.099 C 
HETATM    7  N4  UNL     1      -6.046   1.076  11.124  1.00  0.00    -0.191 NA
HETATM    8  C21 UNL     1      -4.698   3.927  12.678  1.00  0.00     0.031 A 
ENDROOT
BRANCH   1   9
HETATM    9  C14 UNL     1      -4.175   6.017  14.012  1.00  0.00     0.312 C 
BRANCH   9  10
HETATM   10  N3  UNL     1      -5.466   6.626  13.663  1.00  0.00     0.105 N 
HETATM   11  C10 UNL     1      -6.518   6.349  14.673  1.00  0.00     0.299 C 
HETATM   12  C11 UNL     1      -6.338   7.438  15.730  1.00  0.00     0.046 C 
HETATM   13  C12 UNL     1      -5.661   8.597  15.010  1.00  0.00     0.033 C 
HETATM   14  C13 UNL     1      -5.378   8.093  13.606  1.00  0.00     0.274 C 
BRANCH  11  15
HETATM   15  C9  UNL     1      -7.881   6.383  14.043  1.00  0.00     0.182 A 
HETATM   16  O3  UNL     1      -8.006   5.743  12.847  1.00  0.00    -0.220 OA
HETATM   17  N2  UNL     1      -9.314   5.955  12.418  1.00  0.00    -0.242 N 
HETATM   18  C8  UNL     1      -9.853   6.705  13.390  1.00  0.00     0.139 A 
ATOM     19  H2  UNL     1      -9.758   5.618  11.563  1.00  0.00     0.196 HD
HETATM   20  N5  UNL     1      -8.990   6.976  14.429  1.00  0.00    -0.321 N 
ATOM     21  H5  UNL     1      -9.167   7.503  15.284  1.00  0.00     0.169 HD
BRANCH  18  22
HETATM   22  C7  UNL     1     -11.211   7.218  13.365  1.00  0.00     0.025 A 
HETATM   23  C6  UNL     1     -12.226   6.692  14.162  1.00  0.00     0.020 A 
HETATM   24  C5  UNL     1     -13.524   7.205  14.071  1.00  0.00     0.050 A 
HETATM   25  C4  UNL     1     -13.778   8.245  13.188  1.00  0.00     0.107 A 
HETATM   26  N6  UNL     1     -12.813   8.782  12.413  1.00  0.00    -0.351 N 
HETATM   27  C22 UNL     1     -11.563   8.258  12.515  1.00  0.00     0.105 A 
ATOM     28  H6  UNL     1     -13.015   9.550  11.774  1.00  0.00     0.166 HD
BRANCH  25  29
HETATM   29  N1  UNL     1     -15.026   8.822  12.994  1.00  0.00    -0.311 N 
HETATM   30  C3  UNL     1     -15.914   8.635  11.960  1.00  0.00     0.246 C 
HETATM   31  O2  UNL     1     -15.779   7.879  11.002  1.00  0.00    -0.271 OA
HETATM   32  H6  UNL     1     -15.316   9.428  13.755  1.00  0.00     0.170 HD
BRANCH  30  33
HETATM   33  C2  UNL     1     -17.135   9.550  12.085  1.00  0.00     0.270 C 
BRANCH  33  34
HETATM   34  O1  UNL     1     -17.123  10.630  11.158  1.00  0.00    -0.387 OA
HETATM   35  C1  UNL     1     -16.808  11.866  11.795  1.00  0.00     0.202 C 
ENDBRANCH  33  34
ENDBRANCH  30  33
ENDBRANCH  25  29
ENDBRANCH  18  22
ENDBRANCH  11  15
ENDBRANCH   9  10
ENDBRANCH   1   9
TORSDOF 7
ENDMDL
MODEL 6
REMARK minimizedAffinity -8.50684452
REMARK  7 active torsions:
REMARK  status: ('A' for Active; 'I' for Inactive)
REMARK    1  A    between atoms: O1_2  and  C2_3 
REMARK    2  A    between atoms: C2_3  and  C3_4 
REMARK       I    between atoms: C3_4  and  N1_6 
REMARK    3  A    between atoms: N1_6  and  C4_7 
REMARK    4  A    between atoms: C7_10  and  C8_11 
REMARK    5  A    between atoms: C9_15  and  C10_16 
REMARK    6  A    between atoms: N3_20  and  C14_21 
REMARK    7  A    between atoms: C14_21  and  C15_22 
ROOT
HETATM    1  C15 UNL     1       2.403   6.374  10.028  1.00  0.00    -0.029 A 
HETATM    2  C16 UNL     1       1.843   6.569   8.754  1.00  0.00     0.009 A 
HETATM    3  C17 UNL     1       2.318   7.571   7.912  1.00  0.00     0.002 A 
HETATM    4  C18 UNL     1       3.351   8.405   8.337  1.00  0.00     0.022 A 
HETATM    5  C19 UNL     1       3.909   8.237   9.607  1.00  0.00     0.045 A 
HETATM    6  C20 UNL     1       4.966   9.105  10.047  1.00  0.00     0.099 C 
HETATM    7  N4  UNL     1       5.820   9.807  10.405  1.00  0.00    -0.191 NA
HETATM    8  C21 UNL     1       3.435   7.224  10.450  1.00  0.00     0.031 A 
ENDROOT
BRANCH   1   9
HETATM    9  C14 UNL     1       1.869   5.297  10.953  1.00  0.00     0.312 C 
BRANCH   9  10
HETATM   10  N3  UNL     1       0.437   5.451  11.245  1.00  0.00     0.105 N 
HETATM   11  C10 UNL     1       0.025   4.727  12.474  1.00  0.00     0.299 C 
HETATM   12  C11 UNL     1       0.320   5.701  13.616  1.00  0.00     0.046 C 
HETATM   13  C12 UNL     1       0.282   7.087  12.988  1.00  0.00     0.033 C 
HETATM   14  C13 UNL     1       0.081   6.855  11.500  1.00  0.00     0.274 C 
BRANCH  11  15
HETATM   15  C9  UNL     1      -1.426   4.347  12.406  1.00  0.00     0.182 A 
HETATM   16  O3  UNL     1      -1.727   3.256  11.647  1.00  0.00    -0.220 OA
HETATM   17  N2  UNL     1      -3.113   3.128  11.670  1.00  0.00    -0.242 N 
HETATM   18  C8  UNL     1      -3.519   4.153  12.433  1.00  0.00     0.139 A 
ATOM     19  H2  UNL     1      -3.686   2.419  11.211  1.00  0.00     0.196 HD
HETATM   20  N5  UNL     1      -2.489   4.924  12.924  1.00  0.00    -0.321 N 
ATOM     21  H5  UNL     1      -2.538   5.738  13.537  1.00  0.00     0.169 HD
BRANCH  18  22
HETATM   22  C7  UNL     1      -4.910   4.458  12.714  1.00  0.00     0.025 A 
HETATM   23  C6  UNL     1      -5.954   3.615  12.337  1.00  0.00     0.020 A 
HETATM   24  C5  UNL     1      -7.278   3.978  12.605  1.00  0.00     0.050 A 
HETATM   25  C4  UNL     1      -7.531   5.176  13.256  1.00  0.00     0.107 A 
HETATM   26  N6  UNL     1      -6.541   6.007  13.643  1.00  0.00    -0.351 N 
HETATM   27  C22 UNL     1      -5.264   5.634  13.362  1.00  0.00     0.105 A 
ATOM     28  H6  UNL     1      -6.743   6.881  14.127  1.00  0.00     0.166 HD
BRANCH  25  29
HETATM   29  N1  UNL     1      -8.800   5.653  13.557  1.00  0.00    -0.311 N 
HETATM   30  C3  UNL     1      -9.155   6.790  14.247  1.00  0.00     0.246 C 
HETATM   31  O2  UNL     1      -8.398   7.636  14.712  1.00  0.00    -0.271 OA
HETATM   32  H6  UNL     1      -9.549   5.089  13.168  1.00  0.00     0.170 HD
BRANCH  30  33
HETATM   33  C2  UNL     1     -10.671   6.884  14.444  1.00  0.00     0.270 C 
BRANCH  33  34
HETATM   34  O1  UNL     1     -11.299   7.787  13.541  1.00  0.00    -0.387 OA
HETATM   35  C1  UNL     1     -12.577   7.311  13.125  1.00  0.00     0.202 C 
ENDBRANCH  33  34
ENDBRANCH  30  33
ENDBRANCH  25  29
ENDBRANCH  18  22
ENDBRANCH  11  15
ENDBRANCH   9  10
ENDBRANCH   1   9
TORSDOF 7
ENDMDL
MODEL 7
REMARK minimizedAffinity -8.40682125
REMARK  7 active torsions:
REMARK  status: ('A' for Active; 'I' for Inactive)
REMARK    1  A    between atoms: O1_2  and  C2_3 
REMARK    2  A    between atoms: C2_3  and  C3_4 
REMARK       I    between atoms: C3_4  and  N1_6 
REMARK    3  A    between atoms: N1_6  and  C4_7 
REMARK    4  A    between atoms: C7_10  and  C8_11 
REMARK    5  A    between atoms: C9_15  and  C10_16 
REMARK    6  A    between atoms: N3_20  and  C14_21 
REMARK    7  A    between atoms: C14_21  and  C15_22 
ROOT
HETATM    1  C15 UNL     1      -4.948   6.684  14.169  1.00  0.00    -0.029 A 
HETATM    2  C16 UNL     1      -5.435   7.569  15.145  1.00  0.00     0.009 A 
HETATM    3  C17 UNL     1      -4.939   8.867  15.244  1.00  0.00     0.002 A 
HETATM    4  C18 UNL     1      -3.936   9.295  14.376  1.00  0.00     0.022 A 
HETATM    5  C19 UNL     1      -3.428   8.424  13.408  1.00  0.00     0.045 A 
HETATM    6  C20 UNL     1      -2.386   8.865  12.522  1.00  0.00     0.099 C 
HETATM    7  N4  UNL     1      -1.542   9.219  11.806  1.00  0.00    -0.191 NA
HETATM    8  C21 UNL     1      -3.932   7.122  13.306  1.00  0.00     0.031 A 
ENDROOT
BRANCH   1   9
HETATM    9  C14 UNL     1      -5.473   5.264  14.078  1.00  0.00     0.312 C 
BRANCH   9  10
HETATM   10  N3  UNL     1      -6.927   5.177  14.272  1.00  0.00     0.105 N 
HETATM   11  C10 UNL     1      -7.689   5.775  13.148  1.00  0.00     0.299 C 
HETATM   12  C11 UNL     1      -7.803   4.652  12.116  1.00  0.00     0.046 C 
HETATM   13  C12 UNL     1      -7.678   3.357  12.908  1.00  0.00     0.033 C 
HETATM   14  C13 UNL     1      -7.386   3.782  14.337  1.00  0.00     0.274 C 
BRANCH  11  15
HETATM   15  C9  UNL     1      -9.031   6.262  13.614  1.00  0.00     0.182 A 
HETATM   16  O3  UNL     1      -9.126   6.591  14.933  1.00  0.00    -0.220 OA
HETATM   17  N2  UNL     1     -10.453   6.946  15.159  1.00  0.00    -0.242 N 
HETATM   18  C8  UNL     1     -11.035   6.794  13.961  1.00  0.00     0.139 A 
ATOM     19  H2  UNL     1     -10.882   7.250  16.033  1.00  0.00     0.196 HD
HETATM   20  N5  UNL     1     -10.171   6.384  12.969  1.00  0.00    -0.321 N 
ATOM     21  H5  UNL     1     -10.366   6.218  11.982  1.00  0.00     0.169 HD
BRANCH  18  22
HETATM   22  C7  UNL     1     -12.448   7.011  13.708  1.00  0.00     0.025 A 
HETATM   23  C6  UNL     1     -13.437   6.160  14.200  1.00  0.00     0.020 A 
HETATM   24  C5  UNL     1     -14.781   6.400  13.897  1.00  0.00     0.050 A 
HETATM   25  C4  UNL     1     -15.110   7.497  13.114  1.00  0.00     0.107 A 
HETATM   26  N6  UNL     1     -14.176   8.344  12.633  1.00  0.00    -0.351 N 
HETATM   27  C22 UNL     1     -12.877   8.082  12.936  1.00  0.00     0.105 A 
ATOM     28  H6  UNL     1     -14.435   9.149  12.064  1.00  0.00     0.166 HD
BRANCH  25  29
HETATM   29  N1  UNL     1     -16.403   7.827  12.729  1.00  0.00    -0.311 N 
HETATM   30  C3  UNL     1     -16.830   8.457  11.583  1.00  0.00     0.246 C 
HETATM   31  O2  UNL     1     -16.132   8.832  10.645  1.00  0.00    -0.271 OA
HETATM   32  H6  UNL     1     -17.114   7.510  13.381  1.00  0.00     0.170 HD
BRANCH  30  33
HETATM   33  C2  UNL     1     -18.339   8.719  11.606  1.00  0.00     0.270 C 
BRANCH  33  34
HETATM   34  O1  UNL     1     -18.975   8.446  10.363  1.00  0.00    -0.387 OA
HETATM   35  C1  UNL     1     -19.142   9.629   9.586  1.00  0.00     0.202 C 
ENDBRANCH  33  34
ENDBRANCH  30  33
ENDBRANCH  25  29
ENDBRANCH  18  22
ENDBRANCH  11  15
ENDBRANCH   9  10
ENDBRANCH   1   9
TORSDOF 7
ENDMDL
MODEL 8
REMARK minimizedAffinity -8.39284229
REMARK  7 active torsions:
REMARK  status: ('A' for Active; 'I' for Inactive)
REMARK    1  A    between atoms: O1_2  and  C2_3 
REMARK    2  A    between atoms: C2_3  and  C3_4 
REMARK       I    between atoms: C3_4  and  N1_6 
REMARK    3  A    between atoms: N1_6  and  C4_7 
REMARK    4  A    between atoms: C7_10  and  C8_11 
REMARK    5  A    between atoms: C9_15  and  C10_16 
REMARK    6  A    between atoms: N3_20  and  C14_21 
REMARK    7  A    between atoms: C14_21  and  C15_22 
ROOT
HETATM    1  C15 UNL     1      -7.095   5.882  14.508  1.00  0.00    -0.029 A 
HETATM    2  C16 UNL     1      -6.877   4.624  13.923  1.00  0.00     0.009 A 
HETATM    3  C17 UNL     1      -7.768   4.110  12.984  1.00  0.00     0.002 A 
HETATM    4  C18 UNL     1      -8.900   4.840  12.627  1.00  0.00     0.022 A 
HETATM    5  C19 UNL     1      -9.143   6.086  13.211  1.00  0.00     0.045 A 
HETATM    6  C20 UNL     1     -10.317   6.832  12.850  1.00  0.00     0.099 C 
HETATM    7  N4  UNL     1     -11.266   7.435  12.561  1.00  0.00    -0.191 NA
HETATM    8  C21 UNL     1      -8.242   6.606  14.150  1.00  0.00     0.031 A 
ENDROOT
BRANCH   1   9
HETATM    9  C14 UNL     1      -6.136   6.431  15.548  1.00  0.00     0.312 C 
BRANCH   9  10
HETATM   10  N3  UNL     1      -4.777   6.631  15.025  1.00  0.00     0.105 N 
HETATM   11  C10 UNL     1      -4.759   6.850  13.557  1.00  0.00     0.299 C 
HETATM   12  C11 UNL     1      -4.999   8.350  13.385  1.00  0.00     0.046 C 
HETATM   13  C12 UNL     1      -4.531   8.989  14.686  1.00  0.00     0.033 C 
HETATM   14  C13 UNL     1      -4.146   7.832  15.592  1.00  0.00     0.274 C 
BRANCH  11  15
HETATM   15  C9  UNL     1      -3.448   6.410  12.971  1.00  0.00     0.182 A 
HETATM   16  O3  UNL     1      -3.411   5.147  12.461  1.00  0.00    -0.220 OA
HETATM   17  N2  UNL     1      -2.103   4.927  12.039  1.00  0.00    -0.242 N 
HETATM   18  C8  UNL     1      -1.472   6.073  12.336  1.00  0.00     0.139 A 
ATOM     19  H2  UNL     1      -1.714   4.090  11.605  1.00  0.00     0.196 HD
HETATM   20  N5  UNL     1      -2.288   7.027  12.903  1.00  0.00    -0.321 N 
ATOM     21  H5  UNL     1      -2.052   7.975  13.197  1.00  0.00     0.169 HD
BRANCH  18  22
HETATM   22  C7  UNL     1      -0.057   6.305  12.114  1.00  0.00     0.025 A 
HETATM   23  C6  UNL     1       0.464   6.613  10.858  1.00  0.00     0.020 A 
HETATM   24  C5  UNL     1       1.842   6.794  10.697  1.00  0.00     0.050 A 
HETATM   25  C4  UNL     1       2.672   6.673  11.803  1.00  0.00     0.107 A 
HETATM   26  N6  UNL     1       2.195   6.387  13.032  1.00  0.00    -0.351 N 
HETATM   27  C22 UNL     1       0.854   6.208  13.158  1.00  0.00     0.105 A 
ATOM     28  H6  UNL     1       2.818   6.308  13.835  1.00  0.00     0.166 HD
BRANCH  25  29
HETATM   29  N1  UNL     1       4.054   6.809  11.765  1.00  0.00    -0.311 N 
HETATM   30  C3  UNL     1       4.955   6.232  10.900  1.00  0.00     0.246 C 
HETATM   31  O2  UNL     1       4.700   5.492   9.955  1.00  0.00    -0.271 OA
HETATM   32  H6  UNL     1       4.417   7.461  12.453  1.00  0.00     0.170 HD
BRANCH  30  33
HETATM   33  C2  UNL     1       6.401   6.570  11.278  1.00  0.00     0.270 C 
BRANCH  33  34
HETATM   34  O1  UNL     1       6.996   7.531  10.415  1.00  0.00    -0.387 OA
HETATM   35  C1  UNL     1       6.654   8.862  10.795  1.00  0.00     0.202 C 
ENDBRANCH  33  34
ENDBRANCH  30  33
ENDBRANCH  25  29
ENDBRANCH  18  22
ENDBRANCH  11  15
ENDBRANCH   9  10
ENDBRANCH   1   9
TORSDOF 7
ENDMDL
MODEL 9
REMARK minimizedAffinity -8.34825802
REMARK  7 active torsions:
REMARK  status: ('A' for Active; 'I' for Inactive)
REMARK    1  A    between atoms: O1_2  and  C2_3 
REMARK    2  A    between atoms: C2_3  and  C3_4 
REMARK       I    between atoms: C3_4  and  N1_6 
REMARK    3  A    between atoms: N1_6  and  C4_7 
REMARK    4  A    between atoms: C7_10  and  C8_11 
REMARK    5  A    between atoms: C9_15  and  C10_16 
REMARK    6  A    between atoms: N3_20  and  C14_21 
REMARK    7  A    between atoms: C14_21  and  C15_22 
ROOT
HETATM    1  C15 UNL     1      -6.659   3.470  13.309  1.00  0.00    -0.029 A 
HETATM    2  C16 UNL     1      -7.315   2.436  12.621  1.00  0.00     0.009 A 
HETATM    3  C17 UNL     1      -6.715   1.813  11.529  1.00  0.00     0.002 A 
HETATM    4  C18 UNL     1      -5.455   2.225  11.099  1.00  0.00     0.022 A 
HETATM    5  C19 UNL     1      -4.794   3.263  11.761  1.00  0.00     0.045 A 
HETATM    6  C20 UNL     1      -3.500   3.693  11.309  1.00  0.00     0.099 C 
HETATM    7  N4  UNL     1      -2.454   4.043  10.943  1.00  0.00    -0.191 NA
HETATM    8  C21 UNL     1      -5.395   3.884  12.863  1.00  0.00     0.031 A 
ENDROOT
BRANCH   1   9
HETATM    9  C14 UNL     1      -7.323   4.164  14.483  1.00  0.00     0.312 C 
BRANCH   9  10
HETATM   10  N3  UNL     1      -7.676   5.562  14.198  1.00  0.00     0.105 N 
HETATM   11  C10 UNL     1      -8.216   6.267  15.387  1.00  0.00     0.299 C 
HETATM   12  C11 UNL     1      -6.980   6.776  16.131  1.00  0.00     0.046 C 
HETATM   13  C12 UNL     1      -5.890   6.895  15.075  1.00  0.00     0.033 C 
HETATM   14  C13 UNL     1      -6.501   6.349  13.796  1.00  0.00     0.274 C 
BRANCH  11  15
HETATM   15  C9  UNL     1      -9.133   7.381  14.973  1.00  0.00     0.182 A 
HETATM   16  O3  UNL     1      -8.748   8.640  15.326  1.00  0.00    -0.220 OA
HETATM   17  N2  UNL     1      -9.762   9.497  14.908  1.00  0.00    -0.242 N 
HETATM   18  C8  UNL     1     -10.665   8.678  14.348  1.00  0.00     0.139 A 
ATOM     19  H2  UNL     1      -9.808  10.512  15.006  1.00  0.00     0.196 HD
HETATM   20  N5  UNL     1     -10.295   7.352  14.356  1.00  0.00    -0.321 N 
ATOM     21  H5  UNL     1     -10.796   6.548  13.978  1.00  0.00     0.169 HD
BRANCH  18  22
HETATM   22  C7  UNL     1     -11.934   9.120  13.798  1.00  0.00     0.025 A 
HETATM   23  C6  UNL     1     -12.477  10.373  14.077  1.00  0.00     0.020 A 
HETATM   24  C5  UNL     1     -13.720  10.731  13.544  1.00  0.00     0.050 A 
HETATM   25  C4  UNL     1     -14.391   9.829  12.732  1.00  0.00     0.107 A 
HETATM   26  N6  UNL     1     -13.886   8.614  12.436  1.00  0.00    -0.351 N 
HETATM   27  C22 UNL     1     -12.681   8.288  12.974  1.00  0.00     0.105 A 
ATOM     28  H6  UNL     1     -14.389   7.964  11.833  1.00  0.00     0.166 HD
BRANCH  25  29
HETATM   29  N1  UNL     1     -15.637  10.061  12.165  1.00  0.00    -0.311 N 
HETATM   30  C3  UNL     1     -16.368   9.254  11.324  1.00  0.00     0.246 C 
HETATM   31  O2  UNL     1     -16.062   8.132  10.929  1.00  0.00    -0.271 OA
HETATM   32  H6  UNL     1     -16.063  10.934  12.461  1.00  0.00     0.170 HD
BRANCH  30  33
HETATM   33  C2  UNL     1     -17.650   9.942  10.847  1.00  0.00     0.270 C 
BRANCH  33  34
HETATM   34  O1  UNL     1     -18.405   9.152   9.935  1.00  0.00    -0.387 OA
HETATM   35  C1  UNL     1     -18.985   9.948   8.904  1.00  0.00     0.202 C 
ENDBRANCH  33  34
ENDBRANCH  30  33
ENDBRANCH  25  29
ENDBRANCH  18  22
ENDBRANCH  11  15
ENDBRANCH   9  10
ENDBRANCH   1   9
TORSDOF 7
ENDMDL
