MODEL 1
REMARK minimizedAffinity -9.24390411
REMARK  9 active torsions:
REMARK  status: ('A' for Active; 'I' for Inactive)
REMARK    1  A    between atoms: C2_2  and  C3_3 
REMARK    2  A    between atoms: C2_2  and  C9_12 
REMARK    3  A    between atoms: C3_3  and  C4_4 
REMARK    4  A    between atoms: C4_4  and  C5_5 
REMARK    5  A    between atoms: C5_5  and  O1_6 
REMARK    6  A    between atoms: C5_5  and  C6_7 
REMARK    7  A    between atoms: C6_7  and  O2_9 
REMARK    8  A    between atoms: C6_7  and  C8_10 
REMARK    9  A    between atoms: C8_10  and  O3_11 
ROOT
HETATM    1  C9  UNL     1      -2.184   5.753  13.219  1.00  0.00    -0.002 C 
HETATM    2  C10 UNL     1      -2.252   5.210  11.765  1.00  0.00     0.007 C 
HETATM    3  C11 UNL     1      -0.868   5.446  11.130  1.00  0.00     0.015 C 
HETATM    4  C12 UNL     1       0.076   5.722  12.317  1.00  0.00    -0.005 C 
HETATM    5  C13 UNL     1       0.475   4.334  12.910  1.00  0.00     0.021 C 
HETATM    6  C14 UNL     1       1.405   6.437  12.111  1.00  0.00    -0.000 C 
HETATM    7  C15 UNL     1       1.958   7.185  13.104  1.00  0.00    -0.060 C 
HETATM    8  C16 UNL     1       1.223   7.387  14.435  1.00  0.00     0.036 C 
HETATM    9  C17 UNL     1      -0.185   6.776  14.581  1.00  0.00     0.015 C 
HETATM   10  C18 UNL     1      -0.877   6.601  13.225  1.00  0.00    -0.028 C 
HETATM   11  C19 UNL     1      -1.147   8.014  12.630  1.00  0.00     0.016 C 
HETATM   12  C20 UNL     1       3.317   7.918  12.944  1.00  0.00    -0.014 C 
HETATM   13  C21 UNL     1       2.967   9.344  12.456  1.00  0.00     0.020 C 
HETATM   14  C22 UNL     1       4.087   8.008  14.288  1.00  0.00     0.021 C 
HETATM   15  C23 UNL     1       5.490   8.580  14.149  1.00  0.00     0.080 C 
HETATM   16  C24 UNL     1       6.300   7.737  13.197  1.00  0.00     0.135 C 
HETATM   17  O4  UNL     1       7.414   7.333  13.529  1.00  0.00    -0.297 OA
HETATM   18  C25 UNL     1       5.709   7.484  11.802  1.00  0.00     0.018 C 
HETATM   19  C26 UNL     1       6.490   6.306  11.164  1.00  0.00     0.023 C 
HETATM   20  C27 UNL     1       5.976   8.721  10.931  1.00  0.00     0.023 C 
HETATM   21  C28 UNL     1       4.199   7.083  11.949  1.00  0.00     0.020 C 
HETATM   22  C29 UNL     1       3.468   6.926  10.613  1.00  0.00     0.090 C 
HETATM   23  C30 UNL     1       2.122   6.267  10.804  1.00  0.00     0.157 C 
HETATM   24  O5  UNL     1       1.625   5.624   9.881  1.00  0.00    -0.293 OA
ENDROOT
BRANCH   1  25
HETATM   25  C2  UNL     1      -3.550   6.281  13.758  1.00  0.00    -0.014 C 
HETATM   26  C1  UNL     1      -3.790   6.152  15.265  1.00  0.00     0.010 C 
BRANCH  25  27
HETATM   27  C3  UNL     1      -4.736   5.706  12.948  1.00  0.00     0.007 C 
BRANCH  27  28
HETATM   28  C4  UNL     1      -5.037   4.217  13.207  1.00  0.00     0.035 C 
BRANCH  28  29
HETATM   29  C5  UNL     1      -5.925   3.558  12.142  1.00  0.00     0.154 C 
BRANCH  29  30
HETATM   30  O1  UNL     1      -7.073   2.986  12.788  1.00  0.00    -0.392 OA
HETATM   31  H10 UNL     1      -7.496   2.438  12.093  1.00  0.00     0.210 HD
ENDBRANCH  29  30
BRANCH  29  32
HETATM   32  C6  UNL     1      -5.226   2.452  11.308  1.00  0.00     0.101 C 
HETATM   33  C7  UNL     1      -6.043   1.156  11.224  1.00  0.00     0.051 C 
BRANCH  32  34
HETATM   34  O2  UNL     1      -5.134   2.960   9.954  1.00  0.00    -0.385 OA
HETATM   35  H14 UNL     1      -4.381   2.480   9.548  1.00  0.00     0.210 HD
ENDBRANCH  32  34
BRANCH  32  36
HETATM   36  C8  UNL     1      -3.793   2.181  11.806  1.00  0.00     0.204 C 
BRANCH  36  37
HETATM   37  O3  UNL     1      -3.363   0.888  11.366  1.00  0.00    -0.398 OA
HETATM   38  H17 UNL     1      -3.700   0.234  12.005  1.00  0.00     0.209 HD
ENDBRANCH  36  37
ENDBRANCH  32  36
ENDBRANCH  29  32
ENDBRANCH  28  29
ENDBRANCH  27  28
ENDBRANCH  25  27
ENDBRANCH   1  25
TORSDOF 9
ENDMDL
MODEL 2
REMARK minimizedAffinity -9.17804813
REMARK  9 active torsions:
REMARK  status: ('A' for Active; 'I' for Inactive)
REMARK    1  A    between atoms: C2_2  and  C3_3 
REMARK    2  A    between atoms: C2_2  and  C9_12 
REMARK    3  A    between atoms: C3_3  and  C4_4 
REMARK    4  A    between atoms: C4_4  and  C5_5 
REMARK    5  A    between atoms: C5_5  and  O1_6 
REMARK    6  A    between atoms: C5_5  and  C6_7 
REMARK    7  A    between atoms: C6_7  and  O2_9 
REMARK    8  A    between atoms: C6_7  and  C8_10 
REMARK    9  A    between atoms: C8_10  and  O3_11 
ROOT
HETATM    1  C9  UNL     1      -3.350   4.048  12.630  1.00  0.00    -0.002 C 
HETATM    2  C10 UNL     1      -2.999   3.880  11.126  1.00  0.00     0.007 C 
HETATM    3  C11 UNL     1      -1.682   4.644  10.882  1.00  0.00     0.015 C 
HETATM    4  C12 UNL     1      -1.087   4.876  12.285  1.00  0.00    -0.005 C 
HETATM    5  C13 UNL     1      -0.360   3.556  12.691  1.00  0.00     0.021 C 
HETATM    6  C14 UNL     1      -0.049   5.964  12.525  1.00  0.00    -0.000 C 
HETATM    7  C15 UNL     1       0.060   6.571  13.737  1.00  0.00    -0.060 C 
HETATM    8  C16 UNL     1      -0.907   6.226  14.876  1.00  0.00     0.036 C 
HETATM    9  C17 UNL     1      -2.044   5.227  14.579  1.00  0.00     0.015 C 
HETATM   10  C18 UNL     1      -2.409   5.202  13.091  1.00  0.00    -0.028 C 
HETATM   11  C19 UNL     1      -3.024   6.582  12.718  1.00  0.00     0.016 C 
HETATM   12  C20 UNL     1       1.114   7.674  14.031  1.00  0.00    -0.014 C 
HETATM   13  C21 UNL     1       0.403   9.017  13.743  1.00  0.00     0.020 C 
HETATM   14  C22 UNL     1       1.582   7.645  15.510  1.00  0.00     0.021 C 
HETATM   15  C23 UNL     1       2.724   8.604  15.806  1.00  0.00     0.080 C 
HETATM   16  C24 UNL     1       3.908   8.283  14.930  1.00  0.00     0.135 C 
HETATM   17  O4  UNL     1       5.023   8.141  15.432  1.00  0.00    -0.297 OA
HETATM   18  C25 UNL     1       3.669   8.223  13.414  1.00  0.00     0.018 C 
HETATM   19  C26 UNL     1       4.884   7.506  12.771  1.00  0.00     0.023 C 
HETATM   20  C27 UNL     1       3.657   9.659  12.868  1.00  0.00     0.023 C 
HETATM   21  C28 UNL     1       2.369   7.390  13.133  1.00  0.00     0.020 C 
HETATM   22  C29 UNL     1       1.958   7.365  11.658  1.00  0.00     0.090 C 
HETATM   23  C30 UNL     1       0.887   6.327  11.410  1.00  0.00     0.157 C 
HETATM   24  O5  UNL     1       0.785   5.816  10.297  1.00  0.00    -0.293 OA
ENDROOT
BRANCH   1  25
HETATM   25  C2  UNL     1      -4.882   4.021  12.925  1.00  0.00    -0.014 C 
HETATM   26  C1  UNL     1      -5.788   3.507  11.803  1.00  0.00     0.010 C 
BRANCH  25  27
HETATM   27  C3  UNL     1      -5.376   5.383  13.468  1.00  0.00     0.007 C 
BRANCH  27  28
HETATM   28  C4  UNL     1      -6.836   5.394  13.958  1.00  0.00     0.035 C 
BRANCH  28  29
HETATM   29  C5  UNL     1      -6.991   5.527  15.480  1.00  0.00     0.154 C 
BRANCH  29  30
HETATM   30  O1  UNL     1      -7.879   4.499  15.946  1.00  0.00    -0.392 OA
HETATM   31  H10 UNL     1      -8.071   4.746  16.875  1.00  0.00     0.210 HD
ENDBRANCH  29  30
BRANCH  29  32
HETATM   32  C6  UNL     1      -7.530   6.900  15.960  1.00  0.00     0.101 C 
HETATM   33  C7  UNL     1      -9.041   7.060  15.746  1.00  0.00     0.051 C 
BRANCH  32  34
HETATM   34  O2  UNL     1      -7.319   6.943  17.393  1.00  0.00    -0.385 OA
HETATM   35  H14 UNL     1      -7.277   7.896  17.621  1.00  0.00     0.210 HD
ENDBRANCH  32  34
BRANCH  32  36
HETATM   36  C8  UNL     1      -6.747   8.072  15.335  1.00  0.00     0.204 C 
BRANCH  36  37
HETATM   37  O3  UNL     1      -5.449   8.160  15.932  1.00  0.00    -0.398 OA
HETATM   38  H17 UNL     1      -5.540   8.672  16.756  1.00  0.00     0.209 HD
ENDBRANCH  36  37
ENDBRANCH  32  36
ENDBRANCH  29  32
ENDBRANCH  28  29
ENDBRANCH  27  28
ENDBRANCH  25  27
ENDBRANCH   1  25
TORSDOF 9
ENDMDL
MODEL 3
REMARK minimizedAffinity -9.13260937
REMARK  9 active torsions:
REMARK  status: ('A' for Active; 'I' for Inactive)
REMARK    1  A    between atoms: C2_2  and  C3_3 
REMARK    2  A    between atoms: C2_2  and  C9_12 
REMARK    3  A    between atoms: C3_3  and  C4_4 
REMARK    4  A    between atoms: C4_4  and  C5_5 
REMARK    5  A    between atoms: C5_5  and  O1_6 
REMARK    6  A    between atoms: C5_5  and  C6_7 
REMARK    7  A    between atoms: C6_7  and  O2_9 
REMARK    8  A    between atoms: C6_7  and  C8_10 
REMARK    9  A    between atoms: C8_10  and  O3_11 
ROOT
HETATM    1  C9  UNL     1      -2.265   5.456  13.187  1.00  0.00    -0.002 C 
HETATM    2  C10 UNL     1      -2.307   4.900  11.737  1.00  0.00     0.007 C 
HETATM    3  C11 UNL     1      -0.934   5.193  11.102  1.00  0.00     0.015 C 
HETATM    4  C12 UNL     1      -0.004   5.519  12.288  1.00  0.00    -0.005 C 
HETATM    5  C13 UNL     1       0.455   4.154  12.890  1.00  0.00     0.021 C 
HETATM    6  C14 UNL     1       1.291   6.291  12.078  1.00  0.00    -0.000 C 
HETATM    7  C15 UNL     1       1.809   7.070  13.066  1.00  0.00    -0.060 C 
HETATM    8  C16 UNL     1       1.065   7.247  14.395  1.00  0.00     0.036 C 
HETATM    9  C17 UNL     1      -0.315   6.575  14.544  1.00  0.00     0.015 C 
HETATM   10  C18 UNL     1      -0.997   6.361  13.188  1.00  0.00    -0.028 C 
HETATM   11  C19 UNL     1      -1.329   7.757  12.584  1.00  0.00     0.016 C 
HETATM   12  C20 UNL     1       3.135   7.862  12.902  1.00  0.00    -0.014 C 
HETATM   13  C21 UNL     1       2.722   9.267  12.405  1.00  0.00     0.020 C 
HETATM   14  C22 UNL     1       3.898   7.995  14.246  1.00  0.00     0.021 C 
HETATM   15  C23 UNL     1       5.275   8.627  14.105  1.00  0.00     0.080 C 
HETATM   16  C24 UNL     1       6.122   7.815  13.159  1.00  0.00     0.135 C 
HETATM   17  O4  UNL     1       7.253   7.463  13.495  1.00  0.00    -0.297 OA
HETATM   18  C25 UNL     1       5.545   7.527  11.765  1.00  0.00     0.018 C 
HETATM   19  C26 UNL     1       6.379   6.380  11.136  1.00  0.00     0.023 C 
HETATM   20  C27 UNL     1       5.758   8.768  10.886  1.00  0.00     0.023 C 
HETATM   21  C28 UNL     1       4.054   7.060  11.914  1.00  0.00     0.020 C 
HETATM   22  C29 UNL     1       3.332   6.862  10.578  1.00  0.00     0.090 C 
HETATM   23  C30 UNL     1       2.016   6.144  10.772  1.00  0.00     0.157 C 
HETATM   24  O5  UNL     1       1.550   5.474   9.854  1.00  0.00    -0.293 OA
ENDROOT
BRANCH   1  25
HETATM   25  C2  UNL     1      -3.654   5.926  13.721  1.00  0.00    -0.014 C 
HETATM   26  C1  UNL     1      -3.762   6.171  15.229  1.00  0.00     0.010 C 
BRANCH  25  27
HETATM   27  C3  UNL     1      -4.792   5.008  13.217  1.00  0.00     0.007 C 
BRANCH  27  28
HETATM   28  C4  UNL     1      -6.201   5.630  13.277  1.00  0.00     0.035 C 
BRANCH  28  29
HETATM   29  C5  UNL     1      -7.136   4.975  14.303  1.00  0.00     0.154 C 
BRANCH  29  30
HETATM   30  O1  UNL     1      -8.096   4.167  13.604  1.00  0.00    -0.392 OA
HETATM   31  H10 UNL     1      -8.758   3.928  14.288  1.00  0.00     0.210 HD
ENDBRANCH  29  30
BRANCH  29  32
HETATM   32  C6  UNL     1      -7.901   5.972  15.215  1.00  0.00     0.101 C 
HETATM   33  C7  UNL     1      -8.991   6.753  14.469  1.00  0.00     0.051 C 
BRANCH  32  34
HETATM   34  O2  UNL     1      -8.586   5.172  16.210  1.00  0.00    -0.385 OA
HETATM   35  H14 UNL     1      -8.719   5.769  16.976  1.00  0.00     0.210 HD
ENDBRANCH  32  34
BRANCH  32  36
HETATM   36  C8  UNL     1      -6.938   6.921  15.957  1.00  0.00     0.204 C 
BRANCH  36  37
HETATM   37  O3  UNL     1      -7.291   6.982  17.342  1.00  0.00    -0.398 OA
HETATM   38  H17 UNL     1      -8.000   7.643  17.436  1.00  0.00     0.209 HD
ENDBRANCH  36  37
ENDBRANCH  32  36
ENDBRANCH  29  32
ENDBRANCH  28  29
ENDBRANCH  27  28
ENDBRANCH  25  27
ENDBRANCH   1  25
TORSDOF 9
ENDMDL
MODEL 4
REMARK minimizedAffinity -9.11794376
REMARK  9 active torsions:
REMARK  status: ('A' for Active; 'I' for Inactive)
REMARK    1  A    between atoms: C2_2  and  C3_3 
REMARK    2  A    between atoms: C2_2  and  C9_12 
REMARK    3  A    between atoms: C3_3  and  C4_4 
REMARK    4  A    between atoms: C4_4  and  C5_5 
REMARK    5  A    between atoms: C5_5  and  O1_6 
REMARK    6  A    between atoms: C5_5  and  C6_7 
REMARK    7  A    between atoms: C6_7  and  O2_9 
REMARK    8  A    between atoms: C6_7  and  C8_10 
REMARK    9  A    between atoms: C8_10  and  O3_11 
ROOT
HETATM    1  C9  UNL     1      -6.362   7.255  15.038  1.00  0.00    -0.002 C 
HETATM    2  C10 UNL     1      -6.078   8.733  15.421  1.00  0.00     0.007 C 
HETATM    3  C11 UNL     1      -4.643   9.052  14.957  1.00  0.00     0.015 C 
HETATM    4  C12 UNL     1      -4.282   7.928  13.966  1.00  0.00    -0.005 C 
HETATM    5  C13 UNL     1      -4.917   8.314  12.594  1.00  0.00     0.021 C 
HETATM    6  C14 UNL     1      -2.830   7.614  13.632  1.00  0.00    -0.000 C 
HETATM    7  C15 UNL     1      -2.452   6.359  13.270  1.00  0.00    -0.060 C 
HETATM    8  C16 UNL     1      -3.465   5.208  13.257  1.00  0.00     0.036 C 
HETATM    9  C17 UNL     1      -4.901   5.505  13.733  1.00  0.00     0.015 C 
HETATM   10  C18 UNL     1      -4.948   6.693  14.700  1.00  0.00    -0.028 C 
HETATM   11  C19 UNL     1      -4.202   6.289  16.005  1.00  0.00     0.016 C 
HETATM   12  C20 UNL     1      -0.986   5.997  12.906  1.00  0.00    -0.014 C 
HETATM   13  C21 UNL     1      -0.339   5.503  14.221  1.00  0.00     0.020 C 
HETATM   14  C22 UNL     1      -0.916   4.870  11.843  1.00  0.00     0.021 C 
HETATM   15  C23 UNL     1       0.493   4.590  11.342  1.00  0.00     0.080 C 
HETATM   16  C24 UNL     1       1.086   5.840  10.744  1.00  0.00     0.135 C 
HETATM   17  O4  UNL     1       1.594   5.804   9.623  1.00  0.00    -0.297 OA
HETATM   18  C25 UNL     1       1.093   7.105  11.616  1.00  0.00     0.018 C 
HETATM   19  C26 UNL     1       1.367   8.317  10.688  1.00  0.00     0.023 C 
HETATM   20  C27 UNL     1       2.275   7.014  12.592  1.00  0.00     0.023 C 
HETATM   21  C28 UNL     1      -0.317   7.274  12.285  1.00  0.00     0.020 C 
HETATM   22  C29 UNL     1      -0.393   8.436  13.279  1.00  0.00     0.090 C 
HETATM   23  C30 UNL     1      -1.825   8.727  13.665  1.00  0.00     0.157 C 
HETATM   24  O5  UNL     1      -2.138   9.861  14.022  1.00  0.00    -0.293 OA
ENDROOT
BRANCH   1  25
HETATM   25  C2  UNL     1      -7.363   6.537  15.996  1.00  0.00    -0.014 C 
HETATM   26  C1  UNL     1      -7.560   5.034  15.782  1.00  0.00     0.010 C 
BRANCH  25  27
HETATM   27  C3  UNL     1      -8.718   7.281  16.056  1.00  0.00     0.007 C 
BRANCH  27  28
HETATM   28  C4  UNL     1      -9.513   7.285  14.736  1.00  0.00     0.035 C 
BRANCH  28  29
HETATM   29  C5  UNL     1     -11.008   7.596  14.900  1.00  0.00     0.154 C 
BRANCH  29  30
HETATM   30  O1  UNL     1     -11.761   6.407  14.618  1.00  0.00    -0.392 OA
HETATM   31  H10 UNL     1     -12.691   6.714  14.566  1.00  0.00     0.210 HD
ENDBRANCH  29  30
BRANCH  29  32
HETATM   32  C6  UNL     1     -11.536   8.741  13.996  1.00  0.00     0.101 C 
HETATM   33  C7  UNL     1     -12.907   9.270  14.438  1.00  0.00     0.051 C 
BRANCH  32  34
HETATM   34  O2  UNL     1     -10.609   9.844  14.150  1.00  0.00    -0.385 OA
HETATM   35  H14 UNL     1     -10.698  10.373  13.330  1.00  0.00     0.210 HD
ENDBRANCH  32  34
BRANCH  32  36
HETATM   36  C8  UNL     1     -11.543   8.337  12.508  1.00  0.00     0.204 C 
BRANCH  36  37
HETATM   37  O3  UNL     1     -11.777   9.491  11.694  1.00  0.00    -0.398 OA
HETATM   38  H17 UNL     1     -12.740   9.629  11.652  1.00  0.00     0.209 HD
ENDBRANCH  36  37
ENDBRANCH  32  36
ENDBRANCH  29  32
ENDBRANCH  28  29
ENDBRANCH  27  28
ENDBRANCH  25  27
ENDBRANCH   1  25
TORSDOF 9
ENDMDL
MODEL 5
REMARK minimizedAffinity -9.05526638
REMARK  9 active torsions:
REMARK  status: ('A' for Active; 'I' for Inactive)
REMARK    1  A    between atoms: C2_2  and  C3_3 
REMARK    2  A    between atoms: C2_2  and  C9_12 
REMARK    3  A    between atoms: C3_3  and  C4_4 
REMARK    4  A    between atoms: C4_4  and  C5_5 
REMARK    5  A    between atoms: C5_5  and  O1_6 
REMARK    6  A    between atoms: C5_5  and  C6_7 
REMARK    7  A    between atoms: C6_7  and  O2_9 
REMARK    8  A    between atoms: C6_7  and  C8_10 
REMARK    9  A    between atoms: C8_10  and  O3_11 
ROOT
HETATM    1  C9  UNL     1      -2.803   8.335  15.145  1.00  0.00    -0.002 C 
HETATM    2  C10 UNL     1      -1.755   8.050  16.255  1.00  0.00     0.007 C 
HETATM    3  C11 UNL     1      -0.402   7.828  15.551  1.00  0.00     0.015 C 
HETATM    4  C12 UNL     1      -0.592   8.388  14.128  1.00  0.00    -0.005 C 
HETATM    5  C13 UNL     1      -0.400   9.934  14.222  1.00  0.00     0.021 C 
HETATM    6  C14 UNL     1       0.327   7.965  12.990  1.00  0.00    -0.000 C 
HETATM    7  C15 UNL     1      -0.114   7.949  11.704  1.00  0.00    -0.060 C 
HETATM    8  C16 UNL     1      -1.572   8.290  11.371  1.00  0.00     0.036 C 
HETATM    9  C17 UNL     1      -2.531   8.579  12.544  1.00  0.00     0.015 C 
HETATM   10  C18 UNL     1      -2.070   7.902  13.839  1.00  0.00    -0.028 C 
HETATM   11  C19 UNL     1      -2.176   6.361  13.647  1.00  0.00     0.016 C 
HETATM   12  C20 UNL     1       0.792   7.540  10.511  1.00  0.00    -0.014 C 
HETATM   13  C21 UNL     1       0.555   6.026  10.308  1.00  0.00     0.020 C 
HETATM   14  C22 UNL     1       0.414   8.299   9.211  1.00  0.00     0.021 C 
HETATM   15  C23 UNL     1       1.372   8.046   8.057  1.00  0.00     0.080 C 
HETATM   16  C24 UNL     1       2.771   8.449   8.449  1.00  0.00     0.135 C 
HETATM   17  O4  UNL     1       3.425   9.190   7.716  1.00  0.00    -0.297 OA
HETATM   18  C25 UNL     1       3.346   7.839   9.737  1.00  0.00     0.018 C 
HETATM   19  C26 UNL     1       4.588   8.675  10.141  1.00  0.00     0.023 C 
HETATM   20  C27 UNL     1       3.845   6.422   9.420  1.00  0.00     0.023 C 
HETATM   21  C28 UNL     1       2.268   7.931  10.874  1.00  0.00     0.020 C 
HETATM   22  C29 UNL     1       2.683   7.240  12.175  1.00  0.00     0.090 C 
HETATM   23  C30 UNL     1       1.749   7.605  13.306  1.00  0.00     0.157 C 
HETATM   24  O5  UNL     1       2.160   7.579  14.464  1.00  0.00    -0.293 OA
ENDROOT
BRANCH   1  25
HETATM   25  C2  UNL     1      -4.248   7.873  15.510  1.00  0.00    -0.014 C 
HETATM   26  C1  UNL     1      -4.420   6.402  15.903  1.00  0.00     0.010 C 
BRANCH  25  27
HETATM   27  C3  UNL     1      -5.265   8.288  14.422  1.00  0.00     0.007 C 
BRANCH  27  28
HETATM   28  C4  UNL     1      -5.665   7.165  13.446  1.00  0.00     0.035 C 
BRANCH  28  29
HETATM   29  C5  UNL     1      -7.109   6.670  13.610  1.00  0.00     0.154 C 
BRANCH  29  30
HETATM   30  O1  UNL     1      -7.637   7.184  14.842  1.00  0.00    -0.392 OA
HETATM   31  H10 UNL     1      -8.478   6.695  14.970  1.00  0.00     0.210 HD
ENDBRANCH  29  30
BRANCH  29  32
HETATM   32  C6  UNL     1      -7.271   5.126  13.609  1.00  0.00     0.101 C 
HETATM   33  C7  UNL     1      -5.962   4.386  13.303  1.00  0.00     0.051 C 
BRANCH  32  34
HETATM   34  O2  UNL     1      -7.639   4.754  14.960  1.00  0.00    -0.385 OA
HETATM   35  H14 UNL     1      -8.112   3.900  14.874  1.00  0.00     0.210 HD
ENDBRANCH  32  34
BRANCH  32  36
HETATM   36  C8  UNL     1      -8.406   4.671  12.671  1.00  0.00     0.204 C 
BRANCH  36  37
HETATM   37  O3  UNL     1      -8.805   3.338  13.004  1.00  0.00    -0.398 OA
HETATM   38  H17 UNL     1      -8.197   2.727  12.550  1.00  0.00     0.209 HD
ENDBRANCH  36  37
ENDBRANCH  32  36
ENDBRANCH  29  32
ENDBRANCH  28  29
ENDBRANCH  27  28
ENDBRANCH  25  27
ENDBRANCH   1  25
TORSDOF 9
ENDMDL
MODEL 6
REMARK minimizedAffinity -8.97156334
REMARK  9 active torsions:
REMARK  status: ('A' for Active; 'I' for Inactive)
REMARK    1  A    between atoms: C2_2  and  C3_3 
REMARK    2  A    between atoms: C2_2  and  C9_12 
REMARK    3  A    between atoms: C3_3  and  C4_4 
REMARK    4  A    between atoms: C4_4  and  C5_5 
REMARK    5  A    between atoms: C5_5  and  O1_6 
REMARK    6  A    between atoms: C5_5  and  C6_7 
REMARK    7  A    between atoms: C6_7  and  O2_9 
REMARK    8  A    between atoms: C6_7  and  C8_10 
REMARK    9  A    between atoms: C8_10  and  O3_11 
ROOT
HETATM    1  C9  UNL     1      -2.834   4.813  12.986  1.00  0.00    -0.002 C 
HETATM    2  C10 UNL     1      -2.697   4.445  11.482  1.00  0.00     0.007 C 
HETATM    3  C11 UNL     1      -1.316   4.950  11.020  1.00  0.00     0.015 C 
HETATM    4  C12 UNL     1      -0.528   5.212  12.318  1.00  0.00    -0.005 C 
HETATM    5  C13 UNL     1       0.027   3.834  12.797  1.00  0.00     0.021 C 
HETATM    6  C14 UNL     1       0.689   6.128  12.326  1.00  0.00    -0.000 C 
HETATM    7  C15 UNL     1       1.035   6.822  13.443  1.00  0.00    -0.060 C 
HETATM    8  C16 UNL     1       0.170   6.755  14.707  1.00  0.00     0.036 C 
HETATM    9  C17 UNL     1      -1.137   5.937  14.644  1.00  0.00     0.015 C 
HETATM   10  C18 UNL     1      -1.677   5.831  13.214  1.00  0.00    -0.028 C 
HETATM   11  C19 UNL     1      -2.108   7.253  12.750  1.00  0.00     0.016 C 
HETATM   12  C20 UNL     1       2.276   7.755  13.500  1.00  0.00    -0.014 C 
HETATM   13  C21 UNL     1       1.755   9.164  13.135  1.00  0.00     0.020 C 
HETATM   14  C22 UNL     1       2.907   7.790  14.917  1.00  0.00     0.021 C 
HETATM   15  C23 UNL     1       4.213   8.567  14.983  1.00  0.00     0.080 C 
HETATM   16  C24 UNL     1       5.219   7.969  14.033  1.00  0.00     0.135 C 
HETATM   17  O4  UNL     1       6.350   7.690  14.430  1.00  0.00    -0.297 OA
HETATM   18  C25 UNL     1       4.793   7.805  12.566  1.00  0.00     0.018 C 
HETATM   19  C26 UNL     1       5.796   6.836  11.888  1.00  0.00     0.023 C 
HETATM   20  C27 UNL     1       4.941   9.163  11.864  1.00  0.00     0.023 C 
HETATM   21  C28 UNL     1       3.355   7.179  12.516  1.00  0.00     0.020 C 
HETATM   22  C29 UNL     1       2.771   7.083  11.104  1.00  0.00     0.090 C 
HETATM   23  C30 UNL     1       1.530   6.221  11.086  1.00  0.00     0.157 C 
HETATM   24  O5  UNL     1       1.217   5.630  10.055  1.00  0.00    -0.293 OA
ENDROOT
BRANCH   1  25
HETATM   25  C2  UNL     1      -4.305   5.073  13.437  1.00  0.00    -0.014 C 
HETATM   26  C1  UNL     1      -5.385   4.194  12.799  1.00  0.00     0.010 C 
BRANCH  25  27
HETATM   27  C3  UNL     1      -4.669   6.573  13.338  1.00  0.00     0.007 C 
BRANCH  27  28
HETATM   28  C4  UNL     1      -6.115   6.917  13.745  1.00  0.00     0.035 C 
BRANCH  28  29
HETATM   29  C5  UNL     1      -6.271   7.357  15.208  1.00  0.00     0.154 C 
BRANCH  29  30
HETATM   30  O1  UNL     1      -5.062   7.045  15.916  1.00  0.00    -0.392 OA
HETATM   31  H10 UNL     1      -5.289   7.183  16.860  1.00  0.00     0.210 HD
ENDBRANCH  29  30
BRANCH  29  32
HETATM   32  C6  UNL     1      -7.464   6.707  15.958  1.00  0.00     0.101 C 
HETATM   33  C7  UNL     1      -7.489   5.177  15.834  1.00  0.00     0.051 C 
BRANCH  32  34
HETATM   34  O2  UNL     1      -7.268   6.994  17.364  1.00  0.00    -0.385 OA
HETATM   35  H14 UNL     1      -8.162   6.951  17.765  1.00  0.00     0.210 HD
ENDBRANCH  32  34
BRANCH  32  36
HETATM   36  C8  UNL     1      -8.811   7.327  15.535  1.00  0.00     0.204 C 
BRANCH  36  37
HETATM   37  O3  UNL     1      -9.616   6.338  14.885  1.00  0.00    -0.398 OA
HETATM   38  H17 UNL     1      -9.346   6.308  13.950  1.00  0.00     0.209 HD
ENDBRANCH  36  37
ENDBRANCH  32  36
ENDBRANCH  29  32
ENDBRANCH  28  29
ENDBRANCH  27  28
ENDBRANCH  25  27
ENDBRANCH   1  25
TORSDOF 9
ENDMDL
MODEL 7
REMARK minimizedAffinity -8.78582573
REMARK  9 active torsions:
REMARK  status: ('A' for Active; 'I' for Inactive)
REMARK    1  A    between atoms: C2_2  and  C3_3 
REMARK    2  A    between atoms: C2_2  and  C9_12 
REMARK    3  A    between atoms: C3_3  and  C4_4 
REMARK    4  A    between atoms: C4_4  and  C5_5 
REMARK    5  A    between atoms: C5_5  and  O1_6 
REMARK    6  A    between atoms: C5_5  and  C6_7 
REMARK    7  A    between atoms: C6_7  and  O2_9 
REMARK    8  A    between atoms: C6_7  and  C8_10 
REMARK    9  A    between atoms: C8_10  and  O3_11 
ROOT
HETATM    1  C9  UNL     1      -2.966   7.608  14.337  1.00  0.00    -0.002 C 
HETATM    2  C10 UNL     1      -2.428   7.608  15.795  1.00  0.00     0.007 C 
HETATM    3  C11 UNL     1      -0.891   7.680  15.708  1.00  0.00     0.015 C 
HETATM    4  C12 UNL     1      -0.591   8.136  14.266  1.00  0.00    -0.005 C 
HETATM    5  C13 UNL     1      -0.764   9.688  14.238  1.00  0.00     0.021 C 
HETATM    6  C14 UNL     1       0.776   7.901  13.638  1.00  0.00    -0.000 C 
HETATM    7  C15 UNL     1       0.910   7.743  12.294  1.00  0.00    -0.060 C 
HETATM    8  C16 UNL     1      -0.321   7.728  11.380  1.00  0.00     0.036 C 
HETATM    9  C17 UNL     1      -1.711   7.826  12.041  1.00  0.00     0.015 C 
HETATM   10  C18 UNL     1      -1.695   7.314  13.485  1.00  0.00    -0.028 C 
HETATM   11  C19 UNL     1      -1.406   5.785  13.456  1.00  0.00     0.016 C 
HETATM   12  C20 UNL     1       2.286   7.517  11.609  1.00  0.00    -0.014 C 
HETATM   13  C21 UNL     1       2.457   5.982  11.516  1.00  0.00     0.020 C 
HETATM   14  C22 UNL     1       2.328   8.126  10.183  1.00  0.00     0.021 C 
HETATM   15  C23 UNL     1       3.703   8.065   9.535  1.00  0.00     0.080 C 
HETATM   16  C24 UNL     1       4.710   8.791  10.389  1.00  0.00     0.135 C 
HETATM   17  O4  UNL     1       5.446   9.639   9.885  1.00  0.00    -0.297 OA
HETATM   18  C25 UNL     1       4.819   8.371  11.863  1.00  0.00     0.018 C 
HETATM   19  C26 UNL     1       5.595   9.483  12.615  1.00  0.00     0.023 C 
HETATM   20  C27 UNL     1       5.673   7.098  11.942  1.00  0.00     0.023 C 
HETATM   21  C28 UNL     1       3.376   8.248  12.469  1.00  0.00     0.020 C 
HETATM   22  C29 UNL     1       3.352   7.713  13.903  1.00  0.00     0.090 C 
HETATM   23  C30 UNL     1       1.986   7.889  14.526  1.00  0.00     0.157 C 
HETATM   24  O5  UNL     1       1.885   7.995  15.746  1.00  0.00    -0.293 OA
ENDROOT
BRANCH   1  25
HETATM   25  C2  UNL     1      -4.312   6.837  14.163  1.00  0.00    -0.014 C 
HETATM   26  C1  UNL     1      -4.849   6.106  15.397  1.00  0.00     0.010 C 
BRANCH  25  27
HETATM   27  C3  UNL     1      -4.272   5.905  12.929  1.00  0.00     0.007 C 
BRANCH  27  28
HETATM   28  C4  UNL     1      -4.732   4.459  13.195  1.00  0.00     0.035 C 
BRANCH  28  29
HETATM   29  C5  UNL     1      -5.625   3.868  12.095  1.00  0.00     0.154 C 
BRANCH  29  30
HETATM   30  O1  UNL     1      -6.854   3.420  12.687  1.00  0.00    -0.392 OA
HETATM   31  H10 UNL     1      -7.292   2.903  11.978  1.00  0.00     0.210 HD
ENDBRANCH  29  30
BRANCH  29  32
HETATM   32  C6  UNL     1      -4.995   2.685  11.312  1.00  0.00     0.101 C 
HETATM   33  C7  UNL     1      -5.888   1.438  11.287  1.00  0.00     0.051 C 
BRANCH  32  34
HETATM   34  O2  UNL     1      -4.875   3.124   9.936  1.00  0.00    -0.385 OA
HETATM   35  H14 UNL     1      -4.153   2.582   9.554  1.00  0.00     0.210 HD
ENDBRANCH  32  34
BRANCH  32  36
HETATM   36  C8  UNL     1      -3.579   2.352  11.824  1.00  0.00     0.204 C 
BRANCH  36  37
HETATM   37  O3  UNL     1      -3.237   1.010  11.463  1.00  0.00    -0.398 OA
HETATM   38  H17 UNL     1      -3.612   0.419  12.140  1.00  0.00     0.209 HD
ENDBRANCH  36  37
ENDBRANCH  32  36
ENDBRANCH  29  32
ENDBRANCH  28  29
ENDBRANCH  27  28
ENDBRANCH  25  27
ENDBRANCH   1  25
TORSDOF 9
ENDMDL
MODEL 8
REMARK minimizedAffinity -8.74997711
REMARK  9 active torsions:
REMARK  status: ('A' for Active; 'I' for Inactive)
REMARK    1  A    between atoms: C2_2  and  C3_3 
REMARK    2  A    between atoms: C2_2  and  C9_12 
REMARK    3  A    between atoms: C3_3  and  C4_4 
REMARK    4  A    between atoms: C4_4  and  C5_5 
REMARK    5  A    between atoms: C5_5  and  O1_6 
REMARK    6  A    between atoms: C5_5  and  C6_7 
REMARK    7  A    between atoms: C6_7  and  O2_9 
REMARK    8  A    between atoms: C6_7  and  C8_10 
REMARK    9  A    between atoms: C8_10  and  O3_11 
ROOT
HETATM    1  C9  UNL     1      -5.689   6.470  14.957  1.00  0.00    -0.002 C 
HETATM    2  C10 UNL     1      -5.971   5.221  14.078  1.00  0.00     0.007 C 
HETATM    3  C11 UNL     1      -4.749   5.032  13.157  1.00  0.00     0.015 C 
HETATM    4  C12 UNL     1      -3.634   5.889  13.788  1.00  0.00    -0.005 C 
HETATM    5  C13 UNL     1      -3.015   5.044  14.945  1.00  0.00     0.021 C 
HETATM    6  C14 UNL     1      -2.432   6.339  12.968  1.00  0.00    -0.000 C 
HETATM    7  C15 UNL     1      -1.777   7.494  13.263  1.00  0.00    -0.060 C 
HETATM    8  C16 UNL     1      -2.274   8.412  14.386  1.00  0.00     0.036 C 
HETATM    9  C17 UNL     1      -3.574   8.019  15.117  1.00  0.00     0.015 C 
HETATM   10  C18 UNL     1      -4.481   7.147  14.242  1.00  0.00    -0.028 C 
HETATM   11  C19 UNL     1      -4.976   8.010  13.044  1.00  0.00     0.016 C 
HETATM   12  C20 UNL     1      -0.538   7.982  12.464  1.00  0.00    -0.014 C 
HETATM   13  C21 UNL     1      -1.093   8.915  11.363  1.00  0.00     0.020 C 
HETATM   14  C22 UNL     1       0.451   8.774  13.359  1.00  0.00     0.021 C 
HETATM   15  C23 UNL     1       1.750   9.139  12.658  1.00  0.00     0.080 C 
HETATM   16  C24 UNL     1       2.445   7.891  12.176  1.00  0.00     0.135 C 
HETATM   17  O4  UNL     1       3.632   7.706  12.445  1.00  0.00    -0.297 OA
HETATM   18  C25 UNL     1       1.637   6.929  11.291  1.00  0.00     0.018 C 
HETATM   19  C26 UNL     1       2.390   5.575  11.255  1.00  0.00     0.023 C 
HETATM   20  C27 UNL     1       1.634   7.478   9.857  1.00  0.00     0.023 C 
HETATM   21  C28 UNL     1       0.219   6.715  11.930  1.00  0.00     0.020 C 
HETATM   22  C29 UNL     1      -0.724   5.871  11.069  1.00  0.00     0.090 C 
HETATM   23  C30 UNL     1      -1.951   5.460  11.850  1.00  0.00     0.157 C 
HETATM   24  O5  UNL     1      -2.548   4.430  11.545  1.00  0.00    -0.293 OA
ENDROOT
BRANCH   1  25
HETATM   25  C2  UNL     1      -6.976   7.243  15.382  1.00  0.00    -0.014 C 
HETATM   26  C1  UNL     1      -7.476   7.011  16.811  1.00  0.00     0.010 C 
BRANCH  25  27
HETATM   27  C3  UNL     1      -8.113   7.057  14.350  1.00  0.00     0.007 C 
BRANCH  27  28
HETATM   28  C4  UNL     1      -9.528   6.974  14.953  1.00  0.00     0.035 C 
BRANCH  28  29
HETATM   29  C5  UNL     1     -10.346   8.267  14.824  1.00  0.00     0.154 C 
BRANCH  29  30
HETATM   30  O1  UNL     1     -11.045   8.497  16.057  1.00  0.00    -0.392 OA
HETATM   31  H10 UNL     1     -11.673   9.221  15.850  1.00  0.00     0.210 HD
ENDBRANCH  29  30
BRANCH  29  32
HETATM   32  C6  UNL     1     -11.377   8.270  13.664  1.00  0.00     0.101 C 
HETATM   33  C7  UNL     1     -11.059   7.236  12.576  1.00  0.00     0.051 C 
BRANCH  32  34
HETATM   34  O2  UNL     1     -12.644   7.870  14.243  1.00  0.00    -0.385 OA
HETATM   35  H14 UNL     1     -13.329   8.245  13.650  1.00  0.00     0.210 HD
ENDBRANCH  32  34
BRANCH  32  36
HETATM   36  C8  UNL     1     -11.558   9.678  13.064  1.00  0.00     0.204 C 
BRANCH  36  37
HETATM   37  O3  UNL     1     -11.862   9.576  11.670  1.00  0.00    -0.398 OA
HETATM   38  H17 UNL     1     -11.019   9.490  11.191  1.00  0.00     0.209 HD
ENDBRANCH  36  37
ENDBRANCH  32  36
ENDBRANCH  29  32
ENDBRANCH  28  29
ENDBRANCH  27  28
ENDBRANCH  25  27
ENDBRANCH   1  25
TORSDOF 9
ENDMDL
MODEL 9
REMARK minimizedAffinity -8.70021343
REMARK  9 active torsions:
REMARK  status: ('A' for Active; 'I' for Inactive)
REMARK    1  A    between atoms: C2_2  and  C3_3 
REMARK    2  A    between atoms: C2_2  and  C9_12 
REMARK    3  A    between atoms: C3_3  and  C4_4 
REMARK    4  A    between atoms: C4_4  and  C5_5 
REMARK    5  A    between atoms: C5_5  and  O1_6 
REMARK    6  A    between atoms: C5_5  and  C6_7 
REMARK    7  A    between atoms: C6_7  and  O2_9 
REMARK    8  A    between atoms: C6_7  and  C8_10 
REMARK    9  A    between atoms: C8_10  and  O3_11 
ROOT
HETATM    1  C9  UNL     1      -5.099   6.678  14.839  1.00  0.00    -0.002 C 
HETATM    2  C10 UNL     1      -5.470   5.410  14.021  1.00  0.00     0.007 C 
HETATM    3  C11 UNL     1      -4.303   5.142  13.051  1.00  0.00     0.015 C 
HETATM    4  C12 UNL     1      -3.127   5.976  13.596  1.00  0.00    -0.005 C 
HETATM    5  C13 UNL     1      -2.485   5.147  14.753  1.00  0.00     0.021 C 
HETATM    6  C14 UNL     1      -1.951   6.348  12.705  1.00  0.00    -0.000 C 
HETATM    7  C15 UNL     1      -1.238   7.486  12.925  1.00  0.00    -0.060 C 
HETATM    8  C16 UNL     1      -1.645   8.461  14.036  1.00  0.00     0.036 C 
HETATM    9  C17 UNL     1      -2.922   8.146  14.842  1.00  0.00     0.015 C 
HETATM   10  C18 UNL     1      -3.902   7.281  14.043  1.00  0.00    -0.028 C 
HETATM   11  C19 UNL     1      -4.423   8.120  12.839  1.00  0.00     0.016 C 
HETATM   12  C20 UNL     1      -0.022   7.897  12.051  1.00  0.00    -0.014 C 
HETATM   13  C21 UNL     1      -0.595   8.812  10.944  1.00  0.00     0.020 C 
HETATM   14  C22 UNL     1       1.039   8.680  12.869  1.00  0.00     0.021 C 
HETATM   15  C23 UNL     1       2.315   8.968  12.094  1.00  0.00     0.080 C 
HETATM   16  C24 UNL     1       2.938   7.677  11.626  1.00  0.00     0.135 C 
HETATM   17  O4  UNL     1       4.128   7.454  11.845  1.00  0.00    -0.297 OA
HETATM   18  C25 UNL     1       2.051   6.718  10.817  1.00  0.00     0.018 C 
HETATM   19  C26 UNL     1       2.750   5.334  10.794  1.00  0.00     0.023 C 
HETATM   20  C27 UNL     1       1.999   7.216   9.365  1.00  0.00     0.023 C 
HETATM   21  C28 UNL     1       0.659   6.583  11.529  1.00  0.00     0.020 C 
HETATM   22  C29 UNL     1      -0.356   5.747  10.745  1.00  0.00     0.090 C 
HETATM   23  C30 UNL     1      -1.558   5.413  11.598  1.00  0.00     0.157 C 
HETATM   24  O5  UNL     1      -2.208   4.397  11.359  1.00  0.00    -0.293 OA
ENDROOT
BRANCH   1  25
HETATM   25  C2  UNL     1      -6.333   7.515  15.296  1.00  0.00    -0.014 C 
HETATM   26  C1  UNL     1      -6.076   8.985  15.644  1.00  0.00     0.010 C 
BRANCH  25  27
HETATM   27  C3  UNL     1      -7.116   6.799  16.422  1.00  0.00     0.007 C 
BRANCH  27  28
HETATM   28  C4  UNL     1      -8.561   6.408  16.059  1.00  0.00     0.035 C 
BRANCH  28  29
HETATM   29  C5  UNL     1      -9.438   7.585  15.607  1.00  0.00     0.154 C 
BRANCH  29  30
HETATM   30  O1  UNL     1     -10.252   8.006  16.713  1.00  0.00    -0.392 OA
HETATM   31  H10 UNL     1     -10.901   8.626  16.316  1.00  0.00     0.210 HD
ENDBRANCH  29  30
BRANCH  29  32
HETATM   32  C6  UNL     1     -10.365   7.278  14.401  1.00  0.00     0.101 C 
HETATM   33  C7  UNL     1      -9.676   6.447  13.310  1.00  0.00     0.051 C 
BRANCH  32  34
HETATM   34  O2  UNL     1     -11.443   6.456  14.914  1.00  0.00    -0.385 OA
HETATM   35  H14 UNL     1     -12.192   6.597  14.297  1.00  0.00     0.210 HD
ENDBRANCH  32  34
BRANCH  32  36
HETATM   36  C8  UNL     1     -10.990   8.562  13.819  1.00  0.00     0.204 C 
BRANCH  36  37
HETATM   37  O3  UNL     1     -10.372   9.711  14.408  1.00  0.00    -0.398 OA
HETATM   38  H17 UNL     1     -10.823   9.885  15.254  1.00  0.00     0.209 HD
ENDBRANCH  36  37
ENDBRANCH  32  36
ENDBRANCH  29  32
ENDBRANCH  28  29
ENDBRANCH  27  28
ENDBRANCH  25  27
ENDBRANCH   1  25
TORSDOF 9
ENDMDL
