MODEL 1
REMARK minimizedAffinity -6.6662426
REMARK CNNscore 0.683940411
REMARK CNNaffinity 6.7707386
REMARK  10 active torsions:
REMARK  status: ('A' for Active; 'I' for Inactive)
REMARK    1  A    between atoms: C2_2  and  C3_4 
REMARK    2  A    between atoms: C10_12  and  O3_13 
REMARK    3  A    between atoms: C13_16  and  C14_17 
REMARK    4  A    between atoms: C14_17  and  C16_19 
REMARK    5  A    between atoms: C16_19  and  C17_20 
REMARK    6  A    between atoms: C17_20  and  C18_21 
REMARK    7  A    between atoms: C26_29  and  C27_30 
REMARK    8  A    between atoms: C27_30  and  C28_31 
REMARK    9  A    between atoms: C28_31  and  C29_32 
REMARK   10  A    between atoms: C29_32  and  O4_33 
ROOT
HETATM    1  C3  UNL     1      -3.309  52.003 -10.620  1.00  0.00     0.151 A 
HETATM    2  O2  UNL     1      -4.357  52.858 -11.156  1.00  0.00    -0.360 OA
HETATM    3  C4  UNL     1      -3.573  53.400 -10.106  1.00  0.00     0.166 A 
HETATM    4  C5  UNL     1      -2.673  54.503 -10.543  1.00  0.00     0.041 C 
HETATM    5  C6  UNL     1      -1.182  54.131 -10.447  1.00  0.00     0.006 C 
HETATM    6  C7  UNL     1      -0.830  52.687 -11.055  1.00  0.00    -0.030 C 
HETATM    7  C8  UNL     1       0.149  52.829 -12.256  1.00  0.00     0.016 C 
HETATM    8  C9  UNL     1      -0.063  51.816 -10.011  1.00  0.00     0.042 C 
HETATM    9  C10 UNL     1       1.076  52.481  -9.187  1.00  0.00     0.128 C 
HETATM   10  C11 UNL     1       0.949  54.018  -8.971  1.00  0.00    -0.006 C 
HETATM   11  C12 UNL     1       1.806  54.775 -10.041  1.00  0.00     0.019 C 
HETATM   12  C13 UNL     1       1.379  54.609  -7.575  1.00  0.00     0.001 C 
HETATM   13  C22 UNL     1       0.583  55.951  -7.523  1.00  0.00     0.007 C 
HETATM   14  C23 UNL     1      -0.507  55.888  -8.612  1.00  0.00     0.011 C 
HETATM   15  C24 UNL     1      -0.578  54.403  -9.013  1.00  0.00    -0.029 C 
HETATM   16  C25 UNL     1      -1.437  53.725  -7.897  1.00  0.00     0.016 C 
HETATM   17  C26 UNL     1      -2.111  51.843 -11.565  1.00  0.00     0.039 C 
ENDROOT
BRANCH  12  18
HETATM   18  C14 UNL     1       2.890  54.814  -7.226  1.00  0.00    -0.013 C 
HETATM   19  C15 UNL     1       3.283  54.064  -5.947  1.00  0.00     0.010 C 
BRANCH  18  20
HETATM   20  C16 UNL     1       3.197  56.332  -7.091  1.00  0.00     0.008 C 
BRANCH  20  21
HETATM   21  C17 UNL     1       4.229  56.922  -8.066  1.00  0.00     0.028 C 
BRANCH  21  22
HETATM   22  C18 UNL     1       5.039  55.889  -8.798  1.00  0.00    -0.025 C 
HETATM   23  C19 UNL     1       6.204  55.331  -8.410  1.00  0.00    -0.091 C 
HETATM   24  C20 UNL     1       6.966  55.711  -7.168  1.00  0.00     0.042 C 
HETATM   25  C21 UNL     1       6.861  54.260  -9.241  1.00  0.00     0.042 C 
ENDBRANCH  21  22
ENDBRANCH  20  21
ENDBRANCH  18  20
ENDBRANCH  12  18
BRANCH   9  26
HETATM   26  O3  UNL     1       1.111  51.803  -7.927  1.00  0.00    -0.395 OA
HETATM   27  H14 UNL     1       1.354  50.873  -8.097  1.00  0.00     0.210 HD
ENDBRANCH   9  26
BRANCH  17  28
HETATM   28  C27 UNL     1      -2.522  52.088 -13.052  1.00  0.00     0.011 C 
BRANCH  28  29
HETATM   29  C28 UNL     1      -2.456  50.823 -13.922  1.00  0.00     0.027 C 
BRANCH  29  30
HETATM   30  C29 UNL     1      -3.069  51.046 -15.302  1.00  0.00     0.164 C 
BRANCH  30  31
HETATM   31  O4  UNL     1      -3.441  49.805 -15.889  1.00  0.00    -0.401 OA
HETATM   32  H48 UNL     1      -3.893  50.017 -16.726  1.00  0.00     0.209 HD
ENDBRANCH  30  31
ENDBRANCH  29  30
ENDBRANCH  28  29
ENDBRANCH  17  28
BRANCH   1  33
HETATM   33  C2  UNL     1      -3.895  50.805  -9.934  1.00  0.00     0.160 C 
HETATM   34  C1  UNL     1      -5.233  50.325 -10.421  1.00  0.00     0.094 C 
HETATM   35  O1  UNL     1      -3.311  50.255  -9.001  1.00  0.00    -0.295 OA
ENDBRANCH   1  33
TORSDOF 10
ENDMDL
MODEL 2
REMARK minimizedAffinity -6.14967394
REMARK CNNscore 0.544765234
REMARK CNNaffinity 6.65865946
REMARK  10 active torsions:
REMARK  status: ('A' for Active; 'I' for Inactive)
REMARK    1  A    between atoms: C2_2  and  C3_4 
REMARK    2  A    between atoms: C10_12  and  O3_13 
REMARK    3  A    between atoms: C13_16  and  C14_17 
REMARK    4  A    between atoms: C14_17  and  C16_19 
REMARK    5  A    between atoms: C16_19  and  C17_20 
REMARK    6  A    between atoms: C17_20  and  C18_21 
REMARK    7  A    between atoms: C26_29  and  C27_30 
REMARK    8  A    between atoms: C27_30  and  C28_31 
REMARK    9  A    between atoms: C28_31  and  C29_32 
REMARK   10  A    between atoms: C29_32  and  O4_33 
ROOT
HETATM    1  C3  UNL     1      -1.916  50.049 -10.206  1.00  0.00     0.151 A 
HETATM    2  O2  UNL     1      -2.530  49.364  -9.077  1.00  0.00    -0.360 OA
HETATM    3  C4  UNL     1      -1.349  50.100  -8.805  1.00  0.00     0.166 A 
HETATM    4  C5  UNL     1      -1.584  51.322  -7.985  1.00  0.00     0.041 C 
HETATM    5  C6  UNL     1      -1.312  52.623  -8.760  1.00  0.00     0.006 C 
HETATM    6  C7  UNL     1      -1.963  52.656 -10.227  1.00  0.00    -0.030 C 
HETATM    7  C8  UNL     1      -3.008  53.805 -10.331  1.00  0.00     0.016 C 
HETATM    8  C9  UNL     1      -0.886  52.993 -11.306  1.00  0.00     0.042 C 
HETATM    9  C10 UNL     1       0.128  54.133 -11.009  1.00  0.00     0.128 C 
HETATM   10  C11 UNL     1       0.429  54.398  -9.505  1.00  0.00    -0.006 C 
HETATM   11  C12 UNL     1      -0.461  55.579  -8.987  1.00  0.00     0.019 C 
HETATM   12  C13 UNL     1       1.907  54.760  -9.096  1.00  0.00     0.001 C 
HETATM   13  C22 UNL     1       1.942  54.359  -7.586  1.00  0.00     0.007 C 
HETATM   14  C23 UNL     1       0.713  53.469  -7.313  1.00  0.00     0.011 C 
HETATM   15  C24 UNL     1       0.206  53.058  -8.708  1.00  0.00    -0.029 C 
HETATM   16  C25 UNL     1       1.147  51.890  -9.150  1.00  0.00     0.016 C 
HETATM   17  C26 UNL     1      -2.698  51.285 -10.667  1.00  0.00     0.039 C 
ENDROOT
BRANCH  12  18
HETATM   18  C14 UNL     1       2.471  56.200  -9.330  1.00  0.00    -0.013 C 
HETATM   19  C15 UNL     1       3.477  56.233 -10.487  1.00  0.00     0.010 C 
BRANCH  18  20
HETATM   20  C16 UNL     1       3.121  56.730  -8.020  1.00  0.00     0.008 C 
BRANCH  20  21
HETATM   21  C17 UNL     1       4.655  56.820  -7.993  1.00  0.00     0.028 C 
BRANCH  21  22
HETATM   22  C18 UNL     1       5.322  55.670  -7.291  1.00  0.00    -0.025 C 
HETATM   23  C19 UNL     1       6.161  54.758  -7.822  1.00  0.00    -0.091 C 
HETATM   24  C20 UNL     1       6.535  54.681  -9.279  1.00  0.00     0.042 C 
HETATM   25  C21 UNL     1       6.792  53.696  -6.960  1.00  0.00     0.042 C 
ENDBRANCH  21  22
ENDBRANCH  20  21
ENDBRANCH  18  20
ENDBRANCH  12  18
BRANCH   9  26
HETATM   26  O3  UNL     1       1.332  53.794 -11.705  1.00  0.00    -0.395 OA
HETATM   27  H14 UNL     1       1.134  53.798 -12.660  1.00  0.00     0.210 HD
ENDBRANCH   9  26
BRANCH  17  28
HETATM   28  C27 UNL     1      -4.208  51.183 -10.276  1.00  0.00     0.011 C 
BRANCH  28  29
HETATM   29  C28 UNL     1      -4.989  50.159 -11.114  1.00  0.00     0.027 C 
BRANCH  29  30
HETATM   30  C29 UNL     1      -6.008  49.392 -10.274  1.00  0.00     0.164 C 
BRANCH  30  31
HETATM   31  O4  UNL     1      -6.857  50.294  -9.574  1.00  0.00    -0.401 OA
HETATM   32  H48 UNL     1      -7.528  49.752  -9.123  1.00  0.00     0.209 HD
ENDBRANCH  30  31
ENDBRANCH  29  30
ENDBRANCH  28  29
ENDBRANCH  17  28
BRANCH   1  33
HETATM   33  C2  UNL     1      -1.399  49.063 -11.210  1.00  0.00     0.160 C 
HETATM   34  C1  UNL     1      -0.997  49.604 -12.553  1.00  0.00     0.094 C 
HETATM   35  O1  UNL     1      -1.327  47.863 -10.948  1.00  0.00    -0.295 OA
ENDBRANCH   1  33
TORSDOF 10
ENDMDL
MODEL 3
REMARK minimizedAffinity -6.9042325
REMARK CNNscore 0.419550627
REMARK CNNaffinity 6.09256792
REMARK  10 active torsions:
REMARK  status: ('A' for Active; 'I' for Inactive)
REMARK    1  A    between atoms: C2_2  and  C3_4 
REMARK    2  A    between atoms: C10_12  and  O3_13 
REMARK    3  A    between atoms: C13_16  and  C14_17 
REMARK    4  A    between atoms: C14_17  and  C16_19 
REMARK    5  A    between atoms: C16_19  and  C17_20 
REMARK    6  A    between atoms: C17_20  and  C18_21 
REMARK    7  A    between atoms: C26_29  and  C27_30 
REMARK    8  A    between atoms: C27_30  and  C28_31 
REMARK    9  A    between atoms: C28_31  and  C29_32 
REMARK   10  A    between atoms: C29_32  and  O4_33 
ROOT
HETATM    1  C3  UNL     1      -6.036  47.099 -30.887  1.00  0.00     0.151 A 
HETATM    2  O2  UNL     1      -5.111  46.012 -31.172  1.00  0.00    -0.360 OA
HETATM    3  C4  UNL     1      -6.166  45.725 -30.269  1.00  0.00     0.166 A 
HETATM    4  C5  UNL     1      -7.184  44.788 -30.822  1.00  0.00     0.041 C 
HETATM    5  C6  UNL     1      -8.557  45.454 -31.030  1.00  0.00     0.006 C 
HETATM    6  C7  UNL     1      -8.484  46.883 -31.759  1.00  0.00    -0.030 C 
HETATM    7  C8  UNL     1      -9.240  46.837 -33.118  1.00  0.00     0.016 C 
HETATM    8  C9  UNL     1      -9.226  47.972 -30.922  1.00  0.00     0.042 C 
HETATM    9  C10 UNL     1     -10.607  47.616 -30.303  1.00  0.00     0.128 C 
HETATM   10  C11 UNL     1     -10.846  46.108 -29.998  1.00  0.00    -0.006 C 
HETATM   11  C12 UNL     1     -11.637  45.448 -31.178  1.00  0.00     0.019 C 
HETATM   12  C13 UNL     1     -11.633  45.732 -28.686  1.00  0.00     0.001 C 
HETATM   13  C22 UNL     1     -11.158  44.268 -28.421  1.00  0.00     0.007 C 
HETATM   14  C23 UNL     1      -9.902  44.024 -29.282  1.00  0.00     0.011 C 
HETATM   15  C24 UNL     1      -9.451  45.427 -29.729  1.00  0.00    -0.029 C 
HETATM   16  C25 UNL     1      -8.683  46.013 -28.500  1.00  0.00     0.016 C 
HETATM   17  C26 UNL     1      -6.984  47.412 -32.050  1.00  0.00     0.039 C 
ENDROOT
BRANCH  12  18
HETATM   18  C14 UNL     1     -13.191  45.858 -28.625  1.00  0.00    -0.013 C 
HETATM   19  C15 UNL     1     -13.635  46.899 -27.590  1.00  0.00     0.010 C 
BRANCH  18  20
HETATM   20  C16 UNL     1     -13.820  44.471 -28.316  1.00  0.00     0.008 C 
BRANCH  20  21
HETATM   21  C17 UNL     1     -15.214  44.468 -27.669  1.00  0.00     0.028 C 
BRANCH  21  22
HETATM   22  C18 UNL     1     -16.343  44.303 -28.648  1.00  0.00    -0.025 C 
HETATM   23  C19 UNL     1     -17.045  43.183 -28.912  1.00  0.00    -0.091 C 
HETATM   24  C20 UNL     1     -16.768  41.832 -28.306  1.00  0.00     0.042 C 
HETATM   25  C21 UNL     1     -18.192  43.204 -29.889  1.00  0.00     0.042 C 
ENDBRANCH  21  22
ENDBRANCH  20  21
ENDBRANCH  18  20
ENDBRANCH  12  18
BRANCH   9  26
HETATM   26  O3  UNL     1     -10.725  48.390 -29.106  1.00  0.00    -0.395 OA
HETATM   27  H14 UNL     1     -10.733  49.332 -29.361  1.00  0.00     0.210 HD
ENDBRANCH   9  26
BRANCH  17  28
HETATM   28  C27 UNL     1      -6.374  46.968 -33.418  1.00  0.00     0.011 C 
BRANCH  28  29
HETATM   29  C28 UNL     1      -5.477  48.035 -34.064  1.00  0.00     0.027 C 
BRANCH  29  30
HETATM   30  C29 UNL     1      -3.996  47.688 -33.940  1.00  0.00     0.164 C 
BRANCH  30  31
HETATM   31  O4  UNL     1      -3.191  48.829 -34.210  1.00  0.00    -0.401 OA
HETATM   32  H48 UNL     1      -2.269  48.567 -34.040  1.00  0.00     0.209 HD
ENDBRANCH  30  31
ENDBRANCH  29  30
ENDBRANCH  28  29
ENDBRANCH  17  28
BRANCH   1  33
HETATM   33  C2  UNL     1      -5.344  48.210 -30.155  1.00  0.00     0.160 C 
HETATM   34  C1  UNL     1      -5.398  48.177 -28.654  1.00  0.00     0.094 C 
HETATM   35  O1  UNL     1      -4.775  49.116 -30.762  1.00  0.00    -0.295 OA
ENDBRANCH   1  33
TORSDOF 10
ENDMDL
MODEL 4
REMARK minimizedAffinity -6.60852242
REMARK CNNscore 0.416793048
REMARK CNNaffinity 6.71804237
REMARK  10 active torsions:
REMARK  status: ('A' for Active; 'I' for Inactive)
REMARK    1  A    between atoms: C2_2  and  C3_4 
REMARK    2  A    between atoms: C10_12  and  O3_13 
REMARK    3  A    between atoms: C13_16  and  C14_17 
REMARK    4  A    between atoms: C14_17  and  C16_19 
REMARK    5  A    between atoms: C16_19  and  C17_20 
REMARK    6  A    between atoms: C17_20  and  C18_21 
REMARK    7  A    between atoms: C26_29  and  C27_30 
REMARK    8  A    between atoms: C27_30  and  C28_31 
REMARK    9  A    between atoms: C28_31  and  C29_32 
REMARK   10  A    between atoms: C29_32  and  O4_33 
ROOT
HETATM    1  C3  UNL     1      -1.298  51.530 -10.160  1.00  0.00     0.151 A 
HETATM    2  O2  UNL     1      -2.094  50.946  -9.090  1.00  0.00    -0.360 OA
HETATM    3  C4  UNL     1      -0.722  51.169  -8.809  1.00  0.00     0.166 A 
HETATM    4  C5  UNL     1      -0.485  52.257  -7.820  1.00  0.00     0.041 C 
HETATM    5  C6  UNL     1       0.221  53.479  -8.434  1.00  0.00     0.006 C 
HETATM    6  C7  UNL     1      -0.404  53.959  -9.833  1.00  0.00    -0.030 C 
HETATM    7  C8  UNL     1      -0.969  55.404  -9.707  1.00  0.00     0.016 C 
HETATM    8  C9  UNL     1       0.699  54.051 -10.933  1.00  0.00     0.042 C 
HETATM    9  C10 UNL     1       2.061  54.702 -10.562  1.00  0.00     0.128 C 
HETATM   10  C11 UNL     1       2.468  54.616  -9.061  1.00  0.00    -0.006 C 
HETATM   11  C12 UNL     1       2.072  55.943  -8.329  1.00  0.00     0.019 C 
HETATM   12  C13 UNL     1       3.985  54.368  -8.717  1.00  0.00     0.001 C 
HETATM   13  C22 UNL     1       3.905  53.760  -7.280  1.00  0.00     0.007 C 
HETATM   14  C23 UNL     1       2.444  53.329  -7.039  1.00  0.00     0.011 C 
HETATM   15  C24 UNL     1       1.794  53.337  -8.435  1.00  0.00    -0.029 C 
HETATM   16  C25 UNL     1       2.243  51.993  -9.095  1.00  0.00     0.016 C 
HETATM   17  C26 UNL     1      -1.593  53.017 -10.395  1.00  0.00     0.039 C 
ENDROOT
BRANCH  12  18
HETATM   18  C14 UNL     1       5.024  55.534  -8.798  1.00  0.00    -0.013 C 
HETATM   19  C15 UNL     1       6.119  55.246  -9.833  1.00  0.00     0.010 C 
BRANCH  18  20
HETATM   20  C16 UNL     1       5.645  55.785  -7.395  1.00  0.00     0.008 C 
BRANCH  20  21
HETATM   21  C17 UNL     1       5.611  57.228  -6.868  1.00  0.00     0.028 C 
BRANCH  21  22
HETATM   22  C18 UNL     1       4.356  57.575  -6.117  1.00  0.00    -0.025 C 
HETATM   23  C19 UNL     1       4.254  58.238  -4.947  1.00  0.00    -0.091 C 
HETATM   24  C20 UNL     1       5.424  58.700  -4.117  1.00  0.00     0.042 C 
HETATM   25  C21 UNL     1       2.906  58.555  -4.354  1.00  0.00     0.042 C 
ENDBRANCH  21  22
ENDBRANCH  20  21
ENDBRANCH  18  20
ENDBRANCH  12  18
BRANCH   9  26
HETATM   26  O3  UNL     1       3.048  54.069 -11.382  1.00  0.00    -0.395 OA
HETATM   27  H14 UNL     1       2.845  54.285 -12.312  1.00  0.00     0.210 HD
ENDBRANCH   9  26
BRANCH  17  28
HETATM   28  C27 UNL     1      -3.029  53.396  -9.912  1.00  0.00     0.011 C 
BRANCH  28  29
HETATM   29  C28 UNL     1      -3.925  53.950 -11.032  1.00  0.00     0.027 C 
BRANCH  29  30
HETATM   30  C29 UNL     1      -3.919  53.050 -12.265  1.00  0.00     0.164 C 
BRANCH  30  31
HETATM   31  O4  UNL     1      -4.300  53.786 -13.421  1.00  0.00    -0.401 OA
HETATM   32  H48 UNL     1      -4.203  53.184 -14.180  1.00  0.00     0.209 HD
ENDBRANCH  30  31
ENDBRANCH  29  30
ENDBRANCH  28  29
ENDBRANCH  17  28
BRANCH   1  33
HETATM   33  C2  UNL     1      -1.190  50.588 -11.321  1.00  0.00     0.160 C 
HETATM   34  C1  UNL     1       0.119  50.558 -12.057  1.00  0.00     0.094 C 
HETATM   35  O1  UNL     1      -2.141  49.886 -11.663  1.00  0.00    -0.295 OA
ENDBRANCH   1  33
TORSDOF 10
ENDMDL
MODEL 5
REMARK minimizedAffinity -6.17819023
REMARK CNNscore 0.399938285
REMARK CNNaffinity 5.89062452
REMARK  10 active torsions:
REMARK  status: ('A' for Active; 'I' for Inactive)
REMARK    1  A    between atoms: C2_2  and  C3_4 
REMARK    2  A    between atoms: C10_12  and  O3_13 
REMARK    3  A    between atoms: C13_16  and  C14_17 
REMARK    4  A    between atoms: C14_17  and  C16_19 
REMARK    5  A    between atoms: C16_19  and  C17_20 
REMARK    6  A    between atoms: C17_20  and  C18_21 
REMARK    7  A    between atoms: C26_29  and  C27_30 
REMARK    8  A    between atoms: C27_30  and  C28_31 
REMARK    9  A    between atoms: C28_31  and  C29_32 
REMARK   10  A    between atoms: C29_32  and  O4_33 
ROOT
HETATM    1  C3  UNL     1      -0.062  53.322  -8.473  1.00  0.00     0.151 A 
HETATM    2  O2  UNL     1      -1.417  53.848  -8.417  1.00  0.00    -0.360 OA
HETATM    3  C4  UNL     1      -0.483  54.407  -7.509  1.00  0.00     0.166 A 
HETATM    4  C5  UNL     1      -0.121  55.819  -7.820  1.00  0.00     0.041 C 
HETATM    5  C6  UNL     1       1.348  55.977  -8.252  1.00  0.00     0.006 C 
HETATM    6  C7  UNL     1       1.827  54.898  -9.340  1.00  0.00    -0.030 C 
HETATM    7  C8  UNL     1       2.241  55.608 -10.661  1.00  0.00     0.016 C 
HETATM    8  C9  UNL     1       3.115  54.158  -8.860  1.00  0.00     0.042 C 
HETATM    9  C10 UNL     1       4.255  54.998  -8.217  1.00  0.00     0.128 C 
HETATM   10  C11 UNL     1       3.814  56.319  -7.521  1.00  0.00    -0.006 C 
HETATM   11  C12 UNL     1       4.004  57.524  -8.503  1.00  0.00     0.019 C 
HETATM   12  C13 UNL     1       4.540  56.732  -6.184  1.00  0.00     0.001 C 
HETATM   13  C22 UNL     1       3.492  57.674  -5.513  1.00  0.00     0.007 C 
HETATM   14  C23 UNL     1       2.144  57.455  -6.229  1.00  0.00     0.011 C 
HETATM   15  C24 UNL     1       2.328  56.150  -7.025  1.00  0.00    -0.029 C 
HETATM   16  C25 UNL     1       2.132  55.007  -5.976  1.00  0.00     0.016 C 
HETATM   17  C26 UNL     1       0.719  53.781  -9.711  1.00  0.00     0.039 C 
ENDROOT
BRANCH  12  18
HETATM   18  C14 UNL     1       5.966  57.376  -6.216  1.00  0.00    -0.013 C 
HETATM   19  C15 UNL     1       7.068  56.318  -6.082  1.00  0.00     0.010 C 
BRANCH  18  20
HETATM   20  C16 UNL     1       6.087  58.442  -5.092  1.00  0.00     0.008 C 
BRANCH  20  21
HETATM   21  C17 UNL     1       7.477  58.638  -4.466  1.00  0.00     0.028 C 
BRANCH  21  22
HETATM   22  C18 UNL     1       8.155  59.918  -4.870  1.00  0.00    -0.025 C 
HETATM   23  C19 UNL     1       9.470  60.119  -5.087  1.00  0.00    -0.091 C 
HETATM   24  C20 UNL     1      10.542  59.081  -4.883  1.00  0.00     0.042 C 
HETATM   25  C21 UNL     1       9.981  61.460  -5.546  1.00  0.00     0.042 C 
ENDBRANCH  21  22
ENDBRANCH  20  21
ENDBRANCH  18  20
ENDBRANCH  12  18
BRANCH   9  26
HETATM   26  O3  UNL     1       4.913  54.138  -7.282  1.00  0.00    -0.395 OA
HETATM   27  H14 UNL     1       5.315  53.405  -7.784  1.00  0.00     0.210 HD
ENDBRANCH   9  26
BRANCH  17  28
HETATM   28  C27 UNL     1      -0.243  54.159 -10.883  1.00  0.00     0.011 C 
BRANCH  28  29
HETATM   29  C28 UNL     1      -0.584  52.975 -11.801  1.00  0.00     0.027 C 
BRANCH  29  30
HETATM   30  C29 UNL     1       0.640  52.474 -12.565  1.00  0.00     0.164 C 
BRANCH  30  31
HETATM   31  O4  UNL     1       0.569  52.864 -13.931  1.00  0.00    -0.401 OA
HETATM   32  H48 UNL     1       1.406  52.585 -14.344  1.00  0.00     0.209 HD
ENDBRANCH  30  31
ENDBRANCH  29  30
ENDBRANCH  28  29
ENDBRANCH  17  28
BRANCH   1  33
HETATM   33  C2  UNL     1      -0.029  51.884  -8.048  1.00  0.00     0.160 C 
HETATM   34  C1  UNL     1      -1.270  51.073  -8.288  1.00  0.00     0.094 C 
HETATM   35  O1  UNL     1       0.967  51.400  -7.511  1.00  0.00    -0.295 OA
ENDBRANCH   1  33
TORSDOF 10
ENDMDL
MODEL 6
REMARK minimizedAffinity -7.10866451
REMARK CNNscore 0.374494493
REMARK CNNaffinity 6.42766905
REMARK  10 active torsions:
REMARK  status: ('A' for Active; 'I' for Inactive)
REMARK    1  A    between atoms: C2_2  and  C3_4 
REMARK    2  A    between atoms: C10_12  and  O3_13 
REMARK    3  A    between atoms: C13_16  and  C14_17 
REMARK    4  A    between atoms: C14_17  and  C16_19 
REMARK    5  A    between atoms: C16_19  and  C17_20 
REMARK    6  A    between atoms: C17_20  and  C18_21 
REMARK    7  A    between atoms: C26_29  and  C27_30 
REMARK    8  A    between atoms: C27_30  and  C28_31 
REMARK    9  A    between atoms: C28_31  and  C29_32 
REMARK   10  A    between atoms: C29_32  and  O4_33 
ROOT
HETATM    1  C3  UNL     1      -1.432  51.215 -21.790  1.00  0.00     0.151 A 
HETATM    2  O2  UNL     1      -1.442  51.801 -20.458  1.00  0.00    -0.360 OA
HETATM    3  C4  UNL     1      -2.692  51.715 -21.121  1.00  0.00     0.166 A 
HETATM    4  C5  UNL     1      -3.621  50.721 -20.516  1.00  0.00     0.041 C 
HETATM    5  C6  UNL     1      -3.902  49.524 -21.443  1.00  0.00     0.006 C 
HETATM    6  C7  UNL     1      -2.586  48.899 -22.117  1.00  0.00    -0.030 C 
HETATM    7  C8  UNL     1      -2.393  47.423 -21.663  1.00  0.00     0.016 C 
HETATM    8  C9  UNL     1      -2.737  48.826 -23.669  1.00  0.00     0.042 C 
HETATM    9  C10 UNL     1      -4.084  48.320 -24.258  1.00  0.00     0.128 C 
HETATM   10  C11 UNL     1      -5.341  48.542 -23.366  1.00  0.00    -0.006 C 
HETATM   11  C12 UNL     1      -5.650  47.239 -22.554  1.00  0.00     0.019 C 
HETATM   12  C13 UNL     1      -6.691  48.942 -24.073  1.00  0.00     0.001 C 
HETATM   13  C22 UNL     1      -7.479  49.636 -22.917  1.00  0.00     0.007 C 
HETATM   14  C23 UNL     1      -6.471  49.956 -21.795  1.00  0.00     0.011 C 
HETATM   15  C24 UNL     1      -5.087  49.799 -22.451  1.00  0.00    -0.029 C 
HETATM   16  C25 UNL     1      -4.863  51.129 -23.241  1.00  0.00     0.016 C 
HETATM   17  C26 UNL     1      -1.219  49.696 -21.785  1.00  0.00     0.039 C 
ENDROOT
BRANCH  12  18
HETATM   18  C14 UNL     1      -7.559  47.865 -24.804  1.00  0.00    -0.013 C 
HETATM   19  C15 UNL     1      -7.001  47.537 -26.195  1.00  0.00     0.010 C 
BRANCH  18  20
HETATM   20  C16 UNL     1      -9.031  48.354 -24.904  1.00  0.00     0.008 C 
BRANCH  20  21
HETATM   21  C17 UNL     1      -9.536  48.762 -26.297  1.00  0.00     0.028 C 
BRANCH  21  22
HETATM   22  C18 UNL     1     -10.923  48.274 -26.611  1.00  0.00    -0.025 C 
HETATM   23  C19 UNL     1     -11.637  47.342 -25.948  1.00  0.00    -0.091 C 
HETATM   24  C20 UNL     1     -11.128  46.542 -24.778  1.00  0.00     0.042 C 
HETATM   25  C21 UNL     1     -13.046  47.008 -26.365  1.00  0.00     0.042 C 
ENDBRANCH  21  22
ENDBRANCH  20  21
ENDBRANCH  18  20
ENDBRANCH  12  18
BRANCH   9  26
HETATM   26  O3  UNL     1      -4.246  48.978 -25.519  1.00  0.00    -0.395 OA
HETATM   27  H14 UNL     1      -3.522  48.683 -26.103  1.00  0.00     0.210 HD
ENDBRANCH   9  26
BRANCH  17  28
HETATM   28  C27 UNL     1      -0.471  49.229 -20.496  1.00  0.00     0.011 C 
BRANCH  28  29
HETATM   29  C28 UNL     1      -1.405  48.648 -19.423  1.00  0.00     0.027 C 
BRANCH  29  30
HETATM   30  C29 UNL     1      -1.213  49.328 -18.069  1.00  0.00     0.164 C 
BRANCH  30  31
HETATM   31  O4  UNL     1      -0.502  48.476 -17.180  1.00  0.00    -0.401 OA
HETATM   32  H48 UNL     1      -0.344  48.990 -16.368  1.00  0.00     0.209 HD
ENDBRANCH  30  31
ENDBRANCH  29  30
ENDBRANCH  28  29
ENDBRANCH  17  28
BRANCH   1  33
HETATM   33  C2  UNL     1      -0.672  52.082 -22.748  1.00  0.00     0.160 C 
HETATM   34  C1  UNL     1      -1.178  52.144 -24.162  1.00  0.00     0.094 C 
HETATM   35  O1  UNL     1       0.332  52.699 -22.393  1.00  0.00    -0.295 OA
ENDBRANCH   1  33
TORSDOF 10
ENDMDL
MODEL 7
REMARK minimizedAffinity -6.40715694
REMARK CNNscore 0.331961066
REMARK CNNaffinity 6.48890162
REMARK  10 active torsions:
REMARK  status: ('A' for Active; 'I' for Inactive)
REMARK    1  A    between atoms: C2_2  and  C3_4 
REMARK    2  A    between atoms: C10_12  and  O3_13 
REMARK    3  A    between atoms: C13_16  and  C14_17 
REMARK    4  A    between atoms: C14_17  and  C16_19 
REMARK    5  A    between atoms: C16_19  and  C17_20 
REMARK    6  A    between atoms: C17_20  and  C18_21 
REMARK    7  A    between atoms: C26_29  and  C27_30 
REMARK    8  A    between atoms: C27_30  and  C28_31 
REMARK    9  A    between atoms: C28_31  and  C29_32 
REMARK   10  A    between atoms: C29_32  and  O4_33 
ROOT
HETATM    1  C3  UNL     1      -0.741  51.677 -19.755  1.00  0.00     0.151 A 
HETATM    2  O2  UNL     1      -1.061  52.312 -18.485  1.00  0.00    -0.360 OA
HETATM    3  C4  UNL     1      -2.126  52.175 -19.411  1.00  0.00     0.166 A 
HETATM    4  C5  UNL     1      -3.157  51.184 -18.991  1.00  0.00     0.041 C 
HETATM    5  C6  UNL     1      -3.205  49.948 -19.908  1.00  0.00     0.006 C 
HETATM    6  C7  UNL     1      -1.762  49.327 -20.240  1.00  0.00    -0.030 C 
HETATM    7  C8  UNL     1      -1.659  47.873 -19.694  1.00  0.00     0.016 C 
HETATM    8  C9  UNL     1      -1.556  49.193 -21.782  1.00  0.00     0.042 C 
HETATM    9  C10 UNL     1      -2.727  48.637 -22.640  1.00  0.00     0.128 C 
HETATM   10  C11 UNL     1      -4.156  48.865 -22.066  1.00  0.00    -0.006 C 
HETATM   11  C12 UNL     1      -4.626  47.587 -21.292  1.00  0.00     0.019 C 
HETATM   12  C13 UNL     1      -5.315  49.210 -23.076  1.00  0.00     0.001 C 
HETATM   13  C22 UNL     1      -6.353  49.930 -22.158  1.00  0.00     0.007 C 
HETATM   14  C23 UNL     1      -5.631  50.313 -20.850  1.00  0.00     0.011 C 
HETATM   15  C24 UNL     1      -4.132  50.160 -21.168  1.00  0.00    -0.029 C 
HETATM   16  C25 UNL     1      -3.750  51.464 -21.942  1.00  0.00     0.016 C 
HETATM   17  C26 UNL     1      -0.516  50.164 -19.640  1.00  0.00     0.039 C 
ENDROOT
BRANCH  12  18
HETATM   18  C14 UNL     1      -5.981  48.089 -23.940  1.00  0.00    -0.013 C 
HETATM   19  C15 UNL     1      -5.580  48.199 -25.417  1.00  0.00     0.010 C 
BRANCH  18  20
HETATM   20  C16 UNL     1      -7.526  48.151 -23.783  1.00  0.00     0.008 C 
BRANCH  20  21
HETATM   21  C17 UNL     1      -8.330  48.639 -24.999  1.00  0.00     0.028 C 
BRANCH  21  22
HETATM   22  C18 UNL     1      -9.532  47.793 -25.316  1.00  0.00    -0.025 C 
HETATM   23  C19 UNL     1      -9.569  46.653 -26.034  1.00  0.00    -0.091 C 
HETATM   24  C20 UNL     1      -8.385  46.040 -26.734  1.00  0.00     0.042 C 
HETATM   25  C21 UNL     1     -10.859  45.894 -26.211  1.00  0.00     0.042 C 
ENDBRANCH  21  22
ENDBRANCH  20  21
ENDBRANCH  18  20
ENDBRANCH  12  18
BRANCH   9  26
HETATM   26  O3  UNL     1      -2.606  49.244 -23.930  1.00  0.00    -0.395 OA
HETATM   27  H14 UNL     1      -1.765  48.943 -24.322  1.00  0.00     0.210 HD
ENDBRANCH   9  26
BRANCH  17  28
HETATM   28  C27 UNL     1      -0.075  49.762 -18.196  1.00  0.00     0.011 C 
BRANCH  28  29
HETATM   29  C28 UNL     1      -1.198  49.113 -17.372  1.00  0.00     0.027 C 
BRANCH  29  30
HETATM   30  C29 UNL     1      -0.727  48.723 -15.972  1.00  0.00     0.164 C 
BRANCH  30  31
HETATM   31  O4  UNL     1      -0.122  49.834 -15.323  1.00  0.00    -0.401 OA
HETATM   32  H48 UNL     1       0.085  49.547 -14.415  1.00  0.00     0.209 HD
ENDBRANCH  30  31
ENDBRANCH  29  30
ENDBRANCH  28  29
ENDBRANCH  17  28
BRANCH   1  33
HETATM   33  C2  UNL     1       0.207  52.524 -20.551  1.00  0.00     0.160 C 
HETATM   34  C1  UNL     1       0.145  52.396 -22.047  1.00  0.00     0.094 C 
HETATM   35  O1  UNL     1       1.010  53.275 -19.998  1.00  0.00    -0.295 OA
ENDBRANCH   1  33
TORSDOF 10
ENDMDL
MODEL 8
REMARK minimizedAffinity -7.06541967
REMARK CNNscore 0.327546656
REMARK CNNaffinity 5.82822657
REMARK  10 active torsions:
REMARK  status: ('A' for Active; 'I' for Inactive)
REMARK    1  A    between atoms: C2_2  and  C3_4 
REMARK    2  A    between atoms: C10_12  and  O3_13 
REMARK    3  A    between atoms: C13_16  and  C14_17 
REMARK    4  A    between atoms: C14_17  and  C16_19 
REMARK    5  A    between atoms: C16_19  and  C17_20 
REMARK    6  A    between atoms: C17_20  and  C18_21 
REMARK    7  A    between atoms: C26_29  and  C27_30 
REMARK    8  A    between atoms: C27_30  and  C28_31 
REMARK    9  A    between atoms: C28_31  and  C29_32 
REMARK   10  A    between atoms: C29_32  and  O4_33 
ROOT
HETATM    1  C3  UNL     1       6.606  64.979 -34.558  1.00  0.00     0.151 A 
HETATM    2  O2  UNL     1       6.557  65.374 -33.158  1.00  0.00    -0.360 OA
HETATM    3  C4  UNL     1       6.976  66.365 -34.082  1.00  0.00     0.166 A 
HETATM    4  C5  UNL     1       5.990  67.467 -34.260  1.00  0.00     0.041 C 
HETATM    5  C6  UNL     1       5.372  67.493 -35.670  1.00  0.00     0.006 C 
HETATM    6  C7  UNL     1       4.885  66.056 -36.195  1.00  0.00    -0.030 C 
HETATM    7  C8  UNL     1       3.347  66.060 -36.436  1.00  0.00     0.016 C 
HETATM    8  C9  UNL     1       5.511  65.731 -37.587  1.00  0.00     0.042 C 
HETATM    9  C10 UNL     1       5.540  66.851 -38.665  1.00  0.00     0.128 C 
HETATM   10  C11 UNL     1       5.566  68.311 -38.125  1.00  0.00    -0.006 C 
HETATM   11  C12 UNL     1       4.113  68.896 -38.111  1.00  0.00     0.019 C 
HETATM   12  C13 UNL     1       6.451  69.369 -38.888  1.00  0.00     0.001 C 
HETATM   13  C22 UNL     1       6.705  70.447 -37.786  1.00  0.00     0.007 C 
HETATM   14  C23 UNL     1       6.339  69.817 -36.427  1.00  0.00     0.011 C 
HETATM   15  C24 UNL     1       6.247  68.305 -36.704  1.00  0.00    -0.029 C 
HETATM   16  C25 UNL     1       7.729  67.807 -36.709  1.00  0.00     0.016 C 
HETATM   17  C26 UNL     1       5.220  64.828 -35.197  1.00  0.00     0.039 C 
ENDROOT
BRANCH  12  18
HETATM   18  C14 UNL     1       5.955  70.009 -40.226  1.00  0.00    -0.013 C 
HETATM   19  C15 UNL     1       6.229  71.518 -40.268  1.00  0.00     0.010 C 
BRANCH  18  20
HETATM   20  C16 UNL     1       4.440  69.719 -40.417  1.00  0.00     0.008 C 
BRANCH  20  21
HETATM   21  C17 UNL     1       4.029  68.986 -41.704  1.00  0.00     0.028 C 
BRANCH  21  22
HETATM   22  C18 UNL     1       2.552  69.015 -41.980  1.00  0.00    -0.025 C 
HETATM   23  C19 UNL     1       1.596  68.246 -41.422  1.00  0.00    -0.091 C 
HETATM   24  C20 UNL     1       1.853  67.130 -40.444  1.00  0.00     0.042 C 
HETATM   25  C21 UNL     1       0.143  68.445 -41.772  1.00  0.00     0.042 C 
ENDBRANCH  21  22
ENDBRANCH  20  21
ENDBRANCH  18  20
ENDBRANCH  12  18
BRANCH   9  26
HETATM   26  O3  UNL     1       6.691  66.600 -39.477  1.00  0.00    -0.395 OA
HETATM   27  H14 UNL     1       6.558  65.744 -39.924  1.00  0.00     0.210 HD
ENDBRANCH   9  26
BRANCH  17  28
HETATM   28  C27 UNL     1       4.127  64.524 -34.123  1.00  0.00     0.011 C 
BRANCH  28  29
HETATM   29  C28 UNL     1       4.055  63.041 -33.726  1.00  0.00     0.027 C 
BRANCH  29  30
HETATM   30  C29 UNL     1       3.862  62.861 -32.222  1.00  0.00     0.164 C 
BRANCH  30  31
HETATM   31  O4  UNL     1       2.660  62.150 -31.955  1.00  0.00    -0.401 OA
HETATM   32  H48 UNL     1       2.633  62.000 -30.993  1.00  0.00     0.209 HD
ENDBRANCH  30  31
ENDBRANCH  29  30
ENDBRANCH  28  29
ENDBRANCH  17  28
BRANCH   1  33
HETATM   33  C2  UNL     1       7.659  63.934 -34.782  1.00  0.00     0.160 C 
HETATM   34  C1  UNL     1       8.405  63.984 -36.085  1.00  0.00     0.094 C 
HETATM   35  O1  UNL     1       7.885  63.066 -33.940  1.00  0.00    -0.295 OA
ENDBRANCH   1  33
TORSDOF 10
ENDMDL
MODEL 9
REMARK minimizedAffinity -6.24486637
REMARK CNNscore 0.326569349
REMARK CNNaffinity 6.50203943
REMARK  10 active torsions:
REMARK  status: ('A' for Active; 'I' for Inactive)
REMARK    1  A    between atoms: C2_2  and  C3_4 
REMARK    2  A    between atoms: C10_12  and  O3_13 
REMARK    3  A    between atoms: C13_16  and  C14_17 
REMARK    4  A    between atoms: C14_17  and  C16_19 
REMARK    5  A    between atoms: C16_19  and  C17_20 
REMARK    6  A    between atoms: C17_20  and  C18_21 
REMARK    7  A    between atoms: C26_29  and  C27_30 
REMARK    8  A    between atoms: C27_30  and  C28_31 
REMARK    9  A    between atoms: C28_31  and  C29_32 
REMARK   10  A    between atoms: C29_32  and  O4_33 
ROOT
HETATM    1  C3  UNL     1      -1.560  51.006 -21.687  1.00  0.00     0.151 A 
HETATM    2  O2  UNL     1      -1.090  50.746 -23.039  1.00  0.00    -0.360 OA
HETATM    3  C4  UNL     1      -1.316  49.612 -22.219  1.00  0.00     0.166 A 
HETATM    4  C5  UNL     1      -2.487  48.794 -22.642  1.00  0.00     0.041 C 
HETATM    5  C6  UNL     1      -3.636  48.822 -21.618  1.00  0.00     0.006 C 
HETATM    6  C7  UNL     1      -3.994  50.291 -21.080  1.00  0.00    -0.030 C 
HETATM    7  C8  UNL     1      -5.453  50.669 -21.467  1.00  0.00     0.016 C 
HETATM    8  C9  UNL     1      -3.967  50.334 -19.519  1.00  0.00     0.042 C 
HETATM    9  C10 UNL     1      -4.628  49.166 -18.736  1.00  0.00     0.128 C 
HETATM   10  C11 UNL     1      -4.675  47.795 -19.473  1.00  0.00    -0.006 C 
HETATM   11  C12 UNL     1      -6.070  47.611 -20.161  1.00  0.00     0.019 C 
HETATM   12  C13 UNL     1      -4.435  46.488 -18.625  1.00  0.00     0.001 C 
HETATM   13  C22 UNL     1      -3.963  45.470 -19.711  1.00  0.00     0.007 C 
HETATM   14  C23 UNL     1      -3.580  46.275 -20.969  1.00  0.00     0.011 C 
HETATM   15  C24 UNL     1      -3.470  47.733 -20.486  1.00  0.00    -0.029 C 
HETATM   16  C25 UNL     1      -2.063  47.826 -19.810  1.00  0.00     0.016 C 
HETATM   17  C26 UNL     1      -3.024  51.462 -21.628  1.00  0.00     0.039 C 
ENDROOT
BRANCH  12  18
HETATM   18  C14 UNL     1      -5.572  45.898 -17.728  1.00  0.00    -0.013 C 
HETATM   19  C15 UNL     1      -6.275  44.717 -18.408  1.00  0.00     0.010 C 
BRANCH  18  20
HETATM   20  C16 UNL     1      -6.593  47.015 -17.371  1.00  0.00     0.008 C 
BRANCH  20  21
HETATM   21  C17 UNL     1      -7.986  46.561 -16.907  1.00  0.00     0.028 C 
BRANCH  21  22
HETATM   22  C18 UNL     1      -9.080  46.834 -17.901  1.00  0.00    -0.025 C 
HETATM   23  C19 UNL     1      -9.469  48.029 -18.389  1.00  0.00    -0.091 C 
HETATM   24  C20 UNL     1      -8.907  49.358 -17.956  1.00  0.00     0.042 C 
HETATM   25  C21 UNL     1     -10.554  48.121 -19.431  1.00  0.00     0.042 C 
ENDBRANCH  21  22
ENDBRANCH  20  21
ENDBRANCH  18  20
ENDBRANCH  12  18
BRANCH   9  26
HETATM   26  O3  UNL     1      -3.907  49.045 -17.506  1.00  0.00    -0.395 OA
HETATM   27  H14 UNL     1      -4.039  49.870 -17.002  1.00  0.00     0.210 HD
ENDBRANCH   9  26
BRANCH  17  28
HETATM   28  C27 UNL     1      -3.469  52.122 -22.973  1.00  0.00     0.011 C 
BRANCH  28  29
HETATM   29  C28 UNL     1      -4.298  51.189 -23.868  1.00  0.00     0.027 C 
BRANCH  29  30
HETATM   30  C29 UNL     1      -3.756  51.134 -25.294  1.00  0.00     0.164 C 
BRANCH  30  31
HETATM   31  O4  UNL     1      -4.202  49.955 -25.952  1.00  0.00    -0.401 OA
HETATM   32  H48 UNL     1      -3.891  50.015 -26.873  1.00  0.00     0.209 HD
ENDBRANCH  30  31
ENDBRANCH  29  30
ENDBRANCH  28  29
ENDBRANCH  17  28
BRANCH   1  33
HETATM   33  C2  UNL     1      -0.513  51.720 -20.885  1.00  0.00     0.160 C 
HETATM   34  C1  UNL     1      -0.440  51.401 -19.419  1.00  0.00     0.094 C 
HETATM   35  O1  UNL     1       0.238  52.543 -21.406  1.00  0.00    -0.295 OA
ENDBRANCH   1  33
TORSDOF 10
ENDMDL
