MODEL 1
REMARK minimizedAffinity -7.66508293
REMARK CNNscore 0.635324001
REMARK CNNaffinity 7.2941823
REMARK  11 active torsions:
REMARK  status: ('A' for Active; 'I' for Inactive)
REMARK    1  A    between atoms: C2_2  and  C3_3 
REMARK    2  A    between atoms: C2_2  and  C4_5 
REMARK    3  A    between atoms: C3_3  and  O1_4 
REMARK    4  A    between atoms: C13_14  and  C14_15 
REMARK    5  A    between atoms: C14_15  and  C16_17 
REMARK    6  A    between atoms: C16_17  and  C17_18 
REMARK    7  A    between atoms: C17_18  and  C18_19 
REMARK    8  A    between atoms: C27_28  and  C28_29 
REMARK    9  A    between atoms: C28_29  and  C29_30 
REMARK   10  A    between atoms: C29_30  and  C30_31 
REMARK   11  A    between atoms: C30_31  and  O3_33 
ROOT
HETATM    1  C4  UNL     1       0.842   7.734  11.929  1.00  0.00     0.025 C 
HETATM    2  C5  UNL     1       0.291   9.111  12.342  1.00  0.00     0.010 C 
HETATM    3  C6  UNL     1      -1.103   9.137  12.970  1.00  0.00     0.007 C 
HETATM    4  C7  UNL     1      -1.909   7.821  12.942  1.00  0.00     0.004 C 
HETATM    5  C8  UNL     1      -1.043   6.663  13.488  1.00  0.00    -0.027 A 
HETATM    6  C9  UNL     1      -1.439   6.138  14.867  1.00  0.00     0.011 C 
HETATM    7  C10 UNL     1      -2.947   5.837  15.048  1.00  0.00     0.011 C 
HETATM    8  C11 UNL     1      -3.854   6.501  13.998  1.00  0.00    -0.032 C 
HETATM    9  C12 UNL     1      -3.938   5.567  12.761  1.00  0.00     0.016 C 
HETATM   10  C13 UNL     1      -5.305   6.840  14.469  1.00  0.00    -0.002 C 
HETATM   11  C22 UNL     1      -5.733   7.971  13.498  1.00  0.00     0.006 C 
HETATM   12  C23 UNL     1      -4.439   8.534  12.863  1.00  0.00     0.011 C 
HETATM   13  C24 UNL     1      -3.285   7.935  13.693  1.00  0.00    -0.032 C 
HETATM   14  C25 UNL     1      -3.162   8.855  14.958  1.00  0.00     0.016 C 
HETATM   15  C26 UNL     1      -0.526   5.589  12.550  1.00  0.00     0.022 A 
HETATM   16  C27 UNL     1       0.433   6.668  12.981  1.00  0.00    -0.024 A 
ENDROOT
BRANCH  10  17
HETATM   17  C14 UNL     1      -6.332   5.689  14.715  1.00  0.00    -0.014 C 
HETATM   18  C15 UNL     1      -6.699   5.671  16.211  1.00  0.00     0.010 C 
BRANCH  17  19
HETATM   19  C16 UNL     1      -7.628   5.741  13.867  1.00  0.00     0.008 C 
BRANCH  19  20
HETATM   20  C17 UNL     1      -8.867   6.329  14.571  1.00  0.00     0.028 C 
BRANCH  20  21
HETATM   21  C18 UNL     1      -9.961   6.745  13.626  1.00  0.00    -0.025 C 
HETATM   22  C19 UNL     1     -10.898   7.698  13.807  1.00  0.00    -0.091 C 
HETATM   23  C20 UNL     1     -11.929   7.967  12.739  1.00  0.00     0.042 C 
HETATM   24  C21 UNL     1     -11.035   8.580  15.019  1.00  0.00     0.042 C 
ENDBRANCH  20  21
ENDBRANCH  19  20
ENDBRANCH  17  19
ENDBRANCH  10  17
BRANCH  16  25
HETATM   25  C28 UNL     1       1.542   6.322  13.973  1.00  0.00     0.021 C 
BRANCH  25  26
HETATM   26  C29 UNL     1       2.380   7.535  14.378  1.00  0.00     0.111 C 
BRANCH  26  27
HETATM   27  C30 UNL     1       2.756   7.473  15.831  1.00  0.00     0.139 C 
HETATM   28  O2  UNL     1       2.343   8.172  16.743  1.00  0.00    -0.650 OA
BRANCH  27  29
HETATM   29  O3  UNL     1       3.668   6.509  16.074  1.00  0.00    -0.776 OA
HETATM   30  H48 UNL     1       3.835   6.588  17.036  1.00  0.00     0.167 HD
ENDBRANCH  27  29
ENDBRANCH  26  27
ENDBRANCH  25  26
ENDBRANCH  16  25
BRANCH   1  31
HETATM   31  C2  UNL     1       0.647   7.385  10.442  1.00  0.00    -0.061 C 
HETATM   32  C1  UNL     1      -0.376   7.825   9.685  1.00  0.00     0.017 C 
BRANCH  31  33
HETATM   33  C3  UNL     1       1.749   6.576   9.799  1.00  0.00     0.198 C 
BRANCH  33  34
HETATM   34  O1  UNL     1       1.555   5.198  10.059  1.00  0.00    -0.397 OA
HETATM   35  H5  UNL     1       2.286   4.724   9.630  1.00  0.00     0.209 HD
ENDBRANCH  33  34
ENDBRANCH  31  33
ENDBRANCH   1  31
TORSDOF 11
ENDMDL
MODEL 2
REMARK minimizedAffinity -5.96656275
REMARK CNNscore 0.471998215
REMARK CNNaffinity 6.29656601
REMARK  11 active torsions:
REMARK  status: ('A' for Active; 'I' for Inactive)
REMARK    1  A    between atoms: C2_2  and  C3_3 
REMARK    2  A    between atoms: C2_2  and  C4_5 
REMARK    3  A    between atoms: C3_3  and  O1_4 
REMARK    4  A    between atoms: C13_14  and  C14_15 
REMARK    5  A    between atoms: C14_15  and  C16_17 
REMARK    6  A    between atoms: C16_17  and  C17_18 
REMARK    7  A    between atoms: C17_18  and  C18_19 
REMARK    8  A    between atoms: C27_28  and  C28_29 
REMARK    9  A    between atoms: C28_29  and  C29_30 
REMARK   10  A    between atoms: C29_30  and  C30_31 
REMARK   11  A    between atoms: C30_31  and  O3_33 
ROOT
HETATM    1  C4  UNL     1       4.526  12.887  22.928  1.00  0.00     0.025 C 
HETATM    2  C5  UNL     1       3.640  14.147  22.966  1.00  0.00     0.010 C 
HETATM    3  C6  UNL     1       2.693  14.360  21.784  1.00  0.00     0.007 C 
HETATM    4  C7  UNL     1       2.858  13.416  20.574  1.00  0.00     0.004 C 
HETATM    5  C8  UNL     1       2.874  11.947  21.053  1.00  0.00    -0.027 A 
HETATM    6  C9  UNL     1       1.627  11.130  20.717  1.00  0.00     0.011 C 
HETATM    7  C10 UNL     1       1.152  11.231  19.246  1.00  0.00     0.011 C 
HETATM    8  C11 UNL     1       1.724  12.435  18.478  1.00  0.00    -0.032 C 
HETATM    9  C12 UNL     1       3.098  12.029  17.882  1.00  0.00     0.016 C 
HETATM   10  C13 UNL     1       0.826  12.998  17.330  1.00  0.00    -0.002 C 
HETATM   11  C22 UNL     1       1.325  14.459  17.181  1.00  0.00     0.006 C 
HETATM   12  C23 UNL     1       2.099  14.807  18.475  1.00  0.00     0.011 C 
HETATM   13  C24 UNL     1       1.778  13.663  19.459  1.00  0.00    -0.032 C 
HETATM   14  C25 UNL     1       0.391  14.036  20.092  1.00  0.00     0.016 C 
HETATM   15  C26 UNL     1       4.160  11.144  21.009  1.00  0.00     0.022 A 
HETATM   16  C27 UNL     1       3.721  11.697  22.340  1.00  0.00    -0.024 A 
ENDROOT
BRANCH  10  17
HETATM   17  C14 UNL     1       0.637  12.175  16.016  1.00  0.00    -0.014 C 
HETATM   18  C15 UNL     1       1.748  12.573  15.026  1.00  0.00     0.010 C 
BRANCH  17  19
HETATM   19  C16 UNL     1       0.616  10.634  16.175  1.00  0.00     0.008 C 
BRANCH  19  20
HETATM   20  C17 UNL     1      -0.044   9.849  15.024  1.00  0.00     0.028 C 
BRANCH  20  21
HETATM   21  C18 UNL     1      -1.513  10.126  14.865  1.00  0.00    -0.025 C 
HETATM   22  C19 UNL     1      -2.550   9.406  15.342  1.00  0.00    -0.091 C 
HETATM   23  C20 UNL     1      -3.969   9.841  15.069  1.00  0.00     0.042 C 
HETATM   24  C21 UNL     1      -2.448   8.154  16.170  1.00  0.00     0.042 C 
ENDBRANCH  20  21
ENDBRANCH  19  20
ENDBRANCH  17  19
ENDBRANCH  10  17
BRANCH  16  25
HETATM   25  C28 UNL     1       3.172  10.741  23.397  1.00  0.00     0.021 C 
BRANCH  25  26
HETATM   26  C29 UNL     1       3.531   9.280  23.125  1.00  0.00     0.111 C 
BRANCH  26  27
HETATM   27  C30 UNL     1       2.316   8.400  23.201  1.00  0.00     0.139 C 
HETATM   28  O2  UNL     1       1.810   7.743  22.306  1.00  0.00    -0.650 OA
BRANCH  27  29
HETATM   29  O3  UNL     1       1.777   8.393  24.438  1.00  0.00    -0.776 OA
HETATM   30  H48 UNL     1       0.997   7.807  24.344  1.00  0.00     0.167 HD
ENDBRANCH  27  29
ENDBRANCH  26  27
ENDBRANCH  25  26
ENDBRANCH  16  25
BRANCH   1  31
HETATM   31  C2  UNL     1       5.951  13.121  22.396  1.00  0.00    -0.061 C 
HETATM   32  C1  UNL     1       6.287  14.086  21.517  1.00  0.00     0.017 C 
BRANCH  31  33
HETATM   33  C3  UNL     1       7.036  12.258  22.996  1.00  0.00     0.198 C 
BRANCH  33  34
HETATM   34  O1  UNL     1       8.189  12.288  22.175  1.00  0.00    -0.397 OA
HETATM   35  H5  UNL     1       8.852  11.718  22.600  1.00  0.00     0.209 HD
ENDBRANCH  33  34
ENDBRANCH  31  33
ENDBRANCH   1  31
TORSDOF 11
ENDMDL
MODEL 3
REMARK minimizedAffinity -7.33853006
REMARK CNNscore 0.295764774
REMARK CNNaffinity 6.31452179
REMARK  11 active torsions:
REMARK  status: ('A' for Active; 'I' for Inactive)
REMARK    1  A    between atoms: C2_2  and  C3_3 
REMARK    2  A    between atoms: C2_2  and  C4_5 
REMARK    3  A    between atoms: C3_3  and  O1_4 
REMARK    4  A    between atoms: C13_14  and  C14_15 
REMARK    5  A    between atoms: C14_15  and  C16_17 
REMARK    6  A    between atoms: C16_17  and  C17_18 
REMARK    7  A    between atoms: C17_18  and  C18_19 
REMARK    8  A    between atoms: C27_28  and  C28_29 
REMARK    9  A    between atoms: C28_29  and  C29_30 
REMARK   10  A    between atoms: C29_30  and  C30_31 
REMARK   11  A    between atoms: C30_31  and  O3_33 
ROOT
HETATM    1  C4  UNL     1       2.483   6.626  10.803  1.00  0.00     0.025 C 
HETATM    2  C5  UNL     1       1.684   5.350  11.126  1.00  0.00     0.010 C 
HETATM    3  C6  UNL     1       0.462   5.512  12.031  1.00  0.00     0.007 C 
HETATM    4  C7  UNL     1       0.264   6.887  12.702  1.00  0.00     0.004 C 
HETATM    5  C8  UNL     1       0.357   8.007  11.641  1.00  0.00    -0.027 A 
HETATM    6  C9  UNL     1      -0.961   8.694  11.290  1.00  0.00     0.011 C 
HETATM    7  C10 UNL     1      -1.811   9.148  12.503  1.00  0.00     0.011 C 
HETATM    8  C11 UNL     1      -1.425   8.474  13.831  1.00  0.00    -0.032 C 
HETATM    9  C12 UNL     1      -0.276   9.291  14.480  1.00  0.00     0.016 C 
HETATM   10  C13 UNL     1      -2.578   8.316  14.873  1.00  0.00    -0.002 C 
HETATM   11  C22 UNL     1      -2.088   7.142  15.761  1.00  0.00     0.006 C 
HETATM   12  C23 UNL     1      -0.983   6.405  14.967  1.00  0.00     0.011 C 
HETATM   13  C24 UNL     1      -1.067   6.971  13.535  1.00  0.00    -0.032 C 
HETATM   14  C25 UNL     1      -2.220   6.167  12.836  1.00  0.00     0.016 C 
HETATM   15  C26 UNL     1       1.556   8.936  11.616  1.00  0.00     0.022 A 
HETATM   16  C27 UNL     1       1.510   7.819  10.605  1.00  0.00    -0.024 A 
ENDROOT
BRANCH  10  17
HETATM   17  C14 UNL     1      -3.141   9.574  15.608  1.00  0.00    -0.014 C 
HETATM   18  C15 UNL     1      -4.675   9.582  15.458  1.00  0.00     0.010 C 
BRANCH  17  19
HETATM   19  C16 UNL     1      -2.769   9.711  17.106  1.00  0.00     0.008 C 
BRANCH  19  20
HETATM   20  C17 UNL     1      -2.592  11.152  17.624  1.00  0.00     0.028 C 
BRANCH  20  21
HETATM   21  C18 UNL     1      -3.618  11.559  18.646  1.00  0.00    -0.025 C 
HETATM   22  C19 UNL     1      -3.932  12.804  19.058  1.00  0.00    -0.091 C 
HETATM   23  C20 UNL     1      -4.993  13.014  20.111  1.00  0.00     0.042 C 
HETATM   24  C21 UNL     1      -3.316  14.081  18.554  1.00  0.00     0.042 C 
ENDBRANCH  20  21
ENDBRANCH  19  20
ENDBRANCH  17  19
ENDBRANCH  10  17
BRANCH  16  25
HETATM   25  C28 UNL     1       1.232   8.153   9.141  1.00  0.00     0.021 C 
BRANCH  25  26
HETATM   26  C29 UNL     1       2.448   7.941   8.240  1.00  0.00     0.111 C 
BRANCH  26  27
HETATM   27  C30 UNL     1       2.234   6.786   7.303  1.00  0.00     0.139 C 
HETATM   28  O2  UNL     1       2.569   5.624   7.458  1.00  0.00    -0.650 OA
BRANCH  27  29
HETATM   29  O3  UNL     1       1.594   7.165   6.176  1.00  0.00    -0.776 OA
HETATM   30  H48 UNL     1       1.537   6.337   5.656  1.00  0.00     0.167 HD
ENDBRANCH  27  29
ENDBRANCH  26  27
ENDBRANCH  25  26
ENDBRANCH  16  25
BRANCH   1  31
HETATM   31  C2  UNL     1       3.720   6.850  11.691  1.00  0.00    -0.061 C 
HETATM   32  C1  UNL     1       4.994   6.753  11.261  1.00  0.00     0.017 C 
BRANCH  31  33
HETATM   33  C3  UNL     1       3.451   7.304  13.106  1.00  0.00     0.198 C 
BRANCH  33  34
HETATM   34  O1  UNL     1       4.647   7.267  13.863  1.00  0.00    -0.397 OA
HETATM   35  H5  UNL     1       4.421   7.563  14.761  1.00  0.00     0.209 HD
ENDBRANCH  33  34
ENDBRANCH  31  33
ENDBRANCH   1  31
TORSDOF 11
ENDMDL
MODEL 4
REMARK minimizedAffinity -6.25624323
REMARK CNNscore 0.284155995
REMARK CNNaffinity 5.93260813
REMARK  11 active torsions:
REMARK  status: ('A' for Active; 'I' for Inactive)
REMARK    1  A    between atoms: C2_2  and  C3_3 
REMARK    2  A    between atoms: C2_2  and  C4_5 
REMARK    3  A    between atoms: C3_3  and  O1_4 
REMARK    4  A    between atoms: C13_14  and  C14_15 
REMARK    5  A    between atoms: C14_15  and  C16_17 
REMARK    6  A    between atoms: C16_17  and  C17_18 
REMARK    7  A    between atoms: C17_18  and  C18_19 
REMARK    8  A    between atoms: C27_28  and  C28_29 
REMARK    9  A    between atoms: C28_29  and  C29_30 
REMARK   10  A    between atoms: C29_30  and  C30_31 
REMARK   11  A    between atoms: C30_31  and  O3_33 
ROOT
HETATM    1  C4  UNL     1       4.508   7.527  10.224  1.00  0.00     0.025 C 
HETATM    2  C5  UNL     1       3.398   7.653   9.164  1.00  0.00     0.010 C 
HETATM    3  C6  UNL     1       1.956   7.682   9.675  1.00  0.00     0.007 C 
HETATM    4  C7  UNL     1       1.737   7.375  11.171  1.00  0.00     0.004 C 
HETATM    5  C8  UNL     1       2.679   8.249  12.030  1.00  0.00    -0.027 A 
HETATM    6  C9  UNL     1       2.005   9.375  12.811  1.00  0.00     0.011 C 
HETATM    7  C10 UNL     1       0.748   8.958  13.615  1.00  0.00     0.011 C 
HETATM    8  C11 UNL     1       0.132   7.619  13.174  1.00  0.00    -0.032 C 
HETATM    9  C12 UNL     1       0.853   6.474  13.935  1.00  0.00     0.016 C 
HETATM   10  C13 UNL     1      -1.407   7.474  13.392  1.00  0.00    -0.002 C 
HETATM   11  C22 UNL     1      -1.805   6.382  12.364  1.00  0.00     0.006 C 
HETATM   12  C23 UNL     1      -0.654   6.291  11.335  1.00  0.00     0.011 C 
HETATM   13  C24 UNL     1       0.233   7.523  11.608  1.00  0.00    -0.032 C 
HETATM   14  C25 UNL     1      -0.459   8.710  10.850  1.00  0.00     0.016 C 
HETATM   15  C26 UNL     1       3.852   7.618  12.758  1.00  0.00     0.022 A 
HETATM   16  C27 UNL     1       4.134   8.362  11.478  1.00  0.00    -0.024 A 
ENDROOT
BRANCH  10  17
HETATM   17  C14 UNL     1      -1.978   7.327  14.839  1.00  0.00    -0.014 C 
HETATM   18  C15 UNL     1      -2.554   5.906  14.996  1.00  0.00     0.010 C 
BRANCH  17  19
HETATM   19  C16 UNL     1      -0.985   7.611  15.995  1.00  0.00     0.008 C 
BRANCH  19  20
HETATM   20  C17 UNL     1      -1.013   9.042  16.567  1.00  0.00     0.028 C 
BRANCH  20  21
HETATM   21  C18 UNL     1      -2.361   9.703  16.482  1.00  0.00    -0.025 C 
HETATM   22  C19 UNL     1      -2.760  10.672  15.633  1.00  0.00    -0.091 C 
HETATM   23  C20 UNL     1      -4.163  11.223  15.709  1.00  0.00     0.042 C 
HETATM   24  C21 UNL     1      -1.920  11.297  14.553  1.00  0.00     0.042 C 
ENDBRANCH  20  21
ENDBRANCH  19  20
ENDBRANCH  17  19
ENDBRANCH  10  17
BRANCH  16  25
HETATM   25  C28 UNL     1       4.833   9.718  11.547  1.00  0.00     0.021 C 
BRANCH  25  26
HETATM   26  C29 UNL     1       5.940   9.767  12.600  1.00  0.00     0.111 C 
BRANCH  26  27
HETATM   27  C30 UNL     1       7.289   9.533  11.981  1.00  0.00     0.139 C 
HETATM   28  O2  UNL     1       7.820  10.163  11.082  1.00  0.00    -0.650 OA
BRANCH  27  29
HETATM   29  O3  UNL     1       7.922   8.479  12.538  1.00  0.00    -0.776 OA
HETATM   30  H48 UNL     1       8.763   8.427  12.039  1.00  0.00     0.167 HD
ENDBRANCH  27  29
ENDBRANCH  26  27
ENDBRANCH  25  26
ENDBRANCH  16  25
BRANCH   1  31
HETATM   31  C2  UNL     1       5.023   6.093  10.445  1.00  0.00    -0.061 C 
HETATM   32  C1  UNL     1       6.215   5.789  10.995  1.00  0.00     0.017 C 
BRANCH  31  33
HETATM   33  C3  UNL     1       4.060   4.979  10.105  1.00  0.00     0.198 C 
BRANCH  33  34
HETATM   34  O1  UNL     1       4.426   4.381   8.875  1.00  0.00    -0.397 OA
HETATM   35  H5  UNL     1       3.778   3.678   8.701  1.00  0.00     0.209 HD
ENDBRANCH  33  34
ENDBRANCH  31  33
ENDBRANCH   1  31
TORSDOF 11
ENDMDL
MODEL 5
REMARK minimizedAffinity -8.01853085
REMARK CNNscore 0.278550059
REMARK CNNaffinity 6.83408594
REMARK  11 active torsions:
REMARK  status: ('A' for Active; 'I' for Inactive)
REMARK    1  A    between atoms: C2_2  and  C3_3 
REMARK    2  A    between atoms: C2_2  and  C4_5 
REMARK    3  A    between atoms: C3_3  and  O1_4 
REMARK    4  A    between atoms: C13_14  and  C14_15 
REMARK    5  A    between atoms: C14_15  and  C16_17 
REMARK    6  A    between atoms: C16_17  and  C17_18 
REMARK    7  A    between atoms: C17_18  and  C18_19 
REMARK    8  A    between atoms: C27_28  and  C28_29 
REMARK    9  A    between atoms: C28_29  and  C29_30 
REMARK   10  A    between atoms: C29_30  and  C30_31 
REMARK   11  A    between atoms: C30_31  and  O3_33 
ROOT
HETATM    1  C4  UNL     1      -4.889   6.145  13.580  1.00  0.00     0.025 C 
HETATM    2  C5  UNL     1      -4.974   7.547  12.951  1.00  0.00     0.010 C 
HETATM    3  C6  UNL     1      -3.656   8.301  12.766  1.00  0.00     0.007 C 
HETATM    4  C7  UNL     1      -2.398   7.682  13.410  1.00  0.00     0.004 C 
HETATM    5  C8  UNL     1      -2.282   6.194  13.010  1.00  0.00    -0.027 A 
HETATM    6  C9  UNL     1      -1.166   5.863  12.020  1.00  0.00     0.011 C 
HETATM    7  C10 UNL     1       0.222   6.454  12.371  1.00  0.00     0.011 C 
HETATM    8  C11 UNL     1       0.178   7.607  13.389  1.00  0.00    -0.032 C 
HETATM    9  C12 UNL     1       0.207   7.001  14.817  1.00  0.00     0.016 C 
HETATM   10  C13 UNL     1       1.323   8.663  13.269  1.00  0.00    -0.002 C 
HETATM   11  C22 UNL     1       0.711   9.920  13.941  1.00  0.00     0.006 C 
HETATM   12  C23 UNL     1      -0.821   9.706  13.987  1.00  0.00     0.011 C 
HETATM   13  C24 UNL     1      -1.088   8.487  13.081  1.00  0.00    -0.032 C 
HETATM   14  C25 UNL     1      -1.130   9.056  11.619  1.00  0.00     0.016 C 
HETATM   15  C26 UNL     1      -2.529   5.106  14.037  1.00  0.00     0.022 A 
HETATM   16  C27 UNL     1      -3.629   5.407  13.053  1.00  0.00    -0.024 A 
ENDROOT
BRANCH  10  17
HETATM   17  C14 UNL     1       2.781   8.279  13.677  1.00  0.00    -0.014 C 
HETATM   18  C15 UNL     1       2.720   7.398  14.940  1.00  0.00     0.010 C 
BRANCH  17  19
HETATM   19  C16 UNL     1       3.627   7.567  12.592  1.00  0.00     0.008 C 
BRANCH  19  20
HETATM   20  C17 UNL     1       3.500   8.133  11.164  1.00  0.00     0.028 C 
BRANCH  20  21
HETATM   21  C18 UNL     1       3.174   7.093  10.127  1.00  0.00    -0.025 C 
HETATM   22  C19 UNL     1       2.953   7.274   8.809  1.00  0.00    -0.091 C 
HETATM   23  C20 UNL     1       2.626   6.099   7.921  1.00  0.00     0.042 C 
HETATM   24  C21 UNL     1       3.009   8.589   8.078  1.00  0.00     0.042 C 
ENDBRANCH  20  21
ENDBRANCH  19  20
ENDBRANCH  17  19
ENDBRANCH  10  17
BRANCH  16  25
HETATM   25  C28 UNL     1      -3.921   4.407  11.937  1.00  0.00     0.021 C 
BRANCH  25  26
HETATM   26  C29 UNL     1      -5.268   3.704  12.103  1.00  0.00     0.111 C 
BRANCH  26  27
HETATM   27  C30 UNL     1      -5.389   2.533  11.168  1.00  0.00     0.139 C 
HETATM   28  O2  UNL     1      -5.397   1.347  11.450  1.00  0.00    -0.650 OA
BRANCH  27  29
HETATM   29  O3  UNL     1      -5.490   2.927   9.881  1.00  0.00    -0.776 OA
HETATM   30  H48 UNL     1      -5.542   2.083   9.387  1.00  0.00     0.167 HD
ENDBRANCH  27  29
ENDBRANCH  26  27
ENDBRANCH  25  26
ENDBRANCH  16  25
BRANCH   1  31
HETATM   31  C2  UNL     1      -5.162   6.103  15.095  1.00  0.00    -0.061 C 
HETATM   32  C1  UNL     1      -6.353   5.800  15.646  1.00  0.00     0.017 C 
BRANCH  31  33
HETATM   33  C3  UNL     1      -3.967   6.323  15.993  1.00  0.00     0.198 C 
BRANCH  33  34
HETATM   34  O1  UNL     1      -3.791   7.707  16.235  1.00  0.00    -0.397 OA
HETATM   35  H5  UNL     1      -3.013   7.795  16.811  1.00  0.00     0.209 HD
ENDBRANCH  33  34
ENDBRANCH  31  33
ENDBRANCH   1  31
TORSDOF 11
ENDMDL
MODEL 6
REMARK minimizedAffinity -7.37294626
REMARK CNNscore 0.254623801
REMARK CNNaffinity 6.87256861
REMARK  11 active torsions:
REMARK  status: ('A' for Active; 'I' for Inactive)
REMARK    1  A    between atoms: C2_2  and  C3_3 
REMARK    2  A    between atoms: C2_2  and  C4_5 
REMARK    3  A    between atoms: C3_3  and  O1_4 
REMARK    4  A    between atoms: C13_14  and  C14_15 
REMARK    5  A    between atoms: C14_15  and  C16_17 
REMARK    6  A    between atoms: C16_17  and  C17_18 
REMARK    7  A    between atoms: C17_18  and  C18_19 
REMARK    8  A    between atoms: C27_28  and  C28_29 
REMARK    9  A    between atoms: C28_29  and  C29_30 
REMARK   10  A    between atoms: C29_30  and  C30_31 
REMARK   11  A    between atoms: C30_31  and  O3_33 
ROOT
HETATM    1  C4  UNL     1      -5.333   6.356  14.598  1.00  0.00     0.025 C 
HETATM    2  C5  UNL     1      -4.450   5.775  15.717  1.00  0.00     0.010 C 
HETATM    3  C6  UNL     1      -2.947   6.039  15.616  1.00  0.00     0.007 C 
HETATM    4  C7  UNL     1      -2.432   6.676  14.308  1.00  0.00     0.004 C 
HETATM    5  C8  UNL     1      -3.270   7.931  13.971  1.00  0.00    -0.027 A 
HETATM    6  C9  UNL     1      -2.558   9.269  14.161  1.00  0.00     0.011 C 
HETATM    7  C10 UNL     1      -1.145   9.358  13.531  1.00  0.00     0.011 C 
HETATM    8  C11 UNL     1      -0.514   7.994  13.201  1.00  0.00    -0.032 C 
HETATM    9  C12 UNL     1      -0.988   7.564  11.787  1.00  0.00     0.016 C 
HETATM   10  C13 UNL     1       1.046   7.939  13.245  1.00  0.00    -0.002 C 
HETATM   11  C22 UNL     1       1.337   6.433  13.478  1.00  0.00     0.006 C 
HETATM   12  C23 UNL     1       0.027   5.797  14.004  1.00  0.00     0.011 C 
HETATM   13  C24 UNL     1      -0.892   6.987  14.348  1.00  0.00    -0.032 C 
HETATM   14  C25 UNL     1      -0.449   7.454  15.779  1.00  0.00     0.016 C 
HETATM   15  C26 UNL     1      -4.234   7.913  12.801  1.00  0.00     0.022 A 
HETATM   16  C27 UNL     1      -4.806   7.758  14.186  1.00  0.00    -0.024 A 
ENDROOT
BRANCH  10  17
HETATM   17  C14 UNL     1       1.882   8.659  12.139  1.00  0.00    -0.014 C 
HETATM   18  C15 UNL     1       2.718   9.770  12.804  1.00  0.00     0.010 C 
BRANCH  17  19
HETATM   19  C16 UNL     1       2.810   7.754  11.289  1.00  0.00     0.008 C 
BRANCH  19  20
HETATM   20  C17 UNL     1       2.114   6.613  10.522  1.00  0.00     0.028 C 
BRANCH  20  21
HETATM   21  C18 UNL     1       2.299   6.684   9.031  1.00  0.00    -0.025 C 
HETATM   22  C19 UNL     1       1.586   7.401   8.138  1.00  0.00    -0.091 C 
HETATM   23  C20 UNL     1       1.917   7.335   6.667  1.00  0.00     0.042 C 
HETATM   24  C21 UNL     1       0.437   8.318   8.460  1.00  0.00     0.042 C 
ENDBRANCH  20  21
ENDBRANCH  19  20
ENDBRANCH  17  19
ENDBRANCH  10  17
BRANCH  16  25
HETATM   25  C28 UNL     1      -5.588   8.916  14.800  1.00  0.00     0.021 C 
BRANCH  25  26
HETATM   26  C29 UNL     1      -6.690   8.453  15.754  1.00  0.00     0.111 C 
BRANCH  26  27
HETATM   27  C30 UNL     1      -8.052   8.719  15.178  1.00  0.00     0.139 C 
HETATM   28  O2  UNL     1      -8.831   7.914  14.693  1.00  0.00    -0.650 OA
BRANCH  27  29
HETATM   29  O3  UNL     1      -8.377  10.027  15.236  1.00  0.00    -0.776 OA
HETATM   30  H48 UNL     1      -9.262  10.063  14.819  1.00  0.00     0.167 HD
ENDBRANCH  27  29
ENDBRANCH  26  27
ENDBRANCH  25  26
ENDBRANCH  16  25
BRANCH   1  31
HETATM   31  C2  UNL     1      -5.681   5.363  13.474  1.00  0.00    -0.061 C 
HETATM   32  C1  UNL     1      -4.824   4.455  12.968  1.00  0.00     0.017 C 
BRANCH  31  33
HETATM   33  C3  UNL     1      -7.115   5.369  13.000  1.00  0.00     0.198 C 
BRANCH  33  34
HETATM   34  O1  UNL     1      -7.777   4.198  13.443  1.00  0.00    -0.397 OA
HETATM   35  H5  UNL     1      -8.689   4.248  13.111  1.00  0.00     0.209 HD
ENDBRANCH  33  34
ENDBRANCH  31  33
ENDBRANCH   1  31
TORSDOF 11
ENDMDL
MODEL 7
REMARK minimizedAffinity -8.24922276
REMARK CNNscore 0.22473973
REMARK CNNaffinity 6.59353638
REMARK  11 active torsions:
REMARK  status: ('A' for Active; 'I' for Inactive)
REMARK    1  A    between atoms: C2_2  and  C3_3 
REMARK    2  A    between atoms: C2_2  and  C4_5 
REMARK    3  A    between atoms: C3_3  and  O1_4 
REMARK    4  A    between atoms: C13_14  and  C14_15 
REMARK    5  A    between atoms: C14_15  and  C16_17 
REMARK    6  A    between atoms: C16_17  and  C17_18 
REMARK    7  A    between atoms: C17_18  and  C18_19 
REMARK    8  A    between atoms: C27_28  and  C28_29 
REMARK    9  A    between atoms: C28_29  and  C29_30 
REMARK   10  A    between atoms: C29_30  and  C30_31 
REMARK   11  A    between atoms: C30_31  and  O3_33 
ROOT
HETATM    1  C4  UNL     1       0.789   7.890  12.102  1.00  0.00     0.025 C 
HETATM    2  C5  UNL     1       0.170   9.225  12.556  1.00  0.00     0.010 C 
HETATM    3  C6  UNL     1      -1.236   9.165  13.156  1.00  0.00     0.007 C 
HETATM    4  C7  UNL     1      -1.982   7.818  13.060  1.00  0.00     0.004 C 
HETATM    5  C8  UNL     1      -1.076   6.678  13.579  1.00  0.00    -0.027 A 
HETATM    6  C9  UNL     1      -1.474   6.082  14.928  1.00  0.00     0.011 C 
HETATM    7  C10 UNL     1      -2.971   5.709  15.067  1.00  0.00     0.011 C 
HETATM    8  C11 UNL     1      -3.887   6.374  14.024  1.00  0.00    -0.032 C 
HETATM    9  C12 UNL     1      -3.906   5.487  12.751  1.00  0.00     0.016 C 
HETATM   10  C13 UNL     1      -5.359   6.631  14.478  1.00  0.00    -0.002 C 
HETATM   11  C22 UNL     1      -5.818   7.780  13.543  1.00  0.00     0.006 C 
HETATM   12  C23 UNL     1      -4.539   8.424  12.957  1.00  0.00     0.011 C 
HETATM   13  C24 UNL     1      -3.376   7.842  13.786  1.00  0.00    -0.032 C 
HETATM   14  C25 UNL     1      -3.317   8.716  15.089  1.00  0.00     0.016 C 
HETATM   15  C26 UNL     1      -0.495   5.665  12.611  1.00  0.00     0.022 A 
HETATM   16  C27 UNL     1       0.408   6.767  13.103  1.00  0.00    -0.024 A 
ENDROOT
BRANCH  10  17
HETATM   17  C14 UNL     1      -6.339   5.428  14.658  1.00  0.00    -0.014 C 
HETATM   18  C15 UNL     1      -6.905   5.467  16.091  1.00  0.00     0.010 C 
BRANCH  17  19
HETATM   19  C16 UNL     1      -7.509   5.345  13.644  1.00  0.00     0.008 C 
BRANCH  19  20
HETATM   20  C17 UNL     1      -7.155   4.776  12.256  1.00  0.00     0.028 C 
BRANCH  20  21
HETATM   21  C18 UNL     1      -6.889   3.296  12.258  1.00  0.00    -0.025 C 
HETATM   22  C19 UNL     1      -6.105   2.591  11.416  1.00  0.00    -0.091 C 
HETATM   23  C20 UNL     1      -5.970   1.096  11.570  1.00  0.00     0.042 C 
HETATM   24  C21 UNL     1      -5.297   3.160  10.281  1.00  0.00     0.042 C 
ENDBRANCH  20  21
ENDBRANCH  19  20
ENDBRANCH  17  19
ENDBRANCH  10  17
BRANCH  16  25
HETATM   25  C28 UNL     1       1.512   6.431  14.103  1.00  0.00     0.021 C 
BRANCH  25  26
HETATM   26  C29 UNL     1       2.398   7.630  14.439  1.00  0.00     0.111 C 
BRANCH  26  27
HETATM   27  C30 UNL     1       2.320   7.970  15.900  1.00  0.00     0.139 C 
HETATM   28  O2  UNL     1       2.833   8.914  16.478  1.00  0.00    -0.650 OA
BRANCH  27  29
HETATM   29  O3  UNL     1       1.581   7.073  16.586  1.00  0.00    -0.776 OA
HETATM   30  H48 UNL     1       1.627   7.397  17.510  1.00  0.00     0.167 HD
ENDBRANCH  27  29
ENDBRANCH  26  27
ENDBRANCH  25  26
ENDBRANCH  16  25
BRANCH   1  31
HETATM   31  C2  UNL     1       0.638   7.592  10.599  1.00  0.00    -0.061 C 
HETATM   32  C1  UNL     1       1.206   6.544   9.970  1.00  0.00     0.017 C 
BRANCH  31  33
HETATM   33  C3  UNL     1      -0.295   8.497   9.831  1.00  0.00     0.198 C 
BRANCH  33  34
HETATM   34  O1  UNL     1       0.384   9.075   8.731  1.00  0.00    -0.397 OA
HETATM   35  H5  UNL     1      -0.254   9.648   8.275  1.00  0.00     0.209 HD
ENDBRANCH  33  34
ENDBRANCH  31  33
ENDBRANCH   1  31
TORSDOF 11
ENDMDL
MODEL 8
REMARK minimizedAffinity -7.21989346
REMARK CNNscore 0.190899462
REMARK CNNaffinity 5.31448889
REMARK  11 active torsions:
REMARK  status: ('A' for Active; 'I' for Inactive)
REMARK    1  A    between atoms: C2_2  and  C3_3 
REMARK    2  A    between atoms: C2_2  and  C4_5 
REMARK    3  A    between atoms: C3_3  and  O1_4 
REMARK    4  A    between atoms: C13_14  and  C14_15 
REMARK    5  A    between atoms: C14_15  and  C16_17 
REMARK    6  A    between atoms: C16_17  and  C17_18 
REMARK    7  A    between atoms: C17_18  and  C18_19 
REMARK    8  A    between atoms: C27_28  and  C28_29 
REMARK    9  A    between atoms: C28_29  and  C29_30 
REMARK   10  A    between atoms: C29_30  and  C30_31 
REMARK   11  A    between atoms: C30_31  and  O3_33 
ROOT
HETATM    1  C4  UNL     1       8.955  13.198  22.228  1.00  0.00     0.025 C 
HETATM    2  C5  UNL     1       8.255  12.327  23.287  1.00  0.00     0.010 C 
HETATM    3  C6  UNL     1       6.812  11.912  22.994  1.00  0.00     0.007 C 
HETATM    4  C7  UNL     1       6.126  12.570  21.778  1.00  0.00     0.004 C 
HETATM    5  C8  UNL     1       7.034  12.446  20.534  1.00  0.00    -0.027 A 
HETATM    6  C9  UNL     1       6.560  11.459  19.468  1.00  0.00     0.011 C 
HETATM    7  C10 UNL     1       5.072  11.595  19.060  1.00  0.00     0.011 C 
HETATM    8  C11 UNL     1       4.211  12.381  20.064  1.00  0.00    -0.032 C 
HETATM    9  C12 UNL     1       4.319  13.892  19.724  1.00  0.00     0.016 C 
HETATM   10  C13 UNL     1       2.701  11.987  20.119  1.00  0.00    -0.002 C 
HETATM   11  C22 UNL     1       2.268  12.455  21.533  1.00  0.00     0.006 C 
HETATM   12  C23 UNL     1       3.562  12.648  22.360  1.00  0.00     0.011 C 
HETATM   13  C24 UNL     1       4.682  12.005  21.516  1.00  0.00    -0.032 C 
HETATM   14  C25 UNL     1       4.612  10.470  21.832  1.00  0.00     0.016 C 
HETATM   15  C26 UNL     1       7.722  13.673  19.966  1.00  0.00     0.022 A 
HETATM   16  C27 UNL     1       8.544  12.729  20.806  1.00  0.00    -0.024 A 
ENDROOT
BRANCH  10  17
HETATM   17  C14 UNL     1       1.756  12.355  18.930  1.00  0.00    -0.014 C 
HETATM   18  C15 UNL     1       1.547  11.098  18.064  1.00  0.00     0.010 C 
BRANCH  17  19
HETATM   19  C16 UNL     1       0.378  12.951  19.315  1.00  0.00     0.008 C 
BRANCH  19  20
HETATM   20  C17 UNL     1      -0.819  11.984  19.231  1.00  0.00     0.028 C 
BRANCH  20  21
HETATM   21  C18 UNL     1      -2.112  12.651  18.854  1.00  0.00    -0.025 C 
HETATM   22  C19 UNL     1      -3.303  12.072  18.596  1.00  0.00    -0.091 C 
HETATM   23  C20 UNL     1      -4.497  12.915  18.220  1.00  0.00     0.042 C 
HETATM   24  C21 UNL     1      -3.595  10.597  18.653  1.00  0.00     0.042 C 
ENDBRANCH  20  21
ENDBRANCH  19  20
ENDBRANCH  17  19
ENDBRANCH  10  17
BRANCH  16  25
HETATM   25  C28 UNL     1       9.583  11.842  20.124  1.00  0.00     0.021 C 
BRANCH  25  26
HETATM   26  C29 UNL     1      10.889  12.577  19.822  1.00  0.00     0.111 C 
BRANCH  26  27
HETATM   27  C30 UNL     1      12.081  11.744  20.201  1.00  0.00     0.139 C 
HETATM   28  O2  UNL     1      13.104  12.109  20.755  1.00  0.00    -0.650 OA
BRANCH  27  29
HETATM   29  O3  UNL     1      11.924  10.452  19.846  1.00  0.00    -0.776 OA
HETATM   30  H48 UNL     1      12.764  10.033  20.128  1.00  0.00     0.167 HD
ENDBRANCH  27  29
ENDBRANCH  26  27
ENDBRANCH  25  26
ENDBRANCH  16  25
BRANCH   1  31
HETATM   31  C2  UNL     1       8.927  14.710  22.520  1.00  0.00    -0.061 C 
HETATM   32  C1  UNL     1       9.492  15.647  21.735  1.00  0.00     0.017 C 
BRANCH  31  33
HETATM   33  C3  UNL     1       8.117  15.141  23.720  1.00  0.00     0.198 C 
BRANCH  33  34
HETATM   34  O1  UNL     1       8.968  15.337  24.834  1.00  0.00    -0.397 OA
HETATM   35  H5  UNL     1       8.402  15.609  25.576  1.00  0.00     0.209 HD
ENDBRANCH  33  34
ENDBRANCH  31  33
ENDBRANCH   1  31
TORSDOF 11
ENDMDL
MODEL 9
REMARK minimizedAffinity -7.77394533
REMARK CNNscore 0.184438407
REMARK CNNaffinity 6.47399759
REMARK  11 active torsions:
REMARK  status: ('A' for Active; 'I' for Inactive)
REMARK    1  A    between atoms: C2_2  and  C3_3 
REMARK    2  A    between atoms: C2_2  and  C4_5 
REMARK    3  A    between atoms: C3_3  and  O1_4 
REMARK    4  A    between atoms: C13_14  and  C14_15 
REMARK    5  A    between atoms: C14_15  and  C16_17 
REMARK    6  A    between atoms: C16_17  and  C17_18 
REMARK    7  A    between atoms: C17_18  and  C18_19 
REMARK    8  A    between atoms: C27_28  and  C28_29 
REMARK    9  A    between atoms: C28_29  and  C29_30 
REMARK   10  A    between atoms: C29_30  and  C30_31 
REMARK   11  A    between atoms: C30_31  and  O3_33 
ROOT
HETATM    1  C4  UNL     1       1.696   7.060  12.327  1.00  0.00     0.025 C 
HETATM    2  C5  UNL     1       1.129   5.629  12.309  1.00  0.00     0.010 C 
HETATM    3  C6  UNL     1      -0.301   5.447  12.820  1.00  0.00     0.007 C 
HETATM    4  C7  UNL     1      -0.966   6.665  13.494  1.00  0.00     0.004 C 
HETATM    5  C8  UNL     1      -0.822   7.909  12.588  1.00  0.00    -0.027 A 
HETATM    6  C9  UNL     1      -2.107   8.381  11.908  1.00  0.00     0.011 C 
HETATM    7  C10 UNL     1      -3.336   8.513  12.843  1.00  0.00     0.011 C 
HETATM    8  C11 UNL     1      -3.198   7.757  14.176  1.00  0.00    -0.032 C 
HETATM    9  C12 UNL     1      -2.476   8.682  15.192  1.00  0.00     0.016 C 
HETATM   10  C13 UNL     1      -4.534   7.258  14.814  1.00  0.00    -0.002 C 
HETATM   11  C22 UNL     1      -4.071   6.091  15.726  1.00  0.00     0.006 C 
HETATM   12  C23 UNL     1      -2.659   5.677  15.247  1.00  0.00     0.011 C 
HETATM   13  C24 UNL     1      -2.461   6.396  13.897  1.00  0.00    -0.032 C 
HETATM   14  C25 UNL     1      -3.177   5.490  12.834  1.00  0.00     0.016 C 
HETATM   15  C26 UNL     1       0.110   9.038  12.984  1.00  0.00     0.022 A 
HETATM   16  C27 UNL     1       0.584   8.070  11.931  1.00  0.00    -0.024 A 
ENDROOT
BRANCH  10  17
HETATM   17  C14 UNL     1      -5.533   8.287  15.433  1.00  0.00    -0.014 C 
HETATM   18  C15 UNL     1      -4.870   9.678  15.424  1.00  0.00     0.010 C 
BRANCH  17  19
HETATM   19  C16 UNL     1      -6.925   8.376  14.756  1.00  0.00     0.008 C 
BRANCH  19  20
HETATM   20  C17 UNL     1      -7.996   7.408  15.296  1.00  0.00     0.028 C 
BRANCH  20  21
HETATM   21  C18 UNL     1      -7.662   5.957  15.089  1.00  0.00    -0.025 C 
HETATM   22  C19 UNL     1      -7.772   5.232  13.956  1.00  0.00    -0.091 C 
HETATM   23  C20 UNL     1      -7.395   3.771  13.945  1.00  0.00     0.042 C 
HETATM   24  C21 UNL     1      -8.247   5.746  12.624  1.00  0.00     0.042 C 
ENDBRANCH  20  21
ENDBRANCH  19  20
ENDBRANCH  17  19
ENDBRANCH  10  17
BRANCH  16  25
HETATM   25  C28 UNL     1       0.659   8.531  10.477  1.00  0.00     0.021 C 
BRANCH  25  26
HETATM   26  C29 UNL     1       1.854   7.946   9.726  1.00  0.00     0.111 C 
BRANCH  26  27
HETATM   27  C30 UNL     1       1.804   8.300   8.267  1.00  0.00     0.139 C 
HETATM   28  O2  UNL     1       2.679   8.814   7.590  1.00  0.00    -0.650 OA
BRANCH  27  29
HETATM   29  O3  UNL     1       0.614   7.986   7.714  1.00  0.00    -0.776 OA
HETATM   30  H48 UNL     1       0.708   8.280   6.784  1.00  0.00     0.167 HD
ENDBRANCH  27  29
ENDBRANCH  26  27
ENDBRANCH  25  26
ENDBRANCH  16  25
BRANCH   1  31
HETATM   31  C2  UNL     1       2.561   7.393  13.556  1.00  0.00    -0.061 C 
HETATM   32  C1  UNL     1       3.704   8.104  13.512  1.00  0.00     0.017 C 
BRANCH  31  33
HETATM   33  C3  UNL     1       2.010   6.963  14.895  1.00  0.00     0.198 C 
BRANCH  33  34
HETATM   34  O1  UNL     1       3.064   6.544  15.742  1.00  0.00    -0.397 OA
HETATM   35  H5  UNL     1       2.658   6.277  16.584  1.00  0.00     0.209 HD
ENDBRANCH  33  34
ENDBRANCH  31  33
ENDBRANCH   1  31
TORSDOF 11
ENDMDL
