MODEL 1
REMARK minimizedAffinity -9.27466869
REMARK  8 active torsions:
REMARK  status: ('A' for Active; 'I' for Inactive)
REMARK    1  A    between atoms: C12_14  and  C13_15 
REMARK    2  A    between atoms: C13_15  and  C15_17 
REMARK    3  A    between atoms: C15_17  and  C16_18 
REMARK    4  A    between atoms: C16_18  and  C17_20 
REMARK    5  A    between atoms: C26_29  and  C27_30 
REMARK    6  A    between atoms: C27_30  and  C28_31 
REMARK    7  A    between atoms: C28_31  and  C29_32 
REMARK    8  A    between atoms: C29_32  and  O5_34 
ROOT
HETATM    1  C1  UNL     1       0.726  53.816 -20.486  1.00  0.00     0.025 C 
HETATM    2  C2  UNL     1       0.057  52.789 -19.946  1.00  0.00     0.015 C 
HETATM    3  C3  UNL     1       0.306  52.359 -18.556  1.00  0.00     0.289 C 
HETATM    4  O1  UNL     1       1.297  52.590 -17.890  1.00  0.00    -0.260 OA
HETATM    5  O2  UNL     1      -0.792  51.675 -18.147  1.00  0.00    -0.311 OA
HETATM    6  C4  UNL     1      -1.821  51.735 -19.159  1.00  0.00     0.142 C 
HETATM    7  C5  UNL     1      -2.668  50.472 -19.034  1.00  0.00     0.039 C 
HETATM    8  C6  UNL     1      -2.962  49.673 -20.308  1.00  0.00     0.006 C 
HETATM    9  C7  UNL     1      -1.787  49.631 -21.304  1.00  0.00    -0.027 A 
HETATM   10  C8  UNL     1      -2.068  48.750 -22.532  1.00  0.00     0.011 C 
HETATM   11  C9  UNL     1      -3.437  49.003 -23.192  1.00  0.00     0.011 C 
HETATM   12  C10 UNL     1      -4.583  48.945 -22.163  1.00  0.00    -0.032 C 
HETATM   13  C11 UNL     1      -4.679  47.482 -21.622  1.00  0.00     0.016 C 
HETATM   14  C12 UNL     1      -6.006  49.381 -22.636  1.00  0.00    -0.002 C 
HETATM   15  C21 UNL     1      -6.690  49.774 -21.286  1.00  0.00     0.006 C 
HETATM   16  C22 UNL     1      -5.579  49.968 -20.232  1.00  0.00     0.011 C 
HETATM   17  C23 UNL     1      -4.283  50.035 -21.052  1.00  0.00    -0.032 C 
HETATM   18  C24 UNL     1      -4.192  51.495 -21.595  1.00  0.00     0.016 C 
HETATM   19  C25 UNL     1      -0.392  49.496 -20.735  1.00  0.00     0.022 A 
HETATM   20  C26 UNL     1      -0.792  50.818 -21.367  1.00  0.00    -0.021 A 
HETATM   21  C31 UNL     1      -1.113  52.030 -20.479  1.00  0.00     0.063 C 
ENDROOT
BRANCH  14  22
HETATM   22  C13 UNL     1      -6.890  48.410 -23.473  1.00  0.00    -0.007 C 
HETATM   23  C14 UNL     1      -7.280  47.153 -22.685  1.00  0.00     0.011 C 
BRANCH  22  24
HETATM   24  C15 UNL     1      -6.148  47.981 -24.762  1.00  0.00     0.087 C 
BRANCH  24  25
HETATM   25  C16 UNL     1      -7.076  47.469 -25.855  1.00  0.00     0.149 C 
HETATM   26  O3  UNL     1      -8.187  47.005 -25.614  1.00  0.00    -0.293 OA
BRANCH  25  27
HETATM   27  C17 UNL     1      -6.578  47.628 -27.257  1.00  0.00     0.052 C 
HETATM   28  C18 UNL     1      -5.339  48.017 -27.617  1.00  0.00    -0.084 C 
HETATM   29  C19 UNL     1      -4.244  48.414 -26.664  1.00  0.00     0.043 C 
HETATM   30  C20 UNL     1      -4.955  48.089 -29.071  1.00  0.00     0.043 C 
ENDBRANCH  25  27
ENDBRANCH  24  25
ENDBRANCH  22  24
ENDBRANCH  14  22
BRANCH  20  31
HETATM   31  C27 UNL     1      -0.238  51.227 -22.746  1.00  0.00     0.021 C 
BRANCH  31  32
HETATM   32  C28 UNL     1       0.226  52.672 -22.908  1.00  0.00     0.112 C 
BRANCH  32  33
HETATM   33  C29 UNL     1       0.603  53.037 -24.320  1.00  0.00     0.258 C 
HETATM   34  O4  UNL     1       0.861  54.178 -24.682  1.00  0.00    -0.265 OA
BRANCH  33  35
HETATM   35  O5  UNL     1       0.662  51.931 -25.111  1.00  0.00    -0.326 OA
HETATM   36  C30 UNL     1       1.345  52.145 -26.347  1.00  0.00     0.213 C 
ENDBRANCH  33  35
ENDBRANCH  32  33
ENDBRANCH  31  32
ENDBRANCH  20  31
TORSDOF 8
ENDMDL
MODEL 2
REMARK minimizedAffinity -9.17854881
REMARK  8 active torsions:
REMARK  status: ('A' for Active; 'I' for Inactive)
REMARK    1  A    between atoms: C12_14  and  C13_15 
REMARK    2  A    between atoms: C13_15  and  C15_17 
REMARK    3  A    between atoms: C15_17  and  C16_18 
REMARK    4  A    between atoms: C16_18  and  C17_20 
REMARK    5  A    between atoms: C26_29  and  C27_30 
REMARK    6  A    between atoms: C27_30  and  C28_31 
REMARK    7  A    between atoms: C28_31  and  C29_32 
REMARK    8  A    between atoms: C29_32  and  O5_34 
ROOT
HETATM    1  C1  UNL     1       1.819  51.154 -26.192  1.00  0.00     0.025 C 
HETATM    2  C2  UNL     1       0.496  51.302 -26.348  1.00  0.00     0.015 C 
HETATM    3  C3  UNL     1      -0.069  51.872 -27.587  1.00  0.00     0.289 C 
HETATM    4  O1  UNL     1       0.514  52.561 -28.402  1.00  0.00    -0.260 OA
HETATM    5  O2  UNL     1      -1.361  51.463 -27.661  1.00  0.00    -0.311 OA
HETATM    6  C4  UNL     1      -1.652  50.539 -26.589  1.00  0.00     0.142 C 
HETATM    7  C5  UNL     1      -3.137  50.659 -26.264  1.00  0.00     0.039 C 
HETATM    8  C6  UNL     1      -3.542  50.819 -24.795  1.00  0.00     0.006 C 
HETATM    9  C7  UNL     1      -2.572  51.689 -23.970  1.00  0.00    -0.027 A 
HETATM   10  C8  UNL     1      -3.042  51.913 -22.524  1.00  0.00     0.011 C 
HETATM   11  C9  UNL     1      -3.498  50.630 -21.802  1.00  0.00     0.011 C 
HETATM   12  C10 UNL     1      -4.534  49.848 -22.633  1.00  0.00    -0.032 C 
HETATM   13  C11 UNL     1      -5.831  50.714 -22.739  1.00  0.00     0.016 C 
HETATM   14  C12 UNL     1      -4.941  48.426 -22.133  1.00  0.00    -0.002 C 
HETATM   15  C21 UNL     1      -5.454  47.754 -23.449  1.00  0.00     0.006 C 
HETATM   16  C22 UNL     1      -4.937  48.590 -24.639  1.00  0.00     0.011 C 
HETATM   17  C23 UNL     1      -3.864  49.502 -24.027  1.00  0.00    -0.032 C 
HETATM   18  C24 UNL     1      -2.573  48.633 -23.918  1.00  0.00     0.016 C 
HETATM   19  C25 UNL     1      -1.987  52.912 -24.641  1.00  0.00     0.022 A 
HETATM   20  C26 UNL     1      -1.071  51.735 -24.352  1.00  0.00    -0.021 A 
HETATM   21  C31 UNL     1      -0.624  50.809 -25.493  1.00  0.00     0.063 C 
ENDROOT
BRANCH  14  22
HETATM   22  C13 UNL     1      -5.957  48.262 -20.964  1.00  0.00    -0.007 C 
HETATM   23  C14 UNL     1      -6.178  49.572 -20.197  1.00  0.00     0.011 C 
BRANCH  22  24
HETATM   24  C15 UNL     1      -5.468  47.180 -19.971  1.00  0.00     0.087 C 
BRANCH  24  25
HETATM   25  C16 UNL     1      -3.972  46.908 -20.059  1.00  0.00     0.149 C 
HETATM   26  O3  UNL     1      -3.498  46.061 -20.809  1.00  0.00    -0.293 OA
BRANCH  25  27
HETATM   27  C17 UNL     1      -3.102  47.789 -19.218  1.00  0.00     0.052 C 
HETATM   28  C18 UNL     1      -1.862  48.210 -19.534  1.00  0.00    -0.084 C 
HETATM   29  C19 UNL     1      -1.105  47.823 -20.775  1.00  0.00     0.043 C 
HETATM   30  C20 UNL     1      -1.115  49.138 -18.612  1.00  0.00     0.043 C 
ENDBRANCH  25  27
ENDBRANCH  24  25
ENDBRANCH  22  24
ENDBRANCH  14  22
BRANCH  20  31
HETATM   31  C27 UNL     1      -0.035  51.810 -23.213  1.00  0.00     0.021 C 
BRANCH  31  32
HETATM   32  C28 UNL     1       0.679  53.143 -23.008  1.00  0.00     0.112 C 
BRANCH  32  33
HETATM   33  C29 UNL     1       1.064  53.415 -21.577  1.00  0.00     0.258 C 
HETATM   34  O4  UNL     1       1.736  54.376 -21.225  1.00  0.00    -0.265 OA
BRANCH  33  35
HETATM   35  O5  UNL     1       0.527  52.485 -20.742  1.00  0.00    -0.326 OA
HETATM   36  C30 UNL     1       0.171  53.002 -19.459  1.00  0.00     0.213 C 
ENDBRANCH  33  35
ENDBRANCH  32  33
ENDBRANCH  31  32
ENDBRANCH  20  31
TORSDOF 8
ENDMDL
MODEL 3
REMARK minimizedAffinity -9.14293385
REMARK  8 active torsions:
REMARK  status: ('A' for Active; 'I' for Inactive)
REMARK    1  A    between atoms: C12_14  and  C13_15 
REMARK    2  A    between atoms: C13_15  and  C15_17 
REMARK    3  A    between atoms: C15_17  and  C16_18 
REMARK    4  A    between atoms: C16_18  and  C17_20 
REMARK    5  A    between atoms: C26_29  and  C27_30 
REMARK    6  A    between atoms: C27_30  and  C28_31 
REMARK    7  A    between atoms: C28_31  and  C29_32 
REMARK    8  A    between atoms: C29_32  and  O5_34 
ROOT
HETATM    1  C1  UNL     1      -3.566  48.211 -27.555  1.00  0.00     0.025 C 
HETATM    2  C2  UNL     1      -4.230  48.433 -26.413  1.00  0.00     0.015 C 
HETATM    3  C3  UNL     1      -5.671  48.137 -26.296  1.00  0.00     0.289 C 
HETATM    4  O1  UNL     1      -6.466  48.020 -27.209  1.00  0.00    -0.260 OA
HETATM    5  O2  UNL     1      -5.943  47.994 -24.974  1.00  0.00    -0.311 OA
HETATM    6  C4  UNL     1      -4.722  48.057 -24.205  1.00  0.00     0.142 C 
HETATM    7  C5  UNL     1      -5.071  48.599 -22.823  1.00  0.00     0.039 C 
HETATM    8  C6  UNL     1      -4.220  49.742 -22.261  1.00  0.00     0.006 C 
HETATM    9  C7  UNL     1      -3.772  50.768 -23.321  1.00  0.00    -0.027 A 
HETATM   10  C8  UNL     1      -2.997  51.953 -22.725  1.00  0.00     0.011 C 
HETATM   11  C9  UNL     1      -1.885  51.550 -21.737  1.00  0.00     0.011 C 
HETATM   12  C10 UNL     1      -2.412  50.596 -20.648  1.00  0.00    -0.032 C 
HETATM   13  C11 UNL     1      -3.443  51.377 -19.771  1.00  0.00     0.016 C 
HETATM   14  C12 UNL     1      -1.366  49.936 -19.693  1.00  0.00    -0.002 C 
HETATM   15  C21 UNL     1      -2.132  48.662 -19.205  1.00  0.00     0.006 C 
HETATM   16  C22 UNL     1      -3.311  48.420 -20.171  1.00  0.00     0.011 C 
HETATM   17  C23 UNL     1      -3.008  49.321 -21.377  1.00  0.00    -0.032 C 
HETATM   18  C24 UNL     1      -1.974  48.541 -22.247  1.00  0.00     0.016 C 
HETATM   19  C25 UNL     1      -4.766  51.140 -24.398  1.00  0.00     0.022 A 
HETATM   20  C26 UNL     1      -3.554  50.310 -24.785  1.00  0.00    -0.021 A 
HETATM   21  C31 UNL     1      -3.707  48.807 -25.065  1.00  0.00     0.063 C 
ENDROOT
BRANCH  14  22
HETATM   22  C13 UNL     1      -0.765  50.742 -18.504  1.00  0.00    -0.007 C 
HETATM   23  C14 UNL     1      -1.544  50.525 -17.200  1.00  0.00     0.011 C 
BRANCH  22  24
HETATM   24  C15 UNL     1      -0.753  52.255 -18.831  1.00  0.00     0.087 C 
BRANCH  24  25
HETATM   25  C16 UNL     1       0.621  52.897 -18.685  1.00  0.00     0.149 C 
HETATM   26  O3  UNL     1       1.381  52.626 -17.761  1.00  0.00    -0.293 OA
BRANCH  25  27
HETATM   27  C17 UNL     1       1.019  53.833 -19.782  1.00  0.00     0.052 C 
HETATM   28  C18 UNL     1       1.277  53.491 -21.060  1.00  0.00    -0.084 C 
HETATM   29  C19 UNL     1       1.260  52.087 -21.602  1.00  0.00     0.043 C 
HETATM   30  C20 UNL     1       1.622  54.547 -22.077  1.00  0.00     0.043 C 
ENDBRANCH  25  27
ENDBRANCH  24  25
ENDBRANCH  22  24
ENDBRANCH  14  22
BRANCH  20  31
HETATM   31  C27 UNL     1      -2.392  50.941 -25.577  1.00  0.00     0.021 C 
BRANCH  31  32
HETATM   32  C28 UNL     1      -2.753  51.722 -26.839  1.00  0.00     0.112 C 
BRANCH  32  33
HETATM   33  C29 UNL     1      -1.717  52.738 -27.244  1.00  0.00     0.258 C 
HETATM   34  O4  UNL     1      -1.987  53.820 -27.750  1.00  0.00    -0.265 OA
BRANCH  33  35
HETATM   35  O5  UNL     1      -0.464  52.310 -26.930  1.00  0.00    -0.326 OA
HETATM   36  C30 UNL     1       0.163  51.558 -27.970  1.00  0.00     0.213 C 
ENDBRANCH  33  35
ENDBRANCH  32  33
ENDBRANCH  31  32
ENDBRANCH  20  31
TORSDOF 8
ENDMDL
MODEL 4
REMARK minimizedAffinity -9.0367012
REMARK  8 active torsions:
REMARK  status: ('A' for Active; 'I' for Inactive)
REMARK    1  A    between atoms: C12_14  and  C13_15 
REMARK    2  A    between atoms: C13_15  and  C15_17 
REMARK    3  A    between atoms: C15_17  and  C16_18 
REMARK    4  A    between atoms: C16_18  and  C17_20 
REMARK    5  A    between atoms: C26_29  and  C27_30 
REMARK    6  A    between atoms: C27_30  and  C28_31 
REMARK    7  A    between atoms: C28_31  and  C29_32 
REMARK    8  A    between atoms: C29_32  and  O5_34 
ROOT
HETATM    1  C1  UNL     1      -3.538  48.470 -27.408  1.00  0.00     0.025 C 
HETATM    2  C2  UNL     1      -4.144  48.603 -26.220  1.00  0.00     0.015 C 
HETATM    3  C3  UNL     1      -5.508  48.085 -25.994  1.00  0.00     0.289 C 
HETATM    4  O1  UNL     1      -6.338  47.831 -26.845  1.00  0.00    -0.260 OA
HETATM    5  O2  UNL     1      -5.656  47.923 -24.655  1.00  0.00    -0.311 OA
HETATM    6  C4  UNL     1      -4.407  48.189 -23.980  1.00  0.00     0.142 C 
HETATM    7  C5  UNL     1      -4.736  48.691 -22.578  1.00  0.00     0.039 C 
HETATM    8  C6  UNL     1      -4.037  49.962 -22.086  1.00  0.00     0.006 C 
HETATM    9  C7  UNL     1      -3.835  51.028 -23.180  1.00  0.00    -0.027 A 
HETATM   10  C8  UNL     1      -3.216  52.330 -22.648  1.00  0.00     0.011 C 
HETATM   11  C9  UNL     1      -1.985  52.122 -21.744  1.00  0.00     0.011 C 
HETATM   12  C10 UNL     1      -2.273  51.114 -20.615  1.00  0.00    -0.032 C 
HETATM   13  C11 UNL     1      -3.348  51.737 -19.667  1.00  0.00     0.016 C 
HETATM   14  C12 UNL     1      -1.070  50.641 -19.739  1.00  0.00    -0.002 C 
HETATM   15  C21 UNL     1      -1.587  49.271 -19.189  1.00  0.00     0.006 C 
HETATM   16  C22 UNL     1      -2.781  48.832 -20.064  1.00  0.00     0.011 C 
HETATM   17  C23 UNL     1      -2.712  49.750 -21.293  1.00  0.00    -0.032 C 
HETATM   18  C24 UNL     1      -1.635  49.128 -22.235  1.00  0.00     0.016 C 
HETATM   19  C25 UNL     1      -4.952  51.223 -24.182  1.00  0.00     0.022 A 
HETATM   20  C26 UNL     1      -3.655  50.588 -24.655  1.00  0.00    -0.021 A 
HETATM   21  C31 UNL     1      -3.589  49.075 -24.916  1.00  0.00     0.063 C 
ENDROOT
BRANCH  14  22
HETATM   22  C13 UNL     1      -0.518  51.551 -18.601  1.00  0.00    -0.007 C 
HETATM   23  C14 UNL     1       0.378  52.675 -19.137  1.00  0.00     0.011 C 
BRANCH  22  24
HETATM   24  C15 UNL     1       0.292  50.710 -17.584  1.00  0.00     0.087 C 
BRANCH  24  25
HETATM   25  C16 UNL     1       0.793  51.516 -16.393  1.00  0.00     0.149 C 
HETATM   26  O3  UNL     1       0.162  51.605 -15.344  1.00  0.00    -0.293 OA
BRANCH  25  27
HETATM   27  C17 UNL     1       2.142  52.142 -16.555  1.00  0.00     0.052 C 
HETATM   28  C18 UNL     1       3.197  51.972 -15.734  1.00  0.00    -0.084 C 
HETATM   29  C19 UNL     1       3.189  51.155 -14.470  1.00  0.00     0.043 C 
HETATM   30  C20 UNL     1       4.517  52.627 -16.043  1.00  0.00     0.043 C 
ENDBRANCH  25  27
ENDBRANCH  24  25
ENDBRANCH  22  24
ENDBRANCH  14  22
BRANCH  20  31
HETATM   31  C27 UNL     1      -2.669  51.381 -25.533  1.00  0.00     0.021 C 
BRANCH  31  32
HETATM   32  C28 UNL     1      -1.208  50.939 -25.514  1.00  0.00     0.112 C 
BRANCH  32  33
HETATM   33  C29 UNL     1      -0.234  52.033 -25.867  1.00  0.00     0.258 C 
HETATM   34  O4  UNL     1       0.982  51.901 -25.824  1.00  0.00    -0.265 OA
BRANCH  33  35
HETATM   35  O5  UNL     1      -0.888  53.153 -26.279  1.00  0.00    -0.326 OA
HETATM   36  C30 UNL     1      -0.288  53.783 -27.413  1.00  0.00     0.213 C 
ENDBRANCH  33  35
ENDBRANCH  32  33
ENDBRANCH  31  32
ENDBRANCH  20  31
TORSDOF 8
ENDMDL
MODEL 5
REMARK minimizedAffinity -9.00676727
REMARK  8 active torsions:
REMARK  status: ('A' for Active; 'I' for Inactive)
REMARK    1  A    between atoms: C12_14  and  C13_15 
REMARK    2  A    between atoms: C13_15  and  C15_17 
REMARK    3  A    between atoms: C15_17  and  C16_18 
REMARK    4  A    between atoms: C16_18  and  C17_20 
REMARK    5  A    between atoms: C26_29  and  C27_30 
REMARK    6  A    between atoms: C27_30  and  C28_31 
REMARK    7  A    between atoms: C28_31  and  C29_32 
REMARK    8  A    between atoms: C29_32  and  O5_34 
ROOT
HETATM    1  C1  UNL     1       2.003  51.119 -26.168  1.00  0.00     0.025 C 
HETATM    2  C2  UNL     1       0.696  51.296 -26.403  1.00  0.00     0.015 C 
HETATM    3  C3  UNL     1       0.217  51.849 -27.685  1.00  0.00     0.289 C 
HETATM    4  O1  UNL     1       0.862  52.504 -28.481  1.00  0.00    -0.260 OA
HETATM    5  O2  UNL     1      -1.079  51.470 -27.824  1.00  0.00    -0.311 OA
HETATM    6  C4  UNL     1      -1.454  50.579 -26.750  1.00  0.00     0.142 C 
HETATM    7  C5  UNL     1      -2.952  50.744 -26.514  1.00  0.00     0.039 C 
HETATM    8  C6  UNL     1      -3.435  50.949 -25.074  1.00  0.00     0.006 C 
HETATM    9  C7  UNL     1      -2.493  51.814 -24.215  1.00  0.00    -0.027 A 
HETATM   10  C8  UNL     1      -3.038  52.084 -22.804  1.00  0.00     0.011 C 
HETATM   11  C9  UNL     1      -3.568  50.830 -22.081  1.00  0.00     0.011 C 
HETATM   12  C10 UNL     1      -4.574  50.054 -22.952  1.00  0.00    -0.032 C 
HETATM   13  C11 UNL     1      -5.840  50.949 -23.152  1.00  0.00     0.016 C 
HETATM   14  C12 UNL     1      -5.045  48.654 -22.444  1.00  0.00    -0.002 C 
HETATM   15  C21 UNL     1      -5.500  47.964 -23.772  1.00  0.00     0.006 C 
HETATM   16  C22 UNL     1      -4.895  48.759 -24.949  1.00  0.00     0.011 C 
HETATM   17  C23 UNL     1      -3.835  49.658 -24.297  1.00  0.00    -0.032 C 
HETATM   18  C24 UNL     1      -2.575  48.761 -24.094  1.00  0.00     0.016 C 
HETATM   19  C25 UNL     1      -1.839  53.006 -24.878  1.00  0.00     0.022 A 
HETATM   20  C26 UNL     1      -0.971  51.814 -24.510  1.00  0.00    -0.021 A 
HETATM   21  C31 UNL     1      -0.484  50.850 -25.603  1.00  0.00     0.063 C 
ENDROOT
BRANCH  14  22
HETATM   22  C13 UNL     1      -6.131  48.543 -21.333  1.00  0.00    -0.007 C 
HETATM   23  C14 UNL     1      -6.255  49.833 -20.510  1.00  0.00     0.011 C 
BRANCH  22  24
HETATM   24  C15 UNL     1      -5.804  47.372 -20.375  1.00  0.00     0.087 C 
BRANCH  24  25
HETATM   25  C16 UNL     1      -4.802  46.379 -20.950  1.00  0.00     0.149 C 
HETATM   26  O3  UNL     1      -3.667  46.706 -21.283  1.00  0.00    -0.293 OA
BRANCH  25  27
HETATM   27  C17 UNL     1      -5.264  44.958 -21.022  1.00  0.00     0.052 C 
HETATM   28  C18 UNL     1      -6.322  44.505 -21.721  1.00  0.00    -0.084 C 
HETATM   29  C19 UNL     1      -7.266  45.363 -22.520  1.00  0.00     0.043 C 
HETATM   30  C20 UNL     1      -6.648  43.035 -21.744  1.00  0.00     0.043 C 
ENDBRANCH  25  27
ENDBRANCH  24  25
ENDBRANCH  22  24
ENDBRANCH  14  22
BRANCH  20  31
HETATM   31  C27 UNL     1      -0.001  51.890 -23.316  1.00  0.00     0.021 C 
BRANCH  31  32
HETATM   32  C28 UNL     1       0.697  53.226 -23.070  1.00  0.00     0.112 C 
BRANCH  32  33
HETATM   33  C29 UNL     1       1.041  53.478 -21.625  1.00  0.00     0.258 C 
HETATM   34  O4  UNL     1       1.826  54.341 -21.253  1.00  0.00    -0.265 OA
BRANCH  33  35
HETATM   35  O5  UNL     1       0.331  52.656 -20.804  1.00  0.00    -0.326 OA
HETATM   36  C30 UNL     1       0.136  53.186 -19.492  1.00  0.00     0.213 C 
ENDBRANCH  33  35
ENDBRANCH  32  33
ENDBRANCH  31  32
ENDBRANCH  20  31
TORSDOF 8
ENDMDL
MODEL 6
REMARK minimizedAffinity -8.96052742
REMARK  8 active torsions:
REMARK  status: ('A' for Active; 'I' for Inactive)
REMARK    1  A    between atoms: C12_14  and  C13_15 
REMARK    2  A    between atoms: C13_15  and  C15_17 
REMARK    3  A    between atoms: C15_17  and  C16_18 
REMARK    4  A    between atoms: C16_18  and  C17_20 
REMARK    5  A    between atoms: C26_29  and  C27_30 
REMARK    6  A    between atoms: C27_30  and  C28_31 
REMARK    7  A    between atoms: C28_31  and  C29_32 
REMARK    8  A    between atoms: C29_32  and  O5_34 
ROOT
HETATM    1  C1  UNL     1       1.844  51.116 -26.219  1.00  0.00     0.025 C 
HETATM    2  C2  UNL     1       0.525  51.256 -26.406  1.00  0.00     0.015 C 
HETATM    3  C3  UNL     1      -0.018  51.761 -27.682  1.00  0.00     0.289 C 
HETATM    4  O1  UNL     1       0.580  52.407 -28.521  1.00  0.00    -0.260 OA
HETATM    5  O2  UNL     1      -1.308  51.348 -27.758  1.00  0.00    -0.311 OA
HETATM    6  C4  UNL     1      -1.619  50.480 -26.646  1.00  0.00     0.142 C 
HETATM    7  C5  UNL     1      -3.110  50.617 -26.354  1.00  0.00     0.039 C 
HETATM    8  C6  UNL     1      -3.541  50.851 -24.902  1.00  0.00     0.006 C 
HETATM    9  C7  UNL     1      -2.586  51.762 -24.106  1.00  0.00    -0.027 A 
HETATM   10  C8  UNL     1      -3.081  52.059 -22.682  1.00  0.00     0.011 C 
HETATM   11  C9  UNL     1      -3.551  50.815 -21.904  1.00  0.00     0.011 C 
HETATM   12  C10 UNL     1      -4.572  49.991 -22.712  1.00  0.00    -0.032 C 
HETATM   13  C11 UNL     1      -5.866  50.850 -22.885  1.00  0.00     0.016 C 
HETATM   14  C12 UNL     1      -4.989  48.596 -22.147  1.00  0.00    -0.002 C 
HETATM   15  C21 UNL     1      -5.479  47.858 -23.436  1.00  0.00     0.006 C 
HETATM   16  C22 UNL     1      -4.940  48.632 -24.658  1.00  0.00     0.011 C 
HETATM   17  C23 UNL     1      -3.877  49.574 -24.074  1.00  0.00    -0.032 C 
HETATM   18  C24 UNL     1      -2.589  48.713 -23.898  1.00  0.00     0.016 C 
HETATM   19  C25 UNL     1      -1.988  52.950 -24.828  1.00  0.00     0.022 A 
HETATM   20  C26 UNL     1      -1.078  51.789 -24.462  1.00  0.00    -0.021 A 
HETATM   21  C31 UNL     1      -0.611  50.806 -25.547  1.00  0.00     0.063 C 
ENDROOT
BRANCH  14  22
HETATM   22  C13 UNL     1      -6.026  48.492 -20.990  1.00  0.00    -0.007 C 
HETATM   23  C14 UNL     1      -5.582  49.262 -19.740  1.00  0.00     0.011 C 
BRANCH  22  24
HETATM   24  C15 UNL     1      -6.258  47.011 -20.606  1.00  0.00     0.087 C 
BRANCH  24  25
HETATM   25  C16 UNL     1      -7.156  46.833 -19.389  1.00  0.00     0.149 C 
HETATM   26  O3  UNL     1      -6.717  46.535 -18.282  1.00  0.00    -0.293 OA
BRANCH  25  27
HETATM   27  C17 UNL     1      -8.610  47.110 -19.609  1.00  0.00     0.052 C 
HETATM   28  C18 UNL     1      -9.321  48.102 -19.039  1.00  0.00    -0.084 C 
HETATM   29  C19 UNL     1      -8.787  49.083 -18.031  1.00  0.00     0.043 C 
HETATM   30  C20 UNL     1     -10.773  48.297 -19.389  1.00  0.00     0.043 C 
ENDBRANCH  25  27
ENDBRANCH  24  25
ENDBRANCH  22  24
ENDBRANCH  14  22
BRANCH  20  31
HETATM   31  C27 UNL     1      -0.063  51.922 -23.311  1.00  0.00     0.021 C 
BRANCH  31  32
HETATM   32  C28 UNL     1       0.682  53.249 -23.189  1.00  0.00     0.112 C 
BRANCH  32  33
HETATM   33  C29 UNL     1       1.020  53.632 -21.772  1.00  0.00     0.258 C 
HETATM   34  O4  UNL     1       1.786  54.541 -21.477  1.00  0.00    -0.265 OA
BRANCH  33  35
HETATM   35  O5  UNL     1       0.329  52.868 -20.882  1.00  0.00    -0.326 OA
HETATM   36  C30 UNL     1       0.249  53.440 -19.575  1.00  0.00     0.213 C 
ENDBRANCH  33  35
ENDBRANCH  32  33
ENDBRANCH  31  32
ENDBRANCH  20  31
TORSDOF 8
ENDMDL
MODEL 7
REMARK minimizedAffinity -8.69122696
REMARK  8 active torsions:
REMARK  status: ('A' for Active; 'I' for Inactive)
REMARK    1  A    between atoms: C12_14  and  C13_15 
REMARK    2  A    between atoms: C13_15  and  C15_17 
REMARK    3  A    between atoms: C15_17  and  C16_18 
REMARK    4  A    between atoms: C16_18  and  C17_20 
REMARK    5  A    between atoms: C26_29  and  C27_30 
REMARK    6  A    between atoms: C27_30  and  C28_31 
REMARK    7  A    between atoms: C28_31  and  C29_32 
REMARK    8  A    between atoms: C29_32  and  O5_34 
ROOT
HETATM    1  C1  UNL     1      -1.333  50.949 -27.282  1.00  0.00     0.025 C 
HETATM    2  C2  UNL     1      -2.246  50.347 -26.508  1.00  0.00     0.015 C 
HETATM    3  C3  UNL     1      -3.346  49.558 -27.095  1.00  0.00     0.289 C 
HETATM    4  O1  UNL     1      -3.768  49.633 -28.233  1.00  0.00    -0.260 OA
HETATM    5  O2  UNL     1      -3.788  48.712 -26.130  1.00  0.00    -0.311 OA
HETATM    6  C4  UNL     1      -2.949  48.810 -24.959  1.00  0.00     0.142 C 
HETATM    7  C5  UNL     1      -3.803  48.459 -23.746  1.00  0.00     0.039 C 
HETATM    8  C6  UNL     1      -3.759  49.400 -22.538  1.00  0.00     0.006 C 
HETATM    9  C7  UNL     1      -3.654  50.892 -22.910  1.00  0.00    -0.027 A 
HETATM   10  C8  UNL     1      -3.704  51.824 -21.690  1.00  0.00     0.011 C 
HETATM   11  C9  UNL     1      -2.776  51.403 -20.534  1.00  0.00     0.011 C 
HETATM   12  C10 UNL     1      -2.988  49.928 -20.144  1.00  0.00    -0.032 C 
HETATM   13  C11 UNL     1      -4.429  49.780 -19.557  1.00  0.00     0.016 C 
HETATM   14  C12 UNL     1      -1.984  49.293 -19.130  1.00  0.00    -0.002 C 
HETATM   15  C21 UNL     1      -2.115  47.769 -19.455  1.00  0.00     0.006 C 
HETATM   16  C22 UNL     1      -2.790  47.636 -20.837  1.00  0.00     0.011 C 
HETATM   17  C23 UNL     1      -2.715  49.048 -21.435  1.00  0.00    -0.032 C 
HETATM   18  C24 UNL     1      -1.274  49.195 -22.016  1.00  0.00     0.016 C 
HETATM   19  C25 UNL     1      -4.449  51.371 -24.105  1.00  0.00     0.022 A 
HETATM   20  C26 UNL     1      -2.935  51.305 -24.219  1.00  0.00    -0.021 A 
HETATM   21  C31 UNL     1      -2.272  50.177 -25.025  1.00  0.00     0.063 C 
ENDROOT
BRANCH  14  22
HETATM   22  C13 UNL     1      -2.121  49.574 -17.604  1.00  0.00    -0.007 C 
HETATM   23  C14 UNL     1      -2.542  51.021 -17.315  1.00  0.00     0.011 C 
BRANCH  22  24
HETATM   24  C15 UNL     1      -0.782  49.291 -16.881  1.00  0.00     0.087 C 
BRANCH  24  25
HETATM   25  C16 UNL     1      -0.484  50.266 -15.751  1.00  0.00     0.149 C 
HETATM   26  O3  UNL     1      -1.308  50.544 -14.885  1.00  0.00    -0.293 OA
BRANCH  25  27
HETATM   27  C17 UNL     1       0.906  50.818 -15.719  1.00  0.00     0.052 C 
HETATM   28  C18 UNL     1       1.426  51.705 -16.590  1.00  0.00    -0.084 C 
HETATM   29  C19 UNL     1       0.709  52.262 -17.791  1.00  0.00     0.043 C 
HETATM   30  C20 UNL     1       2.831  52.215 -16.412  1.00  0.00     0.043 C 
ENDBRANCH  25  27
ENDBRANCH  24  25
ENDBRANCH  22  24
ENDBRANCH  14  22
BRANCH  20  31
HETATM   31  C27 UNL     1      -2.091  52.594 -24.207  1.00  0.00     0.021 C 
BRANCH  31  32
HETATM   32  C28 UNL     1      -0.700  52.522 -24.831  1.00  0.00     0.112 C 
BRANCH  32  33
HETATM   33  C29 UNL     1       0.083  53.805 -24.728  1.00  0.00     0.258 C 
HETATM   34  O4  UNL     1       0.981  53.991 -23.916  1.00  0.00    -0.265 OA
BRANCH  33  35
HETATM   35  O5  UNL     1      -0.311  54.695 -25.680  1.00  0.00    -0.326 OA
HETATM   36  C30 UNL     1      -0.061  54.254 -27.016  1.00  0.00     0.213 C 
ENDBRANCH  33  35
ENDBRANCH  32  33
ENDBRANCH  31  32
ENDBRANCH  20  31
TORSDOF 8
ENDMDL
MODEL 8
REMARK minimizedAffinity -8.54790974
REMARK  8 active torsions:
REMARK  status: ('A' for Active; 'I' for Inactive)
REMARK    1  A    between atoms: C12_14  and  C13_15 
REMARK    2  A    between atoms: C13_15  and  C15_17 
REMARK    3  A    between atoms: C15_17  and  C16_18 
REMARK    4  A    between atoms: C16_18  and  C17_20 
REMARK    5  A    between atoms: C26_29  and  C27_30 
REMARK    6  A    between atoms: C27_30  and  C28_31 
REMARK    7  A    between atoms: C28_31  and  C29_32 
REMARK    8  A    between atoms: C29_32  and  O5_34 
ROOT
HETATM    1  C1  UNL     1      -2.654  50.318 -16.009  1.00  0.00     0.025 C 
HETATM    2  C2  UNL     1      -3.048  49.562 -17.042  1.00  0.00     0.015 C 
HETATM    3  C3  UNL     1      -3.690  48.249 -16.830  1.00  0.00     0.289 C 
HETATM    4  O1  UNL     1      -3.627  47.563 -15.828  1.00  0.00    -0.260 OA
HETATM    5  O2  UNL     1      -4.387  47.959 -17.957  1.00  0.00    -0.311 OA
HETATM    6  C4  UNL     1      -4.344  49.078 -18.870  1.00  0.00     0.142 C 
HETATM    7  C5  UNL     1      -4.471  48.525 -20.286  1.00  0.00     0.039 C 
HETATM    8  C6  UNL     1      -3.469  49.007 -21.340  1.00  0.00     0.006 C 
HETATM    9  C7  UNL     1      -2.041  49.216 -20.796  1.00  0.00    -0.027 A 
HETATM   10  C8  UNL     1      -1.032  49.611 -21.885  1.00  0.00     0.011 C 
HETATM   11  C9  UNL     1      -1.516  50.738 -22.817  1.00  0.00     0.011 C 
HETATM   12  C10 UNL     1      -2.908  50.434 -23.401  1.00  0.00    -0.032 C 
HETATM   13  C11 UNL     1      -2.784  49.187 -24.336  1.00  0.00     0.016 C 
HETATM   14  C12 UNL     1      -3.624  51.568 -24.201  1.00  0.00    -0.002 C 
HETATM   15  C21 UNL     1      -5.127  51.151 -24.082  1.00  0.00     0.006 C 
HETATM   16  C22 UNL     1      -5.244  50.131 -22.929  1.00  0.00     0.011 C 
HETATM   17  C23 UNL     1      -3.906  50.242 -22.185  1.00  0.00    -0.032 C 
HETATM   18  C24 UNL     1      -4.031  51.490 -21.257  1.00  0.00     0.016 C 
HETATM   19  C25 UNL     1      -1.524  48.214 -19.787  1.00  0.00     0.022 A 
HETATM   20  C26 UNL     1      -1.838  49.623 -19.314  1.00  0.00    -0.021 A 
HETATM   21  C31 UNL     1      -3.110  49.895 -18.496  1.00  0.00     0.063 C 
ENDROOT
BRANCH  14  22
HETATM   22  C13 UNL     1      -3.221  51.869 -25.675  1.00  0.00    -0.007 C 
HETATM   23  C14 UNL     1      -3.319  50.627 -26.570  1.00  0.00     0.011 C 
BRANCH  22  24
HETATM   24  C15 UNL     1      -1.774  52.415 -25.738  1.00  0.00     0.087 C 
BRANCH  24  25
HETATM   25  C16 UNL     1      -1.345  52.840 -27.136  1.00  0.00     0.149 C 
HETATM   26  O3  UNL     1      -2.025  53.584 -27.837  1.00  0.00    -0.293 OA
BRANCH  25  27
HETATM   27  C17 UNL     1      -0.004  52.348 -27.581  1.00  0.00     0.052 C 
HETATM   28  C18 UNL     1       1.077  52.176 -26.794  1.00  0.00    -0.084 C 
HETATM   29  C19 UNL     1       1.141  52.501 -25.326  1.00  0.00     0.043 C 
HETATM   30  C20 UNL     1       2.356  51.626 -27.367  1.00  0.00     0.043 C 
ENDBRANCH  25  27
ENDBRANCH  24  25
ENDBRANCH  22  24
ENDBRANCH  14  22
BRANCH  20  31
HETATM   31  C27 UNL     1      -0.703  50.610 -18.983  1.00  0.00     0.021 C 
BRANCH  31  32
HETATM   32  C28 UNL     1      -1.056  52.095 -18.957  1.00  0.00     0.112 C 
BRANCH  32  33
HETATM   33  C29 UNL     1      -0.027  52.979 -19.611  1.00  0.00     0.258 C 
HETATM   34  O4  UNL     1       0.112  54.168 -19.352  1.00  0.00    -0.265 OA
BRANCH  33  35
HETATM   35  O5  UNL     1       0.746  52.270 -20.478  1.00  0.00    -0.326 OA
HETATM   36  C30 UNL     1       1.206  53.034 -21.594  1.00  0.00     0.213 C 
ENDBRANCH  33  35
ENDBRANCH  32  33
ENDBRANCH  31  32
ENDBRANCH  20  31
TORSDOF 8
ENDMDL
MODEL 9
REMARK minimizedAffinity -8.5102787
REMARK  8 active torsions:
REMARK  status: ('A' for Active; 'I' for Inactive)
REMARK    1  A    between atoms: C12_14  and  C13_15 
REMARK    2  A    between atoms: C13_15  and  C15_17 
REMARK    3  A    between atoms: C15_17  and  C16_18 
REMARK    4  A    between atoms: C16_18  and  C17_20 
REMARK    5  A    between atoms: C26_29  and  C27_30 
REMARK    6  A    between atoms: C27_30  and  C28_31 
REMARK    7  A    between atoms: C28_31  and  C29_32 
REMARK    8  A    between atoms: C29_32  and  O5_34 
ROOT
HETATM    1  C1  UNL     1       0.233  48.644 -15.902  1.00  0.00     0.025 C 
HETATM    2  C2  UNL     1      -0.035  49.754 -16.604  1.00  0.00     0.015 C 
HETATM    3  C3  UNL     1       0.336  51.089 -16.096  1.00  0.00     0.289 C 
HETATM    4  O1  UNL     1       0.569  51.388 -14.941  1.00  0.00    -0.260 OA
HETATM    5  O2  UNL     1       0.394  51.921 -17.166  1.00  0.00    -0.311 OA
HETATM    6  C4  UNL     1       0.200  51.175 -18.388  1.00  0.00     0.142 C 
HETATM    7  C5  UNL     1      -0.424  52.117 -19.413  1.00  0.00     0.039 C 
HETATM    8  C6  UNL     1      -1.654  51.629 -20.184  1.00  0.00     0.006 C 
HETATM    9  C7  UNL     1      -2.621  50.773 -19.342  1.00  0.00    -0.027 A 
HETATM   10  C8  UNL     1      -3.892  50.370 -20.105  1.00  0.00     0.011 C 
HETATM   11  C9  UNL     1      -3.632  49.811 -21.517  1.00  0.00     0.011 C 
HETATM   12  C10 UNL     1      -2.734  50.751 -22.343  1.00  0.00    -0.032 C 
HETATM   13  C11 UNL     1      -3.517  52.081 -22.593  1.00  0.00     0.016 C 
HETATM   14  C12 UNL     1      -2.211  50.232 -23.721  1.00  0.00    -0.002 C 
HETATM   15  C21 UNL     1      -0.936  51.110 -23.936  1.00  0.00     0.006 C 
HETATM   16  C22 UNL     1      -0.551  51.727 -22.574  1.00  0.00     0.011 C 
HETATM   17  C23 UNL     1      -1.374  50.933 -21.550  1.00  0.00    -0.032 C 
HETATM   18  C24 UNL     1      -0.593  49.604 -21.307  1.00  0.00     0.016 C 
HETATM   19  C25 UNL     1      -2.851  51.187 -17.905  1.00  0.00     0.022 A 
HETATM   20  C26 UNL     1      -2.067  49.914 -18.177  1.00  0.00    -0.021 A 
HETATM   21  C31 UNL     1      -0.541  49.897 -18.002  1.00  0.00     0.063 C 
ENDROOT
BRANCH  14  22
HETATM   22  C13 UNL     1      -3.140  50.242 -24.971  1.00  0.00    -0.007 C 
HETATM   23  C14 UNL     1      -2.997  48.967 -25.813  1.00  0.00     0.011 C 
BRANCH  22  24
HETATM   24  C15 UNL     1      -2.828  51.467 -25.864  1.00  0.00     0.087 C 
BRANCH  24  25
HETATM   25  C16 UNL     1      -2.397  51.094 -27.277  1.00  0.00     0.149 C 
HETATM   26  O3  UNL     1      -3.202  50.913 -28.186  1.00  0.00    -0.293 OA
BRANCH  25  27
HETATM   27  C17 UNL     1      -0.920  51.027 -27.509  1.00  0.00     0.052 C 
HETATM   28  C18 UNL     1      -0.105  52.078 -27.725  1.00  0.00    -0.084 C 
HETATM   29  C19 UNL     1      -0.547  53.512 -27.824  1.00  0.00     0.043 C 
HETATM   30  C20 UNL     1       1.376  51.870 -27.896  1.00  0.00     0.043 C 
ENDBRANCH  25  27
ENDBRANCH  24  25
ENDBRANCH  22  24
ENDBRANCH  14  22
BRANCH  20  31
HETATM   31  C27 UNL     1      -2.704  48.533 -17.928  1.00  0.00     0.021 C 
BRANCH  31  32
HETATM   32  C28 UNL     1      -2.334  47.411 -18.894  1.00  0.00     0.112 C 
BRANCH  32  33
HETATM   33  C29 UNL     1      -3.347  46.297 -18.953  1.00  0.00     0.258 C 
HETATM   34  O4  UNL     1      -3.513  45.481 -18.056  1.00  0.00    -0.265 OA
BRANCH  33  35
HETATM   35  O5  UNL     1      -4.070  46.356 -20.105  1.00  0.00    -0.326 OA
HETATM   36  C30 UNL     1      -5.398  46.851 -19.923  1.00  0.00     0.213 C 
ENDBRANCH  33  35
ENDBRANCH  32  33
ENDBRANCH  31  32
ENDBRANCH  20  31
TORSDOF 8
ENDMDL
