MODEL 1
REMARK minimizedAffinity -7.92263317
REMARK  5 active torsions:
REMARK  status: ('A' for Active; 'I' for Inactive)
REMARK    1  A    between atoms: O1_2  and  C2_3 
REMARK    2  A    between atoms: C2_3  and  C3_4 
REMARK    3  A    between atoms: C3_4  and  C4_5 
REMARK    4  A    between atoms: C7_8  and  C8_9 
REMARK    5  A    between atoms: C12_15  and  N2_16 
ROOT
HETATM    1  C8  UNL     1       0.201  52.174 -21.344  1.00  0.00     0.092 A 
HETATM    2  C9  UNL     1       0.912  53.153 -22.024  1.00  0.00     0.036 A 
HETATM    3  C10 UNL     1       1.828  54.188 -21.490  1.00  0.00     0.070 C 
HETATM    4  N1  UNL     1       0.668  53.092 -23.374  1.00  0.00    -0.341 N 
ATOM      5  H1  UNL     1       1.067  53.692 -24.096  1.00  0.00     0.167 HD
HETATM    6  C11 UNL     1      -0.188  52.100 -23.547  1.00  0.00     0.154 A 
HETATM    7  C12 UNL     1      -0.791  51.571 -24.747  1.00  0.00     0.078 A 
HETATM    8  C17 UNL     1      -1.608  50.514 -24.576  1.00  0.00     0.052 A 
HETATM    9  C18 UNL     1      -1.839  49.984 -23.220  1.00  0.00     0.110 A 
HETATM   10  N3  UNL     1      -1.328  50.435 -22.124  1.00  0.00    -0.303 N 
ATOM     11  H3  UNL     1      -1.521  50.038 -21.204  1.00  0.00     0.186 HD
HETATM   12  N4  UNL     1      -0.499  51.503 -22.332  1.00  0.00    -0.235 N 
ENDROOT
BRANCH   1  13
HETATM   13  C7  UNL     1       0.157  51.842 -19.921  1.00  0.00     0.010 A 
HETATM   14  C6  UNL     1      -0.364  50.633 -19.462  1.00  0.00     0.017 A 
HETATM   15  C5  UNL     1      -0.408  50.366 -18.093  1.00  0.00     0.026 A 
HETATM   16  C4  UNL     1       0.062  51.326 -17.199  1.00  0.00     0.011 A 
HETATM   17  N5  UNL     1       0.593  52.499 -17.619  1.00  0.00    -0.368 N 
HETATM   18  C19 UNL     1       0.621  52.728 -18.956  1.00  0.00     0.102 A 
ATOM     19  H5  UNL     1       0.956  53.183 -16.956  1.00  0.00     0.165 HD
BRANCH  16  20
HETATM   20  C3  UNL     1       0.055  51.075 -15.710  1.00  0.00     0.083 C 
BRANCH  20  21
HETATM   21  C2  UNL     1       0.915  52.051 -14.906  1.00  0.00     0.173 C 
BRANCH  21  22
HETATM   22  O1  UNL     1       0.148  52.638 -13.855  1.00  0.00    -0.396 OA
HETATM   23  C1  UNL     1      -1.008  51.873 -13.548  1.00  0.00     0.201 C 
ENDBRANCH  21  22
ENDBRANCH  20  21
ENDBRANCH  16  20
ENDBRANCH   1  13
BRANCH   7  24
HETATM   24  N2  UNL     1      -0.549  52.127 -26.021  1.00  0.00    -0.374 N 
HETATM   25  C13 UNL     1      -0.058  53.517 -26.195  1.00  0.00     0.149 C 
HETATM   26  C14 UNL     1      -0.392  54.038 -27.602  1.00  0.00     0.187 C 
HETATM   27  O2  UNL     1       0.173  53.262 -28.668  1.00  0.00    -0.388 OA
HETATM   28  C15 UNL     1       0.411  51.898 -28.300  1.00  0.00     0.187 C 
HETATM   29  C16 UNL     1      -0.599  51.353 -27.280  1.00  0.00     0.149 C 
ENDBRANCH   7  24
TORSDOF 5
ENDMDL
MODEL 2
REMARK minimizedAffinity -7.71623707
REMARK  5 active torsions:
REMARK  status: ('A' for Active; 'I' for Inactive)
REMARK    1  A    between atoms: O1_2  and  C2_3 
REMARK    2  A    between atoms: C2_3  and  C3_4 
REMARK    3  A    between atoms: C3_4  and  C4_5 
REMARK    4  A    between atoms: C7_8  and  C8_9 
REMARK    5  A    between atoms: C12_15  and  N2_16 
ROOT
HETATM    1  C8  UNL     1      -2.960  49.317 -24.141  1.00  0.00     0.092 A 
HETATM    2  C9  UNL     1      -3.010  48.854 -22.834  1.00  0.00     0.036 A 
HETATM    3  C10 UNL     1      -3.810  47.746 -22.260  1.00  0.00     0.070 C 
HETATM    4  N1  UNL     1      -2.180  49.584 -22.019  1.00  0.00    -0.341 N 
ATOM      5  H1  UNL     1      -2.026  49.447 -21.020  1.00  0.00     0.167 HD
HETATM    6  C11 UNL     1      -1.620  50.499 -22.792  1.00  0.00     0.154 A 
HETATM    7  C12 UNL     1      -0.661  51.534 -22.488  1.00  0.00     0.078 A 
HETATM    8  C17 UNL     1      -0.264  52.290 -23.530  1.00  0.00     0.052 A 
HETATM    9  C18 UNL     1      -0.821  52.032 -24.871  1.00  0.00     0.110 A 
HETATM   10  N3  UNL     1      -1.686  51.126 -25.179  1.00  0.00    -0.303 N 
ATOM     11  H3  UNL     1      -2.049  50.986 -26.123  1.00  0.00     0.186 HD
HETATM   12  N4  UNL     1      -2.064  50.372 -24.102  1.00  0.00    -0.235 N 
ENDROOT
BRANCH   1  13
HETATM   13  C7  UNL     1      -3.644  48.850 -25.345  1.00  0.00     0.010 A 
HETATM   14  C6  UNL     1      -2.968  48.656 -26.549  1.00  0.00     0.017 A 
HETATM   15  C5  UNL     1      -3.665  48.231 -27.681  1.00  0.00     0.026 A 
HETATM   16  C4  UNL     1      -5.038  48.017 -27.592  1.00  0.00     0.011 A 
HETATM   17  N5  UNL     1      -5.715  48.177 -26.430  1.00  0.00    -0.368 N 
HETATM   18  C19 UNL     1      -5.010  48.592 -25.347  1.00  0.00     0.102 A 
ATOM     19  H5  UNL     1      -6.717  47.993 -26.372  1.00  0.00     0.165 HD
BRANCH  16  20
HETATM   20  C3  UNL     1      -5.832  47.536 -28.783  1.00  0.00     0.083 C 
BRANCH  20  21
HETATM   21  C2  UNL     1      -5.490  48.248 -30.093  1.00  0.00     0.173 C 
BRANCH  21  22
HETATM   22  O1  UNL     1      -4.777  47.370 -30.964  1.00  0.00    -0.396 OA
HETATM   23  C1  UNL     1      -4.941  47.727 -32.329  1.00  0.00     0.201 C 
ENDBRANCH  21  22
ENDBRANCH  20  21
ENDBRANCH  16  20
ENDBRANCH   1  13
BRANCH   7  24
HETATM   24  N2  UNL     1      -0.173  51.750 -21.183  1.00  0.00    -0.374 N 
HETATM   25  C13 UNL     1       0.150  53.107 -20.675  1.00  0.00     0.149 C 
HETATM   26  C14 UNL     1       1.133  53.025 -19.496  1.00  0.00     0.187 C 
HETATM   27  O2  UNL     1       0.652  52.266 -18.377  1.00  0.00    -0.388 OA
HETATM   28  C15 UNL     1      -0.316  51.277 -18.748  1.00  0.00     0.187 C 
HETATM   29  C16 UNL     1      -0.089  50.693 -20.151  1.00  0.00     0.149 C 
ENDBRANCH   7  24
TORSDOF 5
ENDMDL
MODEL 3
REMARK minimizedAffinity -7.64890718
REMARK  5 active torsions:
REMARK  status: ('A' for Active; 'I' for Inactive)
REMARK    1  A    between atoms: O1_2  and  C2_3 
REMARK    2  A    between atoms: C2_3  and  C3_4 
REMARK    3  A    between atoms: C3_4  and  C4_5 
REMARK    4  A    between atoms: C7_8  and  C8_9 
REMARK    5  A    between atoms: C12_15  and  N2_16 
ROOT
HETATM    1  C8  UNL     1      -0.554  51.282 -21.575  1.00  0.00     0.092 A 
HETATM    2  C9  UNL     1      -0.278  51.888 -22.792  1.00  0.00     0.036 A 
HETATM    3  C10 UNL     1       0.594  53.050 -23.086  1.00  0.00     0.070 C 
HETATM    4  N1  UNL     1      -0.954  51.271 -23.815  1.00  0.00    -0.341 N 
ATOM      5  H1  UNL     1      -0.923  51.514 -24.805  1.00  0.00     0.167 HD
HETATM    6  C11 UNL     1      -1.654  50.297 -23.258  1.00  0.00     0.154 A 
HETATM    7  C12 UNL     1      -2.540  49.318 -23.839  1.00  0.00     0.078 A 
HETATM    8  C17 UNL     1      -3.077  48.430 -22.981  1.00  0.00     0.052 A 
HETATM    9  C18 UNL     1      -2.748  48.513 -21.546  1.00  0.00     0.110 A 
HETATM   10  N3  UNL     1      -1.971  49.379 -20.988  1.00  0.00    -0.303 N 
ATOM     11  H3  UNL     1      -1.775  49.402 -19.987  1.00  0.00     0.186 HD
HETATM   12  N4  UNL     1      -1.437  50.262 -21.886  1.00  0.00    -0.235 N 
ENDROOT
BRANCH   1  13
HETATM   13  C7  UNL     1      -0.060  51.573 -20.230  1.00  0.00     0.010 A 
HETATM   14  C6  UNL     1      -0.319  50.730 -19.150  1.00  0.00     0.017 A 
HETATM   15  C5  UNL     1       0.153  51.058 -17.879  1.00  0.00     0.026 A 
HETATM   16  C4  UNL     1       0.872  52.238 -17.706  1.00  0.00     0.011 A 
HETATM   17  N5  UNL     1       1.156  53.064 -18.741  1.00  0.00    -0.368 N 
HETATM   18  C19 UNL     1       0.683  52.718 -19.965  1.00  0.00     0.102 A 
ATOM     19  H5  UNL     1       1.704  53.913 -18.605  1.00  0.00     0.165 HD
BRANCH  16  20
HETATM   20  C3  UNL     1       1.422  52.626 -16.353  1.00  0.00     0.083 C 
BRANCH  20  21
HETATM   21  C2  UNL     1       1.938  51.448 -15.526  1.00  0.00     0.173 C 
BRANCH  21  22
HETATM   22  O1  UNL     1       3.343  51.573 -15.308  1.00  0.00    -0.396 OA
HETATM   23  C1  UNL     1       3.879  52.727 -15.938  1.00  0.00     0.201 C 
ENDBRANCH  21  22
ENDBRANCH  20  21
ENDBRANCH  16  20
ENDBRANCH   1  13
BRANCH   7  24
HETATM   24  N2  UNL     1      -2.836  49.293 -25.218  1.00  0.00    -0.374 N 
HETATM   25  C13 UNL     1      -4.114  48.750 -25.743  1.00  0.00     0.149 C 
HETATM   26  C14 UNL     1      -3.966  48.345 -27.218  1.00  0.00     0.187 C 
HETATM   27  O2  UNL     1      -3.583  49.418 -28.090  1.00  0.00    -0.388 OA
HETATM   28  C15 UNL     1      -2.858  50.453 -27.415  1.00  0.00     0.187 C 
HETATM   29  C16 UNL     1      -1.997  49.940 -26.251  1.00  0.00     0.149 C 
ENDBRANCH   7  24
TORSDOF 5
ENDMDL
MODEL 4
REMARK minimizedAffinity -7.58782959
REMARK  5 active torsions:
REMARK  status: ('A' for Active; 'I' for Inactive)
REMARK    1  A    between atoms: O1_2  and  C2_3 
REMARK    2  A    between atoms: C2_3  and  C3_4 
REMARK    3  A    between atoms: C3_4  and  C4_5 
REMARK    4  A    between atoms: C7_8  and  C8_9 
REMARK    5  A    between atoms: C12_15  and  N2_16 
ROOT
HETATM    1  C8  UNL     1       0.099  51.918 -20.859  1.00  0.00     0.092 A 
HETATM    2  C9  UNL     1       0.720  52.975 -20.209  1.00  0.00     0.036 A 
HETATM    3  C10 UNL     1       1.260  54.236 -20.772  1.00  0.00     0.070 C 
HETATM    4  N1  UNL     1       0.819  52.737 -18.860  1.00  0.00    -0.341 N 
ATOM      5  H1  UNL     1       1.226  53.353 -18.157  1.00  0.00     0.167 HD
HETATM    6  C11 UNL     1       0.279  51.547 -18.658  1.00  0.00     0.154 A 
HETATM    7  C12 UNL     1       0.095  50.787 -17.445  1.00  0.00     0.078 A 
HETATM    8  C17 UNL     1      -0.532  49.603 -17.584  1.00  0.00     0.052 A 
HETATM    9  C18 UNL     1      -0.970  49.163 -18.922  1.00  0.00     0.110 A 
HETATM   10  N3  UNL     1      -0.815  49.808 -20.029  1.00  0.00    -0.303 N 
ATOM     11  H3  UNL     1      -1.130  49.462 -20.935  1.00  0.00     0.186 HD
HETATM   12  N4  UNL     1      -0.180  51.008 -19.853  1.00  0.00    -0.235 N 
ENDROOT
BRANCH   1  13
HETATM   13  C7  UNL     1      -0.239  51.730 -22.268  1.00  0.00     0.010 A 
HETATM   14  C6  UNL     1      -1.221  50.829 -22.677  1.00  0.00     0.017 A 
HETATM   15  C5  UNL     1      -1.496  50.665 -24.035  1.00  0.00     0.026 A 
HETATM   16  C4  UNL     1      -0.771  51.401 -24.969  1.00  0.00     0.011 A 
HETATM   17  N5  UNL     1       0.173  52.298 -24.598  1.00  0.00    -0.368 N 
HETATM   18  C19 UNL     1       0.418  52.435 -23.270  1.00  0.00     0.102 A 
ATOM     19  H5  UNL     1       0.681  52.850 -25.290  1.00  0.00     0.165 HD
BRANCH  16  20
HETATM   20  C3  UNL     1      -1.047  51.274 -26.448  1.00  0.00     0.083 C 
BRANCH  20  21
HETATM   21  C2  UNL     1      -1.948  52.372 -27.014  1.00  0.00     0.173 C 
BRANCH  21  22
HETATM   22  O1  UNL     1      -1.190  53.555 -27.269  1.00  0.00    -0.396 OA
HETATM   23  C1  UNL     1      -0.068  53.298 -28.101  1.00  0.00     0.201 C 
ENDBRANCH  21  22
ENDBRANCH  20  21
ENDBRANCH  16  20
ENDBRANCH   1  13
BRANCH   7  24
HETATM   24  N2  UNL     1       0.550  51.246 -16.191  1.00  0.00    -0.374 N 
HETATM   25  C13 UNL     1      -0.255  51.090 -14.954  1.00  0.00     0.149 C 
HETATM   26  C14 UNL     1       0.184  52.109 -13.890  1.00  0.00     0.187 C 
HETATM   27  O2  UNL     1       1.562  52.005 -13.505  1.00  0.00    -0.388 OA
HETATM   28  C15 UNL     1       2.386  51.437 -14.529  1.00  0.00     0.187 C 
HETATM   29  C16 UNL     1       1.912  51.769 -15.952  1.00  0.00     0.149 C 
ENDBRANCH   7  24
TORSDOF 5
ENDMDL
MODEL 5
REMARK minimizedAffinity -7.55290508
REMARK  5 active torsions:
REMARK  status: ('A' for Active; 'I' for Inactive)
REMARK    1  A    between atoms: O1_2  and  C2_3 
REMARK    2  A    between atoms: C2_3  and  C3_4 
REMARK    3  A    between atoms: C3_4  and  C4_5 
REMARK    4  A    between atoms: C7_8  and  C8_9 
REMARK    5  A    between atoms: C12_15  and  N2_16 
ROOT
HETATM    1  C8  UNL     1      -2.064  50.463 -25.438  1.00  0.00     0.092 A 
HETATM    2  C9  UNL     1      -0.755  50.914 -25.536  1.00  0.00     0.036 A 
HETATM    3  C10 UNL     1       0.172  50.859 -26.691  1.00  0.00     0.070 C 
HETATM    4  N1  UNL     1      -0.333  51.465 -24.351  1.00  0.00    -0.341 N 
ATOM      5  H1  UNL     1       0.581  51.874 -24.157  1.00  0.00     0.167 HD
HETATM    6  C11 UNL     1      -1.350  51.357 -23.514  1.00  0.00     0.154 A 
HETATM    7  C12 UNL     1      -1.488  51.770 -22.138  1.00  0.00     0.078 A 
HETATM    8  C17 UNL     1      -2.690  51.539 -21.574  1.00  0.00     0.052 A 
HETATM    9  C18 UNL     1      -3.753  50.892 -22.365  1.00  0.00     0.110 A 
HETATM   10  N3  UNL     1      -3.665  50.501 -23.591  1.00  0.00    -0.303 N 
ATOM     11  H3  UNL     1      -4.427  50.052 -24.099  1.00  0.00     0.186 HD
HETATM   12  N4  UNL     1      -2.435  50.754 -24.136  1.00  0.00    -0.235 N 
ENDROOT
BRANCH   1  13
HETATM   13  C7  UNL     1      -2.932  49.833 -26.430  1.00  0.00     0.010 A 
HETATM   14  C6  UNL     1      -3.516  48.585 -26.213  1.00  0.00     0.017 A 
HETATM   15  C5  UNL     1      -4.321  48.010 -27.198  1.00  0.00     0.026 A 
HETATM   16  C4  UNL     1      -4.520  48.692 -28.396  1.00  0.00     0.011 A 
HETATM   17  N5  UNL     1      -3.982  49.914 -28.624  1.00  0.00    -0.368 N 
HETATM   18  C19 UNL     1      -3.204  50.446 -27.647  1.00  0.00     0.102 A 
ATOM     19  H5  UNL     1      -4.155  50.414 -29.496  1.00  0.00     0.165 HD
BRANCH  16  20
HETATM   20  C3  UNL     1      -5.399  48.120 -29.482  1.00  0.00     0.083 C 
BRANCH  20  21
HETATM   21  C2  UNL     1      -5.323  48.873 -30.811  1.00  0.00     0.173 C 
BRANCH  21  22
HETATM   22  O1  UNL     1      -4.572  48.122 -31.765  1.00  0.00    -0.396 OA
HETATM   23  C1  UNL     1      -4.906  46.742 -31.736  1.00  0.00     0.201 C 
ENDBRANCH  21  22
ENDBRANCH  20  21
ENDBRANCH  16  20
ENDBRANCH   1  13
BRANCH   7  24
HETATM   24  N2  UNL     1      -0.432  52.369 -21.420  1.00  0.00    -0.374 N 
HETATM   25  C13 UNL     1       0.359  53.497 -21.974  1.00  0.00     0.149 C 
HETATM   26  C14 UNL     1       1.726  53.593 -21.279  1.00  0.00     0.187 C 
HETATM   27  O2  UNL     1       1.654  53.794 -19.860  1.00  0.00    -0.388 OA
HETATM   28  C15 UNL     1       0.441  53.293 -19.286  1.00  0.00     0.187 C 
HETATM   29  C16 UNL     1      -0.114  52.057 -20.010  1.00  0.00     0.149 C 
ENDBRANCH   7  24
TORSDOF 5
ENDMDL
MODEL 6
REMARK minimizedAffinity -7.44426298
REMARK  5 active torsions:
REMARK  status: ('A' for Active; 'I' for Inactive)
REMARK    1  A    between atoms: O1_2  and  C2_3 
REMARK    2  A    between atoms: C2_3  and  C3_4 
REMARK    3  A    between atoms: C3_4  and  C4_5 
REMARK    4  A    between atoms: C7_8  and  C8_9 
REMARK    5  A    between atoms: C12_15  and  N2_16 
ROOT
HETATM    1  C8  UNL     1      -3.228  49.215 -23.998  1.00  0.00     0.092 A 
HETATM    2  C9  UNL     1      -3.433  48.763 -22.702  1.00  0.00     0.036 A 
HETATM    3  C10 UNL     1      -4.365  47.722 -22.208  1.00  0.00     0.070 C 
HETATM    4  N1  UNL     1      -2.630  49.433 -21.813  1.00  0.00    -0.341 N 
ATOM      5  H1  UNL     1      -2.580  49.290 -20.804  1.00  0.00     0.167 HD
HETATM    6  C11 UNL     1      -1.934  50.300 -22.528  1.00  0.00     0.154 A 
HETATM    7  C12 UNL     1      -0.932  51.261 -22.135  1.00  0.00     0.078 A 
HETATM    8  C17 UNL     1      -0.385  51.980 -23.134  1.00  0.00     0.052 A 
HETATM    9  C18 UNL     1      -0.833  51.758 -24.521  1.00  0.00     0.110 A 
HETATM   10  N3  UNL     1      -1.731  50.918 -24.910  1.00  0.00    -0.303 N 
ATOM     11  H3  UNL     1      -2.014  50.802 -25.883  1.00  0.00     0.186 HD
HETATM   12  N4  UNL     1      -2.263  50.200 -23.874  1.00  0.00    -0.235 N 
ENDROOT
BRANCH   1  13
HETATM   13  C7  UNL     1      -3.831  48.795 -25.262  1.00  0.00     0.010 A 
HETATM   14  C6  UNL     1      -3.071  48.615 -26.417  1.00  0.00     0.017 A 
HETATM   15  C5  UNL     1      -3.691  48.234 -27.608  1.00  0.00     0.026 A 
HETATM   16  C4  UNL     1      -5.071  48.051 -27.627  1.00  0.00     0.011 A 
HETATM   17  N5  UNL     1      -5.829  48.199 -26.514  1.00  0.00    -0.368 N 
HETATM   18  C19 UNL     1      -5.198  48.569 -25.372  1.00  0.00     0.102 A 
ATOM     19  H5  UNL     1      -6.836  48.038 -26.535  1.00  0.00     0.165 HD
BRANCH  16  20
HETATM   20  C3  UNL     1      -5.784  47.619 -28.886  1.00  0.00     0.083 C 
BRANCH  20  21
HETATM   21  C2  UNL     1      -5.352  48.376 -30.142  1.00  0.00     0.173 C 
BRANCH  21  22
HETATM   22  O1  UNL     1      -4.691  47.495 -31.050  1.00  0.00    -0.396 OA
HETATM   23  C1  UNL     1      -5.464  46.335 -31.322  1.00  0.00     0.201 C 
ENDBRANCH  21  22
ENDBRANCH  20  21
ENDBRANCH  16  20
ENDBRANCH   1  13
BRANCH   7  24
HETATM   24  N2  UNL     1      -0.552  51.446 -20.789  1.00  0.00    -0.374 N 
HETATM   25  C13 UNL     1      -0.165  50.311 -19.914  1.00  0.00     0.149 C 
HETATM   26  C14 UNL     1      -0.329  50.688 -18.433  1.00  0.00     0.187 C 
HETATM   27  O2  UNL     1       0.456  51.816 -18.020  1.00  0.00    -0.388 OA
HETATM   28  C15 UNL     1       0.756  52.711 -19.098  1.00  0.00     0.187 C 
HETATM   29  C16 UNL     1      -0.344  52.772 -20.168  1.00  0.00     0.149 C 
ENDBRANCH   7  24
TORSDOF 5
ENDMDL
MODEL 7
REMARK minimizedAffinity -7.415802
REMARK  5 active torsions:
REMARK  status: ('A' for Active; 'I' for Inactive)
REMARK    1  A    between atoms: O1_2  and  C2_3 
REMARK    2  A    between atoms: C2_3  and  C3_4 
REMARK    3  A    between atoms: C3_4  and  C4_5 
REMARK    4  A    between atoms: C7_8  and  C8_9 
REMARK    5  A    between atoms: C12_15  and  N2_16 
ROOT
HETATM    1  C8  UNL     1       0.143  51.591 -20.487  1.00  0.00     0.092 A 
HETATM    2  C9  UNL     1      -0.513  50.648 -21.266  1.00  0.00     0.036 A 
HETATM    3  C10 UNL     1      -1.160  49.379 -20.855  1.00  0.00     0.070 C 
HETATM    4  N1  UNL     1      -0.508  51.010 -22.590  1.00  0.00    -0.341 N 
ATOM      5  H1  UNL     1      -0.925  50.498 -23.367  1.00  0.00     0.167 HD
HETATM    6  C11 UNL     1       0.146  52.158 -22.653  1.00  0.00     0.154 A 
HETATM    7  C12 UNL     1       0.454  53.009 -23.777  1.00  0.00     0.078 A 
HETATM    8  C17 UNL     1       1.118  54.145 -23.489  1.00  0.00     0.052 A 
HETATM    9  C18 UNL     1       1.487  54.437 -22.091  1.00  0.00     0.110 A 
HETATM   10  N3  UNL     1       1.239  53.698 -21.063  1.00  0.00    -0.303 N 
ATOM     11  H3  UNL     1       1.519  53.939 -20.112  1.00  0.00     0.186 HD
HETATM   12  N4  UNL     1       0.560  52.556 -21.389  1.00  0.00    -0.235 N 
ENDROOT
BRANCH   1  13
HETATM   13  C7  UNL     1       0.371  51.646 -19.045  1.00  0.00     0.010 A 
HETATM   14  C6  UNL     1      -0.127  50.671 -18.182  1.00  0.00     0.017 A 
HETATM   15  C5  UNL     1       0.095  50.774 -16.808  1.00  0.00     0.026 A 
HETATM   16  C4  UNL     1       0.806  51.866 -16.316  1.00  0.00     0.011 A 
HETATM   17  N5  UNL     1       1.318  52.816 -17.133  1.00  0.00    -0.368 N 
HETATM   18  C19 UNL     1       1.085  52.688 -18.464  1.00  0.00     0.102 A 
ATOM     19  H5  UNL     1       1.858  53.598 -16.763  1.00  0.00     0.165 HD
BRANCH  16  20
HETATM   20  C3  UNL     1       1.090  52.011 -14.839  1.00  0.00     0.083 C 
BRANCH  20  21
HETATM   21  C2  UNL     1       2.543  51.737 -14.451  1.00  0.00     0.173 C 
BRANCH  21  22
HETATM   22  O1  UNL     1       2.655  50.468 -13.808  1.00  0.00    -0.396 OA
HETATM   23  C1  UNL     1       4.005  50.039 -13.709  1.00  0.00     0.201 C 
ENDBRANCH  21  22
ENDBRANCH  20  21
ENDBRANCH  16  20
ENDBRANCH   1  13
BRANCH   7  24
HETATM   24  N2  UNL     1       0.092  52.672 -25.099  1.00  0.00    -0.374 N 
HETATM   25  C13 UNL     1       0.021  53.687 -26.180  1.00  0.00     0.149 C 
HETATM   26  C14 UNL     1      -0.883  53.198 -27.323  1.00  0.00     0.187 C 
HETATM   27  O2  UNL     1      -0.455  51.971 -27.932  1.00  0.00    -0.388 OA
HETATM   28  C15 UNL     1       0.319  51.151 -27.049  1.00  0.00     0.187 C 
HETATM   29  C16 UNL     1      -0.088  51.284 -25.574  1.00  0.00     0.149 C 
ENDBRANCH   7  24
TORSDOF 5
ENDMDL
MODEL 8
REMARK minimizedAffinity -7.25743198
REMARK  5 active torsions:
REMARK  status: ('A' for Active; 'I' for Inactive)
REMARK    1  A    between atoms: O1_2  and  C2_3 
REMARK    2  A    between atoms: C2_3  and  C3_4 
REMARK    3  A    between atoms: C3_4  and  C4_5 
REMARK    4  A    between atoms: C7_8  and  C8_9 
REMARK    5  A    between atoms: C12_15  and  N2_16 
ROOT
HETATM    1  C8  UNL     1      -3.118  50.019 -24.709  1.00  0.00     0.092 A 
HETATM    2  C9  UNL     1      -2.729  51.350 -24.743  1.00  0.00     0.036 A 
HETATM    3  C10 UNL     1      -3.050  52.397 -25.742  1.00  0.00     0.070 C 
HETATM    4  N1  UNL     1      -1.928  51.658 -23.671  1.00  0.00    -0.341 N 
ATOM      5  H1  UNL     1      -1.514  52.564 -23.456  1.00  0.00     0.167 HD
HETATM    6  C11 UNL     1      -1.803  50.541 -22.974  1.00  0.00     0.154 A 
HETATM    7  C12 UNL     1      -1.088  50.265 -21.751  1.00  0.00     0.078 A 
HETATM    8  C17 UNL     1      -1.195  49.008 -21.280  1.00  0.00     0.052 A 
HETATM    9  C18 UNL     1      -1.999  48.019 -22.021  1.00  0.00     0.110 A 
HETATM   10  N3  UNL     1      -2.642  48.223 -23.120  1.00  0.00    -0.303 N 
ATOM     11  H3  UNL     1      -3.184  47.506 -23.602  1.00  0.00     0.186 HD
HETATM   12  N4  UNL     1      -2.519  49.510 -23.569  1.00  0.00    -0.235 N 
ENDROOT
BRANCH   1  13
HETATM   13  C7  UNL     1      -3.974  49.252 -25.612  1.00  0.00     0.010 A 
HETATM   14  C6  UNL     1      -3.577  48.931 -26.909  1.00  0.00     0.017 A 
HETATM   15  C5  UNL     1      -4.435  48.216 -27.746  1.00  0.00     0.026 A 
HETATM   16  C4  UNL     1      -5.690  47.843 -27.272  1.00  0.00     0.011 A 
HETATM   17  N5  UNL     1      -6.092  48.123 -26.010  1.00  0.00    -0.368 N 
HETATM   18  C19 UNL     1      -5.236  48.819 -25.221  1.00  0.00     0.102 A 
ATOM     19  H5  UNL     1      -7.005  47.823 -25.666  1.00  0.00     0.165 HD
BRANCH  16  20
HETATM   20  C3  UNL     1      -6.645  47.050 -28.133  1.00  0.00     0.083 C 
BRANCH  20  21
HETATM   21  C2  UNL     1      -7.038  47.746 -29.437  1.00  0.00     0.173 C 
BRANCH  21  22
HETATM   22  O1  UNL     1      -8.198  48.553 -29.240  1.00  0.00    -0.396 OA
HETATM   23  C1  UNL     1      -8.643  49.149 -30.449  1.00  0.00     0.201 C 
ENDBRANCH  21  22
ENDBRANCH  20  21
ENDBRANCH  16  20
ENDBRANCH   1  13
BRANCH   7  24
HETATM   24  N2  UNL     1      -0.317  51.245 -21.091  1.00  0.00    -0.374 N 
HETATM   25  C13 UNL     1       0.433  52.291 -21.831  1.00  0.00     0.149 C 
HETATM   26  C14 UNL     1       1.572  52.855 -20.967  1.00  0.00     0.187 C 
HETATM   27  O2  UNL     1       1.140  53.449 -19.735  1.00  0.00    -0.388 OA
HETATM   28  C15 UNL     1      -0.101  52.912 -19.262  1.00  0.00     0.187 C 
HETATM   29  C16 UNL     1      -0.307  51.433 -19.624  1.00  0.00     0.149 C 
ENDBRANCH   7  24
TORSDOF 5
ENDMDL
MODEL 9
REMARK minimizedAffinity -7.04975939
REMARK  5 active torsions:
REMARK  status: ('A' for Active; 'I' for Inactive)
REMARK    1  A    between atoms: O1_2  and  C2_3 
REMARK    2  A    between atoms: C2_3  and  C3_4 
REMARK    3  A    between atoms: C3_4  and  C4_5 
REMARK    4  A    between atoms: C7_8  and  C8_9 
REMARK    5  A    between atoms: C12_15  and  N2_16 
ROOT
HETATM    1  C8  UNL     1      -0.600  51.190 -20.506  1.00  0.00     0.092 A 
HETATM    2  C9  UNL     1      -1.591  50.355 -21.004  1.00  0.00     0.036 A 
HETATM    3  C10 UNL     1      -2.420  49.355 -20.291  1.00  0.00     0.070 C 
HETATM    4  N1  UNL     1      -1.758  50.536 -22.354  1.00  0.00    -0.341 N 
ATOM      5  H1  UNL     1      -2.422  50.055 -22.960  1.00  0.00     0.167 HD
HETATM    6  C11 UNL     1      -0.883  51.462 -22.710  1.00  0.00     0.154 A 
HETATM    7  C12 UNL     1      -0.610  52.059 -23.996  1.00  0.00     0.078 A 
HETATM    8  C17 UNL     1       0.340  53.015 -24.009  1.00  0.00     0.052 A 
HETATM    9  C18 UNL     1       1.027  53.375 -22.754  1.00  0.00     0.110 A 
HETATM   10  N3  UNL     1       0.818  52.858 -21.591  1.00  0.00    -0.303 N 
ATOM     11  H3  UNL     1       1.323  53.136 -20.749  1.00  0.00     0.186 HD
HETATM   12  N4  UNL     1      -0.154  51.896 -21.611  1.00  0.00    -0.235 N 
ENDROOT
BRANCH   1  13
HETATM   13  C7  UNL     1      -0.093  51.364 -19.146  1.00  0.00     0.010 A 
HETATM   14  C6  UNL     1      -0.148  50.340 -18.202  1.00  0.00     0.017 A 
HETATM   15  C5  UNL     1       0.327  50.557 -16.908  1.00  0.00     0.026 A 
HETATM   16  C4  UNL     1       0.841  51.807 -16.574  1.00  0.00     0.011 A 
HETATM   17  N5  UNL     1       0.926  52.812 -17.478  1.00  0.00    -0.368 N 
HETATM   18  C19 UNL     1       0.455  52.570 -18.728  1.00  0.00     0.102 A 
ATOM     19  H5  UNL     1       1.327  53.716 -17.228  1.00  0.00     0.165 HD
BRANCH  16  20
HETATM   20  C3  UNL     1       1.386  52.083 -15.193  1.00  0.00     0.083 C 
BRANCH  20  21
HETATM   21  C2  UNL     1       2.160  50.916 -14.579  1.00  0.00     0.173 C 
BRANCH  21  22
HETATM   22  O1  UNL     1       3.564  51.113 -14.737  1.00  0.00    -0.396 OA
HETATM   23  C1  UNL     1       3.859  52.339 -15.392  1.00  0.00     0.201 C 
ENDBRANCH  21  22
ENDBRANCH  20  21
ENDBRANCH  16  20
ENDBRANCH   1  13
BRANCH   7  24
HETATM   24  N2  UNL     1      -1.285  51.664 -25.169  1.00  0.00    -0.374 N 
HETATM   25  C13 UNL     1      -2.647  52.152 -25.499  1.00  0.00     0.149 C 
HETATM   26  C14 UNL     1      -3.342  51.197 -26.483  1.00  0.00     0.187 C 
HETATM   27  O2  UNL     1      -2.650  51.025 -27.728  1.00  0.00    -0.388 OA
HETATM   28  C15 UNL     1      -1.241  51.258 -27.619  1.00  0.00     0.187 C 
HETATM   29  C16 UNL     1      -0.660  50.872 -26.251  1.00  0.00     0.149 C 
ENDBRANCH   7  24
TORSDOF 5
ENDMDL
