MODEL 1
REMARK minimizedAffinity -7.73644018
REMARK CNNscore 0.771883011
REMARK CNNaffinity 6.52896833
REMARK  6 active torsions:
REMARK  status: ('A' for Active; 'I' for Inactive)
REMARK    1  A    between atoms: O1_2  and  C2_3 
REMARK    2  A    between atoms: C17_20  and  C18_21 
REMARK    3  A    between atoms: C22_27  and  O6_28 
REMARK    4  A    between atoms: O6_28  and  C23_29 
REMARK    5  A    between atoms: C26_33  and  O8_34 
REMARK    6  A    between atoms: C31_40  and  O10_41 
ROOT
HETATM    1  C2  UNL     1       7.963  19.664  25.043  1.00  0.00     0.190 C 
HETATM    2  C3  UNL     1       8.996  20.527  25.788  1.00  0.00     0.064 C 
HETATM    3  C4  UNL     1      10.436  20.082  25.539  1.00  0.00     0.174 C 
HETATM    4  O2  UNL     1      10.534  18.674  25.366  1.00  0.00    -0.356 OA
HETATM    5  C5  UNL     1       9.859  18.200  24.195  1.00  0.00     0.325 C 
HETATM    6  O3  UNL     1       9.485  16.839  24.402  1.00  0.00    -0.344 OA
HETATM    7  C6  UNL     1       9.028  16.240  23.190  1.00  0.00     0.177 C 
HETATM    8  C7  UNL     1       8.385  14.933  23.543  1.00  0.00     0.011 C 
HETATM    9  C8  UNL     1       7.474  14.329  22.758  1.00  0.00    -0.072 C 
HETATM   10  C9  UNL     1       6.809  13.054  23.202  1.00  0.00     0.035 C 
HETATM   11  C10 UNL     1       6.275  12.137  22.096  1.00  0.00     0.012 C 
HETATM   12  C11 UNL     1       5.781  12.823  20.800  1.00  0.00     0.026 C 
HETATM   13  C12 UNL     1       5.676  14.360  20.966  1.00  0.00     0.005 C 
HETATM   14  C13 UNL     1       4.456  14.743  21.841  1.00  0.00     0.007 C 
HETATM   15  C14 UNL     1       3.370  13.668  21.916  1.00  0.00     0.013 C 
HETATM   16  C15 UNL     1       3.146  12.916  20.579  1.00  0.00    -0.003 C 
HETATM   17  C16 UNL     1       2.569  13.938  19.570  1.00  0.00     0.019 C 
HETATM   18  C17 UNL     1       2.159  11.716  20.833  1.00  0.00     0.058 C 
HETATM   19  C22 UNL     1       3.110  10.569  21.250  1.00  0.00     0.143 C 
HETATM   20  C25 UNL     1       4.303  10.718  20.311  1.00  0.00     0.072 C 
HETATM   21  C26 UNL     1       4.493  12.237  20.125  1.00  0.00     0.072 C 
HETATM   22  C27 UNL     1       7.038  14.975  21.452  1.00  0.00    -0.014 C 
HETATM   23  C28 UNL     1       8.126  14.729  20.370  1.00  0.00     0.020 C 
HETATM   24  C29 UNL     1       6.911  16.502  21.682  1.00  0.00     0.049 C 
HETATM   25  C30 UNL     1       8.144  17.184  22.317  1.00  0.00     0.159 C 
HETATM   26  O9  UNL     1       7.633  18.322  23.029  1.00  0.00    -0.341 OA
HETATM   27  C31 UNL     1       8.611  19.049  23.771  1.00  0.00     0.240 C 
ENDROOT
BRANCH  18  28
HETATM   28  C18 UNL     1       1.201  11.360  19.717  1.00  0.00    -0.043 A 
HETATM   29  C19 UNL     1      -0.123  11.524  19.771  1.00  0.00     0.087 A 
HETATM   30  C20 UNL     1      -0.672  11.054  18.504  1.00  0.00     0.283 A 
HETATM   31  O4  UNL     1      -1.855  11.058  18.214  1.00  0.00    -0.260 OA
HETATM   32  O5  UNL     1       0.343  10.614  17.715  1.00  0.00    -0.314 OA
HETATM   33  C21 UNL     1       1.579  10.755  18.417  1.00  0.00     0.214 A 
ENDBRANCH  18  28
BRANCH  19  34
HETATM   34  O6  UNL     1       2.543   9.261  21.125  1.00  0.00    -0.316 OA
BRANCH  34  35
HETATM   35  C23 UNL     1       2.303   8.623  22.306  1.00  0.00     0.255 C 
HETATM   36  C24 UNL     1       3.067   9.281  23.413  1.00  0.00     0.126 C 
HETATM   37  O7  UNL     1       1.558   7.664  22.453  1.00  0.00    -0.266 OA
ENDBRANCH  34  35
ENDBRANCH  19  34
BRANCH  21  38
HETATM   38  O8  UNL     1       4.640  12.444  18.707  1.00  0.00    -0.389 OA
HETATM   39  H35 UNL     1       5.444  11.982  18.409  1.00  0.00     0.210 HD
ENDBRANCH  21  38
BRANCH  27  40
HETATM   40  O10 UNL     1       9.006  20.149  22.931  1.00  0.00    -0.360 OA
HETATM   41  H42 UNL     1       9.454  19.766  22.163  1.00  0.00     0.213 HD
ENDBRANCH  27  40
BRANCH   1  42
HETATM   42  O1  UNL     1       7.490  18.688  25.992  1.00  0.00    -0.385 OA
HETATM   43  C1  UNL     1       6.100  18.414  25.901  1.00  0.00     0.202 C 
ENDBRANCH   1  42
TORSDOF 6
ENDMDL
MODEL 2
REMARK minimizedAffinity -7.77400923
REMARK CNNscore 0.582291126
REMARK CNNaffinity 6.33123589
REMARK  6 active torsions:
REMARK  status: ('A' for Active; 'I' for Inactive)
REMARK    1  A    between atoms: O1_2  and  C2_3 
REMARK    2  A    between atoms: C17_20  and  C18_21 
REMARK    3  A    between atoms: C22_27  and  O6_28 
REMARK    4  A    between atoms: O6_28  and  C23_29 
REMARK    5  A    between atoms: C26_33  and  O8_34 
REMARK    6  A    between atoms: C31_40  and  O10_41 
ROOT
HETATM    1  C2  UNL     1      -8.661  -9.405  11.526  1.00  0.00     0.190 C 
HETATM    2  C3  UNL     1      -7.635 -10.534  11.727  1.00  0.00     0.064 C 
HETATM    3  C4  UNL     1      -7.972 -11.443  12.907  1.00  0.00     0.174 C 
HETATM    4  O2  UNL     1      -8.608 -10.732  13.960  1.00  0.00    -0.356 OA
HETATM    5  C5  UNL     1      -9.892 -10.212  13.597  1.00  0.00     0.325 C 
HETATM    6  O3  UNL     1     -10.171  -9.072  14.409  1.00  0.00    -0.344 OA
HETATM    7  C6  UNL     1     -11.529  -8.656  14.266  1.00  0.00     0.177 C 
HETATM    8  C7  UNL     1     -11.660  -7.307  14.903  1.00  0.00     0.011 C 
HETATM    9  C8  UNL     1     -12.633  -6.435  14.579  1.00  0.00    -0.072 C 
HETATM   10  C9  UNL     1     -12.669  -5.064  15.201  1.00  0.00     0.035 C 
HETATM   11  C10 UNL     1     -14.037  -4.377  15.267  1.00  0.00     0.012 C 
HETATM   12  C11 UNL     1     -15.039  -4.708  14.136  1.00  0.00     0.026 C 
HETATM   13  C12 UNL     1     -14.366  -5.492  12.982  1.00  0.00     0.005 C 
HETATM   14  C13 UNL     1     -13.454  -4.566  12.139  1.00  0.00     0.007 C 
HETATM   15  C14 UNL     1     -13.783  -3.076  12.258  1.00  0.00     0.013 C 
HETATM   16  C15 UNL     1     -15.302  -2.780  12.344  1.00  0.00    -0.003 C 
HETATM   17  C16 UNL     1     -15.923  -3.176  10.983  1.00  0.00     0.019 C 
HETATM   18  C17 UNL     1     -15.502  -1.251  12.661  1.00  0.00     0.058 C 
HETATM   19  C22 UNL     1     -15.467  -1.211  14.207  1.00  0.00     0.143 C 
HETATM   20  C25 UNL     1     -16.260  -2.444  14.627  1.00  0.00     0.072 C 
HETATM   21  C26 UNL     1     -15.915  -3.530  13.587  1.00  0.00     0.072 C 
HETATM   22  C27 UNL     1     -13.656  -6.790  13.512  1.00  0.00    -0.014 C 
HETATM   23  C28 UNL     1     -14.721  -7.744  14.119  1.00  0.00     0.020 C 
HETATM   24  C29 UNL     1     -12.927  -7.535  12.366  1.00  0.00     0.049 C 
HETATM   25  C30 UNL     1     -12.058  -8.737  12.801  1.00  0.00     0.159 C 
HETATM   26  O9  UNL     1     -11.020  -8.841  11.813  1.00  0.00    -0.341 OA
HETATM   27  C31 UNL     1     -10.044  -9.848  12.080  1.00  0.00     0.240 C 
ENDROOT
BRANCH  18  28
HETATM   28  C18 UNL     1     -16.703  -0.567  12.045  1.00  0.00    -0.043 A 
HETATM   29  C19 UNL     1     -17.753  -1.203  11.520  1.00  0.00     0.087 A 
HETATM   30  C20 UNL     1     -18.678  -0.187  11.032  1.00  0.00     0.283 A 
HETATM   31  O4  UNL     1     -19.744  -0.418  10.490  1.00  0.00    -0.260 OA
HETATM   32  O5  UNL     1     -18.156   1.044  11.274  1.00  0.00    -0.314 OA
HETATM   33  C21 UNL     1     -16.882   0.898  11.906  1.00  0.00     0.214 A 
ENDBRANCH  18  28
BRANCH  19  34
HETATM   34  O6  UNL     1     -16.046  -0.034  14.778  1.00  0.00    -0.316 OA
BRANCH  34  35
HETATM   35  C23 UNL     1     -15.160   0.809  15.382  1.00  0.00     0.255 C 
HETATM   36  C24 UNL     1     -15.376   2.212  14.907  1.00  0.00     0.126 C 
HETATM   37  O7  UNL     1     -14.320   0.478  16.208  1.00  0.00    -0.266 OA
ENDBRANCH  34  35
ENDBRANCH  19  34
BRANCH  21  38
HETATM   38  O8  UNL     1     -17.173  -4.103  13.184  1.00  0.00    -0.389 OA
HETATM   39  H35 UNL     1     -17.583  -4.524  13.960  1.00  0.00     0.210 HD
ENDBRANCH  21  38
BRANCH  27  40
HETATM   40  O10 UNL     1     -10.448 -11.001  11.318  1.00  0.00    -0.360 OA
HETATM   41  H42 UNL     1     -11.286 -11.305  11.697  1.00  0.00     0.213 HD
ENDBRANCH  27  40
BRANCH   1  42
HETATM   42  O1  UNL     1      -8.115  -8.239  12.173  1.00  0.00    -0.385 OA
HETATM   43  C1  UNL     1      -6.740  -8.011  11.897  1.00  0.00     0.202 C 
ENDBRANCH   1  42
TORSDOF 6
ENDMDL
MODEL 3
REMARK minimizedAffinity -8.93714428
REMARK CNNscore 0.558013976
REMARK CNNaffinity 6.69504213
REMARK  6 active torsions:
REMARK  status: ('A' for Active; 'I' for Inactive)
REMARK    1  A    between atoms: O1_2  and  C2_3 
REMARK    2  A    between atoms: C17_20  and  C18_21 
REMARK    3  A    between atoms: C22_27  and  O6_28 
REMARK    4  A    between atoms: O6_28  and  C23_29 
REMARK    5  A    between atoms: C26_33  and  O8_34 
REMARK    6  A    between atoms: C31_40  and  O10_41 
ROOT
HETATM    1  C2  UNL     1      -1.972  15.731  14.365  1.00  0.00     0.190 C 
HETATM    2  C3  UNL     1      -2.199  17.168  14.863  1.00  0.00     0.064 C 
HETATM    3  C4  UNL     1      -2.498  17.241  16.360  1.00  0.00     0.174 C 
HETATM    4  O2  UNL     1      -3.224  16.105  16.811  1.00  0.00    -0.356 OA
HETATM    5  C5  UNL     1      -2.485  14.883  16.704  1.00  0.00     0.325 C 
HETATM    6  O3  UNL     1      -3.407  13.801  16.582  1.00  0.00    -0.344 OA
HETATM    7  C6  UNL     1      -2.746  12.543  16.716  1.00  0.00     0.177 C 
HETATM    8  C7  UNL     1      -3.707  11.476  16.286  1.00  0.00     0.011 C 
HETATM    9  C8  UNL     1      -3.312  10.263  15.858  1.00  0.00    -0.072 C 
HETATM   10  C9  UNL     1      -4.322   9.259  15.370  1.00  0.00     0.035 C 
HETATM   11  C10 UNL     1      -3.922   7.782  15.464  1.00  0.00     0.012 C 
HETATM   12  C11 UNL     1      -2.417   7.457  15.317  1.00  0.00     0.026 C 
HETATM   13  C12 UNL     1      -1.607   8.686  14.833  1.00  0.00     0.005 C 
HETATM   14  C13 UNL     1      -1.869   8.971  13.334  1.00  0.00     0.007 C 
HETATM   15  C14 UNL     1      -2.404   7.773  12.547  1.00  0.00     0.013 C 
HETATM   16  C15 UNL     1      -1.774   6.420  12.969  1.00  0.00    -0.003 C 
HETATM   17  C16 UNL     1      -0.278   6.471  12.573  1.00  0.00     0.019 C 
HETATM   18  C17 UNL     1      -2.539   5.256  12.237  1.00  0.00     0.058 C 
HETATM   19  C22 UNL     1      -3.704   4.946  13.206  1.00  0.00     0.143 C 
HETATM   20  C25 UNL     1      -3.067   5.027  14.589  1.00  0.00     0.072 C 
HETATM   21  C26 UNL     1      -2.038   6.172  14.502  1.00  0.00     0.072 C 
HETATM   22  C27 UNL     1      -1.832   9.923  15.776  1.00  0.00    -0.014 C 
HETATM   23  C28 UNL     1      -1.303   9.588  17.197  1.00  0.00     0.020 C 
HETATM   24  C29 UNL     1      -1.074  11.170  15.252  1.00  0.00     0.049 C 
HETATM   25  C30 UNL     1      -1.355  12.486  16.010  1.00  0.00     0.159 C 
HETATM   26  O9  UNL     1      -1.149  13.536  15.052  1.00  0.00    -0.341 OA
HETATM   27  C31 UNL     1      -1.447  14.847  15.531  1.00  0.00     0.240 C 
ENDROOT
BRANCH  18  28
HETATM   28  C18 UNL     1      -1.728   4.045  11.827  1.00  0.00    -0.043 A 
HETATM   29  C19 UNL     1      -2.239   2.936  11.289  1.00  0.00     0.087 A 
HETATM   30  C20 UNL     1      -1.131   2.018  11.049  1.00  0.00     0.283 A 
HETATM   31  O4  UNL     1      -1.240   0.905  10.566  1.00  0.00    -0.260 OA
HETATM   32  O5  UNL     1       0.027   2.603  11.454  1.00  0.00    -0.314 OA
HETATM   33  C21 UNL     1      -0.261   3.899  11.983  1.00  0.00     0.214 A 
ENDBRANCH  18  28
BRANCH  19  34
HETATM   34  O6  UNL     1      -4.304   3.661  13.013  1.00  0.00    -0.316 OA
BRANCH  34  35
HETATM   35  C23 UNL     1      -5.577   3.687  12.525  1.00  0.00     0.255 C 
HETATM   36  C24 UNL     1      -6.414   4.643  13.317  1.00  0.00     0.126 C 
HETATM   37  O7  UNL     1      -5.980   3.043  11.566  1.00  0.00    -0.266 OA
ENDBRANCH  34  35
ENDBRANCH  19  34
BRANCH  21  38
HETATM   38  O8  UNL     1      -0.826   5.657  15.084  1.00  0.00    -0.389 OA
HETATM   39  H35 UNL     1      -0.996   5.452  16.021  1.00  0.00     0.210 HD
ENDBRANCH  21  38
BRANCH  27  40
HETATM   40  O10 UNL     1      -0.189  15.411  15.947  1.00  0.00    -0.360 OA
HETATM   41  H42 UNL     1       0.112  14.888  16.705  1.00  0.00     0.213 HD
ENDBRANCH  27  40
BRANCH   1  42
HETATM   42  O1  UNL     1      -3.228  15.290  13.813  1.00  0.00    -0.385 OA
HETATM   43  C1  UNL     1      -4.181  16.327  13.633  1.00  0.00     0.202 C 
ENDBRANCH   1  42
TORSDOF 6
ENDMDL
MODEL 4
REMARK minimizedAffinity -10.6101847
REMARK CNNscore 0.496985435
REMARK CNNaffinity 7.31629801
REMARK  6 active torsions:
REMARK  status: ('A' for Active; 'I' for Inactive)
REMARK    1  A    between atoms: O1_2  and  C2_3 
REMARK    2  A    between atoms: C17_20  and  C18_21 
REMARK    3  A    between atoms: C22_27  and  O6_28 
REMARK    4  A    between atoms: O6_28  and  C23_29 
REMARK    5  A    between atoms: C26_33  and  O8_34 
REMARK    6  A    between atoms: C31_40  and  O10_41 
ROOT
HETATM    1  C2  UNL     1     -12.084   9.708  13.101  1.00  0.00     0.190 C 
HETATM    2  C3  UNL     1     -13.613   9.653  12.941  1.00  0.00     0.064 C 
HETATM    3  C4  UNL     1     -14.238   8.423  13.597  1.00  0.00     0.174 C 
HETATM    4  O2  UNL     1     -13.378   7.294  13.533  1.00  0.00    -0.356 OA
HETATM    5  C5  UNL     1     -12.169   7.460  14.282  1.00  0.00     0.325 C 
HETATM    6  O3  UNL     1     -11.159   6.630  13.711  1.00  0.00    -0.344 OA
HETATM    7  C6  UNL     1     -10.007   6.566  14.552  1.00  0.00     0.177 C 
HETATM    8  C7  UNL     1      -8.902   5.934  13.761  1.00  0.00     0.011 C 
HETATM    9  C8  UNL     1      -7.599   6.114  14.048  1.00  0.00    -0.072 C 
HETATM   10  C9  UNL     1      -6.533   5.512  13.173  1.00  0.00     0.035 C 
HETATM   11  C10 UNL     1      -5.175   5.243  13.831  1.00  0.00     0.012 C 
HETATM   12  C11 UNL     1      -4.752   6.201  14.970  1.00  0.00     0.026 C 
HETATM   13  C12 UNL     1      -5.683   7.435  15.062  1.00  0.00     0.005 C 
HETATM   14  C13 UNL     1      -5.415   8.422  13.898  1.00  0.00     0.007 C 
HETATM   15  C14 UNL     1      -4.037   8.273  13.248  1.00  0.00     0.013 C 
HETATM   16  C15 UNL     1      -2.904   7.955  14.257  1.00  0.00    -0.003 C 
HETATM   17  C16 UNL     1      -2.740   9.199  15.165  1.00  0.00     0.019 C 
HETATM   18  C17 UNL     1      -1.589   7.632  13.456  1.00  0.00     0.058 C 
HETATM   19  C22 UNL     1      -1.706   6.111  13.201  1.00  0.00     0.143 C 
HETATM   20  C25 UNL     1      -2.255   5.557  14.511  1.00  0.00     0.072 C 
HETATM   21  C26 UNL     1      -3.242   6.623  15.027  1.00  0.00     0.072 C 
HETATM   22  C27 UNL     1      -7.187   7.005  15.210  1.00  0.00    -0.014 C 
HETATM   23  C28 UNL     1      -7.367   6.226  16.542  1.00  0.00     0.020 C 
HETATM   24  C29 UNL     1      -8.122   8.240  15.234  1.00  0.00     0.049 C 
HETATM   25  C30 UNL     1      -9.635   7.929  15.212  1.00  0.00     0.159 C 
HETATM   26  O9  UNL     1     -10.254   9.064  14.586  1.00  0.00    -0.341 OA
HETATM   27  C31 UNL     1     -11.662   8.940  14.384  1.00  0.00     0.240 C 
ENDROOT
BRANCH  18  28
HETATM   28  C18 UNL     1      -0.277   8.063  14.075  1.00  0.00    -0.043 A 
HETATM   29  C19 UNL     1       0.177   7.647  15.259  1.00  0.00     0.087 A 
HETATM   30  C20 UNL     1       1.462   8.300  15.487  1.00  0.00     0.283 A 
HETATM   31  O4  UNL     1       2.156   8.147  16.476  1.00  0.00    -0.260 OA
HETATM   32  O5  UNL     1       1.748   9.100  14.427  1.00  0.00    -0.314 OA
HETATM   33  C21 UNL     1       0.681   9.025  13.479  1.00  0.00     0.214 A 
ENDBRANCH  18  28
BRANCH  19  34
HETATM   34  O6  UNL     1      -0.467   5.473  12.875  1.00  0.00    -0.316 OA
BRANCH  34  35
HETATM   35  C23 UNL     1      -0.304   5.171  11.556  1.00  0.00     0.255 C 
HETATM   36  C24 UNL     1       0.700   6.093  10.935  1.00  0.00     0.126 C 
HETATM   37  O7  UNL     1      -0.875   4.268  10.961  1.00  0.00    -0.266 OA
ENDBRANCH  34  35
ENDBRANCH  19  34
BRANCH  21  38
HETATM   38  O8  UNL     1      -2.921   6.818  16.417  1.00  0.00    -0.389 OA
HETATM   39  H35 UNL     1      -3.078   5.981  16.890  1.00  0.00     0.210 HD
ENDBRANCH  21  38
BRANCH  27  40
HETATM   40  O10 UNL     1     -12.281   9.614  15.496  1.00  0.00    -0.360 OA
HETATM   41  H42 UNL     1     -12.057   9.105  16.289  1.00  0.00     0.213 HD
ENDBRANCH  27  40
BRANCH   1  42
HETATM   42  O1  UNL     1     -11.529   9.169  11.885  1.00  0.00    -0.385 OA
HETATM   43  C1  UNL     1     -11.304   7.767  11.919  1.00  0.00     0.202 C 
ENDBRANCH   1  42
TORSDOF 6
ENDMDL
MODEL 5
REMARK minimizedAffinity -8.39251137
REMARK CNNscore 0.371796489
REMARK CNNaffinity 6.28609085
REMARK  6 active torsions:
REMARK  status: ('A' for Active; 'I' for Inactive)
REMARK    1  A    between atoms: O1_2  and  C2_3 
REMARK    2  A    between atoms: C17_20  and  C18_21 
REMARK    3  A    between atoms: C22_27  and  O6_28 
REMARK    4  A    between atoms: O6_28  and  C23_29 
REMARK    5  A    between atoms: C26_33  and  O8_34 
REMARK    6  A    between atoms: C31_40  and  O10_41 
ROOT
HETATM    1  C2  UNL     1      -2.505  13.855  17.699  1.00  0.00     0.190 C 
HETATM    2  C3  UNL     1      -3.619  14.633  18.420  1.00  0.00     0.064 C 
HETATM    3  C4  UNL     1      -4.923  13.846  18.530  1.00  0.00     0.174 C 
HETATM    4  O2  UNL     1      -5.126  12.998  17.407  1.00  0.00    -0.356 OA
HETATM    5  C5  UNL     1      -4.148  11.958  17.298  1.00  0.00     0.325 C 
HETATM    6  O3  UNL     1      -4.040  11.571  15.930  1.00  0.00    -0.344 OA
HETATM    7  C6  UNL     1      -3.265  10.381  15.789  1.00  0.00     0.177 C 
HETATM    8  C7  UNL     1      -2.953  10.212  14.333  1.00  0.00     0.011 C 
HETATM    9  C8  UNL     1      -1.907   9.493  13.887  1.00  0.00    -0.072 C 
HETATM   10  C9  UNL     1      -1.602   9.419  12.414  1.00  0.00     0.035 C 
HETATM   11  C10 UNL     1      -0.831   8.185  11.933  1.00  0.00     0.012 C 
HETATM   12  C11 UNL     1       0.167   7.554  12.933  1.00  0.00     0.026 C 
HETATM   13  C12 UNL     1       0.395   8.459  14.169  1.00  0.00     0.005 C 
HETATM   14  C13 UNL     1       1.268   9.687  13.806  1.00  0.00     0.007 C 
HETATM   15  C14 UNL     1       2.117   9.507  12.545  1.00  0.00     0.013 C 
HETATM   16  C15 UNL     1       2.701   8.080  12.387  1.00  0.00    -0.003 C 
HETATM   17  C16 UNL     1       3.718   7.872  13.536  1.00  0.00     0.019 C 
HETATM   18  C17 UNL     1       3.380   7.965  10.972  1.00  0.00     0.058 C 
HETATM   19  C22 UNL     1       2.210   7.522  10.062  1.00  0.00     0.143 C 
HETATM   20  C25 UNL     1       1.451   6.504  10.906  1.00  0.00     0.072 C 
HETATM   21  C26 UNL     1       1.527   7.030  12.354  1.00  0.00     0.072 C 
HETATM   22  C27 UNL     1      -0.964   8.818  14.871  1.00  0.00    -0.014 C 
HETATM   23  C28 UNL     1      -1.624   7.517  15.404  1.00  0.00     0.020 C 
HETATM   24  C29 UNL     1      -0.739   9.779  16.066  1.00  0.00     0.049 C 
HETATM   25  C30 UNL     1      -2.022  10.327  16.730  1.00  0.00     0.159 C 
HETATM   26  O9  UNL     1      -1.657  11.602  17.282  1.00  0.00    -0.341 OA
HETATM   27  C31 UNL     1      -2.736  12.327  17.871  1.00  0.00     0.240 C 
ENDROOT
BRANCH  18  28
HETATM   28  C18 UNL     1       4.618   7.101  10.865  1.00  0.00    -0.043 A 
HETATM   29  C19 UNL     1       5.864   7.527  11.084  1.00  0.00     0.087 A 
HETATM   30  C20 UNL     1       6.756   6.392  10.872  1.00  0.00     0.283 A 
HETATM   31  O4  UNL     1       7.968   6.428  10.986  1.00  0.00    -0.260 OA
HETATM   32  O5  UNL     1       6.018   5.305  10.526  1.00  0.00    -0.314 OA
HETATM   33  C21 UNL     1       4.637   5.669  10.480  1.00  0.00     0.214 A 
ENDBRANCH  18  28
BRANCH  19  34
HETATM   34  O6  UNL     1       2.619   6.931   8.825  1.00  0.00    -0.316 OA
BRANCH  34  35
HETATM   35  C23 UNL     1       2.536   7.753   7.740  1.00  0.00     0.255 C 
HETATM   36  C24 UNL     1       1.853   7.048   6.608  1.00  0.00     0.126 C 
HETATM   37  O7  UNL     1       2.941   8.906   7.694  1.00  0.00    -0.266 OA
ENDBRANCH  34  35
ENDBRANCH  19  34
BRANCH  21  38
HETATM   38  O8  UNL     1       1.914   5.904  13.163  1.00  0.00    -0.389 OA
HETATM   39  H35 UNL     1       1.215   5.228  13.105  1.00  0.00     0.210 HD
ENDBRANCH  21  38
BRANCH  27  40
HETATM   40  O10 UNL     1      -2.672  12.052  19.283  1.00  0.00    -0.360 OA
HETATM   41  H42 UNL     1      -2.865  11.109  19.392  1.00  0.00     0.213 HD
ENDBRANCH  27  40
BRANCH   1  42
HETATM   42  O1  UNL     1      -2.519  14.300  16.329  1.00  0.00    -0.385 OA
HETATM   43  C1  UNL     1      -2.826  15.678  16.169  1.00  0.00     0.202 C 
ENDBRANCH   1  42
TORSDOF 6
ENDMDL
MODEL 6
REMARK minimizedAffinity -8.59860611
REMARK CNNscore 0.363098145
REMARK CNNaffinity 6.44865847
REMARK  6 active torsions:
REMARK  status: ('A' for Active; 'I' for Inactive)
REMARK    1  A    between atoms: O1_2  and  C2_3 
REMARK    2  A    between atoms: C17_20  and  C18_21 
REMARK    3  A    between atoms: C22_27  and  O6_28 
REMARK    4  A    between atoms: O6_28  and  C23_29 
REMARK    5  A    between atoms: C26_33  and  O8_34 
REMARK    6  A    between atoms: C31_40  and  O10_41 
ROOT
HETATM    1  C2  UNL     1       0.654  15.326  13.932  1.00  0.00     0.190 C 
HETATM    2  C3  UNL     1       1.162  16.728  14.309  1.00  0.00     0.064 C 
HETATM    3  C4  UNL     1       1.134  16.988  15.814  1.00  0.00     0.174 C 
HETATM    4  O2  UNL     1       0.047  16.325  16.446  1.00  0.00    -0.356 OA
HETATM    5  C5  UNL     1       0.142  14.897  16.383  1.00  0.00     0.325 C 
HETATM    6  O3  UNL     1      -1.172  14.348  16.463  1.00  0.00    -0.344 OA
HETATM    7  C6  UNL     1      -1.130  12.933  16.649  1.00  0.00     0.177 C 
HETATM    8  C7  UNL     1      -2.514  12.404  16.428  1.00  0.00     0.011 C 
HETATM    9  C8  UNL     1      -2.763  11.127  16.080  1.00  0.00    -0.072 C 
HETATM   10  C9  UNL     1      -4.171  10.673  15.800  1.00  0.00     0.035 C 
HETATM   11  C10 UNL     1      -4.462   9.181  15.995  1.00  0.00     0.012 C 
HETATM   12  C11 UNL     1      -3.295   8.202  15.725  1.00  0.00     0.026 C 
HETATM   13  C12 UNL     1      -2.097   8.908  15.043  1.00  0.00     0.005 C 
HETATM   14  C13 UNL     1      -2.407   9.222  13.558  1.00  0.00     0.007 C 
HETATM   15  C14 UNL     1      -3.522   8.367  12.951  1.00  0.00     0.013 C 
HETATM   16  C15 UNL     1      -3.509   6.894  13.435  1.00  0.00    -0.003 C 
HETATM   17  C16 UNL     1      -2.217   6.243  12.883  1.00  0.00     0.019 C 
HETATM   18  C17 UNL     1      -4.805   6.176  12.904  1.00  0.00     0.058 C 
HETATM   19  C22 UNL     1      -5.841   6.468  14.014  1.00  0.00     0.143 C 
HETATM   20  C25 UNL     1      -5.053   6.306  15.309  1.00  0.00     0.072 C 
HETATM   21  C26 UNL     1      -3.644   6.854  15.005  1.00  0.00     0.072 C 
HETATM   22  C27 UNL     1      -1.616  10.149  15.879  1.00  0.00    -0.014 C 
HETATM   23  C28 UNL     1      -1.104   9.667  17.263  1.00  0.00     0.020 C 
HETATM   24  C29 UNL     1      -0.462  10.893  15.161  1.00  0.00     0.049 C 
HETATM   25  C30 UNL     1      -0.021  12.223  15.812  1.00  0.00     0.159 C 
HETATM   26  O9  UNL     1       0.498  13.025  14.740  1.00  0.00    -0.341 OA
HETATM   27  C31 UNL     1       0.884  14.347  15.117  1.00  0.00     0.240 C 
ENDROOT
BRANCH  18  28
HETATM   28  C18 UNL     1      -4.682   4.714  12.531  1.00  0.00    -0.043 A 
HETATM   29  C19 UNL     1      -3.533   4.038  12.472  1.00  0.00     0.087 A 
HETATM   30  C20 UNL     1      -3.850   2.671  12.072  1.00  0.00     0.283 A 
HETATM   31  O4  UNL     1      -3.032   1.783  11.919  1.00  0.00    -0.260 OA
HETATM   32  O5  UNL     1      -5.193   2.560  11.897  1.00  0.00    -0.314 OA
HETATM   33  C21 UNL     1      -5.807   3.825  12.153  1.00  0.00     0.214 A 
ENDBRANCH  18  28
BRANCH  19  34
HETATM   34  O6  UNL     1      -6.971   5.589  14.010  1.00  0.00    -0.316 OA
BRANCH  34  35
HETATM   35  C23 UNL     1      -8.180   6.206  13.879  1.00  0.00     0.255 C 
HETATM   36  C24 UNL     1      -8.811   5.833  12.573  1.00  0.00     0.126 C 
HETATM   37  O7  UNL     1      -8.692   6.942  14.711  1.00  0.00    -0.266 OA
ENDBRANCH  34  35
ENDBRANCH  19  34
BRANCH  21  38
HETATM   38  O8  UNL     1      -2.721   5.868  15.505  1.00  0.00    -0.389 OA
HETATM   39  H35 UNL     1      -2.836   5.800  16.470  1.00  0.00     0.210 HD
ENDBRANCH  21  38
BRANCH  27  40
HETATM   40  O10 UNL     1       2.305  14.294  15.343  1.00  0.00    -0.360 OA
HETATM   41  H42 UNL     1       2.443  13.722  16.114  1.00  0.00     0.213 HD
ENDBRANCH  27  40
BRANCH   1  42
HETATM   42  O1  UNL     1      -0.729  15.481  13.558  1.00  0.00    -0.385 OA
HETATM   43  C1  UNL     1      -0.924  15.987  12.246  1.00  0.00     0.202 C 
ENDBRANCH   1  42
TORSDOF 6
ENDMDL
MODEL 7
REMARK minimizedAffinity -7.37345982
REMARK CNNscore 0.362638056
REMARK CNNaffinity 6.7272687
REMARK  6 active torsions:
REMARK  status: ('A' for Active; 'I' for Inactive)
REMARK    1  A    between atoms: O1_2  and  C2_3 
REMARK    2  A    between atoms: C17_20  and  C18_21 
REMARK    3  A    between atoms: C22_27  and  O6_28 
REMARK    4  A    between atoms: O6_28  and  C23_29 
REMARK    5  A    between atoms: C26_33  and  O8_34 
REMARK    6  A    between atoms: C31_40  and  O10_41 
ROOT
HETATM    1  C2  UNL     1      -8.119   5.043  13.432  1.00  0.00     0.190 C 
HETATM    2  C3  UNL     1      -8.720   3.758  12.837  1.00  0.00     0.064 C 
HETATM    3  C4  UNL     1      -7.671   2.686  12.549  1.00  0.00     0.174 C 
HETATM    4  O2  UNL     1      -6.427   3.253  12.159  1.00  0.00    -0.356 OA
HETATM    5  C5  UNL     1      -5.805   4.021  13.195  1.00  0.00     0.325 C 
HETATM    6  O3  UNL     1      -4.957   4.998  12.594  1.00  0.00    -0.344 OA
HETATM    7  C6  UNL     1      -4.128   5.631  13.569  1.00  0.00     0.177 C 
HETATM    8  C7  UNL     1      -3.497   6.826  12.921  1.00  0.00     0.011 C 
HETATM    9  C8  UNL     1      -3.036   7.880  13.620  1.00  0.00    -0.072 C 
HETATM   10  C9  UNL     1      -2.479   9.084  12.908  1.00  0.00     0.035 C 
HETATM   11  C10 UNL     1      -1.474   9.939  13.688  1.00  0.00     0.012 C 
HETATM   12  C11 UNL     1      -1.654   9.998  15.224  1.00  0.00     0.026 C 
HETATM   13  C12 UNL     1      -3.001   9.377  15.670  1.00  0.00     0.005 C 
HETATM   14  C13 UNL     1      -4.187  10.310  15.321  1.00  0.00     0.007 C 
HETATM   15  C14 UNL     1      -3.799  11.776  15.114  1.00  0.00     0.013 C 
HETATM   16  C15 UNL     1      -2.698  12.270  16.088  1.00  0.00    -0.003 C 
HETATM   17  C16 UNL     1      -3.308  12.258  17.511  1.00  0.00     0.019 C 
HETATM   18  C17 UNL     1      -2.248  13.714  15.652  1.00  0.00     0.058 C 
HETATM   19  C22 UNL     1      -1.127  13.430  14.624  1.00  0.00     0.143 C 
HETATM   20  C25 UNL     1      -0.350  12.269  15.235  1.00  0.00     0.072 C 
HETATM   21  C26 UNL     1      -1.408  11.381  15.921  1.00  0.00     0.072 C 
HETATM   22  C27 UNL     1      -3.156   7.907  15.136  1.00  0.00    -0.014 C 
HETATM   23  C28 UNL     1      -2.043   7.018  15.754  1.00  0.00     0.020 C 
HETATM   24  C29 UNL     1      -4.533   7.313  15.526  1.00  0.00     0.049 C 
HETATM   25  C30 UNL     1      -4.859   5.932  14.914  1.00  0.00     0.159 C 
HETATM   26  O9  UNL     1      -6.291   5.880  14.820  1.00  0.00    -0.341 OA
HETATM   27  C31 UNL     1      -6.804   4.706  14.190  1.00  0.00     0.240 C 
ENDROOT
BRANCH  18  28
HETATM   28  C18 UNL     1      -1.860  14.680  16.750  1.00  0.00    -0.043 A 
HETATM   29  C19 UNL     1      -2.485  15.831  17.005  1.00  0.00     0.087 A 
HETATM   30  C20 UNL     1      -1.800  16.460  18.130  1.00  0.00     0.283 A 
HETATM   31  O4  UNL     1      -2.108  17.529  18.624  1.00  0.00    -0.260 OA
HETATM   32  O5  UNL     1      -0.770  15.665  18.523  1.00  0.00    -0.314 OA
HETATM   33  C21 UNL     1      -0.721  14.509  17.684  1.00  0.00     0.214 A 
ENDBRANCH  18  28
BRANCH  19  34
HETATM   34  O6  UNL     1      -0.253  14.539  14.387  1.00  0.00    -0.316 OA
BRANCH  34  35
HETATM   35  C23 UNL     1      -0.398  15.135  13.169  1.00  0.00     0.255 C 
HETATM   36  C24 UNL     1       0.871  15.827  12.779  1.00  0.00     0.126 C 
HETATM   37  O7  UNL     1      -1.408  15.099  12.480  1.00  0.00    -0.266 OA
ENDBRANCH  34  35
ENDBRANCH  19  34
BRANCH  21  38
HETATM   38  O8  UNL     1      -0.892  11.095  17.234  1.00  0.00    -0.389 OA
HETATM   39  H35 UNL     1      -0.065  10.589  17.137  1.00  0.00     0.210 HD
ENDBRANCH  21  38
BRANCH  27  40
HETATM   40  O10 UNL     1      -7.157   3.807  15.257  1.00  0.00    -0.360 OA
HETATM   41  H42 UNL     1      -6.330   3.559  15.697  1.00  0.00     0.213 HD
ENDBRANCH  27  40
BRANCH   1  42
HETATM   42  O1  UNL     1      -7.946   5.958  12.332  1.00  0.00    -0.385 OA
HETATM   43  C1  UNL     1      -8.933   5.842  11.318  1.00  0.00     0.202 C 
ENDBRANCH   1  42
TORSDOF 6
ENDMDL
MODEL 8
REMARK minimizedAffinity -6.29807901
REMARK CNNscore 0.336452246
REMARK CNNaffinity 6.24961805
REMARK  6 active torsions:
REMARK  status: ('A' for Active; 'I' for Inactive)
REMARK    1  A    between atoms: O1_2  and  C2_3 
REMARK    2  A    between atoms: C17_20  and  C18_21 
REMARK    3  A    between atoms: C22_27  and  O6_28 
REMARK    4  A    between atoms: O6_28  and  C23_29 
REMARK    5  A    between atoms: C26_33  and  O8_34 
REMARK    6  A    between atoms: C31_40  and  O10_41 
ROOT
HETATM    1  C2  UNL     1      -9.232 -12.578  23.785  1.00  0.00     0.190 C 
HETATM    2  C3  UNL     1      -8.112 -13.625  23.653  1.00  0.00     0.064 C 
HETATM    3  C4  UNL     1      -8.186 -14.716  24.719  1.00  0.00     0.174 C 
HETATM    4  O2  UNL     1      -8.686 -14.218  25.953  1.00  0.00    -0.356 OA
HETATM    5  C5  UNL     1     -10.045 -13.772  25.875  1.00  0.00     0.325 C 
HETATM    6  O3  UNL     1     -10.261 -12.786  26.883  1.00  0.00    -0.344 OA
HETATM    7  C6  UNL     1     -11.649 -12.479  27.016  1.00  0.00     0.177 C 
HETATM    8  C7  UNL     1     -11.764 -11.248  27.862  1.00  0.00     0.011 C 
HETATM    9  C8  UNL     1     -12.833 -10.432  27.828  1.00  0.00    -0.072 C 
HETATM   10  C9  UNL     1     -12.859  -9.170  28.648  1.00  0.00     0.035 C 
HETATM   11  C10 UNL     1     -14.241  -8.626  29.028  1.00  0.00     0.012 C 
HETATM   12  C11 UNL     1     -15.391  -8.888  28.028  1.00  0.00     0.026 C 
HETATM   13  C12 UNL     1     -14.868  -9.440  26.678  1.00  0.00     0.005 C 
HETATM   14  C13 UNL     1     -14.173  -8.327  25.854  1.00  0.00     0.007 C 
HETATM   15  C14 UNL     1     -14.578  -6.905  26.246  1.00  0.00     0.013 C 
HETATM   16  C15 UNL     1     -16.078  -6.763  26.610  1.00  0.00    -0.003 C 
HETATM   17  C16 UNL     1     -16.888  -7.022  25.316  1.00  0.00     0.019 C 
HETATM   18  C17 UNL     1     -16.326  -5.317  27.181  1.00  0.00     0.058 C 
HETATM   19  C22 UNL     1     -16.038  -5.488  28.691  1.00  0.00     0.143 C 
HETATM   20  C25 UNL     1     -16.665  -6.835  29.037  1.00  0.00     0.072 C 
HETATM   21  C26 UNL     1     -16.424  -7.730  27.805  1.00  0.00     0.072 C 
HETATM   22  C27 UNL     1     -13.994 -10.728  26.890  1.00  0.00    -0.014 C 
HETATM   23  C28 UNL     1     -14.875 -11.850  27.503  1.00  0.00     0.020 C 
HETATM   24  C29 UNL     1     -13.416 -11.239  25.546  1.00  0.00     0.049 C 
HETATM   25  C30 UNL     1     -12.408 -12.405  25.655  1.00  0.00     0.159 C 
HETATM   26  O9  UNL     1     -11.543 -12.277  24.515  1.00  0.00    -0.341 OA
HETATM   27  C31 UNL     1     -10.470 -13.217  24.472  1.00  0.00     0.240 C 
ENDROOT
BRANCH  18  28
HETATM   28  C18 UNL     1     -17.656  -4.667  26.868  1.00  0.00    -0.043 A 
HETATM   29  C19 UNL     1     -17.803  -3.525  26.192  1.00  0.00     0.087 A 
HETATM   30  C20 UNL     1     -19.233  -3.246  26.114  1.00  0.00     0.283 A 
HETATM   31  O4  UNL     1     -19.725  -2.277  25.566  1.00  0.00    -0.260 OA
HETATM   32  O5  UNL     1     -19.914  -4.234  26.752  1.00  0.00    -0.314 OA
HETATM   33  C21 UNL     1     -18.984  -5.181  27.282  1.00  0.00     0.214 A 
ENDBRANCH  18  28
BRANCH  19  34
HETATM   34  O6  UNL     1     -16.592  -4.459  29.516  1.00  0.00    -0.316 OA
BRANCH  34  35
HETATM   35  C23 UNL     1     -15.771  -3.392  29.736  1.00  0.00     0.255 C 
HETATM   36  C24 UNL     1     -16.582  -2.160  29.994  1.00  0.00     0.126 C 
HETATM   37  O7  UNL     1     -14.549  -3.431  29.743  1.00  0.00    -0.266 OA
ENDBRANCH  34  35
ENDBRANCH  19  34
BRANCH  21  38
HETATM   38  O8  UNL     1     -17.690  -8.354  27.518  1.00  0.00    -0.389 OA
HETATM   39  H35 UNL     1     -17.936  -8.914  28.277  1.00  0.00     0.210 HD
ENDBRANCH  21  38
BRANCH  27  40
HETATM   40  O10 UNL     1     -10.916 -14.286  23.617  1.00  0.00    -0.360 OA
HETATM   41  H42 UNL     1     -11.657 -14.714  24.071  1.00  0.00     0.213 HD
ENDBRANCH  27  40
BRANCH   1  42
HETATM   42  O1  UNL     1      -8.666 -11.467  24.508  1.00  0.00    -0.385 OA
HETATM   43  C1  UNL     1      -7.401 -11.042  24.024  1.00  0.00     0.202 C 
ENDBRANCH   1  42
TORSDOF 6
ENDMDL
MODEL 9
REMARK minimizedAffinity -7.72069502
REMARK CNNscore 0.336223006
REMARK CNNaffinity 5.88823128
REMARK  6 active torsions:
REMARK  status: ('A' for Active; 'I' for Inactive)
REMARK    1  A    between atoms: O1_2  and  C2_3 
REMARK    2  A    between atoms: C17_20  and  C18_21 
REMARK    3  A    between atoms: C22_27  and  O6_28 
REMARK    4  A    between atoms: O6_28  and  C23_29 
REMARK    5  A    between atoms: C26_33  and  O8_34 
REMARK    6  A    between atoms: C31_40  and  O10_41 
ROOT
HETATM    1  C2  UNL     1      -4.507  15.702  16.845  1.00  0.00     0.190 C 
HETATM    2  C3  UNL     1      -5.285  16.695  17.725  1.00  0.00     0.064 C 
HETATM    3  C4  UNL     1      -5.304  16.297  19.200  1.00  0.00     0.174 C 
HETATM    4  O2  UNL     1      -5.316  14.885  19.368  1.00  0.00    -0.356 OA
HETATM    5  C5  UNL     1      -4.124  14.249  18.894  1.00  0.00     0.325 C 
HETATM    6  O3  UNL     1      -4.435  12.903  18.537  1.00  0.00    -0.344 OA
HETATM    7  C6  UNL     1      -3.249  12.149  18.288  1.00  0.00     0.177 C 
HETATM    8  C7  UNL     1      -3.658  10.860  17.641  1.00  0.00     0.011 C 
HETATM    9  C8  UNL     1      -2.826  10.126  16.879  1.00  0.00    -0.072 C 
HETATM   10  C9  UNL     1      -3.317   8.877  16.197  1.00  0.00     0.035 C 
HETATM   11  C10 UNL     1      -2.261   7.816  15.866  1.00  0.00     0.012 C 
HETATM   12  C11 UNL     1      -0.835   8.326  15.551  1.00  0.00     0.026 C 
HETATM   13  C12 UNL     1      -0.800   9.865  15.372  1.00  0.00     0.005 C 
HETATM   14  C13 UNL     1      -1.436  10.283  14.022  1.00  0.00     0.007 C 
HETATM   15  C14 UNL     1      -1.479   9.170  12.973  1.00  0.00     0.013 C 
HETATM   16  C15 UNL     1      -0.223   8.261  12.977  1.00  0.00    -0.003 C 
HETATM   17  C16 UNL     1       0.973   9.133  12.525  1.00  0.00     0.019 C 
HETATM   18  C17 UNL     1      -0.472   7.050  12.003  1.00  0.00     0.058 C 
HETATM   19  C22 UNL     1      -1.156   6.007  12.917  1.00  0.00     0.143 C 
HETATM   20  C25 UNL     1      -0.391   6.108  14.232  1.00  0.00     0.072 C 
HETATM   21  C26 UNL     1      -0.054   7.603  14.399  1.00  0.00     0.072 C 
HETATM   22  C27 UNL     1      -1.403  10.597  16.624  1.00  0.00    -0.014 C 
HETATM   23  C28 UNL     1      -0.528  10.286  17.870  1.00  0.00     0.020 C 
HETATM   24  C29 UNL     1      -1.429  12.133  16.415  1.00  0.00     0.049 C 
HETATM   25  C30 UNL     1      -2.151  12.943  17.515  1.00  0.00     0.159 C 
HETATM   26  O9  UNL     1      -2.640  14.126  16.865  1.00  0.00    -0.341 OA
HETATM   27  C31 UNL     1      -3.425  14.981  17.697  1.00  0.00     0.240 C 
ENDROOT
BRANCH  18  28
HETATM   28  C18 UNL     1       0.721   6.523  11.236  1.00  0.00    -0.043 A 
HETATM   29  C19 UNL     1       0.836   6.537   9.906  1.00  0.00     0.087 A 
HETATM   30  C20 UNL     1       2.123   5.935   9.573  1.00  0.00     0.283 A 
HETATM   31  O4  UNL     1       2.550   5.786   8.443  1.00  0.00    -0.260 OA
HETATM   32  O5  UNL     1       2.752   5.570  10.720  1.00  0.00    -0.314 OA
HETATM   33  C21 UNL     1       1.921   5.892  11.837  1.00  0.00     0.214 A 
ENDBRANCH  18  28
BRANCH  19  34
HETATM   34  O6  UNL     1      -1.107   4.666  12.419  1.00  0.00    -0.316 OA
BRANCH  34  35
HETATM   35  C23 UNL     1      -2.186   4.288  11.677  1.00  0.00     0.255 C 
HETATM   36  C24 UNL     1      -3.454   4.624  12.400  1.00  0.00     0.126 C 
HETATM   37  O7  UNL     1      -2.137   3.767  10.571  1.00  0.00    -0.266 OA
ENDBRANCH  34  35
ENDBRANCH  19  34
BRANCH  21  38
HETATM   38  O8  UNL     1       1.341   7.657  14.750  1.00  0.00    -0.389 OA
HETATM   39  H35 UNL     1       1.462   7.205  15.605  1.00  0.00     0.210 HD
ENDBRANCH  21  38
BRANCH  27  40
HETATM   40  O10 UNL     1      -2.526  15.998  18.177  1.00  0.00    -0.360 OA
HETATM   41  H42 UNL     1      -1.882  15.553  18.748  1.00  0.00     0.213 HD
ENDBRANCH  27  40
BRANCH   1  42
HETATM   42  O1  UNL     1      -5.486  14.817  16.266  1.00  0.00    -0.385 OA
HETATM   43  C1  UNL     1      -5.558  14.876  14.849  1.00  0.00     0.202 C 
ENDBRANCH   1  42
TORSDOF 6
ENDMDL
