MODEL 1
REMARK minimizedAffinity -10.458868
REMARK CNNscore 0.784871638
REMARK CNNaffinity 7.93507385
REMARK  12 active torsions:
REMARK  status: ('A' for Active; 'I' for Inactive)
REMARK    1  A    between atoms: C19_20  and  O2_21 
REMARK    2  A    between atoms: C19_20  and  C20_22 
REMARK    3  A    between atoms: C20_22  and  C21_24 
REMARK    4  A    between atoms: C21_24  and  O4_25 
REMARK    5  A    between atoms: O4_25  and  C22_26 
REMARK    6  A    between atoms: C22_26  and  C23_28 
REMARK    7  A    between atoms: C23_28  and  C24_29 
REMARK    8  A    between atoms: C24_29  and  C25_30 
REMARK       I    between atoms: C25_30  and  N1_32 
REMARK    9  A    between atoms: N1_32  and  C26_33 
REMARK   10  A    between atoms: C26_33  and  C27_34 
REMARK   11  A    between atoms: C30_37  and  C31_38 
REMARK   12  A    between atoms: C31_38  and  O8_40 
ROOT
HETATM    1  C20 UNL     1      -5.155  50.078 -22.163  1.00  0.00     0.185 C 
HETATM    2  O3  UNL     1      -5.710  48.974 -22.102  1.00  0.00    -0.292 OA
ENDROOT
BRANCH   1   3
HETATM    3  C19 UNL     1      -4.871  50.782 -23.531  1.00  0.00     0.128 C 
HETATM    4  C14 UNL     1      -3.660  50.203 -24.344  1.00  0.00    -0.002 C 
HETATM    5  C13 UNL     1      -3.638  50.717 -25.816  1.00  0.00     0.013 C 
HETATM    6  C15 UNL     1      -3.633  48.666 -24.397  1.00  0.00     0.019 C 
HETATM    7  C16 UNL     1      -2.461  50.746 -23.533  1.00  0.00     0.002 C 
HETATM    8  C12 UNL     1      -2.450  51.600 -26.190  1.00  0.00     0.007 C 
HETATM    9  C11 UNL     1      -1.093  51.020 -25.759  1.00  0.00     0.002 C 
HETATM   10  C2  UNL     1       0.150  51.877 -26.203  1.00  0.00    -0.016 C 
HETATM   11  C10 UNL     1      -1.092  50.635 -24.240  1.00  0.00    -0.004 C 
HETATM   12  C1  UNL     1       1.414  50.969 -26.219  1.00  0.00     0.020 C 
HETATM   13  C3  UNL     1       0.059  52.411 -27.670  1.00  0.00     0.022 C 
HETATM   14  C7  UNL     1       0.315  53.013 -25.204  1.00  0.00    -0.068 C 
HETATM   15  C4  UNL     1      -0.627  53.756 -27.860  1.00  0.00     0.084 C 
HETATM   16  C5  UNL     1      -0.106  54.776 -26.886  1.00  0.00     0.149 C 
HETATM   17  O1  UNL     1      -0.041  55.972 -27.155  1.00  0.00    -0.293 OA
HETATM   18  C6  UNL     1       0.234  54.318 -25.524  1.00  0.00     0.053 C 
HETATM   19  C8  UNL     1       0.519  52.638 -23.758  1.00  0.00     0.035 C 
HETATM   20  C9  UNL     1       0.029  51.246 -23.372  1.00  0.00     0.010 C 
HETATM   21  C17 UNL     1      -2.884  52.157 -23.079  1.00  0.00     0.009 C 
HETATM   22  C18 UNL     1      -4.403  52.228 -23.262  1.00  0.00     0.047 C 
BRANCH   3  23
HETATM   23  O2  UNL     1      -6.060  50.868 -24.309  1.00  0.00    -0.381 OA
HETATM   24  H27 UNL     1      -6.375  49.962 -24.469  1.00  0.00     0.211 HD
ENDBRANCH   3  23
ENDBRANCH   1   3
BRANCH   1  25
HETATM   25  C21 UNL     1      -4.813  50.804 -20.857  1.00  0.00     0.260 C 
BRANCH  25  26
HETATM   26  O4  UNL     1      -3.985  50.068 -19.956  1.00  0.00    -0.314 OA
BRANCH  26  27
HETATM   27  C22 UNL     1      -3.025  50.790 -19.315  1.00  0.00     0.259 C 
HETATM   28  O5  UNL     1      -3.164  51.937 -18.918  1.00  0.00    -0.265 OA
BRANCH  27  29
HETATM   29  C23 UNL     1      -1.707  50.047 -19.283  1.00  0.00     0.120 C 
BRANCH  29  30
HETATM   30  C24 UNL     1      -0.641  50.615 -20.215  1.00  0.00     0.112 C 
BRANCH  30  31
HETATM   31  C25 UNL     1       0.047  51.827 -19.617  1.00  0.00     0.218 C 
HETATM   32  O6  UNL     1       0.265  52.852 -20.253  1.00  0.00    -0.274 OA
HETATM   33  N1  UNL     1       0.384  51.659 -18.294  1.00  0.00    -0.357 N 
HETATM   34  H34 UNL     1       0.299  50.742 -17.874  1.00  0.00     0.162 HD
BRANCH  33  35
HETATM   35  C26 UNL     1       1.145  52.654 -17.571  1.00  0.00     0.161 C 
BRANCH  35  36
HETATM   36  C27 UNL     1       1.912  52.019 -16.437  1.00  0.00    -0.040 A 
HETATM   37  C28 UNL     1       3.254  52.351 -16.203  1.00  0.00     0.010 A 
HETATM   38  C29 UNL     1       3.954  51.767 -15.143  1.00  0.00     0.019 A 
HETATM   39  C30 UNL     1       3.319  50.851 -14.299  1.00  0.00     0.037 A 
HETATM   40  C32 UNL     1       1.977  50.523 -14.521  1.00  0.00     0.019 A 
HETATM   41  C33 UNL     1       1.278  51.104 -15.583  1.00  0.00     0.010 A 
BRANCH  39  42
HETATM   42  C31 UNL     1       4.021  50.208 -13.162  1.00  0.00     0.176 C 
HETATM   43  O7  UNL     1       5.108  49.662 -13.211  1.00  0.00    -0.646 OA
BRANCH  42  44
HETATM   44  O8  UNL     1       3.327  50.281 -12.011  1.00  0.00    -0.773 OA
HETATM   45  H39 UNL     1       3.912  49.832 -11.361  1.00  0.00     0.167 HD
ENDBRANCH  42  44
ENDBRANCH  39  42
ENDBRANCH  35  36
ENDBRANCH  33  35
ENDBRANCH  30  31
ENDBRANCH  29  30
ENDBRANCH  27  29
ENDBRANCH  26  27
ENDBRANCH  25  26
ENDBRANCH   1  25
TORSDOF 12
ENDMDL
MODEL 2
REMARK minimizedAffinity -8.41030979
REMARK CNNscore 0.629437923
REMARK CNNaffinity 7.50979853
REMARK  12 active torsions:
REMARK  status: ('A' for Active; 'I' for Inactive)
REMARK    1  A    between atoms: C19_20  and  O2_21 
REMARK    2  A    between atoms: C19_20  and  C20_22 
REMARK    3  A    between atoms: C20_22  and  C21_24 
REMARK    4  A    between atoms: C21_24  and  O4_25 
REMARK    5  A    between atoms: O4_25  and  C22_26 
REMARK    6  A    between atoms: C22_26  and  C23_28 
REMARK    7  A    between atoms: C23_28  and  C24_29 
REMARK    8  A    between atoms: C24_29  and  C25_30 
REMARK       I    between atoms: C25_30  and  N1_32 
REMARK    9  A    between atoms: N1_32  and  C26_33 
REMARK   10  A    between atoms: C26_33  and  C27_34 
REMARK   11  A    between atoms: C30_37  and  C31_38 
REMARK   12  A    between atoms: C31_38  and  O8_40 
ROOT
HETATM    1  C20 UNL     1      -2.136  52.342 -26.754  1.00  0.00     0.185 C 
HETATM    2  O3  UNL     1      -2.635  53.219 -27.469  1.00  0.00    -0.292 OA
ENDROOT
BRANCH   1   3
HETATM    3  C19 UNL     1      -1.602  52.657 -25.317  1.00  0.00     0.128 C 
HETATM    4  C14 UNL     1      -0.886  51.464 -24.591  1.00  0.00    -0.002 C 
HETATM    5  C13 UNL     1      -0.101  51.929 -23.327  1.00  0.00     0.013 C 
HETATM    6  C15 UNL     1       0.104  50.703 -25.490  1.00  0.00     0.019 C 
HETATM    7  C16 UNL     1      -2.089  50.567 -24.218  1.00  0.00     0.002 C 
HETATM    8  C12 UNL     1      -0.620  51.395 -21.994  1.00  0.00     0.007 C 
HETATM    9  C11 UNL     1      -0.871  49.879 -21.995  1.00  0.00     0.002 C 
HETATM   10  C2  UNL     1      -1.333  49.296 -20.608  1.00  0.00    -0.016 C 
HETATM   11  C10 UNL     1      -1.777  49.449 -23.199  1.00  0.00    -0.004 C 
HETATM   12  C1  UNL     1      -1.023  47.771 -20.568  1.00  0.00     0.020 C 
HETATM   13  C3  UNL     1      -0.541  49.866 -19.386  1.00  0.00     0.022 C 
HETATM   14  C7  UNL     1      -2.828  49.546 -20.470  1.00  0.00    -0.068 C 
HETATM   15  C4  UNL     1      -1.089  51.139 -18.757  1.00  0.00     0.084 C 
HETATM   16  C5  UNL     1      -2.568  51.031 -18.510  1.00  0.00     0.149 C 
HETATM   17  O1  UNL     1      -3.124  51.598 -17.573  1.00  0.00    -0.293 OA
HETATM   18  C6  UNL     1      -3.381  50.300 -19.502  1.00  0.00     0.053 C 
HETATM   19  C8  UNL     1      -3.728  48.959 -21.527  1.00  0.00     0.035 C 
HETATM   20  C9  UNL     1      -3.049  48.644 -22.857  1.00  0.00     0.010 C 
HETATM   21  C17 UNL     1      -3.219  51.544 -23.837  1.00  0.00     0.009 C 
HETATM   22  C18 UNL     1      -2.804  52.913 -24.383  1.00  0.00     0.047 C 
BRANCH   3  23
HETATM   23  O2  UNL     1      -0.818  53.845 -25.321  1.00  0.00    -0.381 OA
HETATM   24  H27 UNL     1      -0.067  53.702 -25.921  1.00  0.00     0.211 HD
ENDBRANCH   3  23
ENDBRANCH   1   3
BRANCH   1  25
HETATM   25  C21 UNL     1      -2.116  50.897 -27.265  1.00  0.00     0.260 C 
BRANCH  25  26
HETATM   26  O4  UNL     1      -3.397  50.274 -27.363  1.00  0.00    -0.314 OA
BRANCH  26  27
HETATM   27  C22 UNL     1      -3.444  48.963 -26.997  1.00  0.00     0.259 C 
HETATM   28  O5  UNL     1      -2.472  48.291 -26.684  1.00  0.00    -0.265 OA
BRANCH  27  29
HETATM   29  C23 UNL     1      -4.836  48.394 -27.167  1.00  0.00     0.120 C 
BRANCH  29  30
HETATM   30  C24 UNL     1      -5.195  48.028 -28.604  1.00  0.00     0.112 C 
BRANCH  30  31
HETATM   31  C25 UNL     1      -6.674  47.739 -28.764  1.00  0.00     0.218 C 
HETATM   32  O6  UNL     1      -7.417  48.424 -29.459  1.00  0.00    -0.274 OA
HETATM   33  N1  UNL     1      -7.087  46.630 -28.065  1.00  0.00    -0.357 N 
HETATM   34  H34 UNL     1      -6.454  46.196 -27.406  1.00  0.00     0.162 HD
BRANCH  33  35
HETATM   35  C26 UNL     1      -8.481  46.249 -27.997  1.00  0.00     0.161 C 
BRANCH  35  36
HETATM   36  C27 UNL     1      -8.657  45.018 -27.143  1.00  0.00    -0.040 A 
HETATM   37  C28 UNL     1      -8.072  44.936 -25.871  1.00  0.00     0.010 A 
HETATM   38  C29 UNL     1      -8.249  43.797 -25.081  1.00  0.00     0.019 A 
HETATM   39  C30 UNL     1      -9.020  42.727 -25.548  1.00  0.00     0.037 A 
HETATM   40  C32 UNL     1      -9.615  42.806 -26.813  1.00  0.00     0.019 A 
HETATM   41  C33 UNL     1      -9.435  43.944 -27.604  1.00  0.00     0.010 A 
BRANCH  39  42
HETATM   42  C31 UNL     1      -9.237  41.500 -24.746  1.00  0.00     0.176 C 
HETATM   43  O7  UNL     1     -10.224  41.248 -24.079  1.00  0.00    -0.646 OA
BRANCH  42  44
HETATM   44  O8  UNL     1      -8.204  40.640 -24.818  1.00  0.00    -0.773 OA
HETATM   45  H39 UNL     1      -8.492  39.887 -24.257  1.00  0.00     0.167 HD
ENDBRANCH  42  44
ENDBRANCH  39  42
ENDBRANCH  35  36
ENDBRANCH  33  35
ENDBRANCH  30  31
ENDBRANCH  29  30
ENDBRANCH  27  29
ENDBRANCH  26  27
ENDBRANCH  25  26
ENDBRANCH   1  25
TORSDOF 12
ENDMDL
MODEL 3
REMARK minimizedAffinity -8.85435867
REMARK CNNscore 0.565077186
REMARK CNNaffinity 7.10841894
REMARK  12 active torsions:
REMARK  status: ('A' for Active; 'I' for Inactive)
REMARK    1  A    between atoms: C19_20  and  O2_21 
REMARK    2  A    between atoms: C19_20  and  C20_22 
REMARK    3  A    between atoms: C20_22  and  C21_24 
REMARK    4  A    between atoms: C21_24  and  O4_25 
REMARK    5  A    between atoms: O4_25  and  C22_26 
REMARK    6  A    between atoms: C22_26  and  C23_28 
REMARK    7  A    between atoms: C23_28  and  C24_29 
REMARK    8  A    between atoms: C24_29  and  C25_30 
REMARK       I    between atoms: C25_30  and  N1_32 
REMARK    9  A    between atoms: N1_32  and  C26_33 
REMARK   10  A    between atoms: C26_33  and  C27_34 
REMARK   11  A    between atoms: C30_37  and  C31_38 
REMARK   12  A    between atoms: C31_38  and  O8_40 
ROOT
HETATM    1  C20 UNL     1      -2.231  52.277 -26.726  1.00  0.00     0.185 C 
HETATM    2  O3  UNL     1      -2.745  53.142 -27.446  1.00  0.00    -0.292 OA
ENDROOT
BRANCH   1   3
HETATM    3  C19 UNL     1      -1.686  52.614 -25.299  1.00  0.00     0.128 C 
HETATM    4  C14 UNL     1      -0.944  51.438 -24.570  1.00  0.00    -0.002 C 
HETATM    5  C13 UNL     1      -0.151  51.926 -23.320  1.00  0.00     0.013 C 
HETATM    6  C15 UNL     1       0.046  50.683 -25.472  1.00  0.00     0.019 C 
HETATM    7  C16 UNL     1      -2.130  50.528 -24.174  1.00  0.00     0.002 C 
HETATM    8  C12 UNL     1      -0.648  51.398 -21.975  1.00  0.00     0.007 C 
HETATM    9  C11 UNL     1      -0.876  49.879 -21.958  1.00  0.00     0.002 C 
HETATM   10  C2  UNL     1      -1.314  49.303 -20.561  1.00  0.00    -0.016 C 
HETATM   11  C10 UNL     1      -1.789  49.424 -23.148  1.00  0.00    -0.004 C 
HETATM   12  C1  UNL     1      -0.981  47.783 -20.510  1.00  0.00     0.020 C 
HETATM   13  C3  UNL     1      -0.516  49.897 -19.354  1.00  0.00     0.022 C 
HETATM   14  C7  UNL     1      -2.810  49.534 -20.407  1.00  0.00    -0.068 C 
HETATM   15  C4  UNL     1      -1.075  51.168 -18.731  1.00  0.00     0.084 C 
HETATM   16  C5  UNL     1      -2.549  51.041 -18.466  1.00  0.00     0.149 C 
HETATM   17  O1  UNL     1      -3.102  51.609 -17.527  1.00  0.00    -0.293 OA
HETATM   18  C6  UNL     1      -3.363  50.288 -19.441  1.00  0.00     0.053 C 
HETATM   19  C8  UNL     1      -3.714  48.923 -21.449  1.00  0.00     0.035 C 
HETATM   20  C9  UNL     1      -3.046  48.604 -22.783  1.00  0.00     0.010 C 
HETATM   21  C17 UNL     1      -3.270  51.492 -23.789  1.00  0.00     0.009 C 
HETATM   22  C18 UNL     1      -2.880  52.862 -24.353  1.00  0.00     0.047 C 
BRANCH   3  23
HETATM   23  O2  UNL     1      -0.919  53.812 -25.323  1.00  0.00    -0.381 OA
HETATM   24  H27 UNL     1      -0.173  53.674 -25.931  1.00  0.00     0.211 HD
ENDBRANCH   3  23
ENDBRANCH   1   3
BRANCH   1  25
HETATM   25  C21 UNL     1      -2.206  50.826 -27.220  1.00  0.00     0.260 C 
BRANCH  25  26
HETATM   26  O4  UNL     1      -3.489  50.240 -27.436  1.00  0.00    -0.314 OA
BRANCH  26  27
HETATM   27  C22 UNL     1      -3.602  48.926 -27.095  1.00  0.00     0.259 C 
HETATM   28  O5  UNL     1      -2.706  48.253 -26.608  1.00  0.00    -0.265 OA
BRANCH  27  29
HETATM   29  C23 UNL     1      -4.935  48.357 -27.531  1.00  0.00     0.120 C 
BRANCH  29  30
HETATM   30  C24 UNL     1      -5.013  47.999 -29.012  1.00  0.00     0.112 C 
BRANCH  30  31
HETATM   31  C25 UNL     1      -6.432  47.693 -29.448  1.00  0.00     0.218 C 
HETATM   32  O6  UNL     1      -7.418  48.146 -28.877  1.00  0.00    -0.274 OA
HETATM   33  N1  UNL     1      -6.494  46.874 -30.551  1.00  0.00    -0.357 N 
HETATM   34  H34 UNL     1      -5.649  46.429 -30.885  1.00  0.00     0.162 HD
BRANCH  33  35
HETATM   35  C26 UNL     1      -7.753  46.375 -31.058  1.00  0.00     0.161 C 
BRANCH  35  36
HETATM   36  C27 UNL     1      -7.900  46.691 -32.526  1.00  0.00    -0.040 A 
HETATM   37  C28 UNL     1      -6.858  47.304 -33.237  1.00  0.00     0.010 A 
HETATM   38  C29 UNL     1      -6.996  47.582 -34.599  1.00  0.00     0.019 A 
HETATM   39  C30 UNL     1      -8.175  47.243 -35.272  1.00  0.00     0.037 A 
HETATM   40  C32 UNL     1      -9.215  46.622 -34.571  1.00  0.00     0.019 A 
HETATM   41  C33 UNL     1      -9.078  46.347 -33.207  1.00  0.00     0.010 A 
BRANCH  39  42
HETATM   42  C31 UNL     1      -8.367  47.518 -36.716  1.00  0.00     0.176 C 
HETATM   43  O7  UNL     1      -7.604  48.141 -37.431  1.00  0.00    -0.646 OA
BRANCH  42  44
HETATM   44  O8  UNL     1      -9.508  46.994 -37.201  1.00  0.00    -0.773 OA
HETATM   45  H39 UNL     1      -9.491  47.244 -38.151  1.00  0.00     0.167 HD
ENDBRANCH  42  44
ENDBRANCH  39  42
ENDBRANCH  35  36
ENDBRANCH  33  35
ENDBRANCH  30  31
ENDBRANCH  29  30
ENDBRANCH  27  29
ENDBRANCH  26  27
ENDBRANCH  25  26
ENDBRANCH   1  25
TORSDOF 12
ENDMDL
MODEL 4
REMARK minimizedAffinity -8.0111475
REMARK CNNscore 0.552219272
REMARK CNNaffinity 6.74905539
REMARK  12 active torsions:
REMARK  status: ('A' for Active; 'I' for Inactive)
REMARK    1  A    between atoms: C19_20  and  O2_21 
REMARK    2  A    between atoms: C19_20  and  C20_22 
REMARK    3  A    between atoms: C20_22  and  C21_24 
REMARK    4  A    between atoms: C21_24  and  O4_25 
REMARK    5  A    between atoms: O4_25  and  C22_26 
REMARK    6  A    between atoms: C22_26  and  C23_28 
REMARK    7  A    between atoms: C23_28  and  C24_29 
REMARK    8  A    between atoms: C24_29  and  C25_30 
REMARK       I    between atoms: C25_30  and  N1_32 
REMARK    9  A    between atoms: N1_32  and  C26_33 
REMARK   10  A    between atoms: C26_33  and  C27_34 
REMARK   11  A    between atoms: C30_37  and  C31_38 
REMARK   12  A    between atoms: C31_38  and  O8_40 
ROOT
HETATM    1  C20 UNL     1      -3.402  50.886 -25.968  1.00  0.00     0.185 C 
HETATM    2  O3  UNL     1      -3.030  51.915 -26.545  1.00  0.00    -0.292 OA
ENDROOT
BRANCH   1   3
HETATM    3  C19 UNL     1      -4.211  50.941 -24.630  1.00  0.00     0.128 C 
HETATM    4  C14 UNL     1      -3.344  51.012 -23.323  1.00  0.00    -0.002 C 
HETATM    5  C13 UNL     1      -4.193  51.394 -22.073  1.00  0.00     0.013 C 
HETATM    6  C15 UNL     1      -2.182  52.016 -23.411  1.00  0.00     0.019 C 
HETATM    7  C16 UNL     1      -2.813  49.563 -23.232  1.00  0.00     0.002 C 
HETATM    8  C12 UNL     1      -4.305  50.316 -20.996  1.00  0.00     0.007 C 
HETATM    9  C11 UNL     1      -2.955  49.689 -20.611  1.00  0.00     0.002 C 
HETATM   10  C2  UNL     1      -3.039  48.631 -19.450  1.00  0.00    -0.016 C 
HETATM   11  C10 UNL     1      -2.176  49.187 -21.875  1.00  0.00    -0.004 C 
HETATM   12  C1  UNL     1      -1.636  48.491 -18.788  1.00  0.00     0.020 C 
HETATM   13  C3  UNL     1      -3.964  49.063 -18.266  1.00  0.00     0.022 C 
HETATM   14  C7  UNL     1      -3.485  47.307 -20.053  1.00  0.00    -0.068 C 
HETATM   15  C4  UNL     1      -5.435  48.686 -18.383  1.00  0.00     0.084 C 
HETATM   16  C5  UNL     1      -5.598  47.243 -18.772  1.00  0.00     0.149 C 
HETATM   17  O1  UNL     1      -6.552  46.564 -18.403  1.00  0.00    -0.293 OA
HETATM   18  C6  UNL     1      -4.620  46.669 -19.719  1.00  0.00     0.053 C 
HETATM   19  C8  UNL     1      -2.621  46.717 -21.139  1.00  0.00     0.035 C 
HETATM   20  C9  UNL     1      -1.722  47.711 -21.868  1.00  0.00     0.010 C 
HETATM   21  C17 UNL     1      -3.976  48.673 -23.711  1.00  0.00     0.009 C 
HETATM   22  C18 UNL     1      -4.954  49.601 -24.439  1.00  0.00     0.047 C 
BRANCH   3  23
HETATM   23  O2  UNL     1      -5.203  51.961 -24.683  1.00  0.00    -0.381 OA
HETATM   24  H27 UNL     1      -4.748  52.809 -24.823  1.00  0.00     0.211 HD
ENDBRANCH   3  23
ENDBRANCH   1   3
BRANCH   1  25
HETATM   25  C21 UNL     1      -3.128  49.530 -26.627  1.00  0.00     0.260 C 
BRANCH  25  26
HETATM   26  O4  UNL     1      -3.614  49.399 -27.962  1.00  0.00    -0.314 OA
BRANCH  26  27
HETATM   27  C22 UNL     1      -4.679  48.564 -28.123  1.00  0.00     0.259 C 
HETATM   28  O5  UNL     1      -5.146  47.853 -27.246  1.00  0.00    -0.265 OA
BRANCH  27  29
HETATM   29  C23 UNL     1      -5.125  48.514 -29.569  1.00  0.00     0.120 C 
BRANCH  29  30
HETATM   30  C24 UNL     1      -5.876  47.243 -29.952  1.00  0.00     0.112 C 
BRANCH  30  31
HETATM   31  C25 UNL     1      -6.940  47.506 -30.999  1.00  0.00     0.218 C 
HETATM   32  O6  UNL     1      -6.684  47.643 -32.191  1.00  0.00    -0.274 OA
HETATM   33  N1  UNL     1      -8.210  47.560 -30.477  1.00  0.00    -0.357 N 
HETATM   34  H34 UNL     1      -8.333  47.576 -29.472  1.00  0.00     0.162 HD
BRANCH  33  35
HETATM   35  C26 UNL     1      -9.354  47.909 -31.292  1.00  0.00     0.161 C 
BRANCH  35  36
HETATM   36  C27 UNL     1      -9.919  46.687 -31.970  1.00  0.00    -0.040 A 
HETATM   37  C28 UNL     1      -9.824  46.528 -33.360  1.00  0.00     0.010 A 
HETATM   38  C29 UNL     1     -10.340  45.386 -33.981  1.00  0.00     0.019 A 
HETATM   39  C30 UNL     1     -10.950  44.385 -33.219  1.00  0.00     0.037 A 
HETATM   40  C32 UNL     1     -11.040  44.532 -31.830  1.00  0.00     0.019 A 
HETATM   41  C33 UNL     1     -10.527  45.676 -31.210  1.00  0.00     0.010 A 
BRANCH  39  42
HETATM   42  C31 UNL     1     -11.511  43.157 -33.832  1.00  0.00     0.176 C 
HETATM   43  O7  UNL     1     -11.251  42.013 -33.506  1.00  0.00    -0.646 OA
BRANCH  42  44
HETATM   44  O8  UNL     1     -12.377  43.419 -34.828  1.00  0.00    -0.773 OA
HETATM   45  H39 UNL     1     -12.667  42.528 -35.122  1.00  0.00     0.167 HD
ENDBRANCH  42  44
ENDBRANCH  39  42
ENDBRANCH  35  36
ENDBRANCH  33  35
ENDBRANCH  30  31
ENDBRANCH  29  30
ENDBRANCH  27  29
ENDBRANCH  26  27
ENDBRANCH  25  26
ENDBRANCH   1  25
TORSDOF 12
ENDMDL
MODEL 5
REMARK minimizedAffinity -8.20674706
REMARK CNNscore 0.434319586
REMARK CNNaffinity 6.61347818
REMARK  12 active torsions:
REMARK  status: ('A' for Active; 'I' for Inactive)
REMARK    1  A    between atoms: C19_20  and  O2_21 
REMARK    2  A    between atoms: C19_20  and  C20_22 
REMARK    3  A    between atoms: C20_22  and  C21_24 
REMARK    4  A    between atoms: C21_24  and  O4_25 
REMARK    5  A    between atoms: O4_25  and  C22_26 
REMARK    6  A    between atoms: C22_26  and  C23_28 
REMARK    7  A    between atoms: C23_28  and  C24_29 
REMARK    8  A    between atoms: C24_29  and  C25_30 
REMARK       I    between atoms: C25_30  and  N1_32 
REMARK    9  A    between atoms: N1_32  and  C26_33 
REMARK   10  A    between atoms: C26_33  and  C27_34 
REMARK   11  A    between atoms: C30_37  and  C31_38 
REMARK   12  A    between atoms: C31_38  and  O8_40 
ROOT
HETATM    1  C20 UNL     1      -3.409  50.876 -25.980  1.00  0.00     0.185 C 
HETATM    2  O3  UNL     1      -2.957  51.899 -26.509  1.00  0.00    -0.292 OA
ENDROOT
BRANCH   1   3
HETATM    3  C19 UNL     1      -4.221  50.932 -24.644  1.00  0.00     0.128 C 
HETATM    4  C14 UNL     1      -3.356  50.983 -23.335  1.00  0.00    -0.002 C 
HETATM    5  C13 UNL     1      -4.202  51.367 -22.084  1.00  0.00     0.013 C 
HETATM    6  C15 UNL     1      -2.182  51.973 -23.413  1.00  0.00     0.019 C 
HETATM    7  C16 UNL     1      -2.843  49.527 -23.252  1.00  0.00     0.002 C 
HETATM    8  C12 UNL     1      -4.330  50.283 -21.015  1.00  0.00     0.007 C 
HETATM    9  C11 UNL     1      -2.989  49.637 -20.632  1.00  0.00     0.002 C 
HETATM   10  C2  UNL     1      -3.089  48.571 -19.478  1.00  0.00    -0.016 C 
HETATM   11  C10 UNL     1      -2.214  49.134 -21.897  1.00  0.00    -0.004 C 
HETATM   12  C1  UNL     1      -1.690  48.409 -18.814  1.00  0.00     0.020 C 
HETATM   13  C3  UNL     1      -4.011  49.006 -18.293  1.00  0.00     0.022 C 
HETATM   14  C7  UNL     1      -3.549  47.258 -20.091  1.00  0.00    -0.068 C 
HETATM   15  C4  UNL     1      -5.486  48.649 -18.416  1.00  0.00     0.084 C 
HETATM   16  C5  UNL     1      -5.666  47.211 -18.815  1.00  0.00     0.149 C 
HETATM   17  O1  UNL     1      -6.630  46.541 -18.453  1.00  0.00    -0.293 OA
HETATM   18  C6  UNL     1      -4.694  46.631 -19.764  1.00  0.00     0.053 C 
HETATM   19  C8  UNL     1      -2.691  46.664 -21.180  1.00  0.00     0.035 C 
HETATM   20  C9  UNL     1      -1.778  47.653 -21.900  1.00  0.00     0.010 C 
HETATM   21  C17 UNL     1      -4.016  48.655 -23.740  1.00  0.00     0.009 C 
HETATM   22  C18 UNL     1      -4.980  49.600 -24.464  1.00  0.00     0.047 C 
BRANCH   3  23
HETATM   23  O2  UNL     1      -5.200  51.965 -24.692  1.00  0.00    -0.381 OA
HETATM   24  H27 UNL     1      -4.734  52.808 -24.825  1.00  0.00     0.211 HD
ENDBRANCH   3  23
ENDBRANCH   1   3
BRANCH   1  25
HETATM   25  C21 UNL     1      -3.234  49.534 -26.700  1.00  0.00     0.260 C 
BRANCH  25  26
HETATM   26  O4  UNL     1      -3.743  49.494 -28.033  1.00  0.00    -0.314 OA
BRANCH  26  27
HETATM   27  C22 UNL     1      -4.729  48.581 -28.260  1.00  0.00     0.259 C 
HETATM   28  O5  UNL     1      -5.146  47.786 -27.432  1.00  0.00    -0.265 OA
BRANCH  27  29
HETATM   29  C23 UNL     1      -5.145  48.573 -29.715  1.00  0.00     0.120 C 
BRANCH  29  30
HETATM   30  C24 UNL     1      -5.106  47.197 -30.373  1.00  0.00     0.112 C 
BRANCH  30  31
HETATM   31  C25 UNL     1      -6.393  46.884 -31.110  1.00  0.00     0.218 C 
HETATM   32  O6  UNL     1      -6.743  45.741 -31.385  1.00  0.00    -0.274 OA
HETATM   33  N1  UNL     1      -7.126  48.005 -31.419  1.00  0.00    -0.357 N 
HETATM   34  H34 UNL     1      -6.712  48.919 -31.285  1.00  0.00     0.162 HD
BRANCH  33  35
HETATM   35  C26 UNL     1      -8.330  47.931 -32.217  1.00  0.00     0.161 C 
BRANCH  35  36
HETATM   36  C27 UNL     1      -9.522  47.601 -31.353  1.00  0.00    -0.040 A 
HETATM   37  C28 UNL     1     -10.274  46.439 -31.579  1.00  0.00     0.010 A 
HETATM   38  C29 UNL     1     -11.370  46.134 -30.767  1.00  0.00     0.019 A 
HETATM   39  C30 UNL     1     -11.724  46.983 -29.713  1.00  0.00     0.037 A 
HETATM   40  C32 UNL     1     -10.973  48.140 -29.476  1.00  0.00     0.019 A 
HETATM   41  C33 UNL     1      -9.879  48.446 -30.291  1.00  0.00     0.010 A 
BRANCH  39  42
HETATM   42  C31 UNL     1     -12.878  46.701 -28.825  1.00  0.00     0.176 C 
HETATM   43  O7  UNL     1     -12.932  46.931 -27.631  1.00  0.00    -0.646 OA
BRANCH  42  44
HETATM   44  O8  UNL     1     -13.915  46.144 -29.478  1.00  0.00    -0.773 OA
HETATM   45  H39 UNL     1     -14.592  46.028 -28.776  1.00  0.00     0.167 HD
ENDBRANCH  42  44
ENDBRANCH  39  42
ENDBRANCH  35  36
ENDBRANCH  33  35
ENDBRANCH  30  31
ENDBRANCH  29  30
ENDBRANCH  27  29
ENDBRANCH  26  27
ENDBRANCH  25  26
ENDBRANCH   1  25
TORSDOF 12
ENDMDL
MODEL 6
REMARK minimizedAffinity -8.33690548
REMARK CNNscore 0.425709873
REMARK CNNaffinity 6.65442324
REMARK  12 active torsions:
REMARK  status: ('A' for Active; 'I' for Inactive)
REMARK    1  A    between atoms: C19_20  and  O2_21 
REMARK    2  A    between atoms: C19_20  and  C20_22 
REMARK    3  A    between atoms: C20_22  and  C21_24 
REMARK    4  A    between atoms: C21_24  and  O4_25 
REMARK    5  A    between atoms: O4_25  and  C22_26 
REMARK    6  A    between atoms: C22_26  and  C23_28 
REMARK    7  A    between atoms: C23_28  and  C24_29 
REMARK    8  A    between atoms: C24_29  and  C25_30 
REMARK       I    between atoms: C25_30  and  N1_32 
REMARK    9  A    between atoms: N1_32  and  C26_33 
REMARK   10  A    between atoms: C26_33  and  C27_34 
REMARK   11  A    between atoms: C30_37  and  C31_38 
REMARK   12  A    between atoms: C31_38  and  O8_40 
ROOT
HETATM    1  C20 UNL     1      -3.980  51.055 -24.272  1.00  0.00     0.185 C 
HETATM    2  O3  UNL     1      -4.032  52.161 -24.823  1.00  0.00    -0.292 OA
ENDROOT
BRANCH   1   3
HETATM    3  C19 UNL     1      -5.123  50.552 -23.329  1.00  0.00     0.128 C 
HETATM    4  C14 UNL     1      -4.703  50.307 -21.837  1.00  0.00    -0.002 C 
HETATM    5  C13 UNL     1      -5.935  50.132 -20.898  1.00  0.00     0.013 C 
HETATM    6  C15 UNL     1      -3.838  51.436 -21.249  1.00  0.00     0.019 C 
HETATM    7  C16 UNL     1      -3.888  48.998 -21.960  1.00  0.00     0.002 C 
HETATM    8  C12 UNL     1      -6.085  48.755 -20.256  1.00  0.00     0.007 C 
HETATM    9  C11 UNL     1      -4.790  48.231 -19.615  1.00  0.00     0.002 C 
HETATM   10  C2  UNL     1      -4.942  46.848 -18.880  1.00  0.00    -0.016 C 
HETATM   11  C10 UNL     1      -3.590  48.289 -20.621  1.00  0.00    -0.004 C 
HETATM   12  C1  UNL     1      -3.792  46.694 -17.842  1.00  0.00     0.020 C 
HETATM   13  C3  UNL     1      -6.239  46.730 -18.015  1.00  0.00     0.022 C 
HETATM   14  C7  UNL     1      -4.870  45.750 -19.931  1.00  0.00    -0.068 C 
HETATM   15  C4  UNL     1      -7.482  46.212 -18.725  1.00  0.00     0.084 C 
HETATM   16  C5  UNL     1      -7.179  44.971 -19.517  1.00  0.00     0.149 C 
HETATM   17  O1  UNL     1      -8.008  44.082 -19.693  1.00  0.00    -0.293 OA
HETATM   18  C6  UNL     1      -5.867  44.884 -20.189  1.00  0.00     0.053 C 
HETATM   19  C8  UNL     1      -3.620  45.678 -20.771  1.00  0.00     0.035 C 
HETATM   20  C9  UNL     1      -2.817  46.972 -20.854  1.00  0.00     0.010 C 
HETATM   21  C17 UNL     1      -4.621  48.164 -23.028  1.00  0.00     0.009 C 
HETATM   22  C18 UNL     1      -5.546  49.134 -23.769  1.00  0.00     0.047 C 
BRANCH   3  23
HETATM   23  O2  UNL     1      -6.273  51.383 -23.444  1.00  0.00    -0.381 OA
HETATM   24  H27 UNL     1      -6.013  52.284 -23.187  1.00  0.00     0.211 HD
ENDBRANCH   3  23
ENDBRANCH   1   3
BRANCH   1  25
HETATM   25  C21 UNL     1      -2.802  50.128 -24.589  1.00  0.00     0.260 C 
BRANCH  25  26
HETATM   26  O4  UNL     1      -1.528  50.770 -24.651  1.00  0.00    -0.314 OA
BRANCH  26  27
HETATM   27  C22 UNL     1      -0.974  51.097 -23.450  1.00  0.00     0.259 C 
HETATM   28  O5  UNL     1      -0.821  50.321 -22.519  1.00  0.00    -0.265 OA
BRANCH  27  29
HETATM   29  C23 UNL     1      -0.703  52.583 -23.357  1.00  0.00     0.120 C 
BRANCH  29  30
HETATM   30  C24 UNL     1       0.761  52.942 -23.124  1.00  0.00     0.112 C 
BRANCH  30  31
HETATM   31  C25 UNL     1       0.993  53.502 -21.734  1.00  0.00     0.218 C 
HETATM   32  O6  UNL     1       1.791  54.403 -21.501  1.00  0.00    -0.274 OA
HETATM   33  N1  UNL     1       0.209  52.906 -20.774  1.00  0.00    -0.357 N 
HETATM   34  H34 UNL     1      -0.323  52.080 -21.012  1.00  0.00     0.162 HD
BRANCH  33  35
HETATM   35  C26 UNL     1       0.357  53.220 -19.369  1.00  0.00     0.161 C 
BRANCH  35  36
HETATM   36  C27 UNL     1       0.157  51.987 -18.523  1.00  0.00    -0.040 A 
HETATM   37  C28 UNL     1      -0.636  50.924 -18.978  1.00  0.00     0.010 A 
HETATM   38  C29 UNL     1      -0.807  49.779 -18.194  1.00  0.00     0.019 A 
HETATM   39  C30 UNL     1      -0.180  49.679 -16.947  1.00  0.00     0.037 A 
HETATM   40  C32 UNL     1       0.620  50.733 -16.491  1.00  0.00     0.019 A 
HETATM   41  C33 UNL     1       0.788  51.878 -17.274  1.00  0.00     0.010 A 
BRANCH  39  42
HETATM   42  C31 UNL     1      -0.332  48.485 -16.082  1.00  0.00     0.176 C 
HETATM   43  O7  UNL     1      -1.386  48.007 -15.704  1.00  0.00    -0.646 OA
BRANCH  42  44
HETATM   44  O8  UNL     1       0.848  47.941 -15.731  1.00  0.00    -0.773 OA
HETATM   45  H39 UNL     1       0.590  47.170 -15.180  1.00  0.00     0.167 HD
ENDBRANCH  42  44
ENDBRANCH  39  42
ENDBRANCH  35  36
ENDBRANCH  33  35
ENDBRANCH  30  31
ENDBRANCH  29  30
ENDBRANCH  27  29
ENDBRANCH  26  27
ENDBRANCH  25  26
ENDBRANCH   1  25
TORSDOF 12
ENDMDL
MODEL 7
REMARK minimizedAffinity -8.3934927
REMARK CNNscore 0.413422018
REMARK CNNaffinity 7.2119689
REMARK  12 active torsions:
REMARK  status: ('A' for Active; 'I' for Inactive)
REMARK    1  A    between atoms: C19_20  and  O2_21 
REMARK    2  A    between atoms: C19_20  and  C20_22 
REMARK    3  A    between atoms: C20_22  and  C21_24 
REMARK    4  A    between atoms: C21_24  and  O4_25 
REMARK    5  A    between atoms: O4_25  and  C22_26 
REMARK    6  A    between atoms: C22_26  and  C23_28 
REMARK    7  A    between atoms: C23_28  and  C24_29 
REMARK    8  A    between atoms: C24_29  and  C25_30 
REMARK       I    between atoms: C25_30  and  N1_32 
REMARK    9  A    between atoms: N1_32  and  C26_33 
REMARK   10  A    between atoms: C26_33  and  C27_34 
REMARK   11  A    between atoms: C30_37  and  C31_38 
REMARK   12  A    between atoms: C31_38  and  O8_40 
ROOT
HETATM    1  C20 UNL     1      -1.934  52.471 -26.911  1.00  0.00     0.185 C 
HETATM    2  O3  UNL     1      -2.341  53.365 -27.663  1.00  0.00    -0.292 OA
ENDROOT
BRANCH   1   3
HETATM    3  C19 UNL     1      -1.438  52.782 -25.459  1.00  0.00     0.128 C 
HETATM    4  C14 UNL     1      -0.726  51.591 -24.725  1.00  0.00    -0.002 C 
HETATM    5  C13 UNL     1       0.023  52.055 -23.439  1.00  0.00     0.013 C 
HETATM    6  C15 UNL     1       0.293  50.847 -25.605  1.00  0.00     0.019 C 
HETATM    7  C16 UNL     1      -1.929  50.679 -24.387  1.00  0.00     0.002 C 
HETATM    8  C12 UNL     1      -0.522  51.506 -22.122  1.00  0.00     0.007 C 
HETATM    9  C11 UNL     1      -0.756  49.987 -22.140  1.00  0.00     0.002 C 
HETATM   10  C2  UNL     1      -1.245  49.390 -20.769  1.00  0.00    -0.016 C 
HETATM   11  C10 UNL     1      -1.628  49.557 -23.368  1.00  0.00    -0.004 C 
HETATM   12  C1  UNL     1      -0.920  47.868 -20.732  1.00  0.00     0.020 C 
HETATM   13  C3  UNL     1      -0.488  49.959 -19.525  1.00  0.00     0.022 C 
HETATM   14  C7  UNL     1      -2.745  49.623 -20.664  1.00  0.00    -0.068 C 
HETATM   15  C4  UNL     1      -1.064  51.222 -18.900  1.00  0.00     0.084 C 
HETATM   16  C5  UNL     1      -2.547  51.096 -18.689  1.00  0.00     0.149 C 
HETATM   17  O1  UNL     1      -3.131  51.651 -17.761  1.00  0.00    -0.293 OA
HETATM   18  C6  UNL     1      -3.329  50.364 -19.705  1.00  0.00     0.053 C 
HETATM   19  C8  UNL     1      -3.613  49.034 -21.747  1.00  0.00     0.035 C 
HETATM   20  C9  UNL     1      -2.900  48.736 -23.062  1.00  0.00     0.010 C 
HETATM   21  C17 UNL     1      -3.078  51.641 -24.026  1.00  0.00     0.009 C 
HETATM   22  C18 UNL     1      -2.664  53.019 -24.552  1.00  0.00     0.047 C 
BRANCH   3  23
HETATM   23  O2  UNL     1      -0.666  53.978 -25.436  1.00  0.00    -0.381 OA
HETATM   24  H27 UNL     1       0.100  53.847 -26.019  1.00  0.00     0.211 HD
ENDBRANCH   3  23
ENDBRANCH   1   3
BRANCH   1  25
HETATM   25  C21 UNL     1      -1.995  51.017 -27.391  1.00  0.00     0.260 C 
BRANCH  25  26
HETATM   26  O4  UNL     1      -3.288  50.416 -27.330  1.00  0.00    -0.314 OA
BRANCH  26  27
HETATM   27  C22 UNL     1      -3.307  49.089 -27.022  1.00  0.00     0.259 C 
HETATM   28  O5  UNL     1      -2.318  48.420 -26.763  1.00  0.00    -0.265 OA
BRANCH  27  29
HETATM   29  C23 UNL     1      -4.694  48.506 -27.184  1.00  0.00     0.120 C 
BRANCH  29  30
HETATM   30  C24 UNL     1      -5.033  48.075 -28.607  1.00  0.00     0.112 C 
BRANCH  30  31
HETATM   31  C25 UNL     1      -6.393  47.409 -28.689  1.00  0.00     0.218 C 
HETATM   32  O6  UNL     1      -6.631  46.467 -29.437  1.00  0.00    -0.274 OA
HETATM   33  N1  UNL     1      -7.317  47.961 -27.834  1.00  0.00    -0.357 N 
HETATM   34  H34 UNL     1      -7.093  48.821 -27.349  1.00  0.00     0.162 HD
BRANCH  33  35
HETATM   35  C26 UNL     1      -8.702  47.543 -27.838  1.00  0.00     0.161 C 
BRANCH  35  36
HETATM   36  C27 UNL     1      -9.182  47.272 -26.433  1.00  0.00    -0.040 A 
HETATM   37  C28 UNL     1      -8.277  47.211 -25.364  1.00  0.00     0.010 A 
HETATM   38  C29 UNL     1      -8.729  46.971 -24.064  1.00  0.00     0.019 A 
HETATM   39  C30 UNL     1     -10.095  46.797 -23.814  1.00  0.00     0.037 A 
HETATM   40  C32 UNL     1     -11.005  46.866 -24.875  1.00  0.00     0.019 A 
HETATM   41  C33 UNL     1     -10.551  47.102 -26.176  1.00  0.00     0.010 A 
BRANCH  39  42
HETATM   42  C31 UNL     1     -10.622  46.542 -22.452  1.00  0.00     0.176 C 
HETATM   43  O7  UNL     1     -10.161  46.982 -21.415  1.00  0.00    -0.646 OA
BRANCH  42  44
HETATM   44  O8  UNL     1     -11.707  45.746 -22.452  1.00  0.00    -0.773 OA
HETATM   45  H39 UNL     1     -11.943  45.678 -21.501  1.00  0.00     0.167 HD
ENDBRANCH  42  44
ENDBRANCH  39  42
ENDBRANCH  35  36
ENDBRANCH  33  35
ENDBRANCH  30  31
ENDBRANCH  29  30
ENDBRANCH  27  29
ENDBRANCH  26  27
ENDBRANCH  25  26
ENDBRANCH   1  25
TORSDOF 12
ENDMDL
MODEL 8
REMARK minimizedAffinity -8.24251652
REMARK CNNscore 0.402870595
REMARK CNNaffinity 6.46986628
REMARK  12 active torsions:
REMARK  status: ('A' for Active; 'I' for Inactive)
REMARK    1  A    between atoms: C19_20  and  O2_21 
REMARK    2  A    between atoms: C19_20  and  C20_22 
REMARK    3  A    between atoms: C20_22  and  C21_24 
REMARK    4  A    between atoms: C21_24  and  O4_25 
REMARK    5  A    between atoms: O4_25  and  C22_26 
REMARK    6  A    between atoms: C22_26  and  C23_28 
REMARK    7  A    between atoms: C23_28  and  C24_29 
REMARK    8  A    between atoms: C24_29  and  C25_30 
REMARK       I    between atoms: C25_30  and  N1_32 
REMARK    9  A    between atoms: N1_32  and  C26_33 
REMARK   10  A    between atoms: C26_33  and  C27_34 
REMARK   11  A    between atoms: C30_37  and  C31_38 
REMARK   12  A    between atoms: C31_38  and  O8_40 
ROOT
HETATM    1  C20 UNL     1      -1.972  50.461 -17.845  1.00  0.00     0.185 C 
HETATM    2  O3  UNL     1      -2.686  51.469 -17.787  1.00  0.00    -0.292 OA
ENDROOT
BRANCH   1   3
HETATM    3  C19 UNL     1      -1.943  49.546 -19.114  1.00  0.00     0.128 C 
HETATM    4  C14 UNL     1      -1.486  50.252 -20.439  1.00  0.00    -0.002 C 
HETATM    5  C13 UNL     1      -1.165  49.230 -21.571  1.00  0.00     0.013 C 
HETATM    6  C15 UNL     1      -0.245  51.144 -20.264  1.00  0.00     0.019 C 
HETATM    7  C16 UNL     1      -2.732  51.104 -20.776  1.00  0.00     0.002 C 
HETATM    8  C12 UNL     1      -2.084  49.284 -22.790  1.00  0.00     0.007 C 
HETATM    9  C11 UNL     1      -2.298  50.704 -23.336  1.00  0.00     0.002 C 
HETATM   10  C2  UNL     1      -3.180  50.774 -24.637  1.00  0.00    -0.016 C 
HETATM   11  C10 UNL     1      -2.753  51.689 -22.206  1.00  0.00    -0.004 C 
HETATM   12  C1  UNL     1      -2.877  52.105 -25.387  1.00  0.00     0.020 C 
HETATM   13  C3  UNL     1      -2.839  49.671 -25.692  1.00  0.00     0.022 C 
HETATM   14  C7  UNL     1      -4.641  50.712 -24.217  1.00  0.00    -0.068 C 
HETATM   15  C4  UNL     1      -3.583  48.349 -25.555  1.00  0.00     0.084 C 
HETATM   16  C5  UNL     1      -5.059  48.571 -25.379  1.00  0.00     0.149 C 
HETATM   17  O1  UNL     1      -5.899  47.777 -25.795  1.00  0.00    -0.293 OA
HETATM   18  C6  UNL     1      -5.492  49.737 -24.583  1.00  0.00     0.053 C 
HETATM   19  C8  UNL     1      -5.136  51.784 -23.279  1.00  0.00     0.035 C 
HETATM   20  C9  UNL     1      -4.055  52.480 -22.458  1.00  0.00     0.010 C 
HETATM   21  C17 UNL     1      -3.939  50.234 -20.375  1.00  0.00     0.009 C 
HETATM   22  C18 UNL     1      -3.388  49.131 -19.465  1.00  0.00     0.047 C 
BRANCH   3  23
HETATM   23  O2  UNL     1      -1.219  48.348 -18.855  1.00  0.00    -0.381 OA
HETATM   24  H27 UNL     1      -0.310  48.598 -18.614  1.00  0.00     0.211 HD
ENDBRANCH   3  23
ENDBRANCH   1   3
BRANCH   1  25
HETATM   25  C21 UNL     1      -1.035  50.152 -16.672  1.00  0.00     0.260 C 
BRANCH  25  26
HETATM   26  O4  UNL     1       0.357  50.210 -16.981  1.00  0.00    -0.314 OA
BRANCH  26  27
HETATM   27  C22 UNL     1       0.994  51.358 -16.619  1.00  0.00     0.259 C 
HETATM   28  O5  UNL     1       0.875  52.431 -17.190  1.00  0.00    -0.265 OA
BRANCH  27  29
HETATM   29  C23 UNL     1       1.989  51.108 -15.506  1.00  0.00     0.120 C 
BRANCH  29  30
HETATM   30  C24 UNL     1       1.765  51.958 -14.259  1.00  0.00     0.112 C 
BRANCH  30  31
HETATM   31  C25 UNL     1       2.769  51.639 -13.168  1.00  0.00     0.218 C 
HETATM   32  O6  UNL     1       3.601  50.745 -13.267  1.00  0.00    -0.274 OA
HETATM   33  N1  UNL     1       2.655  52.463 -12.072  1.00  0.00    -0.357 N 
HETATM   34  H34 UNL     1       1.861  53.086 -12.001  1.00  0.00     0.162 HD
BRANCH  33  35
HETATM   35  C26 UNL     1       3.446  52.255 -10.879  1.00  0.00     0.161 C 
BRANCH  35  36
HETATM   36  C27 UNL     1       3.502  53.514 -10.050  1.00  0.00    -0.040 A 
HETATM   37  C28 UNL     1       3.967  53.483  -8.727  1.00  0.00     0.010 A 
HETATM   38  C29 UNL     1       4.027  54.655  -7.968  1.00  0.00     0.019 A 
HETATM   39  C30 UNL     1       3.631  55.876  -8.526  1.00  0.00     0.037 A 
HETATM   40  C32 UNL     1       3.175  55.916  -9.848  1.00  0.00     0.019 A 
HETATM   41  C33 UNL     1       3.112  54.742 -10.605  1.00  0.00     0.010 A 
BRANCH  39  42
HETATM   42  C31 UNL     1       3.678  57.145  -7.760  1.00  0.00     0.176 C 
HETATM   43  O7  UNL     1       4.687  57.738  -7.423  1.00  0.00    -0.646 OA
BRANCH  42  44
HETATM   44  O8  UNL     1       2.456  57.617  -7.455  1.00  0.00    -0.773 OA
HETATM   45  H39 UNL     1       2.645  58.449  -6.969  1.00  0.00     0.167 HD
ENDBRANCH  42  44
ENDBRANCH  39  42
ENDBRANCH  35  36
ENDBRANCH  33  35
ENDBRANCH  30  31
ENDBRANCH  29  30
ENDBRANCH  27  29
ENDBRANCH  26  27
ENDBRANCH  25  26
ENDBRANCH   1  25
TORSDOF 12
ENDMDL
MODEL 9
REMARK minimizedAffinity -8.09201908
REMARK CNNscore 0.382786483
REMARK CNNaffinity 6.35083342
REMARK  12 active torsions:
REMARK  status: ('A' for Active; 'I' for Inactive)
REMARK    1  A    between atoms: C19_20  and  O2_21 
REMARK    2  A    between atoms: C19_20  and  C20_22 
REMARK    3  A    between atoms: C20_22  and  C21_24 
REMARK    4  A    between atoms: C21_24  and  O4_25 
REMARK    5  A    between atoms: O4_25  and  C22_26 
REMARK    6  A    between atoms: C22_26  and  C23_28 
REMARK    7  A    between atoms: C23_28  and  C24_29 
REMARK    8  A    between atoms: C24_29  and  C25_30 
REMARK       I    between atoms: C25_30  and  N1_32 
REMARK    9  A    between atoms: N1_32  and  C26_33 
REMARK   10  A    between atoms: C26_33  and  C27_34 
REMARK   11  A    between atoms: C30_37  and  C31_38 
REMARK   12  A    between atoms: C31_38  and  O8_40 
ROOT
HETATM    1  C20 UNL     1      -0.749  50.830 -18.109  1.00  0.00     0.185 C 
HETATM    2  O3  UNL     1       0.055  51.513 -18.756  1.00  0.00    -0.292 OA
ENDROOT
BRANCH   1   3
HETATM    3  C19 UNL     1      -1.698  49.799 -18.805  1.00  0.00     0.128 C 
HETATM    4  C14 UNL     1      -1.436  49.572 -20.336  1.00  0.00    -0.002 C 
HETATM    5  C13 UNL     1      -2.180  48.316 -20.881  1.00  0.00     0.013 C 
HETATM    6  C15 UNL     1       0.053  49.409 -20.686  1.00  0.00     0.019 C 
HETATM    7  C16 UNL     1      -2.003  50.878 -20.939  1.00  0.00     0.002 C 
HETATM    8  C12 UNL     1      -3.270  48.591 -21.915  1.00  0.00     0.007 C 
HETATM    9  C11 UNL     1      -2.824  49.535 -23.042  1.00  0.00     0.002 C 
HETATM   10  C2  UNL     1      -3.908  49.771 -24.158  1.00  0.00    -0.016 C 
HETATM   11  C10 UNL     1      -2.202  50.855 -22.471  1.00  0.00    -0.004 C 
HETATM   12  C1  UNL     1      -3.201  50.249 -25.461  1.00  0.00     0.020 C 
HETATM   13  C3  UNL     1      -4.655  48.470 -24.600  1.00  0.00     0.022 C 
HETATM   14  C7  UNL     1      -4.879  50.828 -23.653  1.00  0.00    -0.068 C 
HETATM   15  C4  UNL     1      -5.904  48.105 -23.809  1.00  0.00     0.084 C 
HETATM   16  C5  UNL     1      -6.814  49.290 -23.650  1.00  0.00     0.149 C 
HETATM   17  O1  UNL     1      -8.036  49.181 -23.586  1.00  0.00    -0.293 OA
HETATM   18  C6  UNL     1      -6.193  50.617 -23.460  1.00  0.00     0.053 C 
HETATM   19  C8  UNL     1      -4.306  52.175 -23.289  1.00  0.00     0.035 C 
HETATM   20  C9  UNL     1      -2.815  52.182 -22.967  1.00  0.00     0.010 C 
HETATM   21  C17 UNL     1      -3.247  51.209 -20.092  1.00  0.00     0.009 C 
HETATM   22  C18 UNL     1      -3.133  50.369 -18.816  1.00  0.00     0.047 C 
BRANCH   3  23
HETATM   23  O2  UNL     1      -1.742  48.580 -18.071  1.00  0.00    -0.381 OA
HETATM   24  H27 UNL     1      -0.839  48.220 -18.041  1.00  0.00     0.211 HD
ENDBRANCH   3  23
ENDBRANCH   1   3
BRANCH   1  25
HETATM   25  C21 UNL     1      -0.751  50.944 -16.581  1.00  0.00     0.260 C 
BRANCH  25  26
HETATM   26  O4  UNL     1      -2.044  51.033 -15.984  1.00  0.00    -0.314 OA
BRANCH  26  27
HETATM   27  C22 UNL     1      -2.141  50.556 -14.712  1.00  0.00     0.259 C 
HETATM   28  O5  UNL     1      -1.918  49.401 -14.382  1.00  0.00    -0.265 OA
BRANCH  27  29
HETATM   29  C23 UNL     1      -2.705  51.602 -13.774  1.00  0.00     0.120 C 
BRANCH  29  30
HETATM   30  C24 UNL     1      -3.284  51.039 -12.480  1.00  0.00     0.112 C 
BRANCH  30  31
HETATM   31  C25 UNL     1      -3.336  52.083 -11.381  1.00  0.00     0.218 C 
HETATM   32  O6  UNL     1      -4.091  52.001 -10.418  1.00  0.00    -0.274 OA
HETATM   33  N1  UNL     1      -2.444  53.112 -11.571  1.00  0.00    -0.357 N 
HETATM   34  H34 UNL     1      -1.953  53.185 -12.452  1.00  0.00     0.162 HD
BRANCH  33  35
HETATM   35  C26 UNL     1      -2.412  54.262 -10.694  1.00  0.00     0.161 C 
BRANCH  35  36
HETATM   36  C27 UNL     1      -0.995  54.590 -10.295  1.00  0.00    -0.040 A 
HETATM   37  C28 UNL     1       0.090  54.135 -11.058  1.00  0.00     0.010 A 
HETATM   38  C29 UNL     1       1.400  54.453 -10.689  1.00  0.00     0.019 A 
HETATM   39  C30 UNL     1       1.642  55.238  -9.556  1.00  0.00     0.037 A 
HETATM   40  C32 UNL     1       0.564  55.704  -8.796  1.00  0.00     0.019 A 
HETATM   41  C33 UNL     1      -0.746  55.382  -9.164  1.00  0.00     0.010 A 
BRANCH  39  42
HETATM   42  C31 UNL     1       3.014  55.601  -9.127  1.00  0.00     0.176 C 
HETATM   43  O7  UNL     1       3.692  54.995  -8.317  1.00  0.00    -0.646 OA
BRANCH  42  44
HETATM   44  O8  UNL     1       3.476  56.708  -9.736  1.00  0.00    -0.773 OA
HETATM   45  H39 UNL     1       4.380  56.814  -9.366  1.00  0.00     0.167 HD
ENDBRANCH  42  44
ENDBRANCH  39  42
ENDBRANCH  35  36
ENDBRANCH  33  35
ENDBRANCH  30  31
ENDBRANCH  29  30
ENDBRANCH  27  29
ENDBRANCH  26  27
ENDBRANCH  25  26
ENDBRANCH   1  25
TORSDOF 12
ENDMDL
