MODEL 1
REMARK minimizedAffinity -10.5763664
REMARK  9 active torsions:
REMARK  status: ('A' for Active; 'I' for Inactive)
REMARK    1  A    between atoms: C2_2  and  C3_3 
REMARK    2  A    between atoms: C2_2  and  C9_12 
REMARK    3  A    between atoms: C3_3  and  C4_4 
REMARK    4  A    between atoms: C4_4  and  C5_5 
REMARK    5  A    between atoms: C5_5  and  O1_6 
REMARK    6  A    between atoms: C5_5  and  C6_7 
REMARK    7  A    between atoms: C6_7  and  O2_9 
REMARK    8  A    between atoms: C6_7  and  C8_10 
REMARK    9  A    between atoms: C8_10  and  O3_11 
ROOT
HETATM    1  C9  UNL     1      -5.516  47.796 -22.781  1.00  0.00    -0.002 C 
HETATM    2  C10 UNL     1      -5.271  48.393 -21.363  1.00  0.00     0.007 C 
HETATM    3  C11 UNL     1      -4.149  49.438 -21.485  1.00  0.00     0.015 C 
HETATM    4  C12 UNL     1      -3.505  49.172 -22.857  1.00  0.00    -0.005 C 
HETATM    5  C13 UNL     1      -2.500  47.994 -22.666  1.00  0.00     0.021 C 
HETATM    6  C14 UNL     1      -2.693  50.254 -23.554  1.00  0.00    -0.000 C 
HETATM    7  C15 UNL     1      -2.623  50.355 -24.905  1.00  0.00    -0.060 C 
HETATM    8  C16 UNL     1      -3.407  49.349 -25.773  1.00  0.00     0.036 C 
HETATM    9  C17 UNL     1      -4.310  48.317 -25.062  1.00  0.00     0.015 C 
HETATM   10  C18 UNL     1      -4.794  48.828 -23.702  1.00  0.00    -0.028 C 
HETATM   11  C19 UNL     1      -5.729  50.057 -23.929  1.00  0.00     0.016 C 
HETATM   12  C20 UNL     1      -1.868  51.502 -25.658  1.00  0.00    -0.014 C 
HETATM   13  C21 UNL     1      -2.981  52.359 -26.330  1.00  0.00     0.020 C 
HETATM   14  C22 UNL     1      -0.953  50.940 -26.785  1.00  0.00     0.021 C 
HETATM   15  C23 UNL     1       0.478  50.704 -26.337  1.00  0.00     0.080 C 
HETATM   16  C24 UNL     1       1.132  52.014 -25.966  1.00  0.00     0.135 C 
HETATM   17  O4  UNL     1       2.340  52.175 -26.148  1.00  0.00    -0.297 OA
HETATM   18  C25 UNL     1       0.248  53.112 -25.356  1.00  0.00     0.018 C 
HETATM   19  C26 UNL     1      -0.092  54.126 -26.466  1.00  0.00     0.023 C 
HETATM   20  C27 UNL     1       1.092  53.886 -24.315  1.00  0.00     0.023 C 
HETATM   21  C28 UNL     1      -1.038  52.467 -24.702  1.00  0.00     0.020 C 
HETATM   22  C29 UNL     1      -0.677  51.785 -23.375  1.00  0.00     0.090 C 
HETATM   23  C30 UNL     1      -1.880  51.176 -22.724  1.00  0.00     0.157 C 
HETATM   24  O5  UNL     1      -2.121  51.373 -21.537  1.00  0.00    -0.293 OA
ENDROOT
BRANCH   1  25
HETATM   25  C2  UNL     1      -7.021  47.452 -23.014  1.00  0.00    -0.014 C 
HETATM   26  C1  UNL     1      -7.935  48.135 -21.991  1.00  0.00     0.010 C 
BRANCH  25  27
HETATM   27  C3  UNL     1      -7.445  47.855 -24.457  1.00  0.00     0.007 C 
BRANCH  27  28
HETATM   28  C4  UNL     1      -8.929  48.238 -24.583  1.00  0.00     0.035 C 
BRANCH  28  29
HETATM   29  C5  UNL     1      -9.374  48.706 -25.981  1.00  0.00     0.154 C 
BRANCH  29  30
HETATM   30  O1  UNL     1      -9.522  50.133 -25.943  1.00  0.00    -0.392 OA
HETATM   31  H10 UNL     1     -10.449  50.285 -25.667  1.00  0.00     0.210 HD
ENDBRANCH  29  30
BRANCH  29  32
HETATM   32  C6  UNL     1     -10.668  48.076 -26.567  1.00  0.00     0.101 C 
HETATM   33  C7  UNL     1     -10.392  47.508 -27.969  1.00  0.00     0.051 C 
BRANCH  32  34
HETATM   34  O2  UNL     1     -11.650  49.116 -26.746  1.00  0.00    -0.385 OA
HETATM   35  H14 UNL     1     -12.487  48.640 -26.931  1.00  0.00     0.210 HD
ENDBRANCH  32  34
BRANCH  32  36
HETATM   36  C8  UNL     1     -11.265  46.990 -25.651  1.00  0.00     0.204 C 
BRANCH  36  37
HETATM   37  O3  UNL     1     -12.530  47.435 -25.148  1.00  0.00    -0.398 OA
HETATM   38  H17 UNL     1     -12.885  46.716 -24.596  1.00  0.00     0.209 HD
ENDBRANCH  36  37
ENDBRANCH  32  36
ENDBRANCH  29  32
ENDBRANCH  28  29
ENDBRANCH  27  28
ENDBRANCH  25  27
ENDBRANCH   1  25
TORSDOF 9
ENDMDL
MODEL 2
REMARK minimizedAffinity -9.99548531
REMARK  9 active torsions:
REMARK  status: ('A' for Active; 'I' for Inactive)
REMARK    1  A    between atoms: C2_2  and  C3_3 
REMARK    2  A    between atoms: C2_2  and  C9_12 
REMARK    3  A    between atoms: C3_3  and  C4_4 
REMARK    4  A    between atoms: C4_4  and  C5_5 
REMARK    5  A    between atoms: C5_5  and  O1_6 
REMARK    6  A    between atoms: C5_5  and  C6_7 
REMARK    7  A    between atoms: C6_7  and  O2_9 
REMARK    8  A    between atoms: C6_7  and  C8_10 
REMARK    9  A    between atoms: C8_10  and  O3_11 
ROOT
HETATM    1  C9  UNL     1      -0.959  51.879 -21.380  1.00  0.00    -0.002 C 
HETATM    2  C10 UNL     1      -0.297  50.688 -20.626  1.00  0.00     0.007 C 
HETATM    3  C11 UNL     1      -1.276  49.502 -20.676  1.00  0.00     0.015 C 
HETATM    4  C12 UNL     1      -2.619  50.113 -21.112  1.00  0.00    -0.005 C 
HETATM    5  C13 UNL     1      -3.282  50.712 -19.832  1.00  0.00     0.021 C 
HETATM    6  C14 UNL     1      -3.704  49.240 -21.727  1.00  0.00    -0.000 C 
HETATM    7  C15 UNL     1      -4.585  49.713 -22.643  1.00  0.00    -0.060 C 
HETATM    8  C16 UNL     1      -4.479  51.184 -23.096  1.00  0.00     0.036 C 
HETATM    9  C17 UNL     1      -3.315  52.037 -22.545  1.00  0.00     0.015 C 
HETATM   10  C18 UNL     1      -2.110  51.174 -22.165  1.00  0.00    -0.028 C 
HETATM   11  C19 UNL     1      -1.525  50.525 -23.459  1.00  0.00     0.016 C 
HETATM   12  C20 UNL     1      -5.660  48.827 -23.360  1.00  0.00    -0.014 C 
HETATM   13  C21 UNL     1      -5.201  48.741 -24.846  1.00  0.00     0.020 C 
HETATM   14  C22 UNL     1      -7.064  49.498 -23.333  1.00  0.00     0.021 C 
HETATM   15  C23 UNL     1      -7.920  49.055 -22.161  1.00  0.00     0.080 C 
HETATM   16  C24 UNL     1      -8.231  47.581 -22.269  1.00  0.00     0.135 C 
HETATM   17  O4  UNL     1      -9.301  47.141 -21.845  1.00  0.00    -0.297 OA
HETATM   18  C25 UNL     1      -7.175  46.668 -22.910  1.00  0.00     0.018 C 
HETATM   19  C26 UNL     1      -7.597  46.393 -24.366  1.00  0.00     0.023 C 
HETATM   20  C27 UNL     1      -7.219  45.299 -22.187  1.00  0.00     0.023 C 
HETATM   21  C28 UNL     1      -5.747  47.338 -22.804  1.00  0.00     0.020 C 
HETATM   22  C29 UNL     1      -5.213  47.232 -21.368  1.00  0.00     0.090 C 
HETATM   23  C30 UNL     1      -3.854  47.848 -21.239  1.00  0.00     0.157 C 
HETATM   24  O5  UNL     1      -2.941  47.247 -20.680  1.00  0.00    -0.293 OA
ENDROOT
BRANCH   1  25
HETATM   25  C2  UNL     1       0.095  52.744 -22.139  1.00  0.00    -0.014 C 
HETATM   26  C1  UNL     1       1.433  52.808 -21.395  1.00  0.00     0.010 C 
BRANCH  25  27
HETATM   27  C3  UNL     1       0.312  52.185 -23.576  1.00  0.00     0.007 C 
BRANCH  27  28
HETATM   28  C4  UNL     1       0.766  53.247 -24.591  1.00  0.00     0.035 C 
BRANCH  28  29
HETATM   29  C5  UNL     1       0.346  52.987 -26.051  1.00  0.00     0.154 C 
BRANCH  29  30
HETATM   30  O1  UNL     1      -1.084  52.865 -26.084  1.00  0.00    -0.392 OA
HETATM   31  H10 UNL     1      -1.261  51.914 -25.932  1.00  0.00     0.210 HD
ENDBRANCH  29  30
BRANCH  29  32
HETATM   32  C6  UNL     1       0.978  51.763 -26.769  1.00  0.00     0.101 C 
HETATM   33  C7  UNL     1       0.965  51.978 -28.292  1.00  0.00     0.051 C 
BRANCH  32  34
HETATM   34  O2  UNL     1       0.154  50.606 -26.524  1.00  0.00    -0.385 OA
HETATM   35  H14 UNL     1       0.692  49.847 -26.833  1.00  0.00     0.210 HD
ENDBRANCH  32  34
BRANCH  32  36
HETATM   36  C8  UNL     1       2.407  51.461 -26.277  1.00  0.00     0.204 C 
BRANCH  36  37
HETATM   37  O3  UNL     1       3.305  51.469 -27.392  1.00  0.00    -0.398 OA
HETATM   38  H17 UNL     1       4.197  51.298 -27.040  1.00  0.00     0.209 HD
ENDBRANCH  36  37
ENDBRANCH  32  36
ENDBRANCH  29  32
ENDBRANCH  28  29
ENDBRANCH  27  28
ENDBRANCH  25  27
ENDBRANCH   1  25
TORSDOF 9
ENDMDL
MODEL 3
REMARK minimizedAffinity -9.88153172
REMARK  9 active torsions:
REMARK  status: ('A' for Active; 'I' for Inactive)
REMARK    1  A    between atoms: C2_2  and  C3_3 
REMARK    2  A    between atoms: C2_2  and  C9_12 
REMARK    3  A    between atoms: C3_3  and  C4_4 
REMARK    4  A    between atoms: C4_4  and  C5_5 
REMARK    5  A    between atoms: C5_5  and  O1_6 
REMARK    6  A    between atoms: C5_5  and  C6_7 
REMARK    7  A    between atoms: C6_7  and  O2_9 
REMARK    8  A    between atoms: C6_7  and  C8_10 
REMARK    9  A    between atoms: C8_10  and  O3_11 
ROOT
HETATM    1  C9  UNL     1      -0.478  52.567 -21.698  1.00  0.00    -0.002 C 
HETATM    2  C10 UNL     1       0.959  53.163 -21.622  1.00  0.00     0.007 C 
HETATM    3  C11 UNL     1       1.463  52.984 -20.180  1.00  0.00     0.015 C 
HETATM    4  C12 UNL     1       0.207  52.645 -19.359  1.00  0.00    -0.005 C 
HETATM    5  C13 UNL     1      -0.501  53.997 -19.032  1.00  0.00     0.021 C 
HETATM    6  C14 UNL     1       0.326  51.945 -18.013  1.00  0.00    -0.000 C 
HETATM    7  C15 UNL     1      -0.629  51.105 -17.542  1.00  0.00    -0.060 C 
HETATM    8  C16 UNL     1      -1.878  50.831 -18.405  1.00  0.00     0.036 C 
HETATM    9  C17 UNL     1      -1.948  51.464 -19.813  1.00  0.00     0.015 C 
HETATM   10  C18 UNL     1      -0.553  51.720 -20.389  1.00  0.00    -0.028 C 
HETATM   11  C19 UNL     1       0.155  50.349 -20.625  1.00  0.00     0.016 C 
HETATM   12  C20 UNL     1      -0.503  50.302 -16.203  1.00  0.00    -0.014 C 
HETATM   13  C21 UNL     1      -0.360  48.810 -16.627  1.00  0.00     0.020 C 
HETATM   14  C22 UNL     1      -1.791  50.430 -15.338  1.00  0.00     0.021 C 
HETATM   15  C23 UNL     1      -1.722  51.552 -14.318  1.00  0.00     0.080 C 
HETATM   16  C24 UNL     1      -0.637  51.271 -13.305  1.00  0.00     0.135 C 
HETATM   17  O4  UNL     1      -0.763  51.655 -12.141  1.00  0.00    -0.297 OA
HETATM   18  C25 UNL     1       0.610  50.510 -13.779  1.00  0.00     0.018 C 
HETATM   19  C26 UNL     1       0.466  49.038 -13.348  1.00  0.00     0.023 C 
HETATM   20  C27 UNL     1       1.834  51.063 -13.008  1.00  0.00     0.023 C 
HETATM   21  C28 UNL     1       0.782  50.676 -15.341  1.00  0.00     0.020 C 
HETATM   22  C29 UNL     1       1.304  52.081 -15.675  1.00  0.00     0.090 C 
HETATM   23  C30 UNL     1       1.490  52.263 -17.149  1.00  0.00     0.157 C 
HETATM   24  O5  UNL     1       2.531  52.732 -17.600  1.00  0.00    -0.293 OA
ENDROOT
BRANCH   1  25
HETATM   25  C2  UNL     1      -0.759  51.903 -23.082  1.00  0.00    -0.014 C 
HETATM   26  C1  UNL     1      -2.079  52.383 -23.695  1.00  0.00     0.010 C 
BRANCH  25  27
HETATM   27  C3  UNL     1       0.417  52.189 -24.062  1.00  0.00     0.007 C 
BRANCH  27  28
HETATM   28  C4  UNL     1       0.192  53.418 -24.958  1.00  0.00     0.035 C 
BRANCH  28  29
HETATM   29  C5  UNL     1       0.237  53.146 -26.475  1.00  0.00     0.154 C 
BRANCH  29  30
HETATM   30  O1  UNL     1      -1.108  53.201 -26.973  1.00  0.00    -0.392 OA
HETATM   31  H10 UNL     1      -1.449  52.287 -26.885  1.00  0.00     0.210 HD
ENDBRANCH  29  30
BRANCH  29  32
HETATM   32  C6  UNL     1       0.900  51.822 -26.944  1.00  0.00     0.101 C 
HETATM   33  C7  UNL     1       0.959  51.775 -28.480  1.00  0.00     0.051 C 
BRANCH  32  34
HETATM   34  O2  UNL     1       0.063  50.718 -26.544  1.00  0.00    -0.385 OA
HETATM   35  H14 UNL     1       0.614  49.921 -26.694  1.00  0.00     0.210 HD
ENDBRANCH  32  34
BRANCH  32  36
HETATM   36  C8  UNL     1       2.303  51.617 -26.342  1.00  0.00     0.204 C 
BRANCH  36  37
HETATM   37  O3  UNL     1       3.259  51.479 -27.399  1.00  0.00    -0.398 OA
HETATM   38  H17 UNL     1       4.132  51.376 -26.981  1.00  0.00     0.209 HD
ENDBRANCH  36  37
ENDBRANCH  32  36
ENDBRANCH  29  32
ENDBRANCH  28  29
ENDBRANCH  27  28
ENDBRANCH  25  27
ENDBRANCH   1  25
TORSDOF 9
ENDMDL
MODEL 4
REMARK minimizedAffinity -9.12309456
REMARK  9 active torsions:
REMARK  status: ('A' for Active; 'I' for Inactive)
REMARK    1  A    between atoms: C2_2  and  C3_3 
REMARK    2  A    between atoms: C2_2  and  C9_12 
REMARK    3  A    between atoms: C3_3  and  C4_4 
REMARK    4  A    between atoms: C4_4  and  C5_5 
REMARK    5  A    between atoms: C5_5  and  O1_6 
REMARK    6  A    between atoms: C5_5  and  C6_7 
REMARK    7  A    between atoms: C6_7  and  O2_9 
REMARK    8  A    between atoms: C6_7  and  C8_10 
REMARK    9  A    between atoms: C8_10  and  O3_11 
ROOT
HETATM    1  C9  UNL     1      -1.615  51.206 -23.342  1.00  0.00    -0.002 C 
HETATM    2  C10 UNL     1      -2.763  52.031 -23.993  1.00  0.00     0.007 C 
HETATM    3  C11 UNL     1      -4.089  51.320 -23.673  1.00  0.00     0.015 C 
HETATM    4  C12 UNL     1      -3.680  49.921 -23.180  1.00  0.00    -0.005 C 
HETATM    5  C13 UNL     1      -3.424  49.049 -24.449  1.00  0.00     0.021 C 
HETATM    6  C14 UNL     1      -4.633  49.089 -22.334  1.00  0.00    -0.000 C 
HETATM    7  C15 UNL     1      -4.197  48.207 -21.400  1.00  0.00    -0.060 C 
HETATM    8  C16 UNL     1      -2.680  48.051 -21.168  1.00  0.00     0.036 C 
HETATM    9  C17 UNL     1      -1.720  48.969 -21.957  1.00  0.00     0.015 C 
HETATM   10  C18 UNL     1      -2.391  50.289 -22.345  1.00  0.00    -0.028 C 
HETATM   11  C19 UNL     1      -2.707  51.096 -21.047  1.00  0.00     0.016 C 
HETATM   12  C20 UNL     1      -5.146  47.396 -20.453  1.00  0.00    -0.014 C 
HETATM   13  C21 UNL     1      -4.910  47.982 -19.030  1.00  0.00     0.020 C 
HETATM   14  C22 UNL     1      -4.763  45.888 -20.417  1.00  0.00     0.021 C 
HETATM   15  C23 UNL     1      -5.537  45.046 -21.415  1.00  0.00     0.080 C 
HETATM   16  C24 UNL     1      -7.008  45.050 -21.071  1.00  0.00     0.135 C 
HETATM   17  O4  UNL     1      -7.701  44.060 -21.311  1.00  0.00    -0.297 OA
HETATM   18  C25 UNL     1      -7.594  46.317 -20.432  1.00  0.00     0.018 C 
HETATM   19  C26 UNL     1      -7.712  46.078 -18.914  1.00  0.00     0.023 C 
HETATM   20  C27 UNL     1      -9.043  46.492 -20.950  1.00  0.00     0.023 C 
HETATM   21  C28 UNL     1      -6.693  47.566 -20.787  1.00  0.00     0.020 C 
HETATM   22  C29 UNL     1      -6.920  47.992 -22.244  1.00  0.00     0.090 C 
HETATM   23  C30 UNL     1      -6.089  49.183 -22.606  1.00  0.00     0.157 C 
HETATM   24  O5  UNL     1      -6.587  50.150 -23.174  1.00  0.00    -0.293 OA
ENDROOT
BRANCH   1  25
HETATM   25  C2  UNL     1      -0.458  52.122 -22.831  1.00  0.00    -0.014 C 
HETATM   26  C1  UNL     1       0.166  51.595 -21.535  1.00  0.00     0.010 C 
BRANCH  25  27
HETATM   27  C3  UNL     1       0.637  52.265 -23.928  1.00  0.00     0.007 C 
BRANCH  27  28
HETATM   28  C4  UNL     1       0.439  53.482 -24.846  1.00  0.00     0.035 C 
BRANCH  28  29
HETATM   29  C5  UNL     1       0.332  53.165 -26.350  1.00  0.00     0.154 C 
BRANCH  29  30
HETATM   30  O1  UNL     1      -1.050  53.267 -26.726  1.00  0.00    -0.392 OA
HETATM   31  H10 UNL     1      -1.420  52.373 -26.577  1.00  0.00     0.210 HD
ENDBRANCH  29  30
BRANCH  29  32
HETATM   32  C6  UNL     1       0.891  51.798 -26.834  1.00  0.00     0.101 C 
HETATM   33  C7  UNL     1       0.875  51.733 -28.370  1.00  0.00     0.051 C 
BRANCH  32  34
HETATM   34  O2  UNL     1       0.008  50.751 -26.382  1.00  0.00    -0.385 OA
HETATM   35  H14 UNL     1       0.502  49.921 -26.548  1.00  0.00     0.210 HD
ENDBRANCH  32  34
BRANCH  32  36
HETATM   36  C8  UNL     1       2.306  51.513 -26.294  1.00  0.00     0.204 C 
BRANCH  36  37
HETATM   37  O3  UNL     1       3.244  51.557 -27.375  1.00  0.00    -0.398 OA
HETATM   38  H17 UNL     1       4.125  51.397 -26.993  1.00  0.00     0.209 HD
ENDBRANCH  36  37
ENDBRANCH  32  36
ENDBRANCH  29  32
ENDBRANCH  28  29
ENDBRANCH  27  28
ENDBRANCH  25  27
ENDBRANCH   1  25
TORSDOF 9
ENDMDL
MODEL 5
REMARK minimizedAffinity -9.02450752
REMARK  9 active torsions:
REMARK  status: ('A' for Active; 'I' for Inactive)
REMARK    1  A    between atoms: C2_2  and  C3_3 
REMARK    2  A    between atoms: C2_2  and  C9_12 
REMARK    3  A    between atoms: C3_3  and  C4_4 
REMARK    4  A    between atoms: C4_4  and  C5_5 
REMARK    5  A    between atoms: C5_5  and  O1_6 
REMARK    6  A    between atoms: C5_5  and  C6_7 
REMARK    7  A    between atoms: C6_7  and  O2_9 
REMARK    8  A    between atoms: C6_7  and  C8_10 
REMARK    9  A    between atoms: C8_10  and  O3_11 
ROOT
HETATM    1  C9  UNL     1      -1.219  51.434 -22.708  1.00  0.00    -0.002 C 
HETATM    2  C10 UNL     1      -2.559  52.123 -23.102  1.00  0.00     0.007 C 
HETATM    3  C11 UNL     1      -3.696  51.378 -22.381  1.00  0.00     0.015 C 
HETATM    4  C12 UNL     1      -3.063  50.063 -21.894  1.00  0.00    -0.005 C 
HETATM    5  C13 UNL     1      -3.074  49.078 -23.105  1.00  0.00     0.021 C 
HETATM    6  C14 UNL     1      -3.696  49.273 -20.758  1.00  0.00    -0.000 C 
HETATM    7  C15 UNL     1      -2.965  48.520 -19.899  1.00  0.00    -0.060 C 
HETATM    8  C16 UNL     1      -1.432  48.472 -20.064  1.00  0.00     0.036 C 
HETATM    9  C17 UNL     1      -0.785  49.353 -21.155  1.00  0.00     0.015 C 
HETATM   10  C18 UNL     1      -1.637  50.587 -21.466  1.00  0.00    -0.028 C 
HETATM   11  C19 UNL     1      -1.671  51.507 -20.205  1.00  0.00     0.016 C 
HETATM   12  C20 UNL     1      -3.569  47.762 -18.668  1.00  0.00    -0.014 C 
HETATM   13  C21 UNL     1      -3.023  48.507 -17.415  1.00  0.00     0.020 C 
HETATM   14  C22 UNL     1      -3.070  46.289 -18.604  1.00  0.00     0.021 C 
HETATM   15  C23 UNL     1      -4.005  45.307 -19.284  1.00  0.00     0.080 C 
HETATM   16  C24 UNL     1      -5.333  45.265 -18.565  1.00  0.00     0.135 C 
HETATM   17  O4  UNL     1      -5.983  44.219 -18.526  1.00  0.00    -0.297 OA
HETATM   18  C25 UNL     1      -5.835  46.559 -17.906  1.00  0.00     0.018 C 
HETATM   19  C26 UNL     1      -5.537  46.475 -16.397  1.00  0.00     0.023 C 
HETATM   20  C27 UNL     1      -7.377  46.599 -18.037  1.00  0.00     0.023 C 
HETATM   21  C28 UNL     1      -5.159  47.811 -18.594  1.00  0.00     0.020 C 
HETATM   22  C29 UNL     1      -5.787  48.069 -19.971  1.00  0.00     0.090 C 
HETATM   23  C30 UNL     1      -5.175  49.259 -20.642  1.00  0.00     0.157 C 
HETATM   24  O5  UNL     1      -5.879  50.133 -21.141  1.00  0.00    -0.293 OA
ENDROOT
BRANCH   1  25
HETATM   25  C2  UNL     1      -0.048  52.461 -22.602  1.00  0.00    -0.014 C 
HETATM   26  C1  UNL     1       1.029  52.009 -21.610  1.00  0.00     0.010 C 
BRANCH  25  27
HETATM   27  C3  UNL     1       0.587  52.695 -24.004  1.00  0.00     0.007 C 
BRANCH  27  28
HETATM   28  C4  UNL     1      -0.180  53.708 -24.870  1.00  0.00     0.035 C 
BRANCH  28  29
HETATM   29  C5  UNL     1       0.226  53.748 -26.356  1.00  0.00     0.154 C 
BRANCH  29  30
HETATM   30  O1  UNL     1       0.134  55.109 -26.802  1.00  0.00    -0.392 OA
HETATM   31  H10 UNL     1      -0.787  55.212 -27.117  1.00  0.00     0.210 HD
ENDBRANCH  29  30
BRANCH  29  32
HETATM   32  C6  UNL     1      -0.563  52.837 -27.337  1.00  0.00     0.101 C 
HETATM   33  C7  UNL     1       0.393  51.846 -28.023  1.00  0.00     0.051 C 
BRANCH  32  34
HETATM   34  O2  UNL     1      -1.111  53.655 -28.391  1.00  0.00    -0.385 OA
HETATM   35  H14 UNL     1      -1.741  53.069 -28.859  1.00  0.00     0.210 HD
ENDBRANCH  32  34
BRANCH  32  36
HETATM   36  C8  UNL     1      -1.719  52.087 -26.648  1.00  0.00     0.204 C 
BRANCH  36  37
HETATM   37  O3  UNL     1      -2.879  52.925 -26.619  1.00  0.00    -0.398 OA
HETATM   38  H17 UNL     1      -3.592  52.410 -26.200  1.00  0.00     0.209 HD
ENDBRANCH  36  37
ENDBRANCH  32  36
ENDBRANCH  29  32
ENDBRANCH  28  29
ENDBRANCH  27  28
ENDBRANCH  25  27
ENDBRANCH   1  25
TORSDOF 9
ENDMDL
MODEL 6
REMARK minimizedAffinity -8.98863792
REMARK  9 active torsions:
REMARK  status: ('A' for Active; 'I' for Inactive)
REMARK    1  A    between atoms: C2_2  and  C3_3 
REMARK    2  A    between atoms: C2_2  and  C9_12 
REMARK    3  A    between atoms: C3_3  and  C4_4 
REMARK    4  A    between atoms: C4_4  and  C5_5 
REMARK    5  A    between atoms: C5_5  and  O1_6 
REMARK    6  A    between atoms: C5_5  and  C6_7 
REMARK    7  A    between atoms: C6_7  and  O2_9 
REMARK    8  A    between atoms: C6_7  and  C8_10 
REMARK    9  A    between atoms: C8_10  and  O3_11 
ROOT
HETATM    1  C9  UNL     1      -1.145  51.659 -21.474  1.00  0.00    -0.002 C 
HETATM    2  C10 UNL     1      -0.401  50.493 -20.759  1.00  0.00     0.007 C 
HETATM    3  C11 UNL     1      -1.350  49.283 -20.731  1.00  0.00     0.015 C 
HETATM    4  C12 UNL     1      -2.735  49.855 -21.076  1.00  0.00    -0.005 C 
HETATM    5  C13 UNL     1      -3.322  50.449 -19.757  1.00  0.00     0.021 C 
HETATM    6  C14 UNL     1      -3.837  48.950 -21.606  1.00  0.00    -0.000 C 
HETATM    7  C15 UNL     1      -4.793  49.390 -22.463  1.00  0.00    -0.060 C 
HETATM    8  C16 UNL     1      -4.757  50.859 -22.934  1.00  0.00     0.036 C 
HETATM    9  C17 UNL     1      -3.580  51.747 -22.472  1.00  0.00     0.015 C 
HETATM   10  C18 UNL     1      -2.328  50.918 -22.171  1.00  0.00    -0.028 C 
HETATM   11  C19 UNL     1      -1.819  50.272 -23.498  1.00  0.00     0.016 C 
HETATM   12  C20 UNL     1      -5.891  48.471 -23.095  1.00  0.00    -0.014 C 
HETATM   13  C21 UNL     1      -5.535  48.382 -24.608  1.00  0.00     0.020 C 
HETATM   14  C22 UNL     1      -7.307  49.107 -22.975  1.00  0.00     0.021 C 
HETATM   15  C23 UNL     1      -8.067  48.653 -21.742  1.00  0.00     0.080 C 
HETATM   16  C24 UNL     1      -8.347  47.170 -21.817  1.00  0.00     0.135 C 
HETATM   17  O4  UNL     1      -9.373  46.708 -21.314  1.00  0.00    -0.297 OA
HETATM   18  C25 UNL     1      -7.315  46.278 -22.523  1.00  0.00     0.018 C 
HETATM   19  C26 UNL     1      -7.831  45.979 -23.943  1.00  0.00     0.023 C 
HETATM   20  C27 UNL     1      -7.273  44.917 -21.788  1.00  0.00     0.023 C 
HETATM   21  C28 UNL     1      -5.901  46.986 -22.522  1.00  0.00     0.020 C 
HETATM   22  C29 UNL     1      -5.265  46.908 -21.127  1.00  0.00     0.090 C 
HETATM   23  C30 UNL     1      -3.917  47.558 -21.098  1.00  0.00     0.157 C 
HETATM   24  O5  UNL     1      -2.952  46.987 -20.600  1.00  0.00    -0.293 OA
ENDROOT
BRANCH   1  25
HETATM   25  C2  UNL     1      -0.169  52.544 -22.312  1.00  0.00    -0.014 C 
HETATM   26  C1  UNL     1       1.251  51.970 -22.339  1.00  0.00     0.010 C 
BRANCH  25  27
HETATM   27  C3  UNL     1      -0.705  52.704 -23.765  1.00  0.00     0.007 C 
BRANCH  27  28
HETATM   28  C4  UNL     1       0.366  52.493 -24.848  1.00  0.00     0.035 C 
BRANCH  28  29
HETATM   29  C5  UNL     1       0.248  53.408 -26.082  1.00  0.00     0.154 C 
BRANCH  29  30
HETATM   30  O1  UNL     1      -0.453  54.596 -25.685  1.00  0.00    -0.392 OA
HETATM   31  H10 UNL     1      -1.400  54.391 -25.827  1.00  0.00     0.210 HD
ENDBRANCH  29  30
BRANCH  29  32
HETATM   32  C6  UNL     1      -0.429  52.816 -27.348  1.00  0.00     0.101 C 
HETATM   33  C7  UNL     1       0.546  51.879 -28.081  1.00  0.00     0.051 C 
BRANCH  32  34
HETATM   34  O2  UNL     1      -0.715  53.890 -28.267  1.00  0.00    -0.385 OA
HETATM   35  H14 UNL     1      -1.300  53.490 -28.943  1.00  0.00     0.210 HD
ENDBRANCH  32  34
BRANCH  32  36
HETATM   36  C8  UNL     1      -1.747  52.083 -27.027  1.00  0.00     0.204 C 
BRANCH  36  37
HETATM   37  O3  UNL     1      -2.640  52.982 -26.361  1.00  0.00    -0.398 OA
HETATM   38  H17 UNL     1      -3.466  52.492 -26.197  1.00  0.00     0.209 HD
ENDBRANCH  36  37
ENDBRANCH  32  36
ENDBRANCH  29  32
ENDBRANCH  28  29
ENDBRANCH  27  28
ENDBRANCH  25  27
ENDBRANCH   1  25
TORSDOF 9
ENDMDL
MODEL 7
REMARK minimizedAffinity -8.96187305
REMARK  9 active torsions:
REMARK  status: ('A' for Active; 'I' for Inactive)
REMARK    1  A    between atoms: C2_2  and  C3_3 
REMARK    2  A    between atoms: C2_2  and  C9_12 
REMARK    3  A    between atoms: C3_3  and  C4_4 
REMARK    4  A    between atoms: C4_4  and  C5_5 
REMARK    5  A    between atoms: C5_5  and  O1_6 
REMARK    6  A    between atoms: C5_5  and  C6_7 
REMARK    7  A    between atoms: C6_7  and  O2_9 
REMARK    8  A    between atoms: C6_7  and  C8_10 
REMARK    9  A    between atoms: C8_10  and  O3_11 
ROOT
HETATM    1  C9  UNL     1      -1.177  50.637 -22.575  1.00  0.00    -0.002 C 
HETATM    2  C10 UNL     1      -1.456  50.222 -24.050  1.00  0.00     0.007 C 
HETATM    3  C11 UNL     1      -2.776  49.432 -24.070  1.00  0.00     0.015 C 
HETATM    4  C12 UNL     1      -3.048  49.074 -22.599  1.00  0.00    -0.005 C 
HETATM    5  C13 UNL     1      -2.198  47.805 -22.276  1.00  0.00     0.021 C 
HETATM    6  C14 UNL     1      -4.452  48.716 -22.136  1.00  0.00    -0.000 C 
HETATM    7  C15 UNL     1      -4.895  48.981 -20.881  1.00  0.00    -0.060 C 
HETATM    8  C16 UNL     1      -3.949  49.686 -19.887  1.00  0.00     0.036 C 
HETATM    9  C17 UNL     1      -2.560  50.137 -20.391  1.00  0.00     0.015 C 
HETATM   10  C18 UNL     1      -2.564  50.404 -21.899  1.00  0.00    -0.028 C 
HETATM   11  C19 UNL     1      -3.490  51.626 -22.193  1.00  0.00     0.016 C 
HETATM   12  C20 UNL     1      -6.357  48.706 -20.393  1.00  0.00    -0.014 C 
HETATM   13  C21 UNL     1      -6.995  50.111 -20.185  1.00  0.00     0.020 C 
HETATM   14  C22 UNL     1      -6.373  47.967 -19.023  1.00  0.00     0.021 C 
HETATM   15  C23 UNL     1      -6.456  46.457 -19.155  1.00  0.00     0.080 C 
HETATM   16  C24 UNL     1      -7.767  46.060 -19.791  1.00  0.00     0.135 C 
HETATM   17  O4  UNL     1      -8.308  44.996 -19.481  1.00  0.00    -0.297 OA
HETATM   18  C25 UNL     1      -8.383  47.012 -20.826  1.00  0.00     0.018 C 
HETATM   19  C26 UNL     1      -9.495  47.823 -20.132  1.00  0.00     0.023 C 
HETATM   20  C27 UNL     1      -9.089  46.158 -21.907  1.00  0.00     0.023 C 
HETATM   21  C28 UNL     1      -7.257  47.929 -21.452  1.00  0.00     0.020 C 
HETATM   22  C29 UNL     1      -6.405  47.127 -22.446  1.00  0.00     0.090 C 
HETATM   23  C30 UNL     1      -5.338  47.973 -23.065  1.00  0.00     0.157 C 
HETATM   24  O5  UNL     1      -5.163  47.977 -24.280  1.00  0.00    -0.293 OA
ENDROOT
BRANCH   1  25
HETATM   25  C2  UNL     1      -0.483  52.033 -22.486  1.00  0.00    -0.014 C 
HETATM   26  C1  UNL     1       0.484  52.122 -21.301  1.00  0.00     0.010 C 
BRANCH  25  27
HETATM   27  C3  UNL     1       0.272  52.341 -23.813  1.00  0.00     0.007 C 
BRANCH  27  28
HETATM   28  C4  UNL     1      -0.494  53.282 -24.757  1.00  0.00     0.035 C 
BRANCH  28  29
HETATM   29  C5  UNL     1       0.163  53.518 -26.131  1.00  0.00     0.154 C 
BRANCH  29  30
HETATM   30  O1  UNL     1       0.181  54.932 -26.374  1.00  0.00    -0.392 OA
HETATM   31  H10 UNL     1      -0.669  55.123 -26.820  1.00  0.00     0.210 HD
ENDBRANCH  29  30
BRANCH  29  32
HETATM   32  C6  UNL     1      -0.464  52.798 -27.356  1.00  0.00     0.101 C 
HETATM   33  C7  UNL     1       0.565  51.854 -28.000  1.00  0.00     0.051 C 
BRANCH  32  34
HETATM   34  O2  UNL     1      -0.783  53.784 -28.359  1.00  0.00    -0.385 OA
HETATM   35  H14 UNL     1      -1.337  53.306 -29.011  1.00  0.00     0.210 HD
ENDBRANCH  32  34
BRANCH  32  36
HETATM   36  C8  UNL     1      -1.752  52.031 -26.997  1.00  0.00     0.204 C 
BRANCH  36  37
HETATM   37  O3  UNL     1      -2.867  52.929 -27.036  1.00  0.00    -0.398 OA
HETATM   38  H17 UNL     1      -3.661  52.406 -26.828  1.00  0.00     0.209 HD
ENDBRANCH  36  37
ENDBRANCH  32  36
ENDBRANCH  29  32
ENDBRANCH  28  29
ENDBRANCH  27  28
ENDBRANCH  25  27
ENDBRANCH   1  25
TORSDOF 9
ENDMDL
MODEL 8
REMARK minimizedAffinity -8.93594837
REMARK  9 active torsions:
REMARK  status: ('A' for Active; 'I' for Inactive)
REMARK    1  A    between atoms: C2_2  and  C3_3 
REMARK    2  A    between atoms: C2_2  and  C9_12 
REMARK    3  A    between atoms: C3_3  and  C4_4 
REMARK    4  A    between atoms: C4_4  and  C5_5 
REMARK    5  A    between atoms: C5_5  and  O1_6 
REMARK    6  A    between atoms: C5_5  and  C6_7 
REMARK    7  A    between atoms: C6_7  and  O2_9 
REMARK    8  A    between atoms: C6_7  and  C8_10 
REMARK    9  A    between atoms: C8_10  and  O3_11 
ROOT
HETATM    1  C9  UNL     1      -1.740  50.027 -22.966  1.00  0.00    -0.002 C 
HETATM    2  C10 UNL     1      -2.844  48.953 -23.198  1.00  0.00     0.007 C 
HETATM    3  C11 UNL     1      -3.171  48.319 -21.835  1.00  0.00     0.015 C 
HETATM    4  C12 UNL     1      -2.018  48.746 -20.911  1.00  0.00    -0.005 C 
HETATM    5  C13 UNL     1      -0.835  47.761 -21.177  1.00  0.00     0.021 C 
HETATM    6  C14 UNL     1      -2.190  48.730 -19.399  1.00  0.00    -0.000 C 
HETATM    7  C15 UNL     1      -1.542  49.599 -18.583  1.00  0.00    -0.060 C 
HETATM    8  C16 UNL     1      -0.607  50.656 -19.207  1.00  0.00     0.036 C 
HETATM    9  C17 UNL     1      -0.512  50.733 -20.747  1.00  0.00     0.015 C 
HETATM   10  C18 UNL     1      -1.790  50.223 -21.419  1.00  0.00    -0.028 C 
HETATM   11  C19 UNL     1      -2.967  51.185 -21.062  1.00  0.00     0.016 C 
HETATM   12  C20 UNL     1      -1.757  49.670 -17.034  1.00  0.00    -0.014 C 
HETATM   13  C21 UNL     1      -2.481  51.024 -16.778  1.00  0.00     0.020 C 
HETATM   14  C22 UNL     1      -0.401  49.702 -16.270  1.00  0.00     0.021 C 
HETATM   15  C23 UNL     1       0.078  48.329 -15.836  1.00  0.00     0.080 C 
HETATM   16  C24 UNL     1      -0.882  47.733 -14.833  1.00  0.00     0.135 C 
HETATM   17  O4  UNL     1      -0.466  46.988 -13.945  1.00  0.00    -0.297 OA
HETATM   18  C25 UNL     1      -2.372  48.081 -14.970  1.00  0.00     0.018 C 
HETATM   19  C26 UNL     1      -2.705  49.180 -13.943  1.00  0.00     0.023 C 
HETATM   20  C27 UNL     1      -3.197  46.840 -14.550  1.00  0.00     0.023 C 
HETATM   21  C28 UNL     1      -2.690  48.516 -16.456  1.00  0.00     0.020 C 
HETATM   22  C29 UNL     1      -2.718  47.289 -17.379  1.00  0.00     0.090 C 
HETATM   23  C30 UNL     1      -3.030  47.669 -18.792  1.00  0.00     0.157 C 
HETATM   24  O5  UNL     1      -3.887  47.066 -19.432  1.00  0.00    -0.293 OA
ENDROOT
BRANCH   1  25
HETATM   25  C2  UNL     1      -1.910  51.251 -23.921  1.00  0.00    -0.014 C 
HETATM   26  C1  UNL     1      -3.357  51.752 -23.964  1.00  0.00     0.010 C 
BRANCH  25  27
HETATM   27  C3  UNL     1      -0.960  52.405 -23.486  1.00  0.00     0.007 C 
BRANCH  27  28
HETATM   28  C4  UNL     1       0.458  52.292 -24.068  1.00  0.00     0.035 C 
BRANCH  28  29
HETATM   29  C5  UNL     1       0.619  52.788 -25.518  1.00  0.00     0.154 C 
BRANCH  29  30
HETATM   30  O1  UNL     1      -0.601  53.442 -25.899  1.00  0.00    -0.392 OA
HETATM   31  H10 UNL     1      -1.163  52.732 -26.272  1.00  0.00     0.210 HD
ENDBRANCH  29  30
BRANCH  29  32
HETATM   32  C6  UNL     1       0.989  51.732 -26.596  1.00  0.00     0.101 C 
HETATM   33  C7  UNL     1       0.747  52.306 -28.003  1.00  0.00     0.051 C 
BRANCH  32  34
HETATM   34  O2  UNL     1       0.097  50.606 -26.468  1.00  0.00    -0.385 OA
HETATM   35  H14 UNL     1       0.492  49.910 -27.033  1.00  0.00     0.210 HD
ENDBRANCH  32  34
BRANCH  32  36
HETATM   36  C8  UNL     1       2.438  51.228 -26.459  1.00  0.00     0.204 C 
BRANCH  36  37
HETATM   37  O3  UNL     1       3.294  52.006 -27.302  1.00  0.00    -0.398 OA
HETATM   38  H17 UNL     1       4.201  51.675 -27.170  1.00  0.00     0.209 HD
ENDBRANCH  36  37
ENDBRANCH  32  36
ENDBRANCH  29  32
ENDBRANCH  28  29
ENDBRANCH  27  28
ENDBRANCH  25  27
ENDBRANCH   1  25
TORSDOF 9
ENDMDL
MODEL 9
REMARK minimizedAffinity -8.75849533
REMARK  9 active torsions:
REMARK  status: ('A' for Active; 'I' for Inactive)
REMARK    1  A    between atoms: C2_2  and  C3_3 
REMARK    2  A    between atoms: C2_2  and  C9_12 
REMARK    3  A    between atoms: C3_3  and  C4_4 
REMARK    4  A    between atoms: C4_4  and  C5_5 
REMARK    5  A    between atoms: C5_5  and  O1_6 
REMARK    6  A    between atoms: C5_5  and  C6_7 
REMARK    7  A    between atoms: C6_7  and  O2_9 
REMARK    8  A    between atoms: C6_7  and  C8_10 
REMARK    9  A    between atoms: C8_10  and  O3_11 
ROOT
HETATM    1  C9  UNL     1      -3.241  51.212 -25.501  1.00  0.00    -0.002 C 
HETATM    2  C10 UNL     1      -2.230  52.394 -25.571  1.00  0.00     0.007 C 
HETATM    3  C11 UNL     1      -1.586  52.539 -24.182  1.00  0.00     0.015 C 
HETATM    4  C12 UNL     1      -2.480  51.715 -23.240  1.00  0.00    -0.005 C 
HETATM    5  C13 UNL     1      -3.695  52.619 -22.861  1.00  0.00     0.021 C 
HETATM    6  C14 UNL     1      -1.947  51.218 -21.904  1.00  0.00    -0.000 C 
HETATM    7  C15 UNL     1      -2.375  50.064 -21.334  1.00  0.00    -0.060 C 
HETATM    8  C16 UNL     1      -3.429  49.211 -22.069  1.00  0.00     0.036 C 
HETATM    9  C17 UNL     1      -3.893  49.667 -23.470  1.00  0.00     0.015 C 
HETATM   10  C18 UNL     1      -2.818  50.493 -24.182  1.00  0.00    -0.028 C 
HETATM   11  C19 UNL     1      -1.586  49.578 -24.469  1.00  0.00     0.016 C 
HETATM   12  C20 UNL     1      -1.791  49.477 -20.004  1.00  0.00    -0.014 C 
HETATM   13  C21 UNL     1      -1.021  48.190 -20.423  1.00  0.00     0.020 C 
HETATM   14  C22 UNL     1      -2.922  49.057 -19.020  1.00  0.00     0.021 C 
HETATM   15  C23 UNL     1      -3.287  50.144 -18.025  1.00  0.00     0.080 C 
HETATM   16  C24 UNL     1      -2.115  50.437 -17.118  1.00  0.00     0.135 C 
HETATM   17  O4  UNL     1      -2.308  50.785 -15.952  1.00  0.00    -0.297 OA
HETATM   18  C25 UNL     1      -0.701  50.296 -17.701  1.00  0.00     0.018 C 
HETATM   19  C26 UNL     1      -0.126  48.942 -17.242  1.00  0.00     0.023 C 
HETATM   20  C27 UNL     1       0.196  51.381 -17.059  1.00  0.00     0.023 C 
HETATM   21  C28 UNL     1      -0.751  50.436 -19.275  1.00  0.00     0.020 C 
HETATM   22  C29 UNL     1      -0.952  51.906 -19.674  1.00  0.00     0.090 C 
HETATM   23  C30 UNL     1      -0.989  52.072 -21.161  1.00  0.00     0.157 C 
HETATM   24  O5  UNL     1      -0.315  52.936 -21.715  1.00  0.00    -0.293 OA
ENDROOT
BRANCH   1  25
HETATM   25  C2  UNL     1      -3.302  50.418 -26.844  1.00  0.00    -0.014 C 
HETATM   26  C1  UNL     1      -2.070  50.669 -27.719  1.00  0.00     0.010 C 
BRANCH  25  27
HETATM   27  C3  UNL     1      -3.451  48.895 -26.560  1.00  0.00     0.007 C 
BRANCH  27  28
HETATM   28  C4  UNL     1      -4.871  48.356 -26.800  1.00  0.00     0.035 C 
BRANCH  28  29
HETATM   29  C5  UNL     1      -5.178  47.924 -28.247  1.00  0.00     0.154 C 
BRANCH  29  30
HETATM   30  O1  UNL     1      -4.738  48.973 -29.123  1.00  0.00    -0.392 OA
HETATM   31  H10 UNL     1      -5.507  49.573 -29.207  1.00  0.00     0.210 HD
ENDBRANCH  29  30
BRANCH  29  32
HETATM   32  C6  UNL     1      -6.649  47.561 -28.587  1.00  0.00     0.101 C 
HETATM   33  C7  UNL     1      -6.701  46.234 -29.363  1.00  0.00     0.051 C 
BRANCH  32  34
HETATM   34  O2  UNL     1      -7.181  48.564 -29.477  1.00  0.00    -0.385 OA
HETATM   35  H14 UNL     1      -8.145  48.390 -29.501  1.00  0.00     0.210 HD
ENDBRANCH  32  34
BRANCH  32  36
HETATM   36  C8  UNL     1      -7.546  47.492 -27.336  1.00  0.00     0.204 C 
BRANCH  36  37
HETATM   37  O3  UNL     1      -8.348  48.676 -27.259  1.00  0.00    -0.398 OA
HETATM   38  H17 UNL     1      -8.915  48.585 -26.473  1.00  0.00     0.209 HD
ENDBRANCH  36  37
ENDBRANCH  32  36
ENDBRANCH  29  32
ENDBRANCH  28  29
ENDBRANCH  27  28
ENDBRANCH  25  27
ENDBRANCH   1  25
TORSDOF 9
ENDMDL
