MODEL 1
REMARK minimizedAffinity -9.66942596
REMARK  6 active torsions:
REMARK  status: ('A' for Active; 'I' for Inactive)
REMARK    1  A    between atoms: C2_2  and  C30_31 
REMARK    2  A    between atoms: C3_3  and  C4_4 
REMARK    3  A    between atoms: C4_4  and  C5_5 
REMARK    4  A    between atoms: C5_5  and  C6_6 
REMARK    5  A    between atoms: C6_6  and  C8_8 
REMARK    6  A    between atoms: C30_31  and  O3_33 
ROOT
HETATM    1  C8  UNL     1       1.154   6.961  11.888  1.00  0.00    -0.002 C 
HETATM    2  C9  UNL     1       1.291   5.535  11.293  1.00  0.00     0.007 C 
HETATM    3  C10 UNL     1      -0.037   4.802  11.595  1.00  0.00     0.015 C 
HETATM    4  C11 UNL     1      -0.764   5.696  12.626  1.00  0.00    -0.013 C 
HETATM    5  C12 UNL     1      -0.166   5.316  14.021  1.00  0.00     0.021 C 
HETATM    6  C13 UNL     1      -2.274   5.569  12.782  1.00  0.00    -0.070 C 
HETATM    7  C14 UNL     1      -2.917   4.397  12.618  1.00  0.00    -0.022 C 
HETATM    8  C15 UNL     1      -4.376   4.182  12.906  1.00  0.00     0.034 C 
HETATM    9  C16 UNL     1      -5.165   5.482  13.182  1.00  0.00     0.013 C 
HETATM   10  C17 UNL     1      -6.669   5.288  13.616  1.00  0.00     0.018 C 
HETATM   11  C18 UNL     1      -7.598   5.838  12.512  1.00  0.00     0.023 C 
HETATM   12  C19 UNL     1      -7.059   3.812  13.842  1.00  0.00     0.023 C 
HETATM   13  C20 UNL     1      -7.017   6.074  14.888  1.00  0.00     0.135 C 
HETATM   14  O1  UNL     1      -7.792   5.628  15.739  1.00  0.00    -0.297 OA
HETATM   15  C21 UNL     1      -6.473   7.474  15.054  1.00  0.00     0.080 C 
HETATM   16  C22 UNL     1      -5.184   7.733  14.290  1.00  0.00     0.017 C 
HETATM   17  C23 UNL     1      -4.324   6.468  14.070  1.00  0.00    -0.031 C 
HETATM   18  C24 UNL     1      -3.934   5.852  15.437  1.00  0.00     0.016 C 
HETATM   19  C25 UNL     1      -3.028   6.828  13.235  1.00  0.00     0.024 C 
HETATM   20  C26 UNL     1      -2.111   7.897  13.882  1.00  0.00     0.010 C 
HETATM   21  C27 UNL     1      -0.776   8.184  13.152  1.00  0.00     0.011 C 
HETATM   22  C28 UNL     1      -0.384   7.124  12.104  1.00  0.00    -0.029 C 
HETATM   23  C29 UNL     1      -1.062   7.500  10.753  1.00  0.00     0.016 C 
ENDROOT
BRANCH   1  24
HETATM   24  C6  UNL     1       1.938   8.102  11.170  1.00  0.00    -0.014 C 
HETATM   25  C7  UNL     1       2.943   8.700  12.174  1.00  0.00     0.010 C 
BRANCH  24  26
HETATM   26  C5  UNL     1       2.685   7.689   9.877  1.00  0.00     0.008 C 
BRANCH  26  27
HETATM   27  C4  UNL     1       2.828   6.171   9.679  1.00  0.00     0.028 C 
BRANCH  27  28
HETATM   28  C3  UNL     1       2.897   5.720   8.248  1.00  0.00    -0.013 C 
HETATM   29  C2  UNL     1       3.461   4.602   7.748  1.00  0.00     0.008 C 
HETATM   30  C1  UNL     1       3.405   4.301   6.276  1.00  0.00     0.055 C 
BRANCH  29  31
HETATM   31  C30 UNL     1       4.190   3.632   8.606  1.00  0.00     0.171 C 
HETATM   32  O2  UNL     1       5.323   3.212   8.459  1.00  0.00    -0.646 OA
BRANCH  31  33
HETATM   33  O3  UNL     1       3.439   3.214   9.641  1.00  0.00    -0.773 OA
HETATM   34  H46 UNL     1       4.036   2.596  10.112  1.00  0.00     0.167 HD
ENDBRANCH  31  33
ENDBRANCH  29  31
ENDBRANCH  27  28
ENDBRANCH  26  27
ENDBRANCH  24  26
ENDBRANCH   1  24
TORSDOF 6
ENDMDL
MODEL 2
REMARK minimizedAffinity -9.65287399
REMARK  6 active torsions:
REMARK  status: ('A' for Active; 'I' for Inactive)
REMARK    1  A    between atoms: C2_2  and  C30_31 
REMARK    2  A    between atoms: C3_3  and  C4_4 
REMARK    3  A    between atoms: C4_4  and  C5_5 
REMARK    4  A    between atoms: C5_5  and  C6_6 
REMARK    5  A    between atoms: C6_6  and  C8_8 
REMARK    6  A    between atoms: C30_31  and  O3_33 
ROOT
HETATM    1  C8  UNL     1       0.962   7.394  12.323  1.00  0.00    -0.002 C 
HETATM    2  C9  UNL     1       1.072   6.079  11.508  1.00  0.00     0.007 C 
HETATM    3  C10 UNL     1      -0.260   5.320  11.714  1.00  0.00     0.015 C 
HETATM    4  C11 UNL     1      -0.959   6.047  12.887  1.00  0.00    -0.013 C 
HETATM    5  C12 UNL     1      -0.343   5.445  14.193  1.00  0.00     0.021 C 
HETATM    6  C13 UNL     1      -2.468   5.911  13.047  1.00  0.00    -0.070 C 
HETATM    7  C14 UNL     1      -3.128   4.786  12.712  1.00  0.00    -0.022 C 
HETATM    8  C15 UNL     1      -4.584   4.542  12.989  1.00  0.00     0.034 C 
HETATM    9  C16 UNL     1      -5.352   5.789  13.481  1.00  0.00     0.013 C 
HETATM   10  C17 UNL     1      -6.851   5.543  13.906  1.00  0.00     0.018 C 
HETATM   11  C18 UNL     1      -7.791   6.270  12.919  1.00  0.00     0.023 C 
HETATM   12  C19 UNL     1      -7.256   4.053  13.902  1.00  0.00     0.023 C 
HETATM   13  C20 UNL     1      -7.169   6.121  15.293  1.00  0.00     0.135 C 
HETATM   14  O1  UNL     1      -7.935   5.553  16.076  1.00  0.00    -0.297 OA
HETATM   15  C21 UNL     1      -6.605   7.471  15.668  1.00  0.00     0.080 C 
HETATM   16  C22 UNL     1      -5.326   7.836  14.931  1.00  0.00     0.017 C 
HETATM   17  C23 UNL     1      -4.485   6.614  14.498  1.00  0.00    -0.031 C 
HETATM   18  C24 UNL     1      -4.081   5.785  15.744  1.00  0.00     0.016 C 
HETATM   19  C25 UNL     1      -3.199   7.089  13.708  1.00  0.00     0.024 C 
HETATM   20  C26 UNL     1      -2.258   8.034  14.499  1.00  0.00     0.010 C 
HETATM   21  C27 UNL     1      -0.932   8.420  13.800  1.00  0.00     0.011 C 
HETATM   22  C28 UNL     1      -0.570   7.536  12.590  1.00  0.00    -0.029 C 
HETATM   23  C29 UNL     1      -1.266   8.127  11.328  1.00  0.00     0.016 C 
ENDROOT
BRANCH   1  24
HETATM   24  C6  UNL     1       1.748   8.627  11.781  1.00  0.00    -0.014 C 
HETATM   25  C7  UNL     1       2.504   9.272  12.960  1.00  0.00     0.010 C 
BRANCH  24  26
HETATM   26  C5  UNL     1       2.744   8.332  10.631  1.00  0.00     0.008 C 
BRANCH  26  27
HETATM   27  C4  UNL     1       3.096   6.845  10.456  1.00  0.00     0.028 C 
BRANCH  27  28
HETATM   28  C3  UNL     1       2.800   6.277   9.098  1.00  0.00    -0.013 C 
HETATM   29  C2  UNL     1       2.534   6.938   7.953  1.00  0.00     0.008 C 
HETATM   30  C1  UNL     1       2.288   6.192   6.671  1.00  0.00     0.055 C 
BRANCH  29  31
HETATM   31  C30 UNL     1       2.436   8.419   7.900  1.00  0.00     0.171 C 
HETATM   32  O2  UNL     1       3.319   9.215   7.635  1.00  0.00    -0.646 OA
BRANCH  31  33
HETATM   33  O3  UNL     1       1.198   8.853   8.197  1.00  0.00    -0.773 OA
HETATM   34  H46 UNL     1       1.280   9.826   8.121  1.00  0.00     0.167 HD
ENDBRANCH  31  33
ENDBRANCH  29  31
ENDBRANCH  27  28
ENDBRANCH  26  27
ENDBRANCH  24  26
ENDBRANCH   1  24
TORSDOF 6
ENDMDL
MODEL 3
REMARK minimizedAffinity -9.30109596
REMARK  6 active torsions:
REMARK  status: ('A' for Active; 'I' for Inactive)
REMARK    1  A    between atoms: C2_2  and  C30_31 
REMARK    2  A    between atoms: C3_3  and  C4_4 
REMARK    3  A    between atoms: C4_4  and  C5_5 
REMARK    4  A    between atoms: C5_5  and  C6_6 
REMARK    5  A    between atoms: C6_6  and  C8_8 
REMARK    6  A    between atoms: C30_31  and  O3_33 
ROOT
HETATM    1  C8  UNL     1      -5.170   7.186  15.440  1.00  0.00    -0.002 C 
HETATM    2  C9  UNL     1      -5.090   8.727  15.599  1.00  0.00     0.007 C 
HETATM    3  C10 UNL     1      -3.762   9.170  14.940  1.00  0.00     0.015 C 
HETATM    4  C11 UNL     1      -2.969   7.861  14.717  1.00  0.00    -0.013 C 
HETATM    5  C12 UNL     1      -2.262   7.551  16.077  1.00  0.00     0.021 C 
HETATM    6  C13 UNL     1      -1.865   7.836  13.668  1.00  0.00    -0.070 C 
HETATM    7  C14 UNL     1      -1.106   8.915  13.397  1.00  0.00    -0.022 C 
HETATM    8  C15 UNL     1       0.090   8.904  12.487  1.00  0.00     0.034 C 
HETATM    9  C16 UNL     1       0.256   7.600  11.676  1.00  0.00     0.013 C 
HETATM   10  C17 UNL     1       1.570   7.500  10.808  1.00  0.00     0.018 C 
HETATM   11  C18 UNL     1       1.197   7.508   9.309  1.00  0.00     0.023 C 
HETATM   12  C19 UNL     1       2.550   8.669  11.037  1.00  0.00     0.023 C 
HETATM   13  C20 UNL     1       2.329   6.186  11.045  1.00  0.00     0.135 C 
HETATM   14  O1  UNL     1       3.562   6.137  11.049  1.00  0.00    -0.297 OA
HETATM   15  C21 UNL     1       1.544   4.902  11.178  1.00  0.00     0.080 C 
HETATM   16  C22 UNL     1       0.119   5.095  11.674  1.00  0.00     0.017 C 
HETATM   17  C23 UNL     1      -0.069   6.345  12.563  1.00  0.00    -0.031 C 
HETATM   18  C24 UNL     1       0.845   6.246  13.811  1.00  0.00     0.016 C 
HETATM   19  C25 UNL     1      -1.585   6.484  12.996  1.00  0.00     0.024 C 
HETATM   20  C26 UNL     1      -2.152   5.274  13.782  1.00  0.00     0.010 C 
HETATM   21  C27 UNL     1      -3.594   5.428  14.325  1.00  0.00     0.011 C 
HETATM   22  C28 UNL     1      -4.123   6.876  14.324  1.00  0.00    -0.029 C 
HETATM   23  C29 UNL     1      -4.748   7.165  12.928  1.00  0.00     0.016 C 
ENDROOT
BRANCH   1  24
HETATM   24  C6  UNL     1      -6.595   6.563  15.329  1.00  0.00    -0.014 C 
HETATM   25  C7  UNL     1      -7.566   7.431  16.153  1.00  0.00     0.010 C 
BRANCH  24  26
HETATM   26  C5  UNL     1      -7.143   6.402  13.888  1.00  0.00     0.008 C 
BRANCH  26  27
HETATM   27  C4  UNL     1      -7.358   4.946  13.445  1.00  0.00     0.028 C 
BRANCH  27  28
HETATM   28  C3  UNL     1      -6.209   4.333  12.697  1.00  0.00    -0.013 C 
HETATM   29  C2  UNL     1      -6.122   3.100  12.157  1.00  0.00     0.008 C 
HETATM   30  C1  UNL     1      -4.890   2.668  11.412  1.00  0.00     0.055 C 
BRANCH  29  31
HETATM   31  C30 UNL     1      -7.212   2.099  12.294  1.00  0.00     0.171 C 
HETATM   32  O2  UNL     1      -8.278   2.234  12.867  1.00  0.00    -0.646 OA
BRANCH  31  33
HETATM   33  O3  UNL     1      -6.904   0.935  11.695  1.00  0.00    -0.773 OA
HETATM   34  H46 UNL     1      -7.698   0.384  11.860  1.00  0.00     0.167 HD
ENDBRANCH  31  33
ENDBRANCH  29  31
ENDBRANCH  27  28
ENDBRANCH  26  27
ENDBRANCH  24  26
ENDBRANCH   1  24
TORSDOF 6
ENDMDL
MODEL 4
REMARK minimizedAffinity -9.11003208
REMARK  6 active torsions:
REMARK  status: ('A' for Active; 'I' for Inactive)
REMARK    1  A    between atoms: C2_2  and  C30_31 
REMARK    2  A    between atoms: C3_3  and  C4_4 
REMARK    3  A    between atoms: C4_4  and  C5_5 
REMARK    4  A    between atoms: C5_5  and  C6_6 
REMARK    5  A    between atoms: C6_6  and  C8_8 
REMARK    6  A    between atoms: C30_31  and  O3_33 
ROOT
HETATM    1  C8  UNL     1       0.972   6.620  12.059  1.00  0.00    -0.002 C 
HETATM    2  C9  UNL     1       1.128   5.107  11.757  1.00  0.00     0.007 C 
HETATM    3  C10 UNL     1      -0.229   4.447  12.098  1.00  0.00     0.015 C 
HETATM    4  C11 UNL     1      -1.012   5.523  12.886  1.00  0.00    -0.013 C 
HETATM    5  C12 UNL     1      -0.517   5.413  14.367  1.00  0.00     0.021 C 
HETATM    6  C13 UNL     1      -2.530   5.430  12.956  1.00  0.00    -0.070 C 
HETATM    7  C14 UNL     1      -3.178   4.249  12.973  1.00  0.00    -0.022 C 
HETATM    8  C15 UNL     1      -4.656   4.095  13.193  1.00  0.00     0.034 C 
HETATM    9  C16 UNL     1      -5.443   5.425  13.161  1.00  0.00     0.013 C 
HETATM   10  C17 UNL     1      -6.976   5.319  13.516  1.00  0.00     0.018 C 
HETATM   11  C18 UNL     1      -7.818   5.651  12.264  1.00  0.00     0.023 C 
HETATM   12  C19 UNL     1      -7.403   3.914  13.989  1.00  0.00     0.023 C 
HETATM   13  C20 UNL     1      -7.399   6.333  14.588  1.00  0.00     0.135 C 
HETATM   14  O1  UNL     1      -8.237   6.059  15.451  1.00  0.00    -0.297 OA
HETATM   15  C21 UNL     1      -6.847   7.738  14.524  1.00  0.00     0.080 C 
HETATM   16  C22 UNL     1      -5.505   7.845  13.818  1.00  0.00     0.017 C 
HETATM   17  C23 UNL     1      -4.650   6.561  13.902  1.00  0.00    -0.031 C 
HETATM   18  C24 UNL     1      -4.365   6.215  15.386  1.00  0.00     0.016 C 
HETATM   19  C25 UNL     1      -3.295   6.753  13.108  1.00  0.00     0.024 C 
HETATM   20  C26 UNL     1      -2.409   7.924  13.604  1.00  0.00     0.010 C 
HETATM   21  C27 UNL     1      -1.022   8.065  12.929  1.00  0.00     0.011 C 
HETATM   22  C28 UNL     1      -0.575   6.824  12.131  1.00  0.00    -0.029 C 
HETATM   23  C29 UNL     1      -1.152   6.938  10.689  1.00  0.00     0.016 C 
ENDROOT
BRANCH   1  24
HETATM   24  C6  UNL     1       1.820   7.603  11.196  1.00  0.00    -0.014 C 
HETATM   25  C7  UNL     1       2.390   8.692  12.126  1.00  0.00     0.010 C 
BRANCH  24  26
HETATM   26  C5  UNL     1       2.977   6.957  10.391  1.00  0.00     0.008 C 
BRANCH  26  27
HETATM   27  C4  UNL     1       3.790   7.945   9.538  1.00  0.00     0.028 C 
BRANCH  27  28
HETATM   28  C3  UNL     1       4.839   8.717  10.285  1.00  0.00    -0.013 C 
HETATM   29  C2  UNL     1       5.902   8.244  10.967  1.00  0.00     0.008 C 
HETATM   30  C1  UNL     1       6.870   9.181  11.635  1.00  0.00     0.055 C 
BRANCH  29  31
HETATM   31  C30 UNL     1       6.156   6.789  11.124  1.00  0.00     0.171 C 
HETATM   32  O2  UNL     1       6.717   6.043  10.342  1.00  0.00    -0.646 OA
BRANCH  31  33
HETATM   33  O3  UNL     1       5.674   6.317  12.288  1.00  0.00    -0.773 OA
HETATM   34  H46 UNL     1       5.911   5.367  12.257  1.00  0.00     0.167 HD
ENDBRANCH  31  33
ENDBRANCH  29  31
ENDBRANCH  27  28
ENDBRANCH  26  27
ENDBRANCH  24  26
ENDBRANCH   1  24
TORSDOF 6
ENDMDL
MODEL 5
REMARK minimizedAffinity -9.08033562
REMARK  6 active torsions:
REMARK  status: ('A' for Active; 'I' for Inactive)
REMARK    1  A    between atoms: C2_2  and  C30_31 
REMARK    2  A    between atoms: C3_3  and  C4_4 
REMARK    3  A    between atoms: C4_4  and  C5_5 
REMARK    4  A    between atoms: C5_5  and  C6_6 
REMARK    5  A    between atoms: C6_6  and  C8_8 
REMARK    6  A    between atoms: C30_31  and  O3_33 
ROOT
HETATM    1  C8  UNL     1      -1.835   6.234  12.385  1.00  0.00    -0.002 C 
HETATM    2  C9  UNL     1      -1.620   4.918  11.593  1.00  0.00     0.007 C 
HETATM    3  C10 UNL     1      -0.133   4.894  11.172  1.00  0.00     0.015 C 
HETATM    4  C11 UNL     1       0.383   6.327  11.440  1.00  0.00    -0.013 C 
HETATM    5  C12 UNL     1      -0.022   7.170  10.186  1.00  0.00     0.021 C 
HETATM    6  C13 UNL     1       1.879   6.554  11.617  1.00  0.00    -0.070 C 
HETATM    7  C14 UNL     1       2.800   5.822  10.960  1.00  0.00    -0.022 C 
HETATM    8  C15 UNL     1       4.276   6.101  10.980  1.00  0.00     0.034 C 
HETATM    9  C16 UNL     1       4.707   7.161  12.018  1.00  0.00     0.013 C 
HETATM   10  C17 UNL     1       6.228   7.575  11.979  1.00  0.00     0.018 C 
HETATM   11  C18 UNL     1       6.922   7.102  13.276  1.00  0.00     0.023 C 
HETATM   12  C19 UNL     1       7.005   6.955  10.798  1.00  0.00     0.023 C 
HETATM   13  C20 UNL     1       6.420   9.097  11.931  1.00  0.00     0.135 C 
HETATM   14  O1  UNL     1       7.327   9.620  11.277  1.00  0.00    -0.297 OA
HETATM   15  C21 UNL     1       5.535   9.973  12.787  1.00  0.00     0.080 C 
HETATM   16  C22 UNL     1       4.187   9.354  13.121  1.00  0.00     0.017 C 
HETATM   17  C23 UNL     1       3.681   8.350  12.060  1.00  0.00    -0.031 C 
HETATM   18  C24 UNL     1       3.537   9.060  10.690  1.00  0.00     0.016 C 
HETATM   19  C25 UNL     1       2.296   7.731  12.511  1.00  0.00     0.024 C 
HETATM   20  C26 UNL     1       1.163   8.764  12.740  1.00  0.00     0.010 C 
HETATM   21  C27 UNL     1      -0.235   8.183  13.064  1.00  0.00     0.011 C 
HETATM   22  C28 UNL     1      -0.386   6.680  12.759  1.00  0.00    -0.029 C 
HETATM   23  C29 UNL     1       0.100   5.879  14.003  1.00  0.00     0.016 C 
ENDROOT
BRANCH   1  24
HETATM   24  C6  UNL     1      -2.927   6.217  13.497  1.00  0.00    -0.014 C 
HETATM   25  C7  UNL     1      -3.926   7.355  13.209  1.00  0.00     0.010 C 
BRANCH  24  26
HETATM   26  C5  UNL     1      -3.700   4.883  13.656  1.00  0.00     0.008 C 
BRANCH  26  27
HETATM   27  C4  UNL     1      -4.950   4.759  12.769  1.00  0.00     0.028 C 
BRANCH  27  28
HETATM   28  C3  UNL     1      -5.085   3.453  12.040  1.00  0.00    -0.013 C 
HETATM   29  C2  UNL     1      -6.104   2.571  12.082  1.00  0.00     0.008 C 
HETATM   30  C1  UNL     1      -6.075   1.318  11.251  1.00  0.00     0.055 C 
BRANCH  29  31
HETATM   31  C30 UNL     1      -7.283   2.768  12.964  1.00  0.00     0.171 C 
HETATM   32  O2  UNL     1      -7.362   3.471  13.955  1.00  0.00    -0.646 OA
BRANCH  31  33
HETATM   33  O3  UNL     1      -8.342   2.046  12.557  1.00  0.00    -0.773 OA
HETATM   34  H46 UNL     1      -9.031   2.272  13.216  1.00  0.00     0.167 HD
ENDBRANCH  31  33
ENDBRANCH  29  31
ENDBRANCH  27  28
ENDBRANCH  26  27
ENDBRANCH  24  26
ENDBRANCH   1  24
TORSDOF 6
ENDMDL
MODEL 6
REMARK minimizedAffinity -9.06175804
REMARK  6 active torsions:
REMARK  status: ('A' for Active; 'I' for Inactive)
REMARK    1  A    between atoms: C2_2  and  C30_31 
REMARK    2  A    between atoms: C3_3  and  C4_4 
REMARK    3  A    between atoms: C4_4  and  C5_5 
REMARK    4  A    between atoms: C5_5  and  C6_6 
REMARK    5  A    between atoms: C6_6  and  C8_8 
REMARK    6  A    between atoms: C30_31  and  O3_33 
ROOT
HETATM    1  C8  UNL     1      -3.193   7.869  15.247  1.00  0.00    -0.002 C 
HETATM    2  C9  UNL     1      -2.330   8.118  16.511  1.00  0.00     0.007 C 
HETATM    3  C10 UNL     1      -0.857   7.912  16.087  1.00  0.00     0.015 C 
HETATM    4  C11 UNL     1      -0.929   7.236  14.698  1.00  0.00    -0.013 C 
HETATM    5  C12 UNL     1      -1.129   5.709  14.974  1.00  0.00     0.021 C 
HETATM    6  C13 UNL     1       0.272   7.329  13.767  1.00  0.00    -0.070 C 
HETATM    7  C14 UNL     1       1.538   7.356  14.227  1.00  0.00    -0.022 C 
HETATM    8  C15 UNL     1       2.759   7.294  13.354  1.00  0.00     0.034 C 
HETATM    9  C16 UNL     1       2.467   7.440  11.844  1.00  0.00     0.013 C 
HETATM   10  C17 UNL     1       3.706   7.250  10.888  1.00  0.00     0.018 C 
HETATM   11  C18 UNL     1       4.033   8.592  10.197  1.00  0.00     0.023 C 
HETATM   12  C19 UNL     1       4.986   6.794  11.621  1.00  0.00     0.023 C 
HETATM   13  C20 UNL     1       3.424   6.252   9.755  1.00  0.00     0.135 C 
HETATM   14  O1  UNL     1       4.290   5.479   9.336  1.00  0.00    -0.297 OA
HETATM   15  C21 UNL     1       2.079   6.288   9.068  1.00  0.00     0.080 C 
HETATM   16  C22 UNL     1       0.957   6.848   9.929  1.00  0.00     0.017 C 
HETATM   17  C23 UNL     1       1.173   6.643  11.446  1.00  0.00    -0.031 C 
HETATM   18  C24 UNL     1       1.287   5.129  11.761  1.00  0.00     0.016 C 
HETATM   19  C25 UNL     1      -0.020   7.290  12.260  1.00  0.00     0.024 C 
HETATM   20  C26 UNL     1      -1.424   6.727  11.918  1.00  0.00     0.010 C 
HETATM   21  C27 UNL     1      -2.598   7.252  12.780  1.00  0.00     0.011 C 
HETATM   22  C28 UNL     1      -2.166   7.969  14.074  1.00  0.00    -0.029 C 
HETATM   23  C29 UNL     1      -1.905   9.467  13.737  1.00  0.00     0.016 C 
ENDROOT
BRANCH   1  24
HETATM   24  C6  UNL     1      -4.533   8.657  15.142  1.00  0.00    -0.014 C 
HETATM   25  C7  UNL     1      -4.214  10.163  15.220  1.00  0.00     0.010 C 
BRANCH  24  26
HETATM   26  C5  UNL     1      -5.376   8.376  13.872  1.00  0.00     0.008 C 
BRANCH  26  27
HETATM   27  C4  UNL     1      -6.344   7.187  13.998  1.00  0.00     0.028 C 
BRANCH  27  28
HETATM   28  C3  UNL     1      -5.801   5.872  13.518  1.00  0.00    -0.013 C 
HETATM   29  C2  UNL     1      -6.477   4.825  13.000  1.00  0.00     0.008 C 
HETATM   30  C1  UNL     1      -5.753   3.590  12.542  1.00  0.00     0.055 C 
BRANCH  29  31
HETATM   31  C30 UNL     1      -7.958   4.820  12.885  1.00  0.00     0.171 C 
HETATM   32  O2  UNL     1      -8.670   5.681  12.401  1.00  0.00    -0.646 OA
BRANCH  31  33
HETATM   33  O3  UNL     1      -8.499   3.704  13.405  1.00  0.00    -0.773 OA
HETATM   34  H46 UNL     1      -9.459   3.834  13.259  1.00  0.00     0.167 HD
ENDBRANCH  31  33
ENDBRANCH  29  31
ENDBRANCH  27  28
ENDBRANCH  26  27
ENDBRANCH  24  26
ENDBRANCH   1  24
TORSDOF 6
ENDMDL
MODEL 7
REMARK minimizedAffinity -9.01536655
REMARK  6 active torsions:
REMARK  status: ('A' for Active; 'I' for Inactive)
REMARK    1  A    between atoms: C2_2  and  C30_31 
REMARK    2  A    between atoms: C3_3  and  C4_4 
REMARK    3  A    between atoms: C4_4  and  C5_5 
REMARK    4  A    between atoms: C5_5  and  C6_6 
REMARK    5  A    between atoms: C6_6  and  C8_8 
REMARK    6  A    between atoms: C30_31  and  O3_33 
ROOT
HETATM    1  C8  UNL     1      -1.014   5.371  12.184  1.00  0.00    -0.002 C 
HETATM    2  C9  UNL     1       0.387   5.156  12.812  1.00  0.00     0.007 C 
HETATM    3  C10 UNL     1       0.559   6.248  13.894  1.00  0.00     0.015 C 
HETATM    4  C11 UNL     1      -0.591   7.250  13.639  1.00  0.00    -0.013 C 
HETATM    5  C12 UNL     1      -0.084   8.205  12.508  1.00  0.00     0.021 C 
HETATM    6  C13 UNL     1      -1.041   8.163  14.771  1.00  0.00    -0.070 C 
HETATM    7  C14 UNL     1      -0.186   8.633  15.699  1.00  0.00    -0.022 C 
HETATM    8  C15 UNL     1      -0.542   9.653  16.743  1.00  0.00     0.034 C 
HETATM    9  C16 UNL     1      -2.054   9.959  16.839  1.00  0.00     0.013 C 
HETATM   10  C17 UNL     1      -2.454  11.118  17.832  1.00  0.00     0.018 C 
HETATM   11  C18 UNL     1      -3.256  10.528  19.013  1.00  0.00     0.023 C 
HETATM   12  C19 UNL     1      -1.241  11.859  18.433  1.00  0.00     0.023 C 
HETATM   13  C20 UNL     1      -3.374  12.158  17.178  1.00  0.00     0.135 C 
HETATM   14  O1  UNL     1      -3.290  13.361  17.441  1.00  0.00    -0.297 OA
HETATM   15  C21 UNL     1      -4.478  11.684  16.261  1.00  0.00     0.080 C 
HETATM   16  C22 UNL     1      -4.202  10.342  15.600  1.00  0.00     0.017 C 
HETATM   17  C23 UNL     1      -2.699  10.038  15.408  1.00  0.00    -0.031 C 
HETATM   18  C24 UNL     1      -2.050  11.132  14.523  1.00  0.00     0.016 C 
HETATM   19  C25 UNL     1      -2.510   8.610  14.753  1.00  0.00     0.024 C 
HETATM   20  C26 UNL     1      -3.193   8.431  13.372  1.00  0.00     0.010 C 
HETATM   21  C27 UNL     1      -2.927   7.088  12.649  1.00  0.00     0.011 C 
HETATM   22  C28 UNL     1      -1.748   6.278  13.223  1.00  0.00    -0.029 C 
HETATM   23  C29 UNL     1      -2.283   5.401  14.394  1.00  0.00     0.016 C 
ENDROOT
BRANCH   1  24
HETATM   24  C6  UNL     1      -1.746   4.106  11.642  1.00  0.00    -0.014 C 
HETATM   25  C7  UNL     1      -0.716   2.964  11.535  1.00  0.00     0.010 C 
BRANCH  24  26
HETATM   26  C5  UNL     1      -2.960   3.627  12.477  1.00  0.00     0.008 C 
BRANCH  26  27
HETATM   27  C4  UNL     1      -4.313   3.730  11.755  1.00  0.00     0.028 C 
BRANCH  27  28
HETATM   28  C3  UNL     1      -5.459   4.185  12.612  1.00  0.00    -0.013 C 
HETATM   29  C2  UNL     1      -6.611   3.538  12.884  1.00  0.00     0.008 C 
HETATM   30  C1  UNL     1      -7.640   4.145  13.797  1.00  0.00     0.055 C 
BRANCH  29  31
HETATM   31  C30 UNL     1      -6.940   2.222  12.279  1.00  0.00     0.171 C 
HETATM   32  O2  UNL     1      -6.241   1.544  11.547  1.00  0.00    -0.646 OA
BRANCH  31  33
HETATM   33  O3  UNL     1      -8.170   1.802  12.625  1.00  0.00    -0.773 OA
HETATM   34  H46 UNL     1      -8.247   0.939  12.167  1.00  0.00     0.167 HD
ENDBRANCH  31  33
ENDBRANCH  29  31
ENDBRANCH  27  28
ENDBRANCH  26  27
ENDBRANCH  24  26
ENDBRANCH   1  24
TORSDOF 6
ENDMDL
MODEL 8
REMARK minimizedAffinity -8.73282719
REMARK  6 active torsions:
REMARK  status: ('A' for Active; 'I' for Inactive)
REMARK    1  A    between atoms: C2_2  and  C30_31 
REMARK    2  A    between atoms: C3_3  and  C4_4 
REMARK    3  A    between atoms: C4_4  and  C5_5 
REMARK    4  A    between atoms: C5_5  and  C6_6 
REMARK    5  A    between atoms: C6_6  and  C8_8 
REMARK    6  A    between atoms: C30_31  and  O3_33 
ROOT
HETATM    1  C8  UNL     1      -3.187   6.923  14.225  1.00  0.00    -0.002 C 
HETATM    2  C9  UNL     1      -3.406   5.583  13.476  1.00  0.00     0.007 C 
HETATM    3  C10 UNL     1      -4.935   5.367  13.395  1.00  0.00     0.015 C 
HETATM    4  C11 UNL     1      -5.539   6.402  14.372  1.00  0.00    -0.013 C 
HETATM    5  C12 UNL     1      -5.460   5.749  15.791  1.00  0.00     0.021 C 
HETATM    6  C13 UNL     1      -6.992   6.824  14.198  1.00  0.00    -0.070 C 
HETATM    7  C14 UNL     1      -7.936   5.978  13.743  1.00  0.00    -0.022 C 
HETATM    8  C15 UNL     1      -9.405   6.292  13.695  1.00  0.00     0.034 C 
HETATM    9  C16 UNL     1      -9.746   7.771  13.985  1.00  0.00     0.013 C 
HETATM   10  C17 UNL     1     -11.283   8.112  14.073  1.00  0.00     0.018 C 
HETATM   11  C18 UNL     1     -11.674   9.027  12.891  1.00  0.00     0.023 C 
HETATM   12  C19 UNL     1     -12.195   6.869  14.004  1.00  0.00     0.023 C 
HETATM   13  C20 UNL     1     -11.638   8.895  15.345  1.00  0.00     0.135 C 
HETATM   14  O1  UNL     1     -12.698   8.712  15.949  1.00  0.00    -0.297 OA
HETATM   15  C21 UNL     1     -10.706   9.988  15.814  1.00  0.00     0.080 C 
HETATM   16  C22 UNL     1      -9.263   9.805  15.372  1.00  0.00     0.017 C 
HETATM   17  C23 UNL     1      -8.858   8.330  15.156  1.00  0.00    -0.031 C 
HETATM   18  C24 UNL     1      -9.043   7.534  16.473  1.00  0.00     0.016 C 
HETATM   19  C25 UNL     1      -7.358   8.242  14.661  1.00  0.00     0.024 C 
HETATM   20  C26 UNL     1      -6.315   8.864  15.625  1.00  0.00     0.010 C 
HETATM   21  C27 UNL     1      -4.829   8.688  15.230  1.00  0.00     0.011 C 
HETATM   22  C28 UNL     1      -4.582   7.622  14.145  1.00  0.00    -0.029 C 
HETATM   23  C29 UNL     1      -4.745   8.298  12.751  1.00  0.00     0.016 C 
ENDROOT
BRANCH   1  24
HETATM   24  C6  UNL     1      -1.914   7.741  13.850  1.00  0.00    -0.014 C 
HETATM   25  C7  UNL     1      -0.905   7.620  15.010  1.00  0.00     0.010 C 
BRANCH  24  26
HETATM   26  C5  UNL     1      -1.224   7.332  12.524  1.00  0.00     0.008 C 
BRANCH  26  27
HETATM   27  C4  UNL     1      -0.087   8.268  12.081  1.00  0.00     0.028 C 
BRANCH  27  28
HETATM   28  C3  UNL     1       0.007   8.498  10.600  1.00  0.00    -0.013 C 
HETATM   29  C2  UNL     1       0.695   7.787   9.683  1.00  0.00     0.008 C 
HETATM   30  C1  UNL     1       0.646   8.154   8.226  1.00  0.00     0.055 C 
BRANCH  29  31
HETATM   31  C30 UNL     1       1.556   6.636  10.060  1.00  0.00     0.171 C 
HETATM   32  O2  UNL     1       1.216   5.481  10.241  1.00  0.00    -0.646 OA
BRANCH  31  33
HETATM   33  O3  UNL     1       2.843   6.997  10.203  1.00  0.00    -0.773 OA
HETATM   34  H46 UNL     1       3.284   6.155  10.443  1.00  0.00     0.167 HD
ENDBRANCH  31  33
ENDBRANCH  29  31
ENDBRANCH  27  28
ENDBRANCH  26  27
ENDBRANCH  24  26
ENDBRANCH   1  24
TORSDOF 6
ENDMDL
MODEL 9
REMARK minimizedAffinity -8.35512829
REMARK  6 active torsions:
REMARK  status: ('A' for Active; 'I' for Inactive)
REMARK    1  A    between atoms: C2_2  and  C30_31 
REMARK    2  A    between atoms: C3_3  and  C4_4 
REMARK    3  A    between atoms: C4_4  and  C5_5 
REMARK    4  A    between atoms: C5_5  and  C6_6 
REMARK    5  A    between atoms: C6_6  and  C8_8 
REMARK    6  A    between atoms: C30_31  and  O3_33 
ROOT
HETATM    1  C8  UNL     1      -2.436   7.559  14.306  1.00  0.00    -0.002 C 
HETATM    2  C9  UNL     1      -2.748   7.971  12.844  1.00  0.00     0.007 C 
HETATM    3  C10 UNL     1      -1.396   8.338  12.190  1.00  0.00     0.015 C 
HETATM    4  C11 UNL     1      -0.397   8.445  13.365  1.00  0.00    -0.013 C 
HETATM    5  C12 UNL     1      -0.576   9.885  13.950  1.00  0.00     0.021 C 
HETATM    6  C13 UNL     1       1.093   8.300  13.086  1.00  0.00    -0.070 C 
HETATM    7  C14 UNL     1       1.653   8.720  11.935  1.00  0.00    -0.022 C 
HETATM    8  C15 UNL     1       3.131   8.742  11.669  1.00  0.00     0.034 C 
HETATM    9  C16 UNL     1       3.977   8.010  12.735  1.00  0.00     0.013 C 
HETATM   10  C17 UNL     1       5.540   8.122  12.560  1.00  0.00     0.018 C 
HETATM   11  C18 UNL     1       6.120   6.732  12.219  1.00  0.00     0.023 C 
HETATM   12  C19 UNL     1       5.966   9.081  11.427  1.00  0.00     0.023 C 
HETATM   13  C20 UNL     1       6.244   8.566  13.850  1.00  0.00     0.135 C 
HETATM   14  O1  UNL     1       7.225   9.314  13.835  1.00  0.00    -0.297 OA
HETATM   15  C21 UNL     1       5.782   7.990  15.169  1.00  0.00     0.080 C 
HETATM   16  C22 UNL     1       4.331   7.536  15.173  1.00  0.00     0.017 C 
HETATM   17  C23 UNL     1       3.433   8.305  14.179  1.00  0.00    -0.031 C 
HETATM   18  C24 UNL     1       3.444   9.817  14.521  1.00  0.00     0.016 C 
HETATM   19  C25 UNL     1       1.956   7.739  14.225  1.00  0.00     0.024 C 
HETATM   20  C26 UNL     1       1.271   7.815  15.614  1.00  0.00     0.010 C 
HETATM   21  C27 UNL     1      -0.214   7.381  15.668  1.00  0.00     0.011 C 
HETATM   22  C28 UNL     1      -0.898   7.283  14.290  1.00  0.00    -0.029 C 
HETATM   23  C29 UNL     1      -0.631   5.861  13.713  1.00  0.00     0.016 C 
ENDROOT
BRANCH   1  24
HETATM   24  C6  UNL     1      -3.382   6.506  14.959  1.00  0.00    -0.014 C 
HETATM   25  C7  UNL     1      -4.738   7.184  15.238  1.00  0.00     0.010 C 
BRANCH  24  26
HETATM   26  C5  UNL     1      -3.612   5.213  14.137  1.00  0.00     0.008 C 
BRANCH  26  27
HETATM   27  C4  UNL     1      -4.670   5.341  13.028  1.00  0.00     0.028 C 
BRANCH  27  28
HETATM   28  C3  UNL     1      -5.821   4.383  13.133  1.00  0.00    -0.013 C 
HETATM   29  C2  UNL     1      -6.100   3.318  12.355  1.00  0.00     0.008 C 
HETATM   30  C1  UNL     1      -7.294   2.449  12.634  1.00  0.00     0.055 C 
BRANCH  29  31
HETATM   31  C30 UNL     1      -5.272   2.966  11.172  1.00  0.00     0.171 C 
HETATM   32  O2  UNL     1      -4.285   3.546  10.755  1.00  0.00    -0.646 OA
BRANCH  31  33
HETATM   33  O3  UNL     1      -5.735   1.872  10.541  1.00  0.00    -0.773 OA
HETATM   34  H46 UNL     1      -5.103   1.759   9.801  1.00  0.00     0.167 HD
ENDBRANCH  31  33
ENDBRANCH  29  31
ENDBRANCH  27  28
ENDBRANCH  26  27
ENDBRANCH  24  26
ENDBRANCH   1  24
TORSDOF 6
ENDMDL
