MODEL 1
REMARK minimizedAffinity -7.74655247
REMARK CNNscore 0.645745575
REMARK CNNaffinity 7.22251463
REMARK  20 active torsions:
REMARK  status: ('A' for Active; 'I' for Inactive)
REMARK    1  A    between atoms: C2_2  and  C18_26 
REMARK    2  A    between atoms: C3_3  and  C4_4 
REMARK    3  A    between atoms: C4_4  and  O2_6 
REMARK    4  A    between atoms: O2_6  and  C5_7 
REMARK    5  A    between atoms: C5_7  and  C6_8 
REMARK    6  A    between atoms: C6_8  and  C7_9 
REMARK    7  A    between atoms: C7_9  and  C8_10 
REMARK    8  A    between atoms: C8_10  and  C9_11 
REMARK    9  A    between atoms: C9_11  and  C10_12 
REMARK   10  A    between atoms: C10_12  and  C11_13 
REMARK   11  A    between atoms: C11_13  and  C12_14 
REMARK       I    between atoms: C12_14  and  N1_16 
REMARK   12  A    between atoms: N1_16  and  C13_17 
REMARK   13  A    between atoms: C18_26  and  C19_27 
REMARK   14  A    between atoms: C21_29  and  O5_30 
REMARK   15  A    between atoms: C22_31  and  O6_32 
REMARK   16  A    between atoms: C22_31  and  C23_33 
REMARK   17  A    between atoms: C23_33  and  C24_34 
REMARK   18  A    between atoms: C25_35  and  C26_36 
REMARK   19  A    between atoms: C26_36  and  C28_38 
REMARK   20  A    between atoms: C28_38  and  O7_40 
ROOT
HETATM    1  C4  UNL     1      -5.303  48.164 -30.052  1.00  0.00     0.283 C 
HETATM    2  O1  UNL     1      -5.020  49.043 -30.846  1.00  0.00    -0.260 OA
ENDROOT
BRANCH   1   3
HETATM    3  C3  UNL     1      -6.538  47.342 -30.063  1.00  0.00     0.084 C 
HETATM    4  C2  UNL     1      -7.332  47.101 -28.998  1.00  0.00    -0.076 C 
HETATM    5  C1  UNL     1      -7.100  47.688 -27.626  1.00  0.00     0.043 C 
BRANCH   4   6
HETATM    6  C18 UNL     1      -8.586  46.233 -29.057  1.00  0.00     0.066 C 
BRANCH   6   7
HETATM    7  C19 UNL     1      -9.486  46.113 -27.803  1.00  0.00     0.128 C 
HETATM    8  C20 UNL     1     -10.398  47.333 -27.653  1.00  0.00     0.067 C 
HETATM    9  C21 UNL     1     -11.511  47.354 -28.704  1.00  0.00     0.157 C 
HETATM   10  C22 UNL     1     -12.239  45.977 -28.806  1.00  0.00     0.108 C 
HETATM   11  C30 UNL     1     -11.635  44.985 -27.785  1.00  0.00     0.209 C 
HETATM   12  O8  UNL     1     -10.210  44.882 -27.872  1.00  0.00    -0.382 OA
BRANCH   9  13
HETATM   13  O5  UNL     1     -12.361  48.448 -28.362  1.00  0.00    -0.392 OA
HETATM   14  H28 UNL     1     -12.804  48.744 -29.187  1.00  0.00     0.210 HD
ENDBRANCH   9  13
BRANCH  10  15
HETATM   15  O6  UNL     1     -11.971  45.422 -30.118  1.00  0.00    -0.385 OA
HETATM   16  H29 UNL     1     -12.249  46.079 -30.781  1.00  0.00     0.210 HD
ENDBRANCH  10  15
BRANCH  10  17
HETATM   17  C23 UNL     1     -13.782  45.995 -28.608  1.00  0.00     0.069 C 
BRANCH  17  18
HETATM   18  C24 UNL     1     -14.239  46.725 -27.373  1.00  0.00    -0.027 C 
HETATM   19  C25 UNL     1     -14.980  46.164 -26.404  1.00  0.00    -0.024 C 
BRANCH  19  20
HETATM   20  C26 UNL     1     -15.234  46.835 -25.072  1.00  0.00     0.032 C 
HETATM   21  C27 UNL     1     -16.699  46.685 -24.667  1.00  0.00     0.017 C 
BRANCH  20  22
HETATM   22  C28 UNL     1     -14.255  46.317 -23.984  1.00  0.00     0.121 C 
HETATM   23  C29 UNL     1     -13.386  45.134 -24.399  1.00  0.00     0.040 C 
BRANCH  22  24
HETATM   24  O7  UNL     1     -13.390  47.392 -23.578  1.00  0.00    -0.395 OA
HETATM   25  H42 UNL     1     -12.855  47.059 -22.835  1.00  0.00     0.210 HD
ENDBRANCH  22  24
ENDBRANCH  20  22
ENDBRANCH  19  20
ENDBRANCH  17  18
ENDBRANCH  10  17
ENDBRANCH   6   7
ENDBRANCH   4   6
ENDBRANCH   1   3
BRANCH   1  26
HETATM   26  O2  UNL     1      -4.543  47.750 -29.004  1.00  0.00    -0.318 OA
BRANCH  26  27
HETATM   27  C5  UNL     1      -4.278  48.748 -28.007  1.00  0.00     0.179 C 
BRANCH  27  28
HETATM   28  C6  UNL     1      -3.017  48.373 -27.226  1.00  0.00     0.027 C 
BRANCH  28  29
HETATM   29  C7  UNL     1      -3.156  48.719 -25.738  1.00  0.00     0.002 C 
BRANCH  29  30
HETATM   30  C8  UNL     1      -2.101  49.707 -25.235  1.00  0.00     0.000 C 
BRANCH  30  31
HETATM   31  C9  UNL     1      -1.325  50.470 -26.310  1.00  0.00     0.000 C 
BRANCH  31  32
HETATM   32  C10 UNL     1       0.036  51.039 -25.894  1.00  0.00     0.009 C 
BRANCH  32  33
HETATM   33  C11 UNL     1       0.032  52.463 -25.343  1.00  0.00     0.103 C 
BRANCH  33  34
HETATM   34  C12 UNL     1      -0.408  52.589 -23.892  1.00  0.00     0.222 C 
HETATM   35  O3  UNL     1      -1.580  52.692 -23.557  1.00  0.00    -0.273 OA
HETATM   36  N1  UNL     1       0.675  52.557 -23.037  1.00  0.00    -0.321 N 
HETATM   37  H19 UNL     1       1.574  52.303 -23.442  1.00  0.00     0.169 HD
BRANCH  36  38
HETATM   38  C13 UNL     1       0.707  52.696 -21.675  1.00  0.00     0.123 A 
HETATM   39  C14 UNL     1       0.318  51.984 -20.610  1.00  0.00     0.071 A 
HETATM   40  S1  UNL     1      -0.475  50.489 -20.379  1.00  0.00    -0.049 SA
HETATM   41  C16 UNL     1       0.623  52.687 -19.395  1.00  0.00     0.062 A 
HETATM   42  S2  UNL     1      -0.460  50.597 -18.303  1.00  0.00    -0.062 SA
HETATM   43  C15 UNL     1       0.315  52.153 -18.219  1.00  0.00     0.088 A 
HETATM   44  N2  UNL     1       1.213  53.857 -19.726  1.00  0.00    -0.320 N 
HETATM   45  C17 UNL     1       1.310  53.953 -21.095  1.00  0.00     0.274 A 
HETATM   46  H21 UNL     1       1.555  54.565 -19.092  1.00  0.00     0.169 HD
HETATM   47  O4  UNL     1       1.790  54.863 -21.750  1.00  0.00    -0.266 OA
ENDBRANCH  36  38
ENDBRANCH  33  34
ENDBRANCH  32  33
ENDBRANCH  31  32
ENDBRANCH  30  31
ENDBRANCH  29  30
ENDBRANCH  28  29
ENDBRANCH  27  28
ENDBRANCH  26  27
ENDBRANCH   1  26
TORSDOF 20
ENDMDL
MODEL 2
REMARK minimizedAffinity -7.43395996
REMARK CNNscore 0.53080827
REMARK CNNaffinity 7.37612295
REMARK  20 active torsions:
REMARK  status: ('A' for Active; 'I' for Inactive)
REMARK    1  A    between atoms: C2_2  and  C18_26 
REMARK    2  A    between atoms: C3_3  and  C4_4 
REMARK    3  A    between atoms: C4_4  and  O2_6 
REMARK    4  A    between atoms: O2_6  and  C5_7 
REMARK    5  A    between atoms: C5_7  and  C6_8 
REMARK    6  A    between atoms: C6_8  and  C7_9 
REMARK    7  A    between atoms: C7_9  and  C8_10 
REMARK    8  A    between atoms: C8_10  and  C9_11 
REMARK    9  A    between atoms: C9_11  and  C10_12 
REMARK   10  A    between atoms: C10_12  and  C11_13 
REMARK   11  A    between atoms: C11_13  and  C12_14 
REMARK       I    between atoms: C12_14  and  N1_16 
REMARK   12  A    between atoms: N1_16  and  C13_17 
REMARK   13  A    between atoms: C18_26  and  C19_27 
REMARK   14  A    between atoms: C21_29  and  O5_30 
REMARK   15  A    between atoms: C22_31  and  O6_32 
REMARK   16  A    between atoms: C22_31  and  C23_33 
REMARK   17  A    between atoms: C23_33  and  C24_34 
REMARK   18  A    between atoms: C25_35  and  C26_36 
REMARK   19  A    between atoms: C26_36  and  C28_38 
REMARK   20  A    between atoms: C28_38  and  O7_40 
ROOT
HETATM    1  C4  UNL     1      -3.671  49.365 -26.902  1.00  0.00     0.283 C 
HETATM    2  O1  UNL     1      -4.082  50.372 -26.354  1.00  0.00    -0.260 OA
ENDROOT
BRANCH   1   3
HETATM    3  C3  UNL     1      -4.249  48.734 -28.114  1.00  0.00     0.084 C 
HETATM    4  C2  UNL     1      -5.340  47.940 -28.143  1.00  0.00    -0.076 C 
HETATM    5  C1  UNL     1      -6.177  47.615 -26.928  1.00  0.00     0.043 C 
BRANCH   4   6
HETATM    6  C18 UNL     1      -5.887  47.299 -29.415  1.00  0.00     0.066 C 
BRANCH   6   7
HETATM    7  C19 UNL     1      -4.962  47.144 -30.646  1.00  0.00     0.128 C 
HETATM    8  C20 UNL     1      -5.336  45.912 -31.473  1.00  0.00     0.067 C 
HETATM    9  C21 UNL     1      -6.654  46.102 -32.228  1.00  0.00     0.157 C 
HETATM   10  C22 UNL     1      -6.694  47.463 -32.992  1.00  0.00     0.108 C 
HETATM   11  C30 UNL     1      -5.364  48.223 -32.783  1.00  0.00     0.209 C 
HETATM   12  O8  UNL     1      -5.000  48.355 -31.406  1.00  0.00    -0.382 OA
BRANCH   9  13
HETATM   13  O5  UNL     1      -6.805  44.952 -33.060  1.00  0.00    -0.392 OA
HETATM   14  H28 UNL     1      -7.766  44.832 -33.222  1.00  0.00     0.210 HD
ENDBRANCH   9  13
BRANCH  10  15
HETATM   15  O6  UNL     1      -7.729  48.283 -32.395  1.00  0.00    -0.385 OA
HETATM   16  H29 UNL     1      -8.561  47.777 -32.422  1.00  0.00     0.210 HD
ENDBRANCH  10  15
BRANCH  10  17
HETATM   17  C23 UNL     1      -6.974  47.388 -34.521  1.00  0.00     0.069 C 
BRANCH  17  18
HETATM   18  C24 UNL     1      -8.434  47.323 -34.882  1.00  0.00    -0.027 C 
HETATM   19  C25 UNL     1      -8.908  46.693 -35.968  1.00  0.00    -0.024 C 
BRANCH  19  20
HETATM   20  C26 UNL     1     -10.383  46.440 -36.192  1.00  0.00     0.032 C 
HETATM   21  C27 UNL     1     -10.888  47.240 -37.391  1.00  0.00     0.017 C 
BRANCH  20  22
HETATM   22  C28 UNL     1     -10.681  44.921 -36.315  1.00  0.00     0.121 C 
HETATM   23  C29 UNL     1     -11.645  44.535 -37.433  1.00  0.00     0.040 C 
BRANCH  22  24
HETATM   24  O7  UNL     1      -9.446  44.212 -36.519  1.00  0.00    -0.395 OA
HETATM   25  H42 UNL     1      -9.658  43.262 -36.500  1.00  0.00     0.210 HD
ENDBRANCH  22  24
ENDBRANCH  20  22
ENDBRANCH  19  20
ENDBRANCH  17  18
ENDBRANCH  10  17
ENDBRANCH   6   7
ENDBRANCH   4   6
ENDBRANCH   1   3
BRANCH   1  26
HETATM   26  O2  UNL     1      -2.598  48.623 -26.524  1.00  0.00    -0.318 OA
BRANCH  26  27
HETATM   27  C5  UNL     1      -1.561  49.348 -25.844  1.00  0.00     0.179 C 
BRANCH  27  28
HETATM   28  C6  UNL     1      -0.946  50.378 -26.792  1.00  0.00     0.027 C 
BRANCH  28  29
HETATM   29  C7  UNL     1       0.527  50.640 -26.457  1.00  0.00     0.002 C 
BRANCH  29  30
HETATM   30  C8  UNL     1       1.192  51.673 -27.370  1.00  0.00     0.000 C 
BRANCH  30  31
HETATM   31  C9  UNL     1       0.248  52.571 -28.171  1.00  0.00     0.000 C 
BRANCH  31  32
HETATM   32  C10 UNL     1      -0.325  53.786 -27.433  1.00  0.00     0.009 C 
BRANCH  32  33
HETATM   33  C11 UNL     1       0.381  54.185 -26.139  1.00  0.00     0.103 C 
BRANCH  33  34
HETATM   34  C12 UNL     1      -0.245  53.630 -24.868  1.00  0.00     0.222 C 
HETATM   35  O3  UNL     1      -1.441  53.396 -24.761  1.00  0.00    -0.273 OA
HETATM   36  N1  UNL     1       0.707  53.423 -23.891  1.00  0.00    -0.321 N 
HETATM   37  H19 UNL     1       1.682  53.506 -24.173  1.00  0.00     0.169 HD
BRANCH  36  38
HETATM   38  C13 UNL     1       0.544  52.992 -22.601  1.00  0.00     0.123 A 
HETATM   39  C14 UNL     1      -0.101  52.000 -21.976  1.00  0.00     0.071 A 
HETATM   40  S1  UNL     1      -1.120  50.720 -22.469  1.00  0.00    -0.049 SA
HETATM   41  C16 UNL     1       0.104  52.081 -20.556  1.00  0.00     0.062 A 
HETATM   42  S2  UNL     1      -1.415  49.976 -20.550  1.00  0.00    -0.062 SA
HETATM   43  C15 UNL     1      -0.455  51.188 -19.749  1.00  0.00     0.088 A 
HETATM   44  N2  UNL     1       0.894  53.148 -20.309  1.00  0.00    -0.320 N 
HETATM   45  C17 UNL     1       1.217  53.768 -21.494  1.00  0.00     0.274 A 
HETATM   46  H21 UNL     1       1.227  53.461 -19.408  1.00  0.00     0.169 HD
HETATM   47  O4  UNL     1       1.914  54.754 -21.659  1.00  0.00    -0.266 OA
ENDBRANCH  36  38
ENDBRANCH  33  34
ENDBRANCH  32  33
ENDBRANCH  31  32
ENDBRANCH  30  31
ENDBRANCH  29  30
ENDBRANCH  28  29
ENDBRANCH  27  28
ENDBRANCH  26  27
ENDBRANCH   1  26
TORSDOF 20
ENDMDL
MODEL 3
REMARK minimizedAffinity -7.76064157
REMARK CNNscore 0.512830973
REMARK CNNaffinity 7.36808205
REMARK  20 active torsions:
REMARK  status: ('A' for Active; 'I' for Inactive)
REMARK    1  A    between atoms: C2_2  and  C18_26 
REMARK    2  A    between atoms: C3_3  and  C4_4 
REMARK    3  A    between atoms: C4_4  and  O2_6 
REMARK    4  A    between atoms: O2_6  and  C5_7 
REMARK    5  A    between atoms: C5_7  and  C6_8 
REMARK    6  A    between atoms: C6_8  and  C7_9 
REMARK    7  A    between atoms: C7_9  and  C8_10 
REMARK    8  A    between atoms: C8_10  and  C9_11 
REMARK    9  A    between atoms: C9_11  and  C10_12 
REMARK   10  A    between atoms: C10_12  and  C11_13 
REMARK   11  A    between atoms: C11_13  and  C12_14 
REMARK       I    between atoms: C12_14  and  N1_16 
REMARK   12  A    between atoms: N1_16  and  C13_17 
REMARK   13  A    between atoms: C18_26  and  C19_27 
REMARK   14  A    between atoms: C21_29  and  O5_30 
REMARK   15  A    between atoms: C22_31  and  O6_32 
REMARK   16  A    between atoms: C22_31  and  C23_33 
REMARK   17  A    between atoms: C23_33  and  C24_34 
REMARK   18  A    between atoms: C25_35  and  C26_36 
REMARK   19  A    between atoms: C26_36  and  C28_38 
REMARK   20  A    between atoms: C28_38  and  O7_40 
ROOT
HETATM    1  C4  UNL     1      -4.616  48.546 -24.137  1.00  0.00     0.283 C 
HETATM    2  O1  UNL     1      -4.819  47.770 -23.221  1.00  0.00    -0.260 OA
ENDROOT
BRANCH   1   3
HETATM    3  C3  UNL     1      -5.237  48.489 -25.483  1.00  0.00     0.084 C 
HETATM    4  C2  UNL     1      -4.574  48.335 -26.649  1.00  0.00    -0.076 C 
HETATM    5  C1  UNL     1      -3.079  48.144 -26.748  1.00  0.00     0.043 C 
BRANCH   4   6
HETATM    6  C18 UNL     1      -5.258  48.299 -28.013  1.00  0.00     0.066 C 
BRANCH   6   7
HETATM    7  C19 UNL     1      -6.217  47.131 -28.350  1.00  0.00     0.128 C 
HETATM    8  C20 UNL     1      -7.625  47.393 -27.810  1.00  0.00     0.067 C 
HETATM    9  C21 UNL     1      -8.350  48.489 -28.594  1.00  0.00     0.157 C 
HETATM   10  C22 UNL     1      -8.253  48.262 -30.135  1.00  0.00     0.108 C 
HETATM   11  C30 UNL     1      -7.464  46.964 -30.426  1.00  0.00     0.209 C 
HETATM   12  O8  UNL     1      -6.197  46.912 -29.763  1.00  0.00    -0.382 OA
BRANCH   9  13
HETATM   13  O5  UNL     1      -9.683  48.527 -28.085  1.00  0.00    -0.392 OA
HETATM   14  H28 UNL     1     -10.030  49.433 -28.240  1.00  0.00     0.210 HD
ENDBRANCH   9  13
BRANCH  10  15
HETATM   15  O6  UNL     1      -7.475  49.346 -30.702  1.00  0.00    -0.385 OA
HETATM   16  H29 UNL     1      -7.899  50.183 -30.440  1.00  0.00     0.210 HD
ENDBRANCH  10  15
BRANCH  10  17
HETATM   17  C23 UNL     1      -9.600  48.192 -30.909  1.00  0.00     0.069 C 
BRANCH  17  18
HETATM   18  C24 UNL     1     -10.168  46.804 -31.042  1.00  0.00    -0.027 C 
HETATM   19  C25 UNL     1     -10.823  46.365 -32.129  1.00  0.00    -0.024 C 
BRANCH  19  20
HETATM   20  C26 UNL     1     -11.181  44.910 -32.339  1.00  0.00     0.032 C 
HETATM   21  C27 UNL     1     -11.505  44.645 -33.808  1.00  0.00     0.017 C 
BRANCH  20  22
HETATM   22  C28 UNL     1     -10.074  43.972 -31.790  1.00  0.00     0.121 C 
HETATM   23  C29 UNL     1     -10.480  43.114 -30.595  1.00  0.00     0.040 C 
BRANCH  22  24
HETATM   24  O7  UNL     1      -9.630  43.098 -32.843  1.00  0.00    -0.395 OA
HETATM   25  H42 UNL     1      -8.877  42.590 -32.492  1.00  0.00     0.210 HD
ENDBRANCH  22  24
ENDBRANCH  20  22
ENDBRANCH  19  20
ENDBRANCH  17  18
ENDBRANCH  10  17
ENDBRANCH   6   7
ENDBRANCH   4   6
ENDBRANCH   1   3
BRANCH   1  26
HETATM   26  O2  UNL     1      -3.791  49.625 -24.110  1.00  0.00    -0.318 OA
BRANCH  26  27
HETATM   27  C5  UNL     1      -4.375  50.854 -24.571  1.00  0.00     0.179 C 
BRANCH  27  28
HETATM   28  C6  UNL     1      -3.279  51.905 -24.759  1.00  0.00     0.027 C 
BRANCH  28  29
HETATM   29  C7  UNL     1      -3.060  52.227 -26.242  1.00  0.00     0.002 C 
BRANCH  29  30
HETATM   30  C8  UNL     1      -1.912  51.442 -26.881  1.00  0.00     0.000 C 
BRANCH  30  31
HETATM   31  C9  UNL     1      -0.875  50.863 -25.917  1.00  0.00     0.000 C 
BRANCH  31  32
HETATM   32  C10 UNL     1       0.593  51.181 -26.224  1.00  0.00     0.009 C 
BRANCH  32  33
HETATM   33  C11 UNL     1       1.093  52.552 -25.774  1.00  0.00     0.103 C 
BRANCH  33  34
HETATM   34  C12 UNL     1       0.429  53.099 -24.519  1.00  0.00     0.222 C 
HETATM   35  O3  UNL     1      -0.450  53.949 -24.546  1.00  0.00    -0.273 OA
HETATM   36  N1  UNL     1       0.939  52.502 -23.384  1.00  0.00    -0.321 N 
HETATM   37  H19 UNL     1       1.546  51.696 -23.520  1.00  0.00     0.169 HD
BRANCH  36  38
HETATM   38  C13 UNL     1       0.649  52.753 -22.069  1.00  0.00     0.123 A 
HETATM   39  C14 UNL     1      -0.057  52.167 -21.094  1.00  0.00     0.071 A 
HETATM   40  S1  UNL     1      -1.024  50.764 -20.977  1.00  0.00    -0.049 SA
HETATM   41  C16 UNL     1       0.007  52.945 -19.888  1.00  0.00     0.062 A 
HETATM   42  S2  UNL     1      -1.509  51.046 -18.975  1.00  0.00    -0.062 SA
HETATM   43  C15 UNL     1      -0.630  52.539 -18.797  1.00  0.00     0.088 A 
HETATM   44  N2  UNL     1       0.771  54.032 -20.133  1.00  0.00    -0.320 N 
HETATM   45  C17 UNL     1       1.210  54.004 -21.436  1.00  0.00     0.274 A 
HETATM   46  H21 UNL     1       1.014  54.763 -19.479  1.00  0.00     0.169 HD
HETATM   47  O4  UNL     1       1.922  54.814 -22.005  1.00  0.00    -0.266 OA
ENDBRANCH  36  38
ENDBRANCH  33  34
ENDBRANCH  32  33
ENDBRANCH  31  32
ENDBRANCH  30  31
ENDBRANCH  29  30
ENDBRANCH  28  29
ENDBRANCH  27  28
ENDBRANCH  26  27
ENDBRANCH   1  26
TORSDOF 20
ENDMDL
MODEL 4
REMARK minimizedAffinity -7.21947241
REMARK CNNscore 0.343530774
REMARK CNNaffinity 5.95059443
REMARK  20 active torsions:
REMARK  status: ('A' for Active; 'I' for Inactive)
REMARK    1  A    between atoms: C2_2  and  C18_26 
REMARK    2  A    between atoms: C3_3  and  C4_4 
REMARK    3  A    between atoms: C4_4  and  O2_6 
REMARK    4  A    between atoms: O2_6  and  C5_7 
REMARK    5  A    between atoms: C5_7  and  C6_8 
REMARK    6  A    between atoms: C6_8  and  C7_9 
REMARK    7  A    between atoms: C7_9  and  C8_10 
REMARK    8  A    between atoms: C8_10  and  C9_11 
REMARK    9  A    between atoms: C9_11  and  C10_12 
REMARK   10  A    between atoms: C10_12  and  C11_13 
REMARK   11  A    between atoms: C11_13  and  C12_14 
REMARK       I    between atoms: C12_14  and  N1_16 
REMARK   12  A    between atoms: N1_16  and  C13_17 
REMARK   13  A    between atoms: C18_26  and  C19_27 
REMARK   14  A    between atoms: C21_29  and  O5_30 
REMARK   15  A    between atoms: C22_31  and  O6_32 
REMARK   16  A    between atoms: C22_31  and  C23_33 
REMARK   17  A    between atoms: C23_33  and  C24_34 
REMARK   18  A    between atoms: C25_35  and  C26_36 
REMARK   19  A    between atoms: C26_36  and  C28_38 
REMARK   20  A    between atoms: C28_38  and  O7_40 
ROOT
HETATM    1  C4  UNL     1      -3.985  49.023 -28.067  1.00  0.00     0.283 C 
HETATM    2  O1  UNL     1      -3.638  49.981 -28.734  1.00  0.00    -0.260 OA
ENDROOT
BRANCH   1   3
HETATM    3  C3  UNL     1      -3.934  48.926 -26.588  1.00  0.00     0.084 C 
HETATM    4  C2  UNL     1      -2.922  49.357 -25.806  1.00  0.00    -0.076 C 
HETATM    5  C1  UNL     1      -1.694  50.062 -26.332  1.00  0.00     0.043 C 
BRANCH   4   6
HETATM    6  C18 UNL     1      -2.909  49.220 -24.286  1.00  0.00     0.066 C 
BRANCH   6   7
HETATM    7  C19 UNL     1      -2.095  50.228 -23.439  1.00  0.00     0.128 C 
HETATM    8  C20 UNL     1      -2.999  51.307 -22.838  1.00  0.00     0.067 C 
HETATM    9  C21 UNL     1      -3.882  50.761 -21.714  1.00  0.00     0.157 C 
HETATM   10  C22 UNL     1      -3.060  49.921 -20.686  1.00  0.00     0.108 C 
HETATM   11  C30 UNL     1      -1.568  49.906 -21.092  1.00  0.00     0.209 C 
HETATM   12  O8  UNL     1      -1.356  49.508 -22.450  1.00  0.00    -0.382 OA
BRANCH   9  13
HETATM   13  O5  UNL     1      -4.556  51.887 -21.154  1.00  0.00    -0.392 OA
HETATM   14  H28 UNL     1      -5.391  51.559 -20.754  1.00  0.00     0.210 HD
ENDBRANCH   9  13
BRANCH  10  15
HETATM   15  O6  UNL     1      -3.515  48.547 -20.762  1.00  0.00    -0.385 OA
HETATM   16  H29 UNL     1      -4.477  48.544 -20.612  1.00  0.00     0.210 HD
ENDBRANCH  10  15
BRANCH  10  17
HETATM   17  C23 UNL     1      -3.153  50.368 -19.199  1.00  0.00     0.069 C 
BRANCH  17  18
HETATM   18  C24 UNL     1      -2.214  51.485 -18.828  1.00  0.00    -0.027 C 
HETATM   19  C25 UNL     1      -0.895  51.468 -19.079  1.00  0.00    -0.024 C 
BRANCH  19  20
HETATM   20  C26 UNL     1      -0.011  52.684 -18.911  1.00  0.00     0.032 C 
HETATM   21  C27 UNL     1       0.855  52.548 -17.661  1.00  0.00     0.017 C 
BRANCH  20  22
HETATM   22  C28 UNL     1       0.822  52.956 -20.192  1.00  0.00     0.121 C 
HETATM   23  C29 UNL     1       0.034  52.941 -21.498  1.00  0.00     0.040 C 
BRANCH  22  24
HETATM   24  O7  UNL     1       1.469  54.236 -20.071  1.00  0.00    -0.395 OA
HETATM   25  H42 UNL     1       2.052  54.333 -20.845  1.00  0.00     0.210 HD
ENDBRANCH  22  24
ENDBRANCH  20  22
ENDBRANCH  19  20
ENDBRANCH  17  18
ENDBRANCH  10  17
ENDBRANCH   6   7
ENDBRANCH   4   6
ENDBRANCH   1   3
BRANCH   1  26
HETATM   26  O2  UNL     1      -4.500  47.857 -28.538  1.00  0.00    -0.318 OA
BRANCH  26  27
HETATM   27  C5  UNL     1      -5.925  47.724 -28.421  1.00  0.00     0.179 C 
BRANCH  27  28
HETATM   28  C6  UNL     1      -6.454  46.843 -29.554  1.00  0.00     0.027 C 
BRANCH  28  29
HETATM   29  C7  UNL     1      -7.760  46.144 -29.158  1.00  0.00     0.002 C 
BRANCH  29  30
HETATM   30  C8  UNL     1      -8.774  47.071 -28.481  1.00  0.00     0.000 C 
BRANCH  30  31
HETATM   31  C9  UNL     1      -9.588  47.971 -29.411  1.00  0.00     0.000 C 
BRANCH  31  32
HETATM   32  C10 UNL     1     -11.095  47.696 -29.478  1.00  0.00     0.009 C 
BRANCH  32  33
HETATM   33  C11 UNL     1     -11.519  46.232 -29.376  1.00  0.00     0.103 C 
BRANCH  33  34
HETATM   34  C12 UNL     1     -12.271  45.868 -28.105  1.00  0.00     0.222 C 
HETATM   35  O3  UNL     1     -11.720  45.427 -27.106  1.00  0.00    -0.273 OA
HETATM   36  N1  UNL     1     -13.623  46.115 -28.236  1.00  0.00    -0.321 N 
HETATM   37  H19 UNL     1     -13.918  46.634 -29.061  1.00  0.00     0.169 HD
BRANCH  36  38
HETATM   38  C13 UNL     1     -14.638  45.872 -27.349  1.00  0.00     0.123 A 
HETATM   39  C14 UNL     1     -14.892  46.130 -26.060  1.00  0.00     0.071 A 
HETATM   40  S1  UNL     1     -14.046  46.900 -24.791  1.00  0.00    -0.049 SA
HETATM   41  C16 UNL     1     -16.167  45.589 -25.680  1.00  0.00     0.062 A 
HETATM   42  S2  UNL     1     -15.536  46.598 -23.373  1.00  0.00    -0.062 SA
HETATM   43  C15 UNL     1     -16.610  45.734 -24.437  1.00  0.00     0.088 A 
HETATM   44  N2  UNL     1     -16.705  44.986 -26.763  1.00  0.00    -0.320 N 
HETATM   45  C17 UNL     1     -15.847  45.107 -27.831  1.00  0.00     0.274 A 
HETATM   46  H21 UNL     1     -17.601  44.524 -26.817  1.00  0.00     0.169 HD
HETATM   47  O4  UNL     1     -16.001  44.692 -28.967  1.00  0.00    -0.266 OA
ENDBRANCH  36  38
ENDBRANCH  33  34
ENDBRANCH  32  33
ENDBRANCH  31  32
ENDBRANCH  30  31
ENDBRANCH  29  30
ENDBRANCH  28  29
ENDBRANCH  27  28
ENDBRANCH  26  27
ENDBRANCH   1  26
TORSDOF 20
ENDMDL
MODEL 5
REMARK minimizedAffinity -7.40088844
REMARK CNNscore 0.324819088
REMARK CNNaffinity 6.94737625
REMARK  20 active torsions:
REMARK  status: ('A' for Active; 'I' for Inactive)
REMARK    1  A    between atoms: C2_2  and  C18_26 
REMARK    2  A    between atoms: C3_3  and  C4_4 
REMARK    3  A    between atoms: C4_4  and  O2_6 
REMARK    4  A    between atoms: O2_6  and  C5_7 
REMARK    5  A    between atoms: C5_7  and  C6_8 
REMARK    6  A    between atoms: C6_8  and  C7_9 
REMARK    7  A    between atoms: C7_9  and  C8_10 
REMARK    8  A    between atoms: C8_10  and  C9_11 
REMARK    9  A    between atoms: C9_11  and  C10_12 
REMARK   10  A    between atoms: C10_12  and  C11_13 
REMARK   11  A    between atoms: C11_13  and  C12_14 
REMARK       I    between atoms: C12_14  and  N1_16 
REMARK   12  A    between atoms: N1_16  and  C13_17 
REMARK   13  A    between atoms: C18_26  and  C19_27 
REMARK   14  A    between atoms: C21_29  and  O5_30 
REMARK   15  A    between atoms: C22_31  and  O6_32 
REMARK   16  A    between atoms: C22_31  and  C23_33 
REMARK   17  A    between atoms: C23_33  and  C24_34 
REMARK   18  A    between atoms: C25_35  and  C26_36 
REMARK   19  A    between atoms: C26_36  and  C28_38 
REMARK   20  A    between atoms: C28_38  and  O7_40 
ROOT
HETATM    1  C4  UNL     1      -6.845  47.464 -24.368  1.00  0.00     0.283 C 
HETATM    2  O1  UNL     1      -6.275  47.393 -23.293  1.00  0.00    -0.260 OA
ENDROOT
BRANCH   1   3
HETATM    3  C3  UNL     1      -8.288  47.223 -24.608  1.00  0.00     0.084 C 
HETATM    4  C2  UNL     1      -8.803  46.308 -25.456  1.00  0.00    -0.076 C 
HETATM    5  C1  UNL     1      -7.965  45.342 -26.260  1.00  0.00     0.043 C 
BRANCH   4   6
HETATM    6  C18 UNL     1     -10.300  46.109 -25.681  1.00  0.00     0.066 C 
BRANCH   6   7
HETATM    7  C19 UNL     1     -11.126  47.241 -26.336  1.00  0.00     0.128 C 
HETATM    8  C20 UNL     1     -10.230  48.399 -26.782  1.00  0.00     0.067 C 
HETATM    9  C21 UNL     1      -9.379  48.034 -28.000  1.00  0.00     0.157 C 
HETATM   10  C22 UNL     1     -10.232  47.370 -29.127  1.00  0.00     0.108 C 
HETATM   11  C30 UNL     1     -11.714  47.297 -28.690  1.00  0.00     0.209 C 
HETATM   12  O8  UNL     1     -11.895  46.689 -27.408  1.00  0.00    -0.382 OA
BRANCH   9  13
HETATM   13  O5  UNL     1      -8.711  49.232 -28.393  1.00  0.00    -0.392 OA
HETATM   14  H28 UNL     1      -7.887  48.969 -28.860  1.00  0.00     0.210 HD
ENDBRANCH   9  13
BRANCH  10  15
HETATM   15  O6  UNL     1      -9.786  46.000 -29.281  1.00  0.00    -0.385 OA
HETATM   16  H29 UNL     1      -8.827  46.018 -29.454  1.00  0.00     0.210 HD
ENDBRANCH  10  15
BRANCH  10  17
HETATM   17  C23 UNL     1     -10.173  48.046 -30.526  1.00  0.00     0.069 C 
BRANCH  17  18
HETATM   18  C24 UNL     1      -9.083  47.521 -31.423  1.00  0.00    -0.027 C 
HETATM   19  C25 UNL     1      -7.817  47.968 -31.402  1.00  0.00    -0.024 C 
BRANCH  19  20
HETATM   20  C26 UNL     1      -6.690  47.278 -32.139  1.00  0.00     0.032 C 
HETATM   21  C27 UNL     1      -6.360  45.940 -31.481  1.00  0.00     0.017 C 
BRANCH  20  22
HETATM   22  C28 UNL     1      -7.008  47.140 -33.652  1.00  0.00     0.121 C 
HETATM   23  C29 UNL     1      -8.459  47.404 -34.041  1.00  0.00     0.040 C 
BRANCH  22  24
HETATM   24  O7  UNL     1      -6.170  48.044 -34.394  1.00  0.00    -0.395 OA
HETATM   25  H42 UNL     1      -6.328  47.866 -35.339  1.00  0.00     0.210 HD
ENDBRANCH  22  24
ENDBRANCH  20  22
ENDBRANCH  19  20
ENDBRANCH  17  18
ENDBRANCH  10  17
ENDBRANCH   6   7
ENDBRANCH   4   6
ENDBRANCH   1   3
BRANCH   1  26
HETATM   26  O2  UNL     1      -6.278  47.787 -25.559  1.00  0.00    -0.318 OA
BRANCH  26  27
HETATM   27  C5  UNL     1      -4.973  48.380 -25.477  1.00  0.00     0.179 C 
BRANCH  27  28
HETATM   28  C6  UNL     1      -4.303  48.343 -26.852  1.00  0.00     0.027 C 
BRANCH  28  29
HETATM   29  C7  UNL     1      -3.259  49.457 -26.997  1.00  0.00     0.002 C 
BRANCH  29  30
HETATM   30  C8  UNL     1      -2.005  49.240 -26.146  1.00  0.00     0.000 C 
BRANCH  30  31
HETATM   31  C9  UNL     1      -1.362  50.499 -25.563  1.00  0.00     0.000 C 
BRANCH  31  32
HETATM   32  C10 UNL     1      -0.053  50.960 -26.216  1.00  0.00     0.009 C 
BRANCH  32  33
HETATM   33  C11 UNL     1       0.595  52.207 -25.619  1.00  0.00     0.103 C 
BRANCH  33  34
HETATM   34  C12 UNL     1       0.026  52.648 -24.279  1.00  0.00     0.222 C 
HETATM   35  O3  UNL     1      -1.042  53.233 -24.169  1.00  0.00    -0.273 OA
HETATM   36  N1  UNL     1       0.861  52.291 -23.239  1.00  0.00    -0.321 N 
HETATM   37  H19 UNL     1       1.633  51.667 -23.463  1.00  0.00     0.169 HD
BRANCH  36  38
HETATM   38  C13 UNL     1       0.736  52.552 -21.900  1.00  0.00     0.123 A 
HETATM   39  C14 UNL     1       0.273  51.913 -20.819  1.00  0.00     0.071 A 
HETATM   40  S1  UNL     1      -0.457  50.396 -20.530  1.00  0.00    -0.049 SA
HETATM   41  C16 UNL     1       0.404  52.739 -19.651  1.00  0.00     0.062 A 
HETATM   42  S2  UNL     1      -0.674  50.687 -18.484  1.00  0.00    -0.062 SA
HETATM   43  C15 UNL     1      -0.000  52.293 -18.468  1.00  0.00     0.088 A 
HETATM   44  N2  UNL     1       0.961  53.911 -20.029  1.00  0.00    -0.320 N 
HETATM   45  C17 UNL     1       1.201  53.892 -21.383  1.00  0.00     0.274 A 
HETATM   46  H21 UNL     1       1.192  54.693 -19.433  1.00  0.00     0.169 HD
HETATM   47  O4  UNL     1       1.699  54.769 -22.069  1.00  0.00    -0.266 OA
ENDBRANCH  36  38
ENDBRANCH  33  34
ENDBRANCH  32  33
ENDBRANCH  31  32
ENDBRANCH  30  31
ENDBRANCH  29  30
ENDBRANCH  28  29
ENDBRANCH  27  28
ENDBRANCH  26  27
ENDBRANCH   1  26
TORSDOF 20
ENDMDL
MODEL 6
REMARK minimizedAffinity -7.42740774
REMARK CNNscore 0.288402766
REMARK CNNaffinity 5.8433795
REMARK  20 active torsions:
REMARK  status: ('A' for Active; 'I' for Inactive)
REMARK    1  A    between atoms: C2_2  and  C18_26 
REMARK    2  A    between atoms: C3_3  and  C4_4 
REMARK    3  A    between atoms: C4_4  and  O2_6 
REMARK    4  A    between atoms: O2_6  and  C5_7 
REMARK    5  A    between atoms: C5_7  and  C6_8 
REMARK    6  A    between atoms: C6_8  and  C7_9 
REMARK    7  A    between atoms: C7_9  and  C8_10 
REMARK    8  A    between atoms: C8_10  and  C9_11 
REMARK    9  A    between atoms: C9_11  and  C10_12 
REMARK   10  A    between atoms: C10_12  and  C11_13 
REMARK   11  A    between atoms: C11_13  and  C12_14 
REMARK       I    between atoms: C12_14  and  N1_16 
REMARK   12  A    between atoms: N1_16  and  C13_17 
REMARK   13  A    between atoms: C18_26  and  C19_27 
REMARK   14  A    between atoms: C21_29  and  O5_30 
REMARK   15  A    between atoms: C22_31  and  O6_32 
REMARK   16  A    between atoms: C22_31  and  C23_33 
REMARK   17  A    between atoms: C23_33  and  C24_34 
REMARK   18  A    between atoms: C25_35  and  C26_36 
REMARK   19  A    between atoms: C26_36  and  C28_38 
REMARK   20  A    between atoms: C28_38  and  O7_40 
ROOT
HETATM    1  C4  UNL     1      -5.443  48.062 -29.242  1.00  0.00     0.283 C 
HETATM    2  O1  UNL     1      -4.802  47.830 -30.252  1.00  0.00    -0.260 OA
ENDROOT
BRANCH   1   3
HETATM    3  C3  UNL     1      -4.929  48.016 -27.852  1.00  0.00     0.084 C 
HETATM    4  C2  UNL     1      -4.022  48.863 -27.320  1.00  0.00    -0.076 C 
HETATM    5  C1  UNL     1      -3.428  50.036 -28.065  1.00  0.00     0.043 C 
BRANCH   4   6
HETATM    6  C18 UNL     1      -3.511  48.765 -25.885  1.00  0.00     0.066 C 
BRANCH   6   7
HETATM    7  C19 UNL     1      -4.417  49.235 -24.722  1.00  0.00     0.128 C 
HETATM    8  C20 UNL     1      -4.408  48.231 -23.568  1.00  0.00     0.067 C 
HETATM    9  C21 UNL     1      -3.079  48.236 -22.809  1.00  0.00     0.157 C 
HETATM   10  C22 UNL     1      -2.624  49.684 -22.444  1.00  0.00     0.108 C 
HETATM   11  C30 UNL     1      -3.674  50.706 -22.940  1.00  0.00     0.209 C 
HETATM   12  O8  UNL     1      -4.009  50.546 -24.321  1.00  0.00    -0.382 OA
BRANCH   9  13
HETATM   13  O5  UNL     1      -3.259  47.373 -21.686  1.00  0.00    -0.392 OA
HETATM   14  H28 UNL     1      -2.373  47.030 -21.435  1.00  0.00     0.210 HD
ENDBRANCH   9  13
BRANCH  10  15
HETATM   15  O6  UNL     1      -1.405  49.969 -23.174  1.00  0.00    -0.385 OA
HETATM   16  H29 UNL     1      -0.759  49.273 -22.956  1.00  0.00     0.210 HD
ENDBRANCH  10  15
BRANCH  10  17
HETATM   17  C23 UNL     1      -2.350  49.963 -20.939  1.00  0.00     0.069 C 
BRANCH  17  18
HETATM   18  C24 UNL     1      -1.789  51.332 -20.654  1.00  0.00    -0.027 C 
HETATM   19  C25 UNL     1      -0.505  51.561 -20.335  1.00  0.00    -0.024 C 
BRANCH  19  20
HETATM   20  C26 UNL     1       0.091  52.950 -20.280  1.00  0.00     0.032 C 
HETATM   21  C27 UNL     1       0.630  53.247 -18.882  1.00  0.00     0.017 C 
BRANCH  20  22
HETATM   22  C28 UNL     1       1.159  53.149 -21.389  1.00  0.00     0.121 C 
HETATM   23  C29 UNL     1       0.656  52.970 -22.818  1.00  0.00     0.040 C 
BRANCH  22  24
HETATM   24  O7  UNL     1       1.722  54.468 -21.271  1.00  0.00    -0.395 OA
HETATM   25  H42 UNL     1       2.448  54.526 -21.918  1.00  0.00     0.210 HD
ENDBRANCH  22  24
ENDBRANCH  20  22
ENDBRANCH  19  20
ENDBRANCH  17  18
ENDBRANCH  10  17
ENDBRANCH   6   7
ENDBRANCH   4   6
ENDBRANCH   1   3
BRANCH   1  26
HETATM   26  O2  UNL     1      -6.752  48.420 -29.184  1.00  0.00    -0.318 OA
BRANCH  26  27
HETATM   27  C5  UNL     1      -7.668  47.497 -29.794  1.00  0.00     0.179 C 
BRANCH  27  28
HETATM   28  C6  UNL     1      -8.446  48.202 -30.906  1.00  0.00     0.027 C 
BRANCH  28  29
HETATM   29  C7  UNL     1      -8.998  47.200 -31.927  1.00  0.00     0.002 C 
BRANCH  29  30
HETATM   30  C8  UNL     1     -10.500  46.941 -31.786  1.00  0.00     0.000 C 
BRANCH  30  31
HETATM   31  C9  UNL     1     -10.942  45.480 -31.880  1.00  0.00     0.000 C 
BRANCH  31  32
HETATM   32  C10 UNL     1     -10.709  44.782 -33.225  1.00  0.00     0.009 C 
BRANCH  32  33
HETATM   33  C11 UNL     1     -11.775  45.006 -34.295  1.00  0.00     0.103 C 
BRANCH  33  34
HETATM   34  C12 UNL     1     -11.349  45.899 -35.450  1.00  0.00     0.222 C 
HETATM   35  O3  UNL     1     -10.187  46.227 -35.646  1.00  0.00    -0.273 OA
HETATM   36  N1  UNL     1     -12.431  46.262 -36.227  1.00  0.00    -0.321 N 
HETATM   37  H19 UNL     1     -13.311  45.784 -36.043  1.00  0.00     0.169 HD
BRANCH  36  38
HETATM   38  C13 UNL     1     -12.476  47.094 -37.314  1.00  0.00     0.123 A 
HETATM   39  C14 UNL     1     -11.724  47.329 -38.397  1.00  0.00     0.071 A 
HETATM   40  S1  UNL     1     -10.249  46.717 -39.001  1.00  0.00    -0.049 SA
HETATM   41  C16 UNL     1     -12.306  48.371 -39.197  1.00  0.00     0.062 A 
HETATM   42  S2  UNL     1     -10.233  47.924 -40.694  1.00  0.00    -0.062 SA
HETATM   43  C15 UNL     1     -11.713  48.760 -40.319  1.00  0.00     0.088 A 
HETATM   44  N2  UNL     1     -13.441  48.781 -38.589  1.00  0.00    -0.320 N 
HETATM   45  C17 UNL     1     -13.630  48.060 -37.433  1.00  0.00     0.274 A 
HETATM   46  H21 UNL     1     -14.080  49.492 -38.913  1.00  0.00     0.169 HD
HETATM   47  O4  UNL     1     -14.547  48.152 -36.633  1.00  0.00    -0.266 OA
ENDBRANCH  36  38
ENDBRANCH  33  34
ENDBRANCH  32  33
ENDBRANCH  31  32
ENDBRANCH  30  31
ENDBRANCH  29  30
ENDBRANCH  28  29
ENDBRANCH  27  28
ENDBRANCH  26  27
ENDBRANCH   1  26
TORSDOF 20
ENDMDL
MODEL 7
REMARK minimizedAffinity -7.40547276
REMARK CNNscore 0.251567423
REMARK CNNaffinity 6.67068624
REMARK  20 active torsions:
REMARK  status: ('A' for Active; 'I' for Inactive)
REMARK    1  A    between atoms: C2_2  and  C18_26 
REMARK    2  A    between atoms: C3_3  and  C4_4 
REMARK    3  A    between atoms: C4_4  and  O2_6 
REMARK    4  A    between atoms: O2_6  and  C5_7 
REMARK    5  A    between atoms: C5_7  and  C6_8 
REMARK    6  A    between atoms: C6_8  and  C7_9 
REMARK    7  A    between atoms: C7_9  and  C8_10 
REMARK    8  A    between atoms: C8_10  and  C9_11 
REMARK    9  A    between atoms: C9_11  and  C10_12 
REMARK   10  A    between atoms: C10_12  and  C11_13 
REMARK   11  A    between atoms: C11_13  and  C12_14 
REMARK       I    between atoms: C12_14  and  N1_16 
REMARK   12  A    between atoms: N1_16  and  C13_17 
REMARK   13  A    between atoms: C18_26  and  C19_27 
REMARK   14  A    between atoms: C21_29  and  O5_30 
REMARK   15  A    between atoms: C22_31  and  O6_32 
REMARK   16  A    between atoms: C22_31  and  C23_33 
REMARK   17  A    between atoms: C23_33  and  C24_34 
REMARK   18  A    between atoms: C25_35  and  C26_36 
REMARK   19  A    between atoms: C26_36  and  C28_38 
REMARK   20  A    between atoms: C28_38  and  O7_40 
ROOT
HETATM    1  C4  UNL     1      -3.468  48.970 -26.786  1.00  0.00     0.283 C 
HETATM    2  O1  UNL     1      -2.847  48.176 -26.102  1.00  0.00    -0.260 OA
ENDROOT
BRANCH   1   3
HETATM    3  C3  UNL     1      -4.009  48.716 -28.143  1.00  0.00     0.084 C 
HETATM    4  C2  UNL     1      -5.186  48.116 -28.420  1.00  0.00    -0.076 C 
HETATM    5  C1  UNL     1      -6.164  47.653 -27.366  1.00  0.00     0.043 C 
BRANCH   4   6
HETATM    6  C18 UNL     1      -5.694  47.862 -29.837  1.00  0.00     0.066 C 
BRANCH   6   7
HETATM    7  C19 UNL     1      -6.431  46.538 -30.154  1.00  0.00     0.128 C 
HETATM    8  C20 UNL     1      -7.945  46.748 -30.231  1.00  0.00     0.067 C 
HETATM    9  C21 UNL     1      -8.358  47.520 -31.486  1.00  0.00     0.157 C 
HETATM   10  C22 UNL     1      -7.694  46.936 -32.772  1.00  0.00     0.108 C 
HETATM   11  C30 UNL     1      -6.820  45.714 -32.404  1.00  0.00     0.209 C 
HETATM   12  O8  UNL     1      -5.886  45.984 -31.354  1.00  0.00    -0.382 OA
BRANCH   9  13
HETATM   13  O5  UNL     1      -9.785  47.516 -31.504  1.00  0.00    -0.392 OA
HETATM   14  H28 UNL     1     -10.074  48.307 -32.012  1.00  0.00     0.210 HD
ENDBRANCH   9  13
BRANCH  10  15
HETATM   15  O6  UNL     1      -6.791  47.935 -33.306  1.00  0.00    -0.385 OA
HETATM   16  H29 UNL     1      -7.302  48.751 -33.448  1.00  0.00     0.210 HD
ENDBRANCH  10  15
BRANCH  10  17
HETATM   17  C23 UNL     1      -8.659  46.512 -33.916  1.00  0.00     0.069 C 
BRANCH  17  18
HETATM   18  C24 UNL     1      -8.248  46.991 -35.284  1.00  0.00    -0.027 C 
HETATM   19  C25 UNL     1      -9.117  47.309 -36.257  1.00  0.00    -0.024 C 
BRANCH  19  20
HETATM   20  C26 UNL     1      -8.699  48.003 -37.534  1.00  0.00     0.032 C 
HETATM   21  C27 UNL     1      -9.424  49.339 -37.679  1.00  0.00     0.017 C 
BRANCH  20  22
HETATM   22  C28 UNL     1      -7.156  48.145 -37.621  1.00  0.00     0.121 C 
HETATM   23  C29 UNL     1      -6.654  49.239 -38.558  1.00  0.00     0.040 C 
BRANCH  22  24
HETATM   24  O7  UNL     1      -6.631  48.401 -36.306  1.00  0.00    -0.395 OA
HETATM   25  H42 UNL     1      -5.660  48.393 -36.382  1.00  0.00     0.210 HD
ENDBRANCH  22  24
ENDBRANCH  20  22
ENDBRANCH  19  20
ENDBRANCH  17  18
ENDBRANCH  10  17
ENDBRANCH   6   7
ENDBRANCH   4   6
ENDBRANCH   1   3
BRANCH   1  26
HETATM   26  O2  UNL     1      -3.800  50.242 -26.442  1.00  0.00    -0.318 OA
BRANCH  26  27
HETATM   27  C5  UNL     1      -3.063  51.273 -27.118  1.00  0.00     0.179 C 
BRANCH  27  28
HETATM   28  C6  UNL     1      -2.483  52.248 -26.092  1.00  0.00     0.027 C 
BRANCH  28  29
HETATM   29  C7  UNL     1      -0.950  52.227 -26.103  1.00  0.00     0.002 C 
BRANCH  29  30
HETATM   30  C8  UNL     1      -0.329  51.843 -24.757  1.00  0.00     0.000 C 
BRANCH  30  31
HETATM   31  C9  UNL     1      -1.251  51.125 -23.771  1.00  0.00     0.000 C 
BRANCH  31  32
HETATM   32  C10 UNL     1      -1.892  51.993 -22.682  1.00  0.00     0.009 C 
BRANCH  32  33
HETATM   33  C11 UNL     1      -2.828  51.276 -21.712  1.00  0.00     0.103 C 
BRANCH  33  34
HETATM   34  C12 UNL     1      -2.426  51.365 -20.247  1.00  0.00     0.222 C 
HETATM   35  O3  UNL     1      -3.235  51.345 -19.331  1.00  0.00    -0.273 OA
HETATM   36  N1  UNL     1      -1.055  51.457 -20.109  1.00  0.00    -0.321 N 
HETATM   37  H19 UNL     1      -0.497  51.298 -20.946  1.00  0.00     0.169 HD
BRANCH  36  38
HETATM   38  C13 UNL     1      -0.307  51.609 -18.972  1.00  0.00     0.123 A 
HETATM   39  C14 UNL     1      -0.059  50.901 -17.863  1.00  0.00     0.071 A 
HETATM   40  S1  UNL     1      -0.582  49.397 -17.246  1.00  0.00    -0.049 SA
HETATM   41  C16 UNL     1       0.831  51.620 -16.995  1.00  0.00     0.062 A 
HETATM   42  S2  UNL     1       0.531  49.524 -15.495  1.00  0.00    -0.062 SA
HETATM   43  C15 UNL     1       1.205  51.093 -15.836  1.00  0.00     0.088 A 
HETATM   44  N2  UNL     1       1.135  52.795 -17.589  1.00  0.00    -0.320 N 
HETATM   45  C17 UNL     1       0.489  52.880 -18.801  1.00  0.00     0.274 A 
HETATM   46  H21 UNL     1       1.749  53.514 -17.233  1.00  0.00     0.169 HD
HETATM   47  O4  UNL     1       0.531  53.791 -19.611  1.00  0.00    -0.266 OA
ENDBRANCH  36  38
ENDBRANCH  33  34
ENDBRANCH  32  33
ENDBRANCH  31  32
ENDBRANCH  30  31
ENDBRANCH  29  30
ENDBRANCH  28  29
ENDBRANCH  27  28
ENDBRANCH  26  27
ENDBRANCH   1  26
TORSDOF 20
ENDMDL
MODEL 8
REMARK minimizedAffinity -7.32256317
REMARK CNNscore 0.230427399
REMARK CNNaffinity 5.68697691
REMARK  20 active torsions:
REMARK  status: ('A' for Active; 'I' for Inactive)
REMARK    1  A    between atoms: C2_2  and  C18_26 
REMARK    2  A    between atoms: C3_3  and  C4_4 
REMARK    3  A    between atoms: C4_4  and  O2_6 
REMARK    4  A    between atoms: O2_6  and  C5_7 
REMARK    5  A    between atoms: C5_7  and  C6_8 
REMARK    6  A    between atoms: C6_8  and  C7_9 
REMARK    7  A    between atoms: C7_9  and  C8_10 
REMARK    8  A    between atoms: C8_10  and  C9_11 
REMARK    9  A    between atoms: C9_11  and  C10_12 
REMARK   10  A    between atoms: C10_12  and  C11_13 
REMARK   11  A    between atoms: C11_13  and  C12_14 
REMARK       I    between atoms: C12_14  and  N1_16 
REMARK   12  A    between atoms: N1_16  and  C13_17 
REMARK   13  A    between atoms: C18_26  and  C19_27 
REMARK   14  A    between atoms: C21_29  and  O5_30 
REMARK   15  A    between atoms: C22_31  and  O6_32 
REMARK   16  A    between atoms: C22_31  and  C23_33 
REMARK   17  A    between atoms: C23_33  and  C24_34 
REMARK   18  A    between atoms: C25_35  and  C26_36 
REMARK   19  A    between atoms: C26_36  and  C28_38 
REMARK   20  A    between atoms: C28_38  and  O7_40 
ROOT
HETATM    1  C4  UNL     1      -1.130  50.431 -20.835  1.00  0.00     0.283 C 
HETATM    2  O1  UNL     1      -2.095  50.971 -21.346  1.00  0.00    -0.260 OA
ENDROOT
BRANCH   1   3
HETATM    3  C3  UNL     1      -0.258  51.013 -19.786  1.00  0.00     0.084 C 
HETATM    4  C2  UNL     1      -0.652  51.371 -18.545  1.00  0.00    -0.076 C 
HETATM    5  C1  UNL     1      -2.054  51.177 -18.019  1.00  0.00     0.043 C 
BRANCH   4   6
HETATM    6  C18 UNL     1       0.282  51.982 -17.504  1.00  0.00     0.066 C 
BRANCH   6   7
HETATM    7  C19 UNL     1       1.094  51.051 -16.572  1.00  0.00     0.128 C 
HETATM    8  C20 UNL     1       1.656  51.816 -15.371  1.00  0.00     0.067 C 
HETATM    9  C21 UNL     1       0.564  52.206 -14.373  1.00  0.00     0.157 C 
HETATM   10  C22 UNL     1      -0.364  50.999 -14.027  1.00  0.00     0.108 C 
HETATM   11  C30 UNL     1       0.110  49.737 -14.784  1.00  0.00     0.209 C 
HETATM   12  O8  UNL     1       0.268  49.948 -16.190  1.00  0.00    -0.382 OA
BRANCH   9  13
HETATM   13  O5  UNL     1       1.236  52.775 -13.250  1.00  0.00    -0.392 OA
HETATM   14  H28 UNL     1       0.606  53.387 -12.810  1.00  0.00     0.210 HD
ENDBRANCH   9  13
BRANCH  10  15
HETATM   15  O6  UNL     1      -1.693  51.296 -14.526  1.00  0.00    -0.385 OA
HETATM   16  H29 UNL     1      -1.970  52.146 -14.140  1.00  0.00     0.210 HD
ENDBRANCH  10  15
BRANCH  10  17
HETATM   17  C23 UNL     1      -0.495  50.639 -12.520  1.00  0.00     0.069 C 
BRANCH  17  18
HETATM   18  C24 UNL     1      -1.547  51.426 -11.783  1.00  0.00    -0.027 C 
HETATM   19  C25 UNL     1      -2.075  51.050 -10.607  1.00  0.00    -0.024 C 
BRANCH  19  20
HETATM   20  C26 UNL     1      -2.952  51.958  -9.774  1.00  0.00     0.032 C 
HETATM   21  C27 UNL     1      -2.142  53.131  -9.227  1.00  0.00     0.017 C 
BRANCH  20  22
HETATM   22  C28 UNL     1      -4.207  52.413 -10.567  1.00  0.00     0.121 C 
HETATM   23  C29 UNL     1      -3.926  53.028 -11.934  1.00  0.00     0.040 C 
BRANCH  22  24
HETATM   24  O7  UNL     1      -5.084  51.287 -10.749  1.00  0.00    -0.395 OA
HETATM   25  H42 UNL     1      -5.896  51.626 -11.166  1.00  0.00     0.210 HD
ENDBRANCH  22  24
ENDBRANCH  20  22
ENDBRANCH  19  20
ENDBRANCH  17  18
ENDBRANCH  10  17
ENDBRANCH   6   7
ENDBRANCH   4   6
ENDBRANCH   1   3
BRANCH   1  26
HETATM   26  O2  UNL     1      -0.664  49.185 -21.112  1.00  0.00    -0.318 OA
BRANCH  26  27
HETATM   27  C5  UNL     1      -1.452  48.105 -20.587  1.00  0.00     0.179 C 
BRANCH  27  28
HETATM   28  C6  UNL     1      -1.980  47.247 -21.737  1.00  0.00     0.027 C 
BRANCH  28  29
HETATM   29  C7  UNL     1      -3.506  47.343 -21.855  1.00  0.00     0.002 C 
BRANCH  29  30
HETATM   30  C8  UNL     1      -3.984  48.519 -22.711  1.00  0.00     0.000 C 
BRANCH  30  31
HETATM   31  C9  UNL     1      -3.215  48.762 -24.010  1.00  0.00     0.000 C 
BRANCH  31  32
HETATM   32  C10 UNL     1      -3.943  48.400 -25.310  1.00  0.00     0.009 C 
BRANCH  32  33
HETATM   33  C11 UNL     1      -3.168  48.637 -26.605  1.00  0.00     0.103 C 
BRANCH  33  34
HETATM   34  C12 UNL     1      -4.030  48.853 -27.839  1.00  0.00     0.222 C 
HETATM   35  O3  UNL     1      -3.866  49.786 -28.612  1.00  0.00    -0.273 OA
HETATM   36  N1  UNL     1      -4.986  47.864 -27.960  1.00  0.00    -0.321 N 
HETATM   37  H19 UNL     1      -4.902  47.063 -27.338  1.00  0.00     0.169 HD
BRANCH  36  38
HETATM   38  C13 UNL     1      -5.980  47.731 -28.893  1.00  0.00     0.123 A 
HETATM   39  C14 UNL     1      -7.319  47.741 -28.903  1.00  0.00     0.071 A 
HETATM   40  S1  UNL     1      -8.536  47.904 -27.716  1.00  0.00    -0.049 SA
HETATM   41  C16 UNL     1      -7.814  47.528 -30.235  1.00  0.00     0.062 A 
HETATM   42  S2  UNL     1     -10.117  47.730 -29.055  1.00  0.00    -0.062 SA
HETATM   43  C15 UNL     1      -9.122  47.500 -30.464  1.00  0.00     0.088 A 
HETATM   44  N2  UNL     1      -6.752  47.385 -31.057  1.00  0.00    -0.320 N 
HETATM   45  C17 UNL     1      -5.589  47.495 -30.332  1.00  0.00     0.274 A 
HETATM   46  H21 UNL     1      -6.774  47.235 -32.056  1.00  0.00     0.169 HD
HETATM   47  O4  UNL     1      -4.442  47.425 -30.740  1.00  0.00    -0.266 OA
ENDBRANCH  36  38
ENDBRANCH  33  34
ENDBRANCH  32  33
ENDBRANCH  31  32
ENDBRANCH  30  31
ENDBRANCH  29  30
ENDBRANCH  28  29
ENDBRANCH  27  28
ENDBRANCH  26  27
ENDBRANCH   1  26
TORSDOF 20
ENDMDL
MODEL 9
REMARK minimizedAffinity -7.47316647
REMARK CNNscore 0.201341823
REMARK CNNaffinity 6.90386963
REMARK  20 active torsions:
REMARK  status: ('A' for Active; 'I' for Inactive)
REMARK    1  A    between atoms: C2_2  and  C18_26 
REMARK    2  A    between atoms: C3_3  and  C4_4 
REMARK    3  A    between atoms: C4_4  and  O2_6 
REMARK    4  A    between atoms: O2_6  and  C5_7 
REMARK    5  A    between atoms: C5_7  and  C6_8 
REMARK    6  A    between atoms: C6_8  and  C7_9 
REMARK    7  A    between atoms: C7_9  and  C8_10 
REMARK    8  A    between atoms: C8_10  and  C9_11 
REMARK    9  A    between atoms: C9_11  and  C10_12 
REMARK   10  A    between atoms: C10_12  and  C11_13 
REMARK   11  A    between atoms: C11_13  and  C12_14 
REMARK       I    between atoms: C12_14  and  N1_16 
REMARK   12  A    between atoms: N1_16  and  C13_17 
REMARK   13  A    between atoms: C18_26  and  C19_27 
REMARK   14  A    between atoms: C21_29  and  O5_30 
REMARK   15  A    between atoms: C22_31  and  O6_32 
REMARK   16  A    between atoms: C22_31  and  C23_33 
REMARK   17  A    between atoms: C23_33  and  C24_34 
REMARK   18  A    between atoms: C25_35  and  C26_36 
REMARK   19  A    between atoms: C26_36  and  C28_38 
REMARK   20  A    between atoms: C28_38  and  O7_40 
ROOT
HETATM    1  C4  UNL     1      -1.036  51.999 -18.984  1.00  0.00     0.283 C 
HETATM    2  O1  UNL     1      -2.230  52.126 -18.776  1.00  0.00    -0.260 OA
ENDROOT
BRANCH   1   3
HETATM    3  C3  UNL     1       0.008  51.765 -17.957  1.00  0.00     0.084 C 
HETATM    4  C2  UNL     1       0.115  50.667 -17.180  1.00  0.00    -0.076 C 
HETATM    5  C1  UNL     1      -0.803  49.471 -17.282  1.00  0.00     0.043 C 
BRANCH   4   6
HETATM    6  C18 UNL     1       1.201  50.479 -16.124  1.00  0.00     0.066 C 
BRANCH   6   7
HETATM    7  C19 UNL     1       0.806  50.006 -14.704  1.00  0.00     0.128 C 
HETATM    8  C20 UNL     1       1.941  49.221 -14.042  1.00  0.00     0.067 C 
HETATM    9  C21 UNL     1       3.110  50.124 -13.641  1.00  0.00     0.157 C 
HETATM   10  C22 UNL     1       2.626  51.390 -12.866  1.00  0.00     0.108 C 
HETATM   11  C30 UNL     1       1.089  51.352 -12.704  1.00  0.00     0.209 C 
HETATM   12  O8  UNL     1       0.396  51.141 -13.938  1.00  0.00    -0.382 OA
BRANCH   9  13
HETATM   13  O5  UNL     1       4.019  49.298 -12.915  1.00  0.00    -0.392 OA
HETATM   14  H28 UNL     1       4.913  49.695 -13.007  1.00  0.00     0.210 HD
ENDBRANCH   9  13
BRANCH  10  15
HETATM   15  O6  UNL     1       2.920  52.554 -13.678  1.00  0.00    -0.385 OA
HETATM   16  H29 UNL     1       3.872  52.541 -13.882  1.00  0.00     0.210 HD
ENDBRANCH  10  15
BRANCH  10  17
HETATM   17  C23 UNL     1       3.255  51.622 -11.463  1.00  0.00     0.069 C 
BRANCH  17  18
HETATM   18  C24 UNL     1       2.921  52.956 -10.847  1.00  0.00    -0.027 C 
HETATM   19  C25 UNL     1       3.795  53.969 -10.739  1.00  0.00    -0.024 C 
BRANCH  19  20
HETATM   20  C26 UNL     1       3.384  55.367 -10.333  1.00  0.00     0.032 C 
HETATM   21  C27 UNL     1       1.885  55.424 -10.050  1.00  0.00     0.017 C 
BRANCH  20  22
HETATM   22  C28 UNL     1       4.239  55.884  -9.145  1.00  0.00     0.121 C 
HETATM   23  C29 UNL     1       3.713  57.142  -8.461  1.00  0.00     0.040 C 
BRANCH  22  24
HETATM   24  O7  UNL     1       4.349  54.845  -8.155  1.00  0.00    -0.395 OA
HETATM   25  H42 UNL     1       4.963  55.168  -7.472  1.00  0.00     0.210 HD
ENDBRANCH  22  24
ENDBRANCH  20  22
ENDBRANCH  19  20
ENDBRANCH  17  18
ENDBRANCH  10  17
ENDBRANCH   6   7
ENDBRANCH   4   6
ENDBRANCH   1   3
BRANCH   1  26
HETATM   26  O2  UNL     1      -0.422  52.033 -20.195  1.00  0.00    -0.318 OA
BRANCH  26  27
HETATM   27  C5  UNL     1      -0.071  50.752 -20.742  1.00  0.00     0.179 C 
BRANCH  27  28
HETATM   28  C6  UNL     1      -1.341  49.939 -21.000  1.00  0.00     0.027 C 
BRANCH  28  29
HETATM   29  C7  UNL     1      -1.059  48.432 -20.956  1.00  0.00     0.002 C 
BRANCH  29  30
HETATM   30  C8  UNL     1      -1.984  47.606 -21.855  1.00  0.00     0.000 C 
BRANCH  30  31
HETATM   31  C9  UNL     1      -2.793  48.390 -22.889  1.00  0.00     0.000 C 
BRANCH  31  32
HETATM   32  C10 UNL     1      -4.255  47.968 -23.073  1.00  0.00     0.009 C 
BRANCH  32  33
HETATM   33  C11 UNL     1      -5.074  48.789 -24.066  1.00  0.00     0.103 C 
BRANCH  33  34
HETATM   34  C12 UNL     1      -4.415  50.079 -24.530  1.00  0.00     0.222 C 
HETATM   35  O3  UNL     1      -4.739  51.181 -24.111  1.00  0.00    -0.273 OA
HETATM   36  N1  UNL     1      -3.421  49.828 -25.455  1.00  0.00    -0.321 N 
HETATM   37  H19 UNL     1      -3.150  48.856 -25.587  1.00  0.00     0.169 HD
BRANCH  36  38
HETATM   38  C13 UNL     1      -2.639  50.714 -26.147  1.00  0.00     0.123 A 
HETATM   39  C14 UNL     1      -1.743  51.665 -25.852  1.00  0.00     0.071 A 
HETATM   40  S1  UNL     1      -1.101  52.316 -24.410  1.00  0.00    -0.049 SA
HETATM   41  C16 UNL     1      -1.254  52.285 -27.052  1.00  0.00     0.062 A 
HETATM   42  S2  UNL     1       0.137  53.685 -25.367  1.00  0.00    -0.062 SA
HETATM   43  C15 UNL     1      -0.355  53.259 -26.981  1.00  0.00     0.088 A 
HETATM   44  N2  UNL     1      -1.866  51.699 -28.105  1.00  0.00    -0.320 N 
HETATM   45  C17 UNL     1      -2.728  50.726 -27.654  1.00  0.00     0.274 A 
HETATM   46  H21 UNL     1      -1.723  51.907 -29.083  1.00  0.00     0.169 HD
HETATM   47  O4  UNL     1      -3.442  49.992 -28.316  1.00  0.00    -0.266 OA
ENDBRANCH  36  38
ENDBRANCH  33  34
ENDBRANCH  32  33
ENDBRANCH  31  32
ENDBRANCH  30  31
ENDBRANCH  29  30
ENDBRANCH  28  29
ENDBRANCH  27  28
ENDBRANCH  26  27
ENDBRANCH   1  26
TORSDOF 20
ENDMDL
