MODEL 1
REMARK minimizedAffinity -8.81883812
REMARK CNNscore 0.563189507
REMARK CNNaffinity 7.26990366
REMARK  11 active torsions:
REMARK  status: ('A' for Active; 'I' for Inactive)
REMARK    1  A    between atoms: C2_2  and  O1_3 
REMARK    2  A    between atoms: O1_3  and  C3_4 
REMARK    3  A    between atoms: C3_4  and  C4_6 
REMARK    4  A    between atoms: C5_7  and  C6_8 
REMARK    5  A    between atoms: C10_13  and  C11_14 
REMARK    6  A    between atoms: C11_14  and  O4_15 
REMARK    7  A    between atoms: C13_18  and  C14_19 
REMARK    8  A    between atoms: C25_32  and  C26_33 
REMARK    9  A    between atoms: C26_33  and  O7_34 
REMARK   10  A    between atoms: C33_42  and  O9_44 
REMARK   11  A    between atoms: C36_46  and  O10_47 
ROOT
HETATM    1  C4  UNL     1      -5.029   6.783  15.173  1.00  0.00     0.165 C 
HETATM    2  C5  UNL     1      -4.980   8.130  15.232  1.00  0.00     0.053 C 
HETATM    3  C7  UNL     1      -3.671   8.770  15.027  1.00  0.00    -0.002 C 
HETATM    4  C8  UNL     1      -3.218   9.824  15.768  1.00  0.00    -0.066 C 
HETATM    5  C9  UNL     1      -1.754  10.257  15.832  1.00  0.00     0.049 C 
HETATM    6  C10 UNL     1      -1.272  10.408  17.284  1.00  0.00     0.084 C 
HETATM    7  C12 UNL     1      -2.133  11.408  18.044  1.00  0.00     0.142 C 
HETATM    8  O5  UNL     1      -1.794  11.800  19.162  1.00  0.00    -0.297 OA
HETATM    9  C13 UNL     1      -3.409  11.866  17.346  1.00  0.00     0.092 C 
HETATM   10  C22 UNL     1      -4.098  10.631  16.726  1.00  0.00     0.052 C 
HETATM   11  C23 UNL     1      -2.787   8.007  14.092  1.00  0.00     0.044 C 
HETATM   12  C24 UNL     1      -2.892   6.594  14.173  1.00  0.00     0.101 C 
HETATM   13  O6  UNL     1      -3.885   6.010  14.945  1.00  0.00    -0.302 OA
HETATM   14  C25 UNL     1      -2.050   5.736  13.446  1.00  0.00     0.034 C 
HETATM   15  C27 UNL     1      -1.148   6.341  12.586  1.00  0.00     0.090 C 
HETATM   16  O8  UNL     1      -0.237   5.666  11.812  1.00  0.00    -0.341 OA
HETATM   17  C28 UNL     1       0.220   6.667  10.849  1.00  0.00     0.171 C 
HETATM   18  C29 UNL     1       0.004   8.064  11.462  1.00  0.00     0.057 C 
HETATM   19  C30 UNL     1       1.244   8.643  12.157  1.00  0.00     0.012 C 
HETATM   20  C31 UNL     1       2.167   7.572  12.728  1.00  0.00     0.004 C 
HETATM   21  C32 UNL     1       2.628   6.542  11.693  1.00  0.00     0.040 C 
HETATM   22  C33 UNL     1       1.686   6.361  10.489  1.00  0.00     0.081 C 
HETATM   23  C34 UNL     1       2.142   7.195   9.285  1.00  0.00     0.049 C 
HETATM   24  C35 UNL     1      -1.078   7.718  12.425  1.00  0.00     0.017 C 
HETATM   25  C36 UNL     1      -1.928   8.557  13.129  1.00  0.00     0.091 C 
ENDROOT
BRANCH   2  26
HETATM   26  C6  UNL     1      -6.217   8.886  15.519  1.00  0.00     0.273 C 
HETATM   27  O3  UNL     1      -7.192   8.834  14.781  1.00  0.00    -0.301 OA
ENDBRANCH   2  26
BRANCH   1  28
HETATM   28  C3  UNL     1      -6.308   6.043  15.331  1.00  0.00     0.318 C 
HETATM   29  O2  UNL     1      -6.859   5.841  16.403  1.00  0.00    -0.257 OA
BRANCH  28  30
HETATM   30  O1  UNL     1      -6.765   5.672  14.105  1.00  0.00    -0.316 OA
BRANCH  30  31
HETATM   31  C2  UNL     1      -7.164   4.301  13.985  1.00  0.00     0.175 C 
HETATM   32  C1  UNL     1      -8.173   4.148  12.862  1.00  0.00     0.034 C 
ENDBRANCH  30  31
ENDBRANCH  28  30
ENDBRANCH   1  28
BRANCH  25  33
HETATM   33  O10 UNL     1      -1.855   9.901  12.884  1.00  0.00    -0.354 OA
HETATM   34  C37 UNL     1      -0.734  10.471  13.563  1.00  0.00     0.210 C 
ENDBRANCH  25  33
BRANCH   6  35
HETATM   35  C11 UNL     1       0.196  10.824  17.357  1.00  0.00     0.176 C 
BRANCH  35  36
HETATM   36  O4  UNL     1       1.042   9.680  17.403  1.00  0.00    -0.400 OA
HETATM   37  H12 UNL     1       1.949   9.995  17.240  1.00  0.00     0.209 HD
ENDBRANCH  35  36
ENDBRANCH   6  35
BRANCH   9  38
HETATM   38  C14 UNL     1      -4.365  12.651  18.234  1.00  0.00    -0.046 A 
HETATM   39  C15 UNL     1      -5.175  13.649  17.671  1.00  0.00     0.010 A 
HETATM   40  C16 UNL     1      -6.077  14.392  18.441  1.00  0.00     0.031 A 
HETATM   41  C17 UNL     1      -6.149  14.106  19.808  1.00  0.00     0.042 A 
HETATM   42  N1  UNL     1      -6.927  14.666  20.795  1.00  0.00    -0.365 N 
HETATM   43  C20 UNL     1      -5.364  13.125  20.412  1.00  0.00    -0.008 A 
HETATM   44  C18 UNL     1      -6.660  14.075  22.003  1.00  0.00     0.089 A 
HETATM   45  H16 UNL     1      -7.595  15.409  20.647  1.00  0.00     0.165 HD
HETATM   46  C19 UNL     1      -5.695  13.117  21.795  1.00  0.00     0.030 A 
HETATM   47  C21 UNL     1      -4.463  12.390  19.615  1.00  0.00     0.021 A 
ENDBRANCH   9  38
BRANCH  14  48
HETATM   48  C26 UNL     1      -2.163   4.247  13.546  1.00  0.00     0.208 C 
BRANCH  48  49
HETATM   49  O7  UNL     1      -3.492   3.866  13.220  1.00  0.00    -0.396 OA
HETATM   50  H24 UNL     1      -3.530   2.898  13.294  1.00  0.00     0.209 HD
ENDBRANCH  48  49
ENDBRANCH  14  48
BRANCH  22  51
HETATM   51  O9  UNL     1       1.784   4.991  10.063  1.00  0.00    -0.388 OA
HETATM   52  H36 UNL     1       1.257   4.466  10.695  1.00  0.00     0.210 HD
ENDBRANCH  22  51
TORSDOF 11
ENDMDL
MODEL 2
REMARK minimizedAffinity -7.47045517
REMARK CNNscore 0.46978882
REMARK CNNaffinity 6.60221624
REMARK  11 active torsions:
REMARK  status: ('A' for Active; 'I' for Inactive)
REMARK    1  A    between atoms: C2_2  and  O1_3 
REMARK    2  A    between atoms: O1_3  and  C3_4 
REMARK    3  A    between atoms: C3_4  and  C4_6 
REMARK    4  A    between atoms: C5_7  and  C6_8 
REMARK    5  A    between atoms: C10_13  and  C11_14 
REMARK    6  A    between atoms: C11_14  and  O4_15 
REMARK    7  A    between atoms: C13_18  and  C14_19 
REMARK    8  A    between atoms: C25_32  and  C26_33 
REMARK    9  A    between atoms: C26_33  and  O7_34 
REMARK   10  A    between atoms: C33_42  and  O9_44 
REMARK   11  A    between atoms: C36_46  and  O10_47 
ROOT
HETATM    1  C4  UNL     1       1.499  10.712  18.103  1.00  0.00     0.165 C 
HETATM    2  C5  UNL     1       0.601  11.656  18.452  1.00  0.00     0.053 C 
HETATM    3  C7  UNL     1      -0.608  11.781  17.621  1.00  0.00    -0.002 C 
HETATM    4  C8  UNL     1      -1.150  12.977  17.246  1.00  0.00    -0.066 C 
HETATM    5  C9  UNL     1      -2.154  13.139  16.105  1.00  0.00     0.049 C 
HETATM    6  C10 UNL     1      -1.722  14.242  15.125  1.00  0.00     0.084 C 
HETATM    7  C12 UNL     1      -1.548  15.573  15.844  1.00  0.00     0.142 C 
HETATM    8  O5  UNL     1      -1.384  16.612  15.201  1.00  0.00    -0.297 OA
HETATM    9  C13 UNL     1      -1.579  15.525  17.367  1.00  0.00     0.092 C 
HETATM   10  C22 UNL     1      -0.729  14.324  17.837  1.00  0.00     0.052 C 
HETATM   11  C23 UNL     1      -1.047  10.479  17.030  1.00  0.00     0.044 C 
HETATM   12  C24 UNL     1      -0.001   9.599  16.650  1.00  0.00     0.101 C 
HETATM   13  O6  UNL     1       1.312   9.888  16.989  1.00  0.00    -0.302 OA
HETATM   14  C25 UNL     1      -0.244   8.390  15.978  1.00  0.00     0.034 C 
HETATM   15  C27 UNL     1      -1.572   8.061  15.761  1.00  0.00     0.090 C 
HETATM   16  O8  UNL     1      -1.998   6.933  15.106  1.00  0.00    -0.341 OA
HETATM   17  C28 UNL     1      -3.421   6.849  15.433  1.00  0.00     0.171 C 
HETATM   18  C29 UNL     1      -3.921   8.263  15.787  1.00  0.00     0.057 C 
HETATM   19  C30 UNL     1      -4.571   9.011  14.615  1.00  0.00     0.012 C 
HETATM   20  C31 UNL     1      -4.015   8.595  13.257  1.00  0.00     0.004 C 
HETATM   21  C32 UNL     1      -4.113   7.092  12.986  1.00  0.00     0.040 C 
HETATM   22  C33 UNL     1      -4.157   6.204  14.244  1.00  0.00     0.081 C 
HETATM   23  C34 UNL     1      -5.595   5.833  14.623  1.00  0.00     0.049 C 
HETATM   24  C35 UNL     1      -2.619   8.863  16.193  1.00  0.00     0.017 C 
HETATM   25  C36 UNL     1      -2.372  10.044  16.877  1.00  0.00     0.091 C 
ENDROOT
BRANCH   2  26
HETATM   26  C6  UNL     1       0.878  12.523  19.616  1.00  0.00     0.273 C 
HETATM   27  O3  UNL     1       1.738  13.393  19.583  1.00  0.00    -0.301 OA
ENDBRANCH   2  26
BRANCH   1  28
HETATM   28  C3  UNL     1       2.734  10.482  18.898  1.00  0.00     0.318 C 
HETATM   29  O2  UNL     1       3.798  11.049  18.696  1.00  0.00    -0.257 OA
BRANCH  28  30
HETATM   30  O1  UNL     1       2.471   9.585  19.885  1.00  0.00    -0.316 OA
BRANCH  30  31
HETATM   31  C2  UNL     1       3.013   9.907  21.172  1.00  0.00     0.175 C 
HETATM   32  C1  UNL     1       2.511   8.922  22.211  1.00  0.00     0.034 C 
ENDBRANCH  30  31
ENDBRANCH  28  30
ENDBRANCH   1  28
BRANCH  25  33
HETATM   33  O10 UNL     1      -3.444  10.761  17.332  1.00  0.00    -0.354 OA
HETATM   34  C37 UNL     1      -3.609  10.573  18.740  1.00  0.00     0.210 C 
ENDBRANCH  25  33
BRANCH   6  35
HETATM   35  C11 UNL     1      -2.712  14.399  13.972  1.00  0.00     0.176 C 
BRANCH  35  36
HETATM   36  O4  UNL     1      -2.039  14.783  12.779  1.00  0.00    -0.400 OA
HETATM   37  H12 UNL     1      -2.673  14.666  12.048  1.00  0.00     0.209 HD
ENDBRANCH  35  36
ENDBRANCH   6  35
BRANCH   9  38
HETATM   38  C14 UNL     1      -1.142  16.817  18.046  1.00  0.00    -0.046 A 
HETATM   39  C15 UNL     1      -2.106  17.765  18.419  1.00  0.00     0.010 A 
HETATM   40  C16 UNL     1      -1.758  18.963  19.055  1.00  0.00     0.031 A 
HETATM   41  C17 UNL     1      -0.403  19.190  19.312  1.00  0.00     0.042 A 
HETATM   42  N1  UNL     1       0.224  20.258  19.910  1.00  0.00    -0.365 N 
HETATM   43  C20 UNL     1       0.590  18.277  18.960  1.00  0.00    -0.008 A 
HETATM   44  C18 UNL     1       1.579  20.055  19.946  1.00  0.00     0.089 A 
HETATM   45  H16 UNL     1      -0.251  21.076  20.265  1.00  0.00     0.165 HD
HETATM   46  C19 UNL     1       1.834  18.835  19.364  1.00  0.00     0.030 A 
HETATM   47  C21 UNL     1       0.215  17.078  18.320  1.00  0.00     0.021 A 
ENDBRANCH   9  38
BRANCH  14  48
HETATM   48  C26 UNL     1       0.868   7.474  15.573  1.00  0.00     0.208 C 
BRANCH  48  49
HETATM   49  O7  UNL     1       1.528   7.010  16.742  1.00  0.00    -0.396 OA
HETATM   50  H24 UNL     1       2.241   6.421  16.445  1.00  0.00     0.209 HD
ENDBRANCH  48  49
ENDBRANCH  14  48
BRANCH  22  51
HETATM   51  O9  UNL     1      -3.514   4.960  13.919  1.00  0.00    -0.388 OA
HETATM   52  H36 UNL     1      -2.553   5.130  13.937  1.00  0.00     0.210 HD
ENDBRANCH  22  51
TORSDOF 11
ENDMDL
MODEL 3
REMARK minimizedAffinity -8.14869881
REMARK CNNscore 0.40192467
REMARK CNNaffinity 6.64468765
REMARK  11 active torsions:
REMARK  status: ('A' for Active; 'I' for Inactive)
REMARK    1  A    between atoms: C2_2  and  O1_3 
REMARK    2  A    between atoms: O1_3  and  C3_4 
REMARK    3  A    between atoms: C3_4  and  C4_6 
REMARK    4  A    between atoms: C5_7  and  C6_8 
REMARK    5  A    between atoms: C10_13  and  C11_14 
REMARK    6  A    between atoms: C11_14  and  O4_15 
REMARK    7  A    between atoms: C13_18  and  C14_19 
REMARK    8  A    between atoms: C25_32  and  C26_33 
REMARK    9  A    between atoms: C26_33  and  O7_34 
REMARK   10  A    between atoms: C33_42  and  O9_44 
REMARK   11  A    between atoms: C36_46  and  O10_47 
ROOT
HETATM    1  C4  UNL     1       2.437  10.511  18.716  1.00  0.00     0.165 C 
HETATM    2  C5  UNL     1       1.116  10.688  18.921  1.00  0.00     0.053 C 
HETATM    3  C7  UNL     1       0.229  10.586  17.751  1.00  0.00    -0.002 C 
HETATM    4  C8  UNL     1      -0.818  11.431  17.516  1.00  0.00    -0.066 C 
HETATM    5  C9  UNL     1      -1.506  11.584  16.160  1.00  0.00     0.049 C 
HETATM    6  C10 UNL     1      -1.609  13.060  15.743  1.00  0.00     0.084 C 
HETATM    7  C12 UNL     1      -2.359  13.872  16.789  1.00  0.00     0.142 C 
HETATM    8  O5  UNL     1      -2.703  15.032  16.551  1.00  0.00    -0.297 OA
HETATM    9  C13 UNL     1      -2.636  13.171  18.114  1.00  0.00     0.092 C 
HETATM   10  C22 UNL     1      -1.357  12.423  18.549  1.00  0.00     0.052 C 
HETATM   11  C23 UNL     1       0.728   9.621  16.721  1.00  0.00     0.044 C 
HETATM   12  C24 UNL     1       2.137   9.575  16.563  1.00  0.00     0.101 C 
HETATM   13  O6  UNL     1       2.962  10.258  17.444  1.00  0.00    -0.302 OA
HETATM   14  C25 UNL     1       2.755   8.807  15.563  1.00  0.00     0.034 C 
HETATM   15  C27 UNL     1       1.918   8.035  14.773  1.00  0.00     0.090 C 
HETATM   16  O8  UNL     1       2.341   7.239  13.737  1.00  0.00    -0.341 OA
HETATM   17  C28 UNL     1       1.189   6.383  13.456  1.00  0.00     0.171 C 
HETATM   18  C29 UNL     1      -0.083   7.107  13.941  1.00  0.00     0.057 C 
HETATM   19  C30 UNL     1      -0.814   7.893  12.844  1.00  0.00     0.012 C 
HETATM   20  C31 UNL     1       0.117   8.402  11.749  1.00  0.00     0.004 C 
HETATM   21  C32 UNL     1       0.945   7.299  11.084  1.00  0.00     0.040 C 
HETATM   22  C33 UNL     1       1.185   6.050  11.953  1.00  0.00     0.081 C 
HETATM   23  C34 UNL     1       0.176   4.941  11.638  1.00  0.00     0.049 C 
HETATM   24  C35 UNL     1       0.544   7.997  14.958  1.00  0.00     0.017 C 
HETATM   25  C36 UNL     1      -0.057   8.740  15.963  1.00  0.00     0.091 C 
ENDROOT
BRANCH   2  26
HETATM   26  C6  UNL     1       0.630  10.995  20.282  1.00  0.00     0.273 C 
HETATM   27  O3  UNL     1       0.938  12.029  20.860  1.00  0.00    -0.301 OA
ENDBRANCH   2  26
BRANCH   1  28
HETATM   28  C3  UNL     1       3.412  10.559  19.838  1.00  0.00     0.318 C 
HETATM   29  O2  UNL     1       4.221  11.458  20.009  1.00  0.00    -0.257 OA
BRANCH  28  30
HETATM   30  O1  UNL     1       3.225   9.475  20.638  1.00  0.00    -0.316 OA
BRANCH  30  31
HETATM   31  C2  UNL     1       3.587   9.656  22.013  1.00  0.00     0.175 C 
HETATM   32  C1  UNL     1       2.851   8.654  22.883  1.00  0.00     0.034 C 
ENDBRANCH  30  31
ENDBRANCH  28  30
ENDBRANCH   1  28
BRANCH  25  33
HETATM   33  O10 UNL     1      -1.408   8.615  16.137  1.00  0.00    -0.354 OA
HETATM   34  C37 UNL     1      -2.109   9.205  15.040  1.00  0.00     0.210 C 
ENDBRANCH  25  33
BRANCH   6  35
HETATM   35  C11 UNL     1      -2.279  13.221  14.380  1.00  0.00     0.176 C 
BRANCH  35  36
HETATM   36  O4  UNL     1      -1.353  13.710  13.417  1.00  0.00    -0.400 OA
HETATM   37  H12 UNL     1      -1.768  13.596  12.543  1.00  0.00     0.209 HD
ENDBRANCH  35  36
ENDBRANCH   6  35
BRANCH   9  38
HETATM   38  C14 UNL     1      -3.148  14.089  19.217  1.00  0.00    -0.046 A 
HETATM   39  C15 UNL     1      -2.252  14.935  19.887  1.00  0.00     0.010 A 
HETATM   40  C16 UNL     1      -2.673  15.805  20.901  1.00  0.00     0.031 A 
HETATM   41  C17 UNL     1      -4.032  15.806  21.230  1.00  0.00     0.042 A 
HETATM   42  N1  UNL     1      -4.721  16.539  22.168  1.00  0.00    -0.365 N 
HETATM   43  C20 UNL     1      -4.959  14.982  20.592  1.00  0.00    -0.008 A 
HETATM   44  C18 UNL     1      -6.050  16.206  22.149  1.00  0.00     0.089 A 
HETATM   45  H16 UNL     1      -4.301  17.220  22.785  1.00  0.00     0.165 HD
HETATM   46  C19 UNL     1      -6.227  15.244  21.181  1.00  0.00     0.030 A 
HETATM   47  C21 UNL     1      -4.511  14.115  19.575  1.00  0.00     0.021 A 
ENDBRANCH   9  38
BRANCH  14  48
HETATM   48  C26 UNL     1       4.242   8.774  15.397  1.00  0.00     0.208 C 
BRANCH  48  49
HETATM   49  O7  UNL     1       4.688   7.433  15.536  1.00  0.00    -0.396 OA
HETATM   50  H24 UNL     1       5.654   7.447  15.424  1.00  0.00     0.209 HD
ENDBRANCH  48  49
ENDBRANCH  14  48
BRANCH  22  51
HETATM   51  O9  UNL     1       2.469   5.512  11.593  1.00  0.00    -0.388 OA
HETATM   52  H36 UNL     1       3.138   6.077  12.024  1.00  0.00     0.210 HD
ENDBRANCH  22  51
TORSDOF 11
ENDMDL
MODEL 4
REMARK minimizedAffinity -7.42392159
REMARK CNNscore 0.338655889
REMARK CNNaffinity 6.90055609
REMARK  11 active torsions:
REMARK  status: ('A' for Active; 'I' for Inactive)
REMARK    1  A    between atoms: C2_2  and  O1_3 
REMARK    2  A    between atoms: O1_3  and  C3_4 
REMARK    3  A    between atoms: C3_4  and  C4_6 
REMARK    4  A    between atoms: C5_7  and  C6_8 
REMARK    5  A    between atoms: C10_13  and  C11_14 
REMARK    6  A    between atoms: C11_14  and  O4_15 
REMARK    7  A    between atoms: C13_18  and  C14_19 
REMARK    8  A    between atoms: C25_32  and  C26_33 
REMARK    9  A    between atoms: C26_33  and  O7_34 
REMARK   10  A    between atoms: C33_42  and  O9_44 
REMARK   11  A    between atoms: C36_46  and  O10_47 
ROOT
HETATM    1  C4  UNL     1       2.747   8.875  12.811  1.00  0.00     0.165 C 
HETATM    2  C5  UNL     1       1.443   8.713  12.505  1.00  0.00     0.053 C 
HETATM    3  C7  UNL     1       0.453   9.249  13.453  1.00  0.00    -0.002 C 
HETATM    4  C8  UNL     1      -0.689   8.590  13.811  1.00  0.00    -0.066 C 
HETATM    5  C9  UNL     1      -1.525   8.937  15.042  1.00  0.00     0.049 C 
HETATM    6  C10 UNL     1      -1.811   7.694  15.899  1.00  0.00     0.084 C 
HETATM    7  C12 UNL     1      -2.522   6.621  15.085  1.00  0.00     0.142 C 
HETATM    8  O5  UNL     1      -2.998   5.629  15.641  1.00  0.00    -0.297 OA
HETATM    9  C13 UNL     1      -2.592   6.853  13.580  1.00  0.00     0.092 C 
HETATM   10  C22 UNL     1      -1.209   7.341  13.096  1.00  0.00     0.052 C 
HETATM   11  C23 UNL     1       0.931  10.474  14.168  1.00  0.00     0.044 C 
HETATM   12  C24 UNL     1       2.314  10.492  14.484  1.00  0.00     0.101 C 
HETATM   13  O6  UNL     1       3.157   9.510  13.988  1.00  0.00    -0.302 OA
HETATM   14  C25 UNL     1       2.895  11.515  15.252  1.00  0.00     0.034 C 
HETATM   15  C27 UNL     1       2.057  12.551  15.632  1.00  0.00     0.090 C 
HETATM   16  O8  UNL     1       2.443  13.623  16.398  1.00  0.00    -0.341 OA
HETATM   17  C28 UNL     1       1.355  14.586  16.234  1.00  0.00     0.171 C 
HETATM   18  C29 UNL     1       0.078  13.813  15.849  1.00  0.00     0.057 C 
HETATM   19  C30 UNL     1      -0.836  13.480  17.038  1.00  0.00     0.012 C 
HETATM   20  C31 UNL     1      -0.077  13.316  18.350  1.00  0.00     0.004 C 
HETATM   21  C32 UNL     1       0.779  14.530  18.722  1.00  0.00     0.040 C 
HETATM   22  C33 UNL     1       1.226  15.401  17.533  1.00  0.00     0.081 C 
HETATM   23  C34 UNL     1       0.299  16.607  17.337  1.00  0.00     0.049 C 
HETATM   24  C35 UNL     1       0.719  12.601  15.268  1.00  0.00     0.017 C 
HETATM   25  C36 UNL     1       0.158  11.599  14.490  1.00  0.00     0.091 C 
ENDROOT
BRANCH   2  26
HETATM   26  C6  UNL     1       1.074   7.996  11.266  1.00  0.00     0.273 C 
HETATM   27  O3  UNL     1       0.706   8.590  10.262  1.00  0.00    -0.301 OA
ENDBRANCH   2  26
BRANCH   1  28
HETATM   28  C3  UNL     1       3.824   8.402  11.902  1.00  0.00     0.318 C 
HETATM   29  O2  UNL     1       4.438   9.123  11.130  1.00  0.00    -0.257 OA
BRANCH  28  30
HETATM   30  O1  UNL     1       4.025   7.072  12.101  1.00  0.00    -0.316 OA
BRANCH  30  31
HETATM   31  C2  UNL     1       4.741   6.395  11.061  1.00  0.00     0.175 C 
HETATM   32  C1  UNL     1       3.779   5.597  10.200  1.00  0.00     0.034 C 
ENDBRANCH  30  31
ENDBRANCH  28  30
ENDBRANCH   1  28
BRANCH  25  33
HETATM   33  O10 UNL     1      -1.149  11.733  14.111  1.00  0.00    -0.354 OA
HETATM   34  C37 UNL     1      -2.010  11.636  15.248  1.00  0.00     0.210 C 
ENDBRANCH  25  33
BRANCH   6  35
HETATM   35  C11 UNL     1      -2.632   8.035  17.141  1.00  0.00     0.176 C 
BRANCH  35  36
HETATM   36  O4  UNL     1      -3.637   8.995  16.833  1.00  0.00    -0.400 OA
HETATM   37  H12 UNL     1      -4.248   9.016  17.592  1.00  0.00     0.209 HD
ENDBRANCH  35  36
ENDBRANCH   6  35
BRANCH   9  38
HETATM   38  C14 UNL     1      -3.070   5.649  12.779  1.00  0.00    -0.046 A 
HETATM   39  C15 UNL     1      -2.163   4.947  11.972  1.00  0.00     0.010 A 
HETATM   40  C16 UNL     1      -2.550   3.828  11.225  1.00  0.00     0.031 A 
HETATM   41  C17 UNL     1      -3.887   3.425  11.307  1.00  0.00     0.042 A 
HETATM   42  N1  UNL     1      -4.542   2.382  10.694  1.00  0.00    -0.365 N 
HETATM   43  C20 UNL     1      -4.824   4.092  12.095  1.00  0.00    -0.008 A 
HETATM   44  C18 UNL     1      -5.861   2.368  11.064  1.00  0.00     0.089 A 
HETATM   45  H16 UNL     1      -4.109   1.727  10.059  1.00  0.00     0.165 HD
HETATM   46  C19 UNL     1      -6.065   3.416  11.932  1.00  0.00     0.030 A 
HETATM   47  C21 UNL     1      -4.410   5.216  12.839  1.00  0.00     0.021 A 
ENDBRANCH   9  38
BRANCH  14  48
HETATM   48  C26 UNL     1       4.353  11.519  15.590  1.00  0.00     0.208 C 
BRANCH  48  49
HETATM   49  O7  UNL     1       4.626  10.421  16.448  1.00  0.00    -0.396 OA
HETATM   50  H24 UNL     1       5.577  10.453  16.647  1.00  0.00     0.209 HD
ENDBRANCH  48  49
ENDBRANCH  14  48
BRANCH  22  51
HETATM   51  O9  UNL     1       2.511  15.957  17.862  1.00  0.00    -0.388 OA
HETATM   52  H36 UNL     1       3.164  15.245  17.729  1.00  0.00     0.210 HD
ENDBRANCH  22  51
TORSDOF 11
ENDMDL
MODEL 5
REMARK minimizedAffinity -6.286376
REMARK CNNscore 0.337951094
REMARK CNNaffinity 6.19763327
REMARK  11 active torsions:
REMARK  status: ('A' for Active; 'I' for Inactive)
REMARK    1  A    between atoms: C2_2  and  O1_3 
REMARK    2  A    between atoms: O1_3  and  C3_4 
REMARK    3  A    between atoms: C3_4  and  C4_6 
REMARK    4  A    between atoms: C5_7  and  C6_8 
REMARK    5  A    between atoms: C10_13  and  C11_14 
REMARK    6  A    between atoms: C11_14  and  O4_15 
REMARK    7  A    between atoms: C13_18  and  C14_19 
REMARK    8  A    between atoms: C25_32  and  C26_33 
REMARK    9  A    between atoms: C26_33  and  O7_34 
REMARK   10  A    between atoms: C33_42  and  O9_44 
REMARK   11  A    between atoms: C36_46  and  O10_47 
ROOT
HETATM    1  C4  UNL     1      -0.730  14.675   2.993  1.00  0.00     0.165 C 
HETATM    2  C5  UNL     1      -1.279  15.781   3.537  1.00  0.00     0.053 C 
HETATM    3  C7  UNL     1      -0.427  16.597   4.417  1.00  0.00    -0.002 C 
HETATM    4  C8  UNL     1      -0.857  17.151   5.589  1.00  0.00    -0.066 C 
HETATM    5  C9  UNL     1       0.076  17.672   6.681  1.00  0.00     0.049 C 
HETATM    6  C10 UNL     1      -0.289  17.095   8.058  1.00  0.00     0.084 C 
HETATM    7  C12 UNL     1      -1.731  17.422   8.422  1.00  0.00     0.142 C 
HETATM    8  O5  UNL     1      -2.152  17.206   9.560  1.00  0.00    -0.297 OA
HETATM    9  C13 UNL     1      -2.590  18.008   7.307  1.00  0.00     0.092 C 
HETATM   10  C22 UNL     1      -2.326  17.208   6.014  1.00  0.00     0.052 C 
HETATM   11  C23 UNL     1       1.017  16.565   4.026  1.00  0.00     0.044 C 
HETATM   12  C24 UNL     1       1.483  15.323   3.524  1.00  0.00     0.101 C 
HETATM   13  O6  UNL     1       0.590  14.296   3.260  1.00  0.00    -0.302 OA
HETATM   14  C25 UNL     1       2.836  15.095   3.222  1.00  0.00     0.034 C 
HETATM   15  C27 UNL     1       3.692  16.175   3.375  1.00  0.00     0.090 C 
HETATM   16  O8  UNL     1       5.044  16.134   3.147  1.00  0.00    -0.341 OA
HETATM   17  C28 UNL     1       5.437  17.542   3.094  1.00  0.00     0.171 C 
HETATM   18  C29 UNL     1       4.402  18.364   3.886  1.00  0.00     0.057 C 
HETATM   19  C30 UNL     1       4.804  18.645   5.341  1.00  0.00     0.012 C 
HETATM   20  C31 UNL     1       5.702  17.565   5.934  1.00  0.00     0.004 C 
HETATM   21  C32 UNL     1       6.973  17.306   5.121  1.00  0.00     0.040 C 
HETATM   22  C33 UNL     1       6.876  17.667   3.627  1.00  0.00     0.081 C 
HETATM   23  C34 UNL     1       7.449  19.061   3.344  1.00  0.00     0.049 C 
HETATM   24  C35 UNL     1       3.250  17.424   3.787  1.00  0.00     0.017 C 
HETATM   25  C36 UNL     1       1.909  17.647   4.061  1.00  0.00     0.091 C 
ENDROOT
BRANCH   2  26
HETATM   26  C6  UNL     1      -2.692  16.103   3.250  1.00  0.00     0.273 C 
HETATM   27  O3  UNL     1      -3.006  16.995   2.473  1.00  0.00    -0.301 OA
ENDBRANCH   2  26
BRANCH   1  28
HETATM   28  C3  UNL     1      -1.496  13.803   2.063  1.00  0.00     0.318 C 
HETATM   29  O2  UNL     1      -2.588  13.319   2.317  1.00  0.00    -0.257 OA
BRANCH  28  30
HETATM   30  O1  UNL     1      -0.804  13.674   0.900  1.00  0.00    -0.316 OA
BRANCH  30  31
HETATM   31  C2  UNL     1      -0.779  14.840   0.066  1.00  0.00     0.175 C 
HETATM   32  C1  UNL     1      -0.267  14.482  -1.316  1.00  0.00     0.034 C 
ENDBRANCH  30  31
ENDBRANCH  28  30
ENDBRANCH   1  28
BRANCH  25  33
HETATM   33  O10 UNL     1       1.524  18.914   4.403  1.00  0.00    -0.354 OA
HETATM   34  C37 UNL     1       2.012  19.250   5.704  1.00  0.00     0.210 C 
ENDBRANCH  25  33
BRANCH   6  35
HETATM   35  C11 UNL     1       0.650  17.597   9.153  1.00  0.00     0.176 C 
BRANCH  35  36
HETATM   36  O4  UNL     1       0.584  16.757  10.299  1.00  0.00    -0.400 OA
HETATM   37  H12 UNL     1       1.337  16.996  10.868  1.00  0.00     0.209 HD
ENDBRANCH  35  36
ENDBRANCH   6  35
BRANCH   9  38
HETATM   38  C14 UNL     1      -4.078  18.075   7.628  1.00  0.00    -0.046 A 
HETATM   39  C15 UNL     1      -5.017  17.734   6.643  1.00  0.00     0.010 A 
HETATM   40  C16 UNL     1      -6.394  17.769   6.891  1.00  0.00     0.031 A 
HETATM   41  C17 UNL     1      -6.813  18.158   8.167  1.00  0.00     0.042 A 
HETATM   42  N1  UNL     1      -8.080  18.285   8.688  1.00  0.00    -0.365 N 
HETATM   43  C20 UNL     1      -5.917  18.505   9.177  1.00  0.00    -0.008 A 
HETATM   44  C18 UNL     1      -8.017  18.704   9.991  1.00  0.00     0.089 A 
HETATM   45  H16 UNL     1      -8.932  18.100   8.177  1.00  0.00     0.165 HD
HETATM   46  C19 UNL     1      -6.689  18.849  10.321  1.00  0.00     0.030 A 
HETATM   47  C21 UNL     1      -4.535  18.463   8.904  1.00  0.00     0.021 A 
ENDBRANCH   9  38
BRANCH  14  48
HETATM   48  C26 UNL     1       3.319  13.778   2.702  1.00  0.00     0.208 C 
BRANCH  48  49
HETATM   49  O7  UNL     1       3.949  13.985   1.446  1.00  0.00    -0.396 OA
HETATM   50  H24 UNL     1       4.250  13.113   1.137  1.00  0.00     0.209 HD
ENDBRANCH  48  49
ENDBRANCH  14  48
BRANCH  22  51
HETATM   51  O9  UNL     1       7.720  16.753   2.904  1.00  0.00    -0.388 OA
HETATM   52  H36 UNL     1       7.232  15.910   2.847  1.00  0.00     0.210 HD
ENDBRANCH  22  51
TORSDOF 11
ENDMDL
MODEL 6
REMARK minimizedAffinity -7.05824518
REMARK CNNscore 0.328231514
REMARK CNNaffinity 5.99857092
REMARK  11 active torsions:
REMARK  status: ('A' for Active; 'I' for Inactive)
REMARK    1  A    between atoms: C2_2  and  O1_3 
REMARK    2  A    between atoms: O1_3  and  C3_4 
REMARK    3  A    between atoms: C3_4  and  C4_6 
REMARK    4  A    between atoms: C5_7  and  C6_8 
REMARK    5  A    between atoms: C10_13  and  C11_14 
REMARK    6  A    between atoms: C11_14  and  O4_15 
REMARK    7  A    between atoms: C13_18  and  C14_19 
REMARK    8  A    between atoms: C25_32  and  C26_33 
REMARK    9  A    between atoms: C26_33  and  O7_34 
REMARK   10  A    between atoms: C33_42  and  O9_44 
REMARK   11  A    between atoms: C36_46  and  O10_47 
ROOT
HETATM    1  C4  UNL     1       4.352  11.877  21.686  1.00  0.00     0.165 C 
HETATM    2  C5  UNL     1       3.944  11.287  20.543  1.00  0.00     0.053 C 
HETATM    3  C7  UNL     1       4.767  11.494  19.341  1.00  0.00    -0.002 C 
HETATM    4  C8  UNL     1       4.251  11.736  18.101  1.00  0.00    -0.066 C 
HETATM    5  C9  UNL     1       5.056  12.315  16.938  1.00  0.00     0.049 C 
HETATM    6  C10 UNL     1       4.343  13.517  16.299  1.00  0.00     0.084 C 
HETATM    7  C12 UNL     1       2.952  13.132  15.814  1.00  0.00     0.142 C 
HETATM    8  O5  UNL     1       2.299  13.907  15.113  1.00  0.00    -0.297 OA
HETATM    9  C13 UNL     1       2.440  11.765  16.253  1.00  0.00     0.092 C 
HETATM   10  C22 UNL     1       2.770  11.577  17.750  1.00  0.00     0.052 C 
HETATM   11  C23 UNL     1       6.223  11.652  19.651  1.00  0.00     0.044 C 
HETATM   12  C24 UNL     1       6.518  12.344  20.853  1.00  0.00     0.101 C 
HETATM   13  O6  UNL     1       5.502  12.672  21.738  1.00  0.00    -0.302 OA
HETATM   14  C25 UNL     1       7.831  12.673  21.227  1.00  0.00     0.034 C 
HETATM   15  C27 UNL     1       8.840  12.225  20.389  1.00  0.00     0.090 C 
HETATM   16  O8  UNL     1      10.178  12.468  20.583  1.00  0.00    -0.341 OA
HETATM   17  C28 UNL     1      10.843  11.529  19.681  1.00  0.00     0.171 C 
HETATM   18  C29 UNL     1       9.864  11.173  18.545  1.00  0.00     0.057 C 
HETATM   19  C30 UNL     1      10.046  12.014  17.274  1.00  0.00     0.012 C 
HETATM   20  C31 UNL     1      10.592  13.411  17.552  1.00  0.00     0.004 C 
HETATM   21  C32 UNL     1      11.912  13.412  18.327  1.00  0.00     0.040 C 
HETATM   22  C33 UNL     1      12.158  12.166  19.198  1.00  0.00     0.081 C 
HETATM   23  C34 UNL     1      13.035  11.137  18.476  1.00  0.00     0.049 C 
HETATM   24  C35 UNL     1       8.587  11.476  19.250  1.00  0.00     0.017 C 
HETATM   25  C36 UNL     1       7.289  11.135  18.899  1.00  0.00     0.091 C 
ENDROOT
BRANCH   2  26
HETATM   26  C6  UNL     1       2.696  10.494  20.545  1.00  0.00     0.273 C 
HETATM   27  O3  UNL     1       2.696   9.290  20.323  1.00  0.00    -0.301 OA
ENDBRANCH   2  26
BRANCH   1  28
HETATM   28  C3  UNL     1       3.610  11.699  22.962  1.00  0.00     0.318 C 
HETATM   29  O2  UNL     1       2.837  12.523  23.428  1.00  0.00    -0.257 OA
BRANCH  28  30
HETATM   30  O1  UNL     1       3.906  10.480  23.485  1.00  0.00    -0.316 OA
BRANCH  30  31
HETATM   31  C2  UNL     1       2.844   9.847  24.211  1.00  0.00     0.175 C 
HETATM   32  C1  UNL     1       2.447   8.551  23.530  1.00  0.00     0.034 C 
ENDBRANCH  30  31
ENDBRANCH  28  30
ENDBRANCH   1  28
BRANCH  25  33
HETATM   33  O10 UNL     1       7.106  10.344  17.799  1.00  0.00    -0.354 OA
HETATM   34  C37 UNL     1       7.422  11.065  16.607  1.00  0.00     0.210 C 
ENDBRANCH  25  33
BRANCH   6  35
HETATM   35  C11 UNL     1       5.150  14.112  15.147  1.00  0.00     0.176 C 
BRANCH  35  36
HETATM   36  O4  UNL     1       4.930  15.514  15.048  1.00  0.00    -0.400 OA
HETATM   37  H12 UNL     1       5.613  15.865  14.449  1.00  0.00     0.209 HD
ENDBRANCH  35  36
ENDBRANCH   6  35
BRANCH   9  38
HETATM   38  C14 UNL     1       0.962  11.527  15.974  1.00  0.00    -0.046 A 
HETATM   39  C15 UNL     1      -0.006  12.195  16.738  1.00  0.00     0.010 A 
HETATM   40  C16 UNL     1      -1.377  12.019  16.514  1.00  0.00     0.031 A 
HETATM   41  C17 UNL     1      -1.759  11.146  15.491  1.00  0.00     0.042 A 
HETATM   42  N1  UNL     1      -3.011  10.781  15.053  1.00  0.00    -0.365 N 
HETATM   43  C20 UNL     1      -0.833  10.460  14.706  1.00  0.00    -0.008 A 
HETATM   44  C18 UNL     1      -2.910   9.887  14.019  1.00  0.00     0.089 A 
HETATM   45  H16 UNL     1      -3.877  11.123  15.443  1.00  0.00     0.165 HD
HETATM   46  C19 UNL     1      -1.572   9.669  13.783  1.00  0.00     0.030 A 
HETATM   47  C21 UNL     1       0.542  10.654  14.951  1.00  0.00     0.021 A 
ENDBRANCH   9  38
BRANCH  14  48
HETATM   48  C26 UNL     1       8.131  13.413  22.493  1.00  0.00     0.208 C 
BRANCH  48  49
HETATM   49  O7  UNL     1       8.888  12.568  23.348  1.00  0.00    -0.396 OA
HETATM   50  H24 UNL     1       9.065  13.077  24.157  1.00  0.00     0.209 HD
ENDBRANCH  48  49
ENDBRANCH  14  48
BRANCH  22  51
HETATM   51  O9  UNL     1      12.921  12.582  20.344  1.00  0.00    -0.388 OA
HETATM   52  H36 UNL     1      12.295  13.019  20.951  1.00  0.00     0.210 HD
ENDBRANCH  22  51
TORSDOF 11
ENDMDL
MODEL 7
REMARK minimizedAffinity -6.42566109
REMARK CNNscore 0.315872014
REMARK CNNaffinity 6.47779846
REMARK  11 active torsions:
REMARK  status: ('A' for Active; 'I' for Inactive)
REMARK    1  A    between atoms: C2_2  and  O1_3 
REMARK    2  A    between atoms: O1_3  and  C3_4 
REMARK    3  A    between atoms: C3_4  and  C4_6 
REMARK    4  A    between atoms: C5_7  and  C6_8 
REMARK    5  A    between atoms: C10_13  and  C11_14 
REMARK    6  A    between atoms: C11_14  and  O4_15 
REMARK    7  A    between atoms: C13_18  and  C14_19 
REMARK    8  A    between atoms: C25_32  and  C26_33 
REMARK    9  A    between atoms: C26_33  and  O7_34 
REMARK   10  A    between atoms: C33_42  and  O9_44 
REMARK   11  A    between atoms: C36_46  and  O10_47 
ROOT
HETATM    1  C4  UNL     1       1.744  11.575  16.880  1.00  0.00     0.165 C 
HETATM    2  C5  UNL     1       1.511  11.363  15.569  1.00  0.00     0.053 C 
HETATM    3  C7  UNL     1       0.112  11.400  15.113  1.00  0.00    -0.002 C 
HETATM    4  C8  UNL     1      -0.419  10.516  14.219  1.00  0.00    -0.066 C 
HETATM    5  C9  UNL     1      -1.918  10.300  14.018  1.00  0.00     0.049 C 
HETATM    6  C10 UNL     1      -2.288   8.810  14.088  1.00  0.00     0.084 C 
HETATM    7  C12 UNL     1      -1.514   8.006  13.052  1.00  0.00     0.142 C 
HETATM    8  O5  UNL     1      -1.807   6.829  12.829  1.00  0.00    -0.297 OA
HETATM    9  C13 UNL     1      -0.381   8.737  12.341  1.00  0.00     0.092 C 
HETATM   10  C22 UNL     1       0.419   9.539  13.390  1.00  0.00     0.052 C 
HETATM   11  C23 UNL     1      -0.734  12.350  15.903  1.00  0.00     0.044 C 
HETATM   12  C24 UNL     1      -0.423  12.436  17.285  1.00  0.00     0.101 C 
HETATM   13  O6  UNL     1       0.705  11.807  17.788  1.00  0.00    -0.302 OA
HETATM   14  C25 UNL     1      -1.196  13.193  18.181  1.00  0.00     0.034 C 
HETATM   15  C27 UNL     1      -2.245  13.913  17.634  1.00  0.00     0.090 C 
HETATM   16  O8  UNL     1      -3.116  14.690  18.357  1.00  0.00    -0.341 OA
HETATM   17  C28 UNL     1      -3.792  15.501  17.344  1.00  0.00     0.171 C 
HETATM   18  C29 UNL     1      -3.722  14.752  15.999  1.00  0.00     0.057 C 
HETATM   19  C30 UNL     1      -4.967  13.909  15.684  1.00  0.00     0.012 C 
HETATM   20  C31 UNL     1      -5.676  13.398  16.934  1.00  0.00     0.004 C 
HETATM   21  C32 UNL     1      -6.075  14.506  17.912  1.00  0.00     0.040 C 
HETATM   22  C33 UNL     1      -5.225  15.787  17.828  1.00  0.00     0.081 C 
HETATM   23  C34 UNL     1      -5.897  16.854  16.955  1.00  0.00     0.049 C 
HETATM   24  C35 UNL     1      -2.522  13.913  16.275  1.00  0.00     0.017 C 
HETATM   25  C36 UNL     1      -1.741  13.181  15.393  1.00  0.00     0.091 C 
ENDROOT
BRANCH   2  26
HETATM   26  C6  UNL     1       2.650  11.081  14.669  1.00  0.00     0.273 C 
HETATM   27  O3  UNL     1       3.119  11.940  13.934  1.00  0.00    -0.301 OA
ENDBRANCH   2  26
BRANCH   1  28
HETATM   28  C3  UNL     1       3.124  11.593  17.433  1.00  0.00     0.318 C 
HETATM   29  O2  UNL     1       3.687  10.619  17.909  1.00  0.00    -0.257 OA
BRANCH  28  30
HETATM   30  O1  UNL     1       3.648  12.839  17.286  1.00  0.00    -0.316 OA
BRANCH  30  31
HETATM   31  C2  UNL     1       3.270  13.788  18.292  1.00  0.00     0.175 C 
HETATM   32  C1  UNL     1       4.005  13.498  19.587  1.00  0.00     0.034 C 
ENDBRANCH  30  31
ENDBRANCH  28  30
ENDBRANCH   1  28
BRANCH  25  33
HETATM   33  O10 UNL     1      -2.024  13.269  14.057  1.00  0.00    -0.354 OA
HETATM   34  C37 UNL     1      -1.380  14.409  13.484  1.00  0.00     0.210 C 
ENDBRANCH  25  33
BRANCH   6  35
HETATM   35  C11 UNL     1      -3.788   8.586  13.905  1.00  0.00     0.176 C 
BRANCH  35  36
HETATM   36  O4  UNL     1      -4.163   8.764  12.544  1.00  0.00    -0.400 OA
HETATM   37  H12 UNL     1      -5.066   8.412  12.453  1.00  0.00     0.209 HD
ENDBRANCH  35  36
ENDBRANCH   6  35
BRANCH   9  38
HETATM   38  C14 UNL     1       0.528   7.837  11.514  1.00  0.00    -0.046 A 
HETATM   39  C15 UNL     1       1.251   6.814  12.144  1.00  0.00     0.010 A 
HETATM   40  C16 UNL     1       2.092   5.953  11.429  1.00  0.00     0.031 A 
HETATM   41  C17 UNL     1       2.192   6.146  10.048  1.00  0.00     0.042 A 
HETATM   42  N1  UNL     1       2.929   5.468   9.104  1.00  0.00    -0.365 N 
HETATM   43  C20 UNL     1       1.493   7.149   9.378  1.00  0.00    -0.008 A 
HETATM   44  C18 UNL     1       2.723   6.008   7.862  1.00  0.00     0.089 A 
HETATM   45  H16 UNL     1       3.537   4.687   9.305  1.00  0.00     0.165 HD
HETATM   46  C19 UNL     1       1.838   7.053   8.002  1.00  0.00     0.030 A 
HETATM   47  C21 UNL     1       0.652   8.004  10.120  1.00  0.00     0.021 A 
ENDBRANCH   9  38
BRANCH  14  48
HETATM   48  C26 UNL     1      -0.866  13.268  19.639  1.00  0.00     0.208 C 
BRANCH  48  49
HETATM   49  O7  UNL     1      -0.802  14.634  20.023  1.00  0.00    -0.396 OA
HETATM   50  H24 UNL     1      -0.587  14.647  20.971  1.00  0.00     0.209 HD
ENDBRANCH  48  49
ENDBRANCH  14  48
BRANCH  22  51
HETATM   51  O9  UNL     1      -5.166  16.356  19.147  1.00  0.00    -0.388 OA
HETATM   52  H36 UNL     1      -4.518  15.825  19.649  1.00  0.00     0.210 HD
ENDBRANCH  22  51
TORSDOF 11
ENDMDL
MODEL 8
REMARK minimizedAffinity -6.95324373
REMARK CNNscore 0.234121516
REMARK CNNaffinity 5.85168219
REMARK  11 active torsions:
REMARK  status: ('A' for Active; 'I' for Inactive)
REMARK    1  A    between atoms: C2_2  and  O1_3 
REMARK    2  A    between atoms: O1_3  and  C3_4 
REMARK    3  A    between atoms: C3_4  and  C4_6 
REMARK    4  A    between atoms: C5_7  and  C6_8 
REMARK    5  A    between atoms: C10_13  and  C11_14 
REMARK    6  A    between atoms: C11_14  and  O4_15 
REMARK    7  A    between atoms: C13_18  and  C14_19 
REMARK    8  A    between atoms: C25_32  and  C26_33 
REMARK    9  A    between atoms: C26_33  and  O7_34 
REMARK   10  A    between atoms: C33_42  and  O9_44 
REMARK   11  A    between atoms: C36_46  and  O10_47 
ROOT
HETATM    1  C4  UNL     1       2.082  10.539  18.625  1.00  0.00     0.165 C 
HETATM    2  C5  UNL     1       0.865  11.060  18.883  1.00  0.00     0.053 C 
HETATM    3  C7  UNL     1      -0.142  10.995  17.812  1.00  0.00    -0.002 C 
HETATM    4  C8  UNL     1      -0.989  12.021  17.503  1.00  0.00    -0.066 C 
HETATM    5  C9  UNL     1      -1.764  12.124  16.191  1.00  0.00     0.049 C 
HETATM    6  C10 UNL     1      -1.573  13.498  15.528  1.00  0.00     0.084 C 
HETATM    7  C12 UNL     1      -2.004  14.619  16.463  1.00  0.00     0.142 C 
HETATM    8  O5  UNL     1      -2.099  15.776  16.048  1.00  0.00    -0.297 OA
HETATM    9  C13 UNL     1      -2.289  14.220  17.907  1.00  0.00     0.092 C 
HETATM   10  C22 UNL     1      -1.175  13.262  18.379  1.00  0.00     0.052 C 
HETATM   11  C23 UNL     1       0.012   9.790  16.937  1.00  0.00     0.044 C 
HETATM   12  C24 UNL     1       1.349   9.381  16.695  1.00  0.00     0.101 C 
HETATM   13  O6  UNL     1       2.396   9.972  17.385  1.00  0.00    -0.302 OA
HETATM   14  C25 UNL     1       1.666   8.341  15.806  1.00  0.00     0.034 C 
HETATM   15  C27 UNL     1       0.596   7.681  15.223  1.00  0.00     0.090 C 
HETATM   16  O8  UNL     1       0.713   6.656  14.318  1.00  0.00    -0.341 OA
HETATM   17  C28 UNL     1      -0.626   6.071  14.270  1.00  0.00     0.171 C 
HETATM   18  C29 UNL     1      -1.641   7.147  14.704  1.00  0.00     0.057 C 
HETATM   19  C30 UNL     1      -2.288   7.907  13.537  1.00  0.00     0.012 C 
HETATM   20  C31 UNL     1      -1.388   7.999  12.310  1.00  0.00     0.004 C 
HETATM   21  C32 UNL     1      -0.908   6.639  11.795  1.00  0.00     0.040 C 
HETATM   22  C33 UNL     1      -0.866   5.520  12.852  1.00  0.00     0.081 C 
HETATM   23  C34 UNL     1      -2.129   4.652  12.806  1.00  0.00     0.049 C 
HETATM   24  C35 UNL     1      -0.724   8.006  15.504  1.00  0.00     0.017 C 
HETATM   25  C36 UNL     1      -1.029   9.019  16.400  1.00  0.00     0.091 C 
ENDROOT
BRANCH   2  26
HETATM   26  C6  UNL     1       0.610  11.682  20.199  1.00  0.00     0.273 C 
HETATM   27  O3  UNL     1       1.132  12.740  20.525  1.00  0.00    -0.301 OA
ENDBRANCH   2  26
BRANCH   1  28
HETATM   28  C3  UNL     1       3.156  10.522  19.653  1.00  0.00     0.318 C 
HETATM   29  O2  UNL     1       3.257   9.676  20.529  1.00  0.00    -0.257 OA
BRANCH  28  30
HETATM   30  O1  UNL     1       4.003  11.563  19.431  1.00  0.00    -0.316 OA
BRANCH  30  31
HETATM   31  C2  UNL     1       5.142  11.625  20.299  1.00  0.00     0.175 C 
HETATM   32  C1  UNL     1       6.421  11.563  19.485  1.00  0.00     0.034 C 
ENDBRANCH  30  31
ENDBRANCH  28  30
ENDBRANCH   1  28
BRANCH  25  33
HETATM   33  O10 UNL     1      -2.347   9.253  16.684  1.00  0.00    -0.354 OA
HETATM   34  C37 UNL     1      -3.008   9.820  15.550  1.00  0.00     0.210 C 
ENDBRANCH  25  33
BRANCH   6  35
HETATM   35  C11 UNL     1      -2.332  13.602  14.206  1.00  0.00     0.176 C 
BRANCH  35  36
HETATM   36  O4  UNL     1      -1.613  14.403  13.275  1.00  0.00    -0.400 OA
HETATM   37  H12 UNL     1      -2.029  14.265  12.405  1.00  0.00     0.209 HD
ENDBRANCH  35  36
ENDBRANCH   6  35
BRANCH   9  38
HETATM   38  C14 UNL     1      -2.458  15.394  18.862  1.00  0.00    -0.046 A 
HETATM   39  C15 UNL     1      -3.738  15.914  19.105  1.00  0.00     0.010 A 
HETATM   40  C16 UNL     1      -3.948  16.985  19.982  1.00  0.00     0.031 A 
HETATM   41  C17 UNL     1      -2.829  17.529  20.618  1.00  0.00     0.042 A 
HETATM   42  N1  UNL     1      -2.731  18.570  21.514  1.00  0.00    -0.365 N 
HETATM   43  C20 UNL     1      -1.538  17.047  20.408  1.00  0.00    -0.008 A 
HETATM   44  C18 UNL     1      -1.424  18.764  21.875  1.00  0.00     0.089 A 
HETATM   45  H16 UNL     1      -3.514  19.112  21.850  1.00  0.00     0.165 HD
HETATM   46  C19 UNL     1      -0.661  17.835  21.205  1.00  0.00     0.030 A 
HETATM   47  C21 UNL     1      -1.352  15.968  19.520  1.00  0.00     0.021 A 
ENDBRANCH   9  38
BRANCH  14  48
HETATM   48  C26 UNL     1       3.080   7.924  15.550  1.00  0.00     0.208 C 
BRANCH  48  49
HETATM   49  O7  UNL     1       3.197   6.529  15.792  1.00  0.00    -0.396 OA
HETATM   50  H24 UNL     1       4.123   6.292  15.617  1.00  0.00     0.209 HD
ENDBRANCH  48  49
ENDBRANCH  14  48
BRANCH  22  51
HETATM   51  O9  UNL     1       0.216   4.638  12.507  1.00  0.00    -0.388 OA
HETATM   52  H36 UNL     1       1.038   5.084  12.786  1.00  0.00     0.210 HD
ENDBRANCH  22  51
TORSDOF 11
ENDMDL
MODEL 9
REMARK minimizedAffinity -7.57640219
REMARK CNNscore 0.232772097
REMARK CNNaffinity 6.70007372
REMARK  11 active torsions:
REMARK  status: ('A' for Active; 'I' for Inactive)
REMARK    1  A    between atoms: C2_2  and  O1_3 
REMARK    2  A    between atoms: O1_3  and  C3_4 
REMARK    3  A    between atoms: C3_4  and  C4_6 
REMARK    4  A    between atoms: C5_7  and  C6_8 
REMARK    5  A    between atoms: C10_13  and  C11_14 
REMARK    6  A    between atoms: C11_14  and  O4_15 
REMARK    7  A    between atoms: C13_18  and  C14_19 
REMARK    8  A    between atoms: C25_32  and  C26_33 
REMARK    9  A    between atoms: C26_33  and  O7_34 
REMARK   10  A    between atoms: C33_42  and  O9_44 
REMARK   11  A    between atoms: C36_46  and  O10_47 
ROOT
HETATM    1  C4  UNL     1      -6.674  -8.985   9.063  1.00  0.00     0.165 C 
HETATM    2  C5  UNL     1      -7.824  -9.579   8.682  1.00  0.00     0.053 C 
HETATM    3  C7  UNL     1      -7.984  -9.891   7.253  1.00  0.00    -0.002 C 
HETATM    4  C8  UNL     1      -9.144  -9.700   6.559  1.00  0.00    -0.066 C 
HETATM    5  C9  UNL     1      -9.232  -9.659   5.034  1.00  0.00     0.049 C 
HETATM    6  C10 UNL     1      -9.985  -8.411   4.545  1.00  0.00     0.084 C 
HETATM    7  C12 UNL     1     -11.386  -8.352   5.138  1.00  0.00     0.142 C 
HETATM    8  O5  UNL     1     -12.204  -7.528   4.723  1.00  0.00    -0.297 OA
HETATM    9  C13 UNL     1     -11.688  -9.346   6.252  1.00  0.00     0.092 C 
HETATM   10  C22 UNL     1     -10.486  -9.377   7.220  1.00  0.00     0.052 C 
HETATM   11  C23 UNL     1      -6.688 -10.213   6.576  1.00  0.00     0.044 C 
HETATM   12  C24 UNL     1      -5.565  -9.475   7.030  1.00  0.00     0.101 C 
HETATM   13  O6  UNL     1      -5.670  -8.657   8.145  1.00  0.00    -0.302 OA
HETATM   14  C25 UNL     1      -4.303  -9.578   6.421  1.00  0.00     0.034 C 
HETATM   15  C27 UNL     1      -4.190 -10.494   5.388  1.00  0.00     0.090 C 
HETATM   16  O8  UNL     1      -3.044 -10.716   4.666  1.00  0.00    -0.341 OA
HETATM   17  C28 UNL     1      -3.305 -11.972   3.964  1.00  0.00     0.171 C 
HETATM   18  C29 UNL     1      -4.831 -12.146   3.833  1.00  0.00     0.057 C 
HETATM   19  C30 UNL     1      -5.405 -11.660   2.494  1.00  0.00     0.012 C 
HETATM   20  C31 UNL     1      -4.597 -10.525   1.873  1.00  0.00     0.004 C 
HETATM   21  C32 UNL     1      -3.117 -10.861   1.672  1.00  0.00     0.040 C 
HETATM   22  C33 UNL     1      -2.560 -11.941   2.618  1.00  0.00     0.081 C 
HETATM   23  C34 UNL     1      -2.561 -13.325   1.957  1.00  0.00     0.049 C 
HETATM   24  C35 UNL     1      -5.250 -11.289   4.977  1.00  0.00     0.017 C 
HETATM   25  C36 UNL     1      -6.487 -11.199   5.598  1.00  0.00     0.091 C 
ENDROOT
BRANCH   2  26
HETATM   26  C6  UNL     1      -8.862  -9.860   9.694  1.00  0.00     0.273 C 
HETATM   27  O3  UNL     1      -9.554  -8.972  10.175  1.00  0.00    -0.301 OA
ENDBRANCH   2  26
BRANCH   1  28
HETATM   28  C3  UNL     1      -6.400  -8.661  10.488  1.00  0.00     0.318 C 
HETATM   29  O2  UNL     1      -6.671  -7.592  11.015  1.00  0.00    -0.257 OA
BRANCH  28  30
HETATM   30  O1  UNL     1      -5.846  -9.745  11.094  1.00  0.00    -0.316 OA
BRANCH  30  31
HETATM   31  C2  UNL     1      -4.569 -10.149  10.584  1.00  0.00     0.175 C 
HETATM   32  C1  UNL     1      -3.500  -9.162  11.012  1.00  0.00     0.034 C 
ENDBRANCH  30  31
ENDBRANCH  28  30
ENDBRANCH   1  28
BRANCH  25  33
HETATM   33  O10 UNL     1      -7.476 -12.050   5.191  1.00  0.00    -0.354 OA
HETATM   34  C37 UNL     1      -7.903 -11.722   3.867  1.00  0.00     0.210 C 
ENDBRANCH  25  33
BRANCH   6  35
HETATM   35  C11 UNL     1     -10.061  -8.354   3.020  1.00  0.00     0.176 C 
BRANCH  35  36
HETATM   36  O4  UNL     1      -8.838  -8.787   2.437  1.00  0.00    -0.400 OA
HETATM   37  H12 UNL     1      -9.012  -8.926   1.489  1.00  0.00     0.209 HD
ENDBRANCH  35  36
ENDBRANCH   6  35
BRANCH   9  38
HETATM   38  C14 UNL     1     -12.994  -9.085   6.992  1.00  0.00    -0.046 A 
HETATM   39  C15 UNL     1     -13.339  -9.881   8.094  1.00  0.00     0.010 A 
HETATM   40  C16 UNL     1     -14.522  -9.675   8.814  1.00  0.00     0.031 A 
HETATM   41  C17 UNL     1     -15.362  -8.638   8.396  1.00  0.00     0.042 A 
HETATM   42  N1  UNL     1     -16.569  -8.211   8.901  1.00  0.00    -0.365 N 
HETATM   43  C20 UNL     1     -15.061  -7.821   7.307  1.00  0.00    -0.008 A 
HETATM   44  C18 UNL     1     -17.043  -7.155   8.167  1.00  0.00     0.089 A 
HETATM   45  H16 UNL     1     -17.036  -8.623   9.695  1.00  0.00     0.165 HD
HETATM   46  C19 UNL     1     -16.129  -6.892   7.173  1.00  0.00     0.030 A 
HETATM   47  C21 UNL     1     -13.864  -8.048   6.598  1.00  0.00     0.021 A 
ENDBRANCH   9  38
BRANCH  14  48
HETATM   48  C26 UNL     1      -3.127  -8.786   6.901  1.00  0.00     0.208 C 
BRANCH  48  49
HETATM   49  O7  UNL     1      -2.561  -8.094   5.798  1.00  0.00    -0.396 OA
HETATM   50  H24 UNL     1      -1.803  -7.592   6.143  1.00  0.00     0.209 HD
ENDBRANCH  48  49
ENDBRANCH  14  48
BRANCH  22  51
HETATM   51  O9  UNL     1      -1.176 -11.634   2.859  1.00  0.00    -0.388 OA
HETATM   52  H36 UNL     1      -1.162 -10.904   3.506  1.00  0.00     0.210 HD
ENDBRANCH  22  51
TORSDOF 11
ENDMDL
