MODEL 1
REMARK minimizedAffinity -6.46938372
REMARK CNNscore 0.386762261
REMARK CNNaffinity 6.65182734
REMARK  21 active torsions:
REMARK  status: ('A' for Active; 'I' for Inactive)
REMARK    1  A    between atoms: C2_2  and  C3_3 
REMARK    2  A    between atoms: C2_2  and  C27_33 
REMARK    3  A    between atoms: C4_4  and  C5_5 
REMARK    4  A    between atoms: C6_6  and  C7_7 
REMARK    5  A    between atoms: C6_6  and  C10_12 
REMARK    6  A    between atoms: C7_7  and  O1_8 
REMARK    7  A    between atoms: O1_8  and  C8_9 
REMARK    8  A    between atoms: C8_9  and  C9_10 
REMARK    9  A    between atoms: C9_10  and  O2_11 
REMARK   10  A    between atoms: C14_16  and  O3_17 
REMARK   11  A    between atoms: C15_18  and  C16_19 
REMARK   12  A    between atoms: C16_19  and  C17_20 
REMARK   13  A    between atoms: C17_20  and  C18_21 
REMARK   14  A    between atoms: C18_21  and  O4_22 
REMARK   15  A    between atoms: C20_24  and  C22_26 
REMARK   16  A    between atoms: C25_30  and  O6_32 
REMARK   17  A    between atoms: C27_33  and  C28_34 
REMARK   18  A    between atoms: C28_34  and  C29_35 
REMARK   19  A    between atoms: C30_36  and  C32_38 
REMARK   20  A    between atoms: C32_38  and  N1_39 
REMARK   21  A    between atoms: N1_39  and  C33_40 
ROOT
HETATM    1  C10 UNL     1       0.305  52.287 -11.024  1.00  0.00     0.046 C 
HETATM    2  C11 UNL     1      -0.248  52.104  -9.614  1.00  0.00     0.013 C 
HETATM    3  C12 UNL     1       0.969  52.336  -8.723  1.00  0.00     0.017 C 
HETATM    4  C13 UNL     1       1.871  53.415  -9.424  1.00  0.00     0.024 C 
HETATM    5  C14 UNL     1       1.185  53.554 -10.852  1.00  0.00     0.138 C 
HETATM    6  C15 UNL     1       3.383  52.916  -9.471  1.00  0.00     0.029 C 
HETATM    7  C19 UNL     1       4.403  54.066  -9.650  1.00  0.00    -0.066 C 
HETATM    8  C20 UNL     1       5.716  54.017  -9.302  1.00  0.00    -0.021 C 
HETATM    9  C21 UNL     1       6.692  55.151  -9.485  1.00  0.00     0.052 C 
HETATM   10  C23 UNL     1       3.785  55.329 -10.221  1.00  0.00     0.038 C 
HETATM   11  C24 UNL     1       2.670  55.871  -9.324  1.00  0.00     0.042 C 
HETATM   12  C25 UNL     1       1.859  54.770  -8.594  1.00  0.00     0.065 C 
HETATM   13  C26 UNL     1       2.392  54.642  -7.148  1.00  0.00     0.047 C 
ENDROOT
BRANCH   1  14
HETATM   14  C6  UNL     1      -0.749  52.222 -12.132  1.00  0.00    -0.050 C 
HETATM   15  C5  UNL     1      -0.474  52.140 -13.454  1.00  0.00     0.005 C 
BRANCH  15  16
HETATM   16  C4  UNL     1       0.806  52.174 -14.133  1.00  0.00     0.001 C 
HETATM   17  C3  UNL     1       0.886  52.210 -15.475  1.00  0.00     0.006 C 
BRANCH  17  18
HETATM   18  C2  UNL     1       2.099  52.283 -16.290  1.00  0.00    -0.067 C 
HETATM   19  C1  UNL     1       3.280  52.068 -15.686  1.00  0.00     0.019 C 
BRANCH  18  20
HETATM   20  C27 UNL     1       1.945  52.571 -17.777  1.00  0.00     0.041 C 
BRANCH  20  21
HETATM   21  C28 UNL     1       0.539  52.581 -18.412  1.00  0.00     0.032 C 
BRANCH  21  22
HETATM   22  C29 UNL     1       0.546  52.904 -19.885  1.00  0.00    -0.022 C 
HETATM   23  C30 UNL     1       0.261  52.086 -20.921  1.00  0.00    -0.060 C 
HETATM   24  C31 UNL     1      -0.094  50.631 -20.771  1.00  0.00     0.045 C 
BRANCH  23  25
HETATM   25  C32 UNL     1       0.361  52.607 -22.343  1.00  0.00     0.303 C 
BRANCH  25  26
HETATM   26  N1  UNL     1      -0.444  51.874 -23.313  1.00  0.00     0.086 N 
HETATM   27  H50 UNL     1      -0.452  50.888 -23.054  1.00  0.00     0.316 HD
BRANCH  26  28
HETATM   28  C33 UNL     1      -0.072  52.013 -24.716  1.00  0.00     0.265 C 
HETATM   29  C34 UNL     1       0.337  53.426 -25.111  1.00  0.00     0.037 C 
ENDBRANCH  26  28
ENDBRANCH  25  26
ENDBRANCH  23  25
ENDBRANCH  21  22
ENDBRANCH  20  21
ENDBRANCH  18  20
ENDBRANCH  17  18
ENDBRANCH  15  16
BRANCH  14  30
HETATM   30  C7  UNL     1      -2.213  52.179 -11.738  1.00  0.00     0.202 C 
BRANCH  30  31
HETATM   31  O1  UNL     1      -2.742  50.889 -12.063  1.00  0.00    -0.385 OA
BRANCH  31  32
HETATM   32  C8  UNL     1      -3.138  50.111 -10.923  1.00  0.00     0.194 C 
BRANCH  32  33
HETATM   33  C9  UNL     1      -4.043  50.930 -10.004  1.00  0.00     0.190 C 
BRANCH  33  34
HETATM   34  O2  UNL     1      -5.378  50.928 -10.507  1.00  0.00    -0.399 OA
HETATM   35  H12 UNL     1      -5.302  51.076 -11.470  1.00  0.00     0.209 HD
ENDBRANCH  33  34
ENDBRANCH  32  33
ENDBRANCH  31  32
ENDBRANCH  30  31
ENDBRANCH  14  30
ENDBRANCH   1  14
BRANCH   5  36
HETATM   36  O3  UNL     1       0.388  54.739 -10.882  1.00  0.00    -0.394 OA
HETATM   37  H19 UNL     1      -0.056  54.775 -11.758  1.00  0.00     0.210 HD
ENDBRANCH   5  36
BRANCH   6  38
HETATM   38  C16 UNL     1       3.706  51.677 -10.353  1.00  0.00     0.012 C 
BRANCH  38  39
HETATM   39  C17 UNL     1       3.832  50.314  -9.662  1.00  0.00     0.027 C 
BRANCH  39  40
HETATM   40  C18 UNL     1       4.421  49.253 -10.594  1.00  0.00     0.164 C 
BRANCH  40  41
HETATM   41  O4  UNL     1       5.478  48.552  -9.953  1.00  0.00    -0.401 OA
HETATM   42  H27 UNL     1       6.301  49.050 -10.117  1.00  0.00     0.209 HD
ENDBRANCH  40  41
ENDBRANCH  39  40
ENDBRANCH  38  39
ENDBRANCH   6  38
BRANCH  12  43
HETATM   43  O6  UNL     1       0.514  55.241  -8.420  1.00  0.00    -0.389 OA
HETATM   44  H39 UNL     1       0.145  55.305  -9.330  1.00  0.00     0.210 HD
ENDBRANCH  12  43
BRANCH   8  45
HETATM   45  C22 UNL     1       6.321  52.806  -8.669  1.00  0.00     0.265 C 
HETATM   46  O5  UNL     1       7.026  52.015  -9.285  1.00  0.00    -0.302 OA
ENDBRANCH   8  45
TORSDOF 21
ENDMDL
MODEL 2
REMARK minimizedAffinity -7.82148314
REMARK CNNscore 0.378204942
REMARK CNNaffinity 7.25871325
REMARK  21 active torsions:
REMARK  status: ('A' for Active; 'I' for Inactive)
REMARK    1  A    between atoms: C2_2  and  C3_3 
REMARK    2  A    between atoms: C2_2  and  C27_33 
REMARK    3  A    between atoms: C4_4  and  C5_5 
REMARK    4  A    between atoms: C6_6  and  C7_7 
REMARK    5  A    between atoms: C6_6  and  C10_12 
REMARK    6  A    between atoms: C7_7  and  O1_8 
REMARK    7  A    between atoms: O1_8  and  C8_9 
REMARK    8  A    between atoms: C8_9  and  C9_10 
REMARK    9  A    between atoms: C9_10  and  O2_11 
REMARK   10  A    between atoms: C14_16  and  O3_17 
REMARK   11  A    between atoms: C15_18  and  C16_19 
REMARK   12  A    between atoms: C16_19  and  C17_20 
REMARK   13  A    between atoms: C17_20  and  C18_21 
REMARK   14  A    between atoms: C18_21  and  O4_22 
REMARK   15  A    between atoms: C20_24  and  C22_26 
REMARK   16  A    between atoms: C25_30  and  O6_32 
REMARK   17  A    between atoms: C27_33  and  C28_34 
REMARK   18  A    between atoms: C28_34  and  C29_35 
REMARK   19  A    between atoms: C30_36  and  C32_38 
REMARK   20  A    between atoms: C32_38  and  N1_39 
REMARK   21  A    between atoms: N1_39  and  C33_40 
ROOT
HETATM    1  C10 UNL     1      -1.378  50.828 -23.631  1.00  0.00     0.046 C 
HETATM    2  C11 UNL     1      -1.750  50.388 -25.043  1.00  0.00     0.013 C 
HETATM    3  C12 UNL     1      -2.713  49.227 -24.810  1.00  0.00     0.017 C 
HETATM    4  C13 UNL     1      -3.523  49.538 -23.500  1.00  0.00     0.024 C 
HETATM    5  C14 UNL     1      -2.759  50.807 -22.922  1.00  0.00     0.138 C 
HETATM    6  C15 UNL     1      -3.508  48.269 -22.536  1.00  0.00     0.029 C 
HETATM    7  C19 UNL     1      -4.662  48.272 -21.504  1.00  0.00    -0.066 C 
HETATM    8  C20 UNL     1      -5.154  47.174 -20.872  1.00  0.00    -0.021 C 
HETATM    9  C21 UNL     1      -6.281  47.199 -19.870  1.00  0.00     0.052 C 
HETATM   10  C23 UNL     1      -5.263  49.646 -21.282  1.00  0.00     0.038 C 
HETATM   11  C24 UNL     1      -5.834  50.232 -22.575  1.00  0.00     0.042 C 
HETATM   12  C25 UNL     1      -5.045  49.833 -23.848  1.00  0.00     0.065 C 
HETATM   13  C26 UNL     1      -5.784  48.665 -24.540  1.00  0.00     0.047 C 
ENDROOT
BRANCH   1  14
HETATM   14  C6  UNL     1      -0.495  52.077 -23.567  1.00  0.00    -0.050 C 
HETATM   15  C5  UNL     1       0.225  52.460 -22.487  1.00  0.00     0.005 C 
BRANCH  15  16
HETATM   16  C4  UNL     1       0.282  51.873 -21.164  1.00  0.00     0.001 C 
HETATM   17  C3  UNL     1       0.495  52.628 -20.072  1.00  0.00     0.006 C 
BRANCH  17  18
HETATM   18  C2  UNL     1       0.541  52.182 -18.679  1.00  0.00    -0.067 C 
HETATM   19  C1  UNL     1      -0.182  51.102 -18.338  1.00  0.00     0.019 C 
BRANCH  18  20
HETATM   20  C27 UNL     1       1.427  52.952 -17.710  1.00  0.00     0.041 C 
BRANCH  20  21
HETATM   21  C28 UNL     1       2.190  52.195 -16.604  1.00  0.00     0.032 C 
BRANCH  21  22
HETATM   22  C29 UNL     1       1.438  52.116 -15.299  1.00  0.00    -0.022 C 
HETATM   23  C30 UNL     1       1.831  51.541 -14.141  1.00  0.00    -0.060 C 
HETATM   24  C31 UNL     1       3.137  50.815 -13.964  1.00  0.00     0.045 C 
BRANCH  23  25
HETATM   25  C32 UNL     1       0.898  51.543 -12.944  1.00  0.00     0.303 C 
BRANCH  25  26
HETATM   26  N1  UNL     1       0.052  52.726 -12.840  1.00  0.00     0.086 N 
HETATM   27  H50 UNL     1       0.447  53.463 -13.423  1.00  0.00     0.316 HD
BRANCH  26  28
HETATM   28  C33 UNL     1      -0.201  53.238 -11.498  1.00  0.00     0.265 C 
HETATM   29  C34 UNL     1       0.847  54.227 -11.005  1.00  0.00     0.037 C 
ENDBRANCH  26  28
ENDBRANCH  25  26
ENDBRANCH  23  25
ENDBRANCH  21  22
ENDBRANCH  20  21
ENDBRANCH  18  20
ENDBRANCH  17  18
ENDBRANCH  15  16
BRANCH  14  30
HETATM   30  C7  UNL     1      -0.351  52.927 -24.816  1.00  0.00     0.202 C 
BRANCH  30  31
HETATM   31  O1  UNL     1       1.017  52.904 -25.236  1.00  0.00    -0.385 OA
BRANCH  31  32
HETATM   32  C8  UNL     1       1.242  52.206 -26.470  1.00  0.00     0.194 C 
BRANCH  32  33
HETATM   33  C9  UNL     1       2.458  51.289 -26.353  1.00  0.00     0.190 C 
BRANCH  33  34
HETATM   34  O2  UNL     1       3.361  51.537 -27.430  1.00  0.00    -0.399 OA
HETATM   35  H12 UNL     1       2.808  51.609 -28.232  1.00  0.00     0.209 HD
ENDBRANCH  33  34
ENDBRANCH  32  33
ENDBRANCH  31  32
ENDBRANCH  30  31
ENDBRANCH  14  30
ENDBRANCH   1  14
BRANCH   5  36
HETATM   36  O3  UNL     1      -3.506  51.987 -23.221  1.00  0.00    -0.394 OA
HETATM   37  H19 UNL     1      -2.989  52.755 -22.891  1.00  0.00     0.210 HD
ENDBRANCH   5  36
BRANCH   6  38
HETATM   38  C16 UNL     1      -2.144  47.851 -21.918  1.00  0.00     0.012 C 
BRANCH  38  39
HETATM   39  C17 UNL     1      -1.634  48.632 -20.701  1.00  0.00     0.027 C 
BRANCH  39  40
HETATM   40  C18 UNL     1      -1.816  47.849 -19.401  1.00  0.00     0.164 C 
BRANCH  40  41
HETATM   41  O4  UNL     1      -2.704  48.529 -18.523  1.00  0.00    -0.401 OA
HETATM   42  H27 UNL     1      -2.171  49.149 -17.991  1.00  0.00     0.209 HD
ENDBRANCH  40  41
ENDBRANCH  39  40
ENDBRANCH  38  39
ENDBRANCH   6  38
BRANCH  12  43
HETATM   43  O6  UNL     1      -5.144  50.908 -24.796  1.00  0.00    -0.389 OA
HETATM   44  H39 UNL     1      -4.656  51.657 -24.386  1.00  0.00     0.210 HD
ENDBRANCH  12  43
BRANCH   8  45
HETATM   45  C22 UNL     1      -4.623  45.803 -21.137  1.00  0.00     0.265 C 
HETATM   46  O5  UNL     1      -5.340  44.863 -21.463  1.00  0.00    -0.302 OA
ENDBRANCH   8  45
TORSDOF 21
ENDMDL
MODEL 3
REMARK minimizedAffinity -7.42412663
REMARK CNNscore 0.363250792
REMARK CNNaffinity 6.46676636
REMARK  21 active torsions:
REMARK  status: ('A' for Active; 'I' for Inactive)
REMARK    1  A    between atoms: C2_2  and  C3_3 
REMARK    2  A    between atoms: C2_2  and  C27_33 
REMARK    3  A    between atoms: C4_4  and  C5_5 
REMARK    4  A    between atoms: C6_6  and  C7_7 
REMARK    5  A    between atoms: C6_6  and  C10_12 
REMARK    6  A    between atoms: C7_7  and  O1_8 
REMARK    7  A    between atoms: O1_8  and  C8_9 
REMARK    8  A    between atoms: C8_9  and  C9_10 
REMARK    9  A    between atoms: C9_10  and  O2_11 
REMARK   10  A    between atoms: C14_16  and  O3_17 
REMARK   11  A    between atoms: C15_18  and  C16_19 
REMARK   12  A    between atoms: C16_19  and  C17_20 
REMARK   13  A    between atoms: C17_20  and  C18_21 
REMARK   14  A    between atoms: C18_21  and  O4_22 
REMARK   15  A    between atoms: C20_24  and  C22_26 
REMARK   16  A    between atoms: C25_30  and  O6_32 
REMARK   17  A    between atoms: C27_33  and  C28_34 
REMARK   18  A    between atoms: C28_34  and  C29_35 
REMARK   19  A    between atoms: C30_36  and  C32_38 
REMARK   20  A    between atoms: C32_38  and  N1_39 
REMARK   21  A    between atoms: N1_39  and  C33_40 
ROOT
HETATM    1  C10 UNL     1      -3.267  48.332 -21.972  1.00  0.00     0.046 C 
HETATM    2  C11 UNL     1      -2.351  47.241 -21.423  1.00  0.00     0.013 C 
HETATM    3  C12 UNL     1      -1.158  48.022 -20.879  1.00  0.00     0.017 C 
HETATM    4  C13 UNL     1      -1.697  49.391 -20.329  1.00  0.00     0.024 C 
HETATM    5  C14 UNL     1      -3.203  49.391 -20.840  1.00  0.00     0.138 C 
HETATM    6  C15 UNL     1      -0.815  50.592 -20.894  1.00  0.00     0.029 C 
HETATM    7  C19 UNL     1      -0.916  51.879 -20.041  1.00  0.00    -0.066 C 
HETATM    8  C20 UNL     1       0.006  52.877 -20.009  1.00  0.00    -0.021 C 
HETATM    9  C21 UNL     1      -0.112  54.124 -19.169  1.00  0.00     0.052 C 
HETATM   10  C23 UNL     1      -2.152  51.920 -19.163  1.00  0.00     0.038 C 
HETATM   11  C24 UNL     1      -2.192  50.745 -18.184  1.00  0.00     0.042 C 
HETATM   12  C25 UNL     1      -1.578  49.437 -18.745  1.00  0.00     0.065 C 
HETATM   13  C26 UNL     1      -0.135  49.299 -18.206  1.00  0.00     0.047 C 
ENDROOT
BRANCH   1  14
HETATM   14  C6  UNL     1      -4.618  47.827 -22.483  1.00  0.00    -0.050 C 
HETATM   15  C5  UNL     1      -5.086  48.012 -23.739  1.00  0.00     0.005 C 
BRANCH  15  16
HETATM   16  C4  UNL     1      -4.508  48.762 -24.836  1.00  0.00     0.001 C 
HETATM   17  C3  UNL     1      -4.473  48.261 -26.084  1.00  0.00     0.006 C 
BRANCH  17  18
HETATM   18  C2  UNL     1      -3.957  48.914 -27.288  1.00  0.00    -0.067 C 
HETATM   19  C1  UNL     1      -2.937  49.778 -27.150  1.00  0.00     0.019 C 
BRANCH  18  20
HETATM   20  C27 UNL     1      -4.590  48.553 -28.624  1.00  0.00     0.041 C 
BRANCH  20  21
HETATM   21  C28 UNL     1      -5.853  47.668 -28.658  1.00  0.00     0.032 C 
BRANCH  21  22
HETATM   22  C29 UNL     1      -6.318  47.334 -30.052  1.00  0.00    -0.022 C 
HETATM   23  C30 UNL     1      -6.812  46.163 -30.511  1.00  0.00    -0.060 C 
HETATM   24  C31 UNL     1      -6.954  44.923 -29.669  1.00  0.00     0.045 C 
BRANCH  23  25
HETATM   25  C32 UNL     1      -7.194  46.026 -31.973  1.00  0.00     0.303 C 
BRANCH  25  26
HETATM   26  N1  UNL     1      -6.156  45.442 -32.816  1.00  0.00     0.086 N 
HETATM   27  H50 UNL     1      -6.312  44.437 -32.877  1.00  0.00     0.316 HD
BRANCH  26  28
HETATM   28  C33 UNL     1      -4.774  45.707 -32.435  1.00  0.00     0.265 C 
HETATM   29  C34 UNL     1      -4.124  46.844 -33.212  1.00  0.00     0.037 C 
ENDBRANCH  26  28
ENDBRANCH  25  26
ENDBRANCH  23  25
ENDBRANCH  21  22
ENDBRANCH  20  21
ENDBRANCH  18  20
ENDBRANCH  17  18
ENDBRANCH  15  16
BRANCH  14  30
HETATM   30  C7  UNL     1      -5.482  46.999 -21.551  1.00  0.00     0.202 C 
BRANCH  30  31
HETATM   31  O1  UNL     1      -6.854  47.360 -21.747  1.00  0.00    -0.385 OA
BRANCH  31  32
HETATM   32  C8  UNL     1      -7.366  48.275 -20.767  1.00  0.00     0.194 C 
BRANCH  32  33
HETATM   33  C9  UNL     1      -7.362  49.702 -21.312  1.00  0.00     0.190 C 
BRANCH  33  34
HETATM   34  O2  UNL     1      -6.561  50.540 -20.480  1.00  0.00    -0.399 OA
HETATM   35  H12 UNL     1      -6.797  50.308 -19.561  1.00  0.00     0.209 HD
ENDBRANCH  33  34
ENDBRANCH  32  33
ENDBRANCH  31  32
ENDBRANCH  30  31
ENDBRANCH  14  30
ENDBRANCH   1  14
BRANCH   5  36
HETATM   36  O3  UNL     1      -4.070  49.041 -19.760  1.00  0.00    -0.394 OA
HETATM   37  H19 UNL     1      -4.986  49.006 -20.115  1.00  0.00     0.210 HD
ENDBRANCH   5  36
BRANCH   6  38
HETATM   38  C16 UNL     1      -0.873  50.871 -22.422  1.00  0.00     0.012 C 
BRANCH  38  39
HETATM   39  C17 UNL     1      -1.871  51.922 -22.924  1.00  0.00     0.027 C 
BRANCH  39  40
HETATM   40  C18 UNL     1      -1.867  52.031 -24.450  1.00  0.00     0.164 C 
BRANCH  40  41
HETATM   41  O4  UNL     1      -1.372  53.298 -24.862  1.00  0.00    -0.401 OA
HETATM   42  H27 UNL     1      -2.130  53.913 -24.891  1.00  0.00     0.209 HD
ENDBRANCH  40  41
ENDBRANCH  39  40
ENDBRANCH  38  39
ENDBRANCH   6  38
BRANCH  12  43
HETATM   43  O6  UNL     1      -2.269  48.324 -18.157  1.00  0.00    -0.389 OA
HETATM   44  H39 UNL     1      -3.186  48.377 -18.509  1.00  0.00     0.210 HD
ENDBRANCH  12  43
BRANCH   8  45
HETATM   45  C22 UNL     1       1.266  52.816 -20.811  1.00  0.00     0.265 C 
HETATM   46  O5  UNL     1       1.443  53.483 -21.825  1.00  0.00    -0.302 OA
ENDBRANCH   8  45
TORSDOF 21
ENDMDL
MODEL 4
REMARK minimizedAffinity -7.86748409
REMARK CNNscore 0.315213203
REMARK CNNaffinity 7.17212677
REMARK  21 active torsions:
REMARK  status: ('A' for Active; 'I' for Inactive)
REMARK    1  A    between atoms: C2_2  and  C3_3 
REMARK    2  A    between atoms: C2_2  and  C27_33 
REMARK    3  A    between atoms: C4_4  and  C5_5 
REMARK    4  A    between atoms: C6_6  and  C7_7 
REMARK    5  A    between atoms: C6_6  and  C10_12 
REMARK    6  A    between atoms: C7_7  and  O1_8 
REMARK    7  A    between atoms: O1_8  and  C8_9 
REMARK    8  A    between atoms: C8_9  and  C9_10 
REMARK    9  A    between atoms: C9_10  and  O2_11 
REMARK   10  A    between atoms: C14_16  and  O3_17 
REMARK   11  A    between atoms: C15_18  and  C16_19 
REMARK   12  A    between atoms: C16_19  and  C17_20 
REMARK   13  A    between atoms: C17_20  and  C18_21 
REMARK   14  A    between atoms: C18_21  and  O4_22 
REMARK   15  A    between atoms: C20_24  and  C22_26 
REMARK   16  A    between atoms: C25_30  and  O6_32 
REMARK   17  A    between atoms: C27_33  and  C28_34 
REMARK   18  A    between atoms: C28_34  and  C29_35 
REMARK   19  A    between atoms: C30_36  and  C32_38 
REMARK   20  A    between atoms: C32_38  and  N1_39 
REMARK   21  A    between atoms: N1_39  and  C33_40 
ROOT
HETATM    1  C10 UNL     1      -1.598  50.060 -21.169  1.00  0.00     0.046 C 
HETATM    2  C11 UNL     1      -2.857  50.910 -21.035  1.00  0.00     0.013 C 
HETATM    3  C12 UNL     1      -2.741  51.899 -22.192  1.00  0.00     0.017 C 
HETATM    4  C13 UNL     1      -2.031  51.157 -23.380  1.00  0.00     0.024 C 
HETATM    5  C14 UNL     1      -1.557  49.801 -22.699  1.00  0.00     0.138 C 
HETATM    6  C15 UNL     1      -0.843  52.053 -23.951  1.00  0.00     0.029 C 
HETATM    7  C19 UNL     1      -0.434  51.679 -25.396  1.00  0.00    -0.066 C 
HETATM    8  C20 UNL     1       0.206  52.499 -26.270  1.00  0.00    -0.021 C 
HETATM    9  C21 UNL     1       0.595  52.113 -27.675  1.00  0.00     0.052 C 
HETATM   10  C23 UNL     1      -0.868  50.282 -25.798  1.00  0.00     0.038 C 
HETATM   11  C24 UNL     1      -2.388  50.115 -25.719  1.00  0.00     0.042 C 
HETATM   12  C25 UNL     1      -3.051  50.928 -24.578  1.00  0.00     0.065 C 
HETATM   13  C26 UNL     1      -3.641  52.226 -25.175  1.00  0.00     0.047 C 
ENDROOT
BRANCH   1  14
HETATM   14  C6  UNL     1      -1.514  48.890 -20.185  1.00  0.00    -0.050 C 
HETATM   15  C5  UNL     1      -0.959  48.957 -18.953  1.00  0.00     0.005 C 
BRANCH  15  16
HETATM   16  C4  UNL     1      -0.267  50.057 -18.312  1.00  0.00     0.001 C 
HETATM   17  C3  UNL     1       0.218  49.947 -17.063  1.00  0.00     0.006 C 
BRANCH  17  18
HETATM   18  C2  UNL     1       0.965  50.954 -16.308  1.00  0.00    -0.067 C 
HETATM   19  C1  UNL     1       1.185  52.145 -16.891  1.00  0.00     0.019 C 
BRANCH  18  20
HETATM   20  C27 UNL     1       1.421  50.600 -14.901  1.00  0.00     0.041 C 
BRANCH  20  21
HETATM   21  C28 UNL     1       2.783  51.112 -14.387  1.00  0.00     0.032 C 
BRANCH  21  22
HETATM   22  C29 UNL     1       2.678  51.960 -13.145  1.00  0.00    -0.022 C 
HETATM   23  C30 UNL     1       3.050  51.647 -11.884  1.00  0.00    -0.060 C 
HETATM   24  C31 UNL     1       3.629  50.317 -11.485  1.00  0.00     0.045 C 
BRANCH  23  25
HETATM   25  C32 UNL     1       2.824  52.643 -10.762  1.00  0.00     0.303 C 
BRANCH  25  26
HETATM   26  N1  UNL     1       2.488  53.990 -11.208  1.00  0.00     0.086 N 
HETATM   27  H50 UNL     1       2.754  54.086 -12.187  1.00  0.00     0.316 HD
BRANCH  26  28
HETATM   28  C33 UNL     1       3.039  55.095 -10.433  1.00  0.00     0.265 C 
HETATM   29  C34 UNL     1       4.097  55.904 -11.173  1.00  0.00     0.037 C 
ENDBRANCH  26  28
ENDBRANCH  25  26
ENDBRANCH  23  25
ENDBRANCH  21  22
ENDBRANCH  20  21
ENDBRANCH  18  20
ENDBRANCH  17  18
ENDBRANCH  15  16
BRANCH  14  30
HETATM   30  C7  UNL     1      -2.153  47.570 -20.573  1.00  0.00     0.202 C 
BRANCH  30  31
HETATM   31  O1  UNL     1      -2.695  46.955 -19.399  1.00  0.00    -0.385 OA
BRANCH  31  32
HETATM   32  C8  UNL     1      -4.011  46.410 -19.577  1.00  0.00     0.194 C 
BRANCH  32  33
HETATM   33  C9  UNL     1      -3.998  45.314 -20.642  1.00  0.00     0.190 C 
BRANCH  33  34
HETATM   34  O2  UNL     1      -3.871  44.034 -20.024  1.00  0.00    -0.399 OA
HETATM   35  H12 UNL     1      -3.184  44.135 -19.337  1.00  0.00     0.209 HD
ENDBRANCH  33  34
ENDBRANCH  32  33
ENDBRANCH  31  32
ENDBRANCH  30  31
ENDBRANCH  14  30
ENDBRANCH   1  14
BRANCH   5  36
HETATM   36  O3  UNL     1      -2.450  48.748 -23.065  1.00  0.00    -0.394 OA
HETATM   37  H19 UNL     1      -2.158  47.937 -22.595  1.00  0.00     0.210 HD
ENDBRANCH   5  36
BRANCH   6  38
HETATM   38  C16 UNL     1       0.377  52.308 -23.022  1.00  0.00     0.012 C 
BRANCH  38  39
HETATM   39  C17 UNL     1       0.185  53.242 -21.821  1.00  0.00     0.027 C 
BRANCH  39  40
HETATM   40  C18 UNL     1       1.514  53.807 -21.318  1.00  0.00     0.164 C 
BRANCH  40  41
HETATM   41  O4  UNL     1       1.896  54.947 -22.077  1.00  0.00    -0.401 OA
HETATM   42  H27 UNL     1       2.405  54.628 -22.847  1.00  0.00     0.209 HD
ENDBRANCH  40  41
ENDBRANCH  39  40
ENDBRANCH  38  39
ENDBRANCH   6  38
BRANCH  12  43
HETATM   43  O6  UNL     1      -4.206  50.207 -24.122  1.00  0.00    -0.389 OA
HETATM   44  H39 UNL     1      -3.851  49.387 -23.713  1.00  0.00     0.210 HD
ENDBRANCH  12  43
BRANCH   8  45
HETATM   45  C22 UNL     1       0.573  53.903 -25.914  1.00  0.00     0.265 C 
HETATM   46  O5  UNL     1       0.107  54.879 -26.491  1.00  0.00    -0.302 OA
ENDBRANCH   8  45
TORSDOF 21
ENDMDL
MODEL 5
REMARK minimizedAffinity -7.69388056
REMARK CNNscore 0.30132845
REMARK CNNaffinity 7.20626879
REMARK  21 active torsions:
REMARK  status: ('A' for Active; 'I' for Inactive)
REMARK    1  A    between atoms: C2_2  and  C3_3 
REMARK    2  A    between atoms: C2_2  and  C27_33 
REMARK    3  A    between atoms: C4_4  and  C5_5 
REMARK    4  A    between atoms: C6_6  and  C7_7 
REMARK    5  A    between atoms: C6_6  and  C10_12 
REMARK    6  A    between atoms: C7_7  and  O1_8 
REMARK    7  A    between atoms: O1_8  and  C8_9 
REMARK    8  A    between atoms: C8_9  and  C9_10 
REMARK    9  A    between atoms: C9_10  and  O2_11 
REMARK   10  A    between atoms: C14_16  and  O3_17 
REMARK   11  A    between atoms: C15_18  and  C16_19 
REMARK   12  A    between atoms: C16_19  and  C17_20 
REMARK   13  A    between atoms: C17_20  and  C18_21 
REMARK   14  A    between atoms: C18_21  and  O4_22 
REMARK   15  A    between atoms: C20_24  and  C22_26 
REMARK   16  A    between atoms: C25_30  and  O6_32 
REMARK   17  A    between atoms: C27_33  and  C28_34 
REMARK   18  A    between atoms: C28_34  and  C29_35 
REMARK   19  A    between atoms: C30_36  and  C32_38 
REMARK   20  A    between atoms: C32_38  and  N1_39 
REMARK   21  A    between atoms: N1_39  and  C33_40 
ROOT
HETATM    1  C10 UNL     1      -3.221  49.799 -21.650  1.00  0.00     0.046 C 
HETATM    2  C11 UNL     1      -4.465  50.588 -22.045  1.00  0.00     0.013 C 
HETATM    3  C12 UNL     1      -3.916  51.676 -22.965  1.00  0.00     0.017 C 
HETATM    4  C13 UNL     1      -2.700  51.065 -23.749  1.00  0.00     0.024 C 
HETATM    5  C14 UNL     1      -2.485  49.674 -23.010  1.00  0.00     0.138 C 
HETATM    6  C15 UNL     1      -1.449  52.049 -23.669  1.00  0.00     0.029 C 
HETATM    7  C19 UNL     1      -0.414  51.814 -24.795  1.00  0.00    -0.066 C 
HETATM    8  C20 UNL     1       0.490  52.728 -25.237  1.00  0.00    -0.021 C 
HETATM    9  C21 UNL     1       1.490  52.479 -26.338  1.00  0.00     0.052 C 
HETATM   10  C23 UNL     1      -0.523  50.442 -25.433  1.00  0.00     0.038 C 
HETATM   11  C24 UNL     1      -1.902  50.214 -26.056  1.00  0.00     0.042 C 
HETATM   12  C25 UNL     1      -3.060  50.902 -25.289  1.00  0.00     0.065 C 
HETATM   13  C26 UNL     1      -3.412  52.224 -26.009  1.00  0.00     0.047 C 
ENDROOT
BRANCH   1  14
HETATM   14  C6  UNL     1      -3.503  48.553 -20.805  1.00  0.00    -0.050 C 
HETATM   15  C5  UNL     1      -2.757  48.152 -19.750  1.00  0.00     0.005 C 
BRANCH  15  16
HETATM   16  C4  UNL     1      -1.528  48.711 -19.225  1.00  0.00     0.001 C 
HETATM   17  C3  UNL     1      -1.528  49.512 -18.145  1.00  0.00     0.006 C 
BRANCH  17  18
HETATM   18  C2  UNL     1      -0.368  50.115 -17.487  1.00  0.00    -0.067 C 
HETATM   19  C1  UNL     1       0.345  49.352 -16.641  1.00  0.00     0.019 C 
BRANCH  18  20
HETATM   20  C27 UNL     1      -0.027  51.560 -17.822  1.00  0.00     0.041 C 
BRANCH  20  21
HETATM   21  C28 UNL     1       1.329  52.148 -17.379  1.00  0.00     0.032 C 
BRANCH  21  22
HETATM   22  C29 UNL     1       1.683  51.833 -15.947  1.00  0.00    -0.022 C 
HETATM   23  C30 UNL     1       2.890  51.917 -15.347  1.00  0.00    -0.060 C 
HETATM   24  C31 UNL     1       4.154  52.326 -16.053  1.00  0.00     0.045 C 
BRANCH  23  25
HETATM   25  C32 UNL     1       3.037  51.517 -13.890  1.00  0.00     0.303 C 
BRANCH  25  26
HETATM   26  N1  UNL     1       2.692  52.565 -12.938  1.00  0.00     0.086 N 
HETATM   27  H50 UNL     1       3.133  53.435 -13.234  1.00  0.00     0.316 HD
BRANCH  26  28
HETATM   28  C33 UNL     1       3.000  52.308 -11.536  1.00  0.00     0.265 C 
HETATM   29  C34 UNL     1       3.387  53.552 -10.747  1.00  0.00     0.037 C 
ENDBRANCH  26  28
ENDBRANCH  25  26
ENDBRANCH  23  25
ENDBRANCH  21  22
ENDBRANCH  20  21
ENDBRANCH  18  20
ENDBRANCH  17  18
ENDBRANCH  15  16
BRANCH  14  30
HETATM   30  C7  UNL     1      -4.740  47.732 -21.116  1.00  0.00     0.202 C 
BRANCH  30  31
HETATM   31  O1  UNL     1      -5.236  47.164 -19.899  1.00  0.00    -0.385 OA
BRANCH  31  32
HETATM   32  C8  UNL     1      -6.660  47.259 -19.744  1.00  0.00     0.194 C 
BRANCH  32  33
HETATM   33  C9  UNL     1      -7.225  48.355 -20.646  1.00  0.00     0.190 C 
BRANCH  33  34
HETATM   34  O2  UNL     1      -8.650  48.365 -20.568  1.00  0.00    -0.399 OA
HETATM   35  H12 UNL     1      -8.927  47.429 -20.609  1.00  0.00     0.209 HD
ENDBRANCH  33  34
ENDBRANCH  32  33
ENDBRANCH  31  32
ENDBRANCH  30  31
ENDBRANCH  14  30
ENDBRANCH   1  14
BRANCH   5  36
HETATM   36  O3  UNL     1      -3.045  48.624 -23.801  1.00  0.00    -0.394 OA
HETATM   37  H19 UNL     1      -2.936  47.786 -23.300  1.00  0.00     0.210 HD
ENDBRANCH   5  36
BRANCH   6  38
HETATM   38  C16 UNL     1      -0.792  52.267 -22.278  1.00  0.00     0.012 C 
BRANCH  38  39
HETATM   39  C17 UNL     1       0.737  52.364 -22.210  1.00  0.00     0.027 C 
BRANCH  39  40
HETATM   40  C18 UNL     1       1.206  53.170 -20.999  1.00  0.00     0.164 C 
BRANCH  40  41
HETATM   41  O4  UNL     1       1.958  54.304 -21.409  1.00  0.00    -0.401 OA
HETATM   42  H27 UNL     1       2.888  54.024 -21.493  1.00  0.00     0.209 HD
ENDBRANCH  40  41
ENDBRANCH  39  40
ENDBRANCH  38  39
ENDBRANCH   6  38
BRANCH  12  43
HETATM   43  O6  UNL     1      -4.243  50.103 -25.445  1.00  0.00    -0.389 OA
HETATM   44  H39 UNL     1      -4.051  49.264 -24.970  1.00  0.00     0.210 HD
ENDBRANCH  12  43
BRANCH   8  45
HETATM   45  C22 UNL     1       0.559  54.110 -24.671  1.00  0.00     0.265 C 
HETATM   46  O5  UNL     1       0.297  55.112 -25.327  1.00  0.00    -0.302 OA
ENDBRANCH   8  45
TORSDOF 21
ENDMDL
MODEL 6
REMARK minimizedAffinity -8.7107296
REMARK CNNscore 0.285532653
REMARK CNNaffinity 6.6736989
REMARK  21 active torsions:
REMARK  status: ('A' for Active; 'I' for Inactive)
REMARK    1  A    between atoms: C2_2  and  C3_3 
REMARK    2  A    between atoms: C2_2  and  C27_33 
REMARK    3  A    between atoms: C4_4  and  C5_5 
REMARK    4  A    between atoms: C6_6  and  C7_7 
REMARK    5  A    between atoms: C6_6  and  C10_12 
REMARK    6  A    between atoms: C7_7  and  O1_8 
REMARK    7  A    between atoms: O1_8  and  C8_9 
REMARK    8  A    between atoms: C8_9  and  C9_10 
REMARK    9  A    between atoms: C9_10  and  O2_11 
REMARK   10  A    between atoms: C14_16  and  O3_17 
REMARK   11  A    between atoms: C15_18  and  C16_19 
REMARK   12  A    between atoms: C16_19  and  C17_20 
REMARK   13  A    between atoms: C17_20  and  C18_21 
REMARK   14  A    between atoms: C18_21  and  O4_22 
REMARK   15  A    between atoms: C20_24  and  C22_26 
REMARK   16  A    between atoms: C25_30  and  O6_32 
REMARK   17  A    between atoms: C27_33  and  C28_34 
REMARK   18  A    between atoms: C28_34  and  C29_35 
REMARK   19  A    between atoms: C30_36  and  C32_38 
REMARK   20  A    between atoms: C32_38  and  N1_39 
REMARK   21  A    between atoms: N1_39  and  C33_40 
ROOT
HETATM    1  C10 UNL     1      -1.917  51.233 -24.648  1.00  0.00     0.046 C 
HETATM    2  C11 UNL     1      -2.585  52.457 -24.029  1.00  0.00     0.013 C 
HETATM    3  C12 UNL     1      -3.945  51.928 -23.579  1.00  0.00     0.017 C 
HETATM    4  C13 UNL     1      -3.749  50.434 -23.135  1.00  0.00     0.024 C 
HETATM    5  C14 UNL     1      -2.262  50.131 -23.611  1.00  0.00     0.138 C 
HETATM    6  C15 UNL     1      -4.855  49.513 -23.817  1.00  0.00     0.029 C 
HETATM    7  C19 UNL     1      -5.080  48.174 -23.074  1.00  0.00    -0.066 C 
HETATM    8  C20 UNL     1      -6.203  47.412 -23.147  1.00  0.00    -0.021 C 
HETATM    9  C21 UNL     1      -6.402  46.111 -22.412  1.00  0.00     0.052 C 
HETATM   10  C23 UNL     1      -3.921  47.786 -22.176  1.00  0.00     0.038 C 
HETATM   11  C24 UNL     1      -3.657  48.842 -21.101  1.00  0.00     0.042 C 
HETATM   12  C25 UNL     1      -3.939  50.294 -21.563  1.00  0.00     0.065 C 
HETATM   13  C26 UNL     1      -5.334  50.715 -21.046  1.00  0.00     0.047 C 
ENDROOT
BRANCH   1  14
HETATM   14  C6  UNL     1      -0.467  51.455 -25.086  1.00  0.00    -0.050 C 
HETATM   15  C5  UNL     1       0.457  52.142 -24.376  1.00  0.00     0.005 C 
BRANCH  15  16
HETATM   16  C4  UNL     1       0.307  52.873 -23.134  1.00  0.00     0.001 C 
HETATM   17  C3  UNL     1       0.817  52.406 -21.981  1.00  0.00     0.006 C 
BRANCH  17  18
HETATM   18  C2  UNL     1       0.775  53.049 -20.666  1.00  0.00    -0.067 C 
HETATM   19  C1  UNL     1       1.710  53.972 -20.384  1.00  0.00     0.019 C 
BRANCH  18  20
HETATM   20  C27 UNL     1      -0.342  52.652 -19.712  1.00  0.00     0.041 C 
BRANCH  20  21
HETATM   21  C28 UNL     1      -0.184  51.395 -18.831  1.00  0.00     0.032 C 
BRANCH  21  22
HETATM   22  C29 UNL     1       0.491  51.667 -17.510  1.00  0.00    -0.022 C 
HETATM   23  C30 UNL     1       0.715  50.805 -16.493  1.00  0.00    -0.060 C 
HETATM   24  C31 UNL     1       0.274  49.366 -16.497  1.00  0.00     0.045 C 
BRANCH  23  25
HETATM   25  C32 UNL     1       1.387  51.295 -15.224  1.00  0.00     0.303 C 
BRANCH  25  26
HETATM   26  N1  UNL     1       2.029  52.599 -15.345  1.00  0.00     0.086 N 
HETATM   27  H50 UNL     1       1.308  53.312 -15.438  1.00  0.00     0.316 HD
BRANCH  26  28
HETATM   28  C33 UNL     1       3.013  52.750 -16.411  1.00  0.00     0.265 C 
HETATM   29  C34 UNL     1       4.410  52.272 -16.037  1.00  0.00     0.037 C 
ENDBRANCH  26  28
ENDBRANCH  25  26
ENDBRANCH  23  25
ENDBRANCH  21  22
ENDBRANCH  20  21
ENDBRANCH  18  20
ENDBRANCH  17  18
ENDBRANCH  15  16
BRANCH  14  30
HETATM   30  C7  UNL     1       0.007  50.811 -26.375  1.00  0.00     0.202 C 
BRANCH  30  31
HETATM   31  O1  UNL     1       0.424  51.838 -27.280  1.00  0.00    -0.385 OA
BRANCH  31  32
HETATM   32  C8  UNL     1       0.021  53.161 -26.895  1.00  0.00     0.194 C 
BRANCH  32  33
HETATM   33  C9  UNL     1      -0.581  53.905 -28.086  1.00  0.00     0.190 C 
BRANCH  33  34
HETATM   34  O2  UNL     1      -1.985  53.659 -28.155  1.00  0.00    -0.399 OA
HETATM   35  H12 UNL     1      -2.097  52.702 -27.998  1.00  0.00     0.209 HD
ENDBRANCH  33  34
ENDBRANCH  32  33
ENDBRANCH  31  32
ENDBRANCH  30  31
ENDBRANCH  14  30
ENDBRANCH   1  14
BRANCH   5  36
HETATM   36  O3  UNL     1      -1.382  50.191 -22.487  1.00  0.00    -0.394 OA
HETATM   37  H19 UNL     1      -0.469  50.044 -22.818  1.00  0.00     0.210 HD
ENDBRANCH   5  36
BRANCH   6  38
HETATM   38  C16 UNL     1      -4.800  49.346 -25.362  1.00  0.00     0.012 C 
BRANCH  38  39
HETATM   39  C17 UNL     1      -3.806  48.331 -25.942  1.00  0.00     0.027 C 
BRANCH  39  40
HETATM   40  C18 UNL     1      -3.778  48.368 -27.470  1.00  0.00     0.164 C 
BRANCH  40  41
HETATM   41  O4  UNL     1      -3.320  49.631 -27.935  1.00  0.00    -0.401 OA
HETATM   42  H27 UNL     1      -4.098  50.216 -28.007  1.00  0.00     0.209 HD
ENDBRANCH  40  41
ENDBRANCH  39  40
ENDBRANCH  38  39
ENDBRANCH   6  38
BRANCH  12  43
HETATM   43  O6  UNL     1      -3.040  51.172 -20.869  1.00  0.00    -0.389 OA
HETATM   44  H39 UNL     1      -2.145  50.940 -21.204  1.00  0.00     0.210 HD
ENDBRANCH  12  43
BRANCH   8  45
HETATM   45  C22 UNL     1      -7.384  47.820 -23.967  1.00  0.00     0.265 C 
HETATM   46  O5  UNL     1      -8.272  48.547 -23.539  1.00  0.00    -0.302 OA
ENDBRANCH   8  45
TORSDOF 21
ENDMDL
MODEL 7
REMARK minimizedAffinity -6.64554358
REMARK CNNscore 0.281573176
REMARK CNNaffinity 6.4117012
REMARK  21 active torsions:
REMARK  status: ('A' for Active; 'I' for Inactive)
REMARK    1  A    between atoms: C2_2  and  C3_3 
REMARK    2  A    between atoms: C2_2  and  C27_33 
REMARK    3  A    between atoms: C4_4  and  C5_5 
REMARK    4  A    between atoms: C6_6  and  C7_7 
REMARK    5  A    between atoms: C6_6  and  C10_12 
REMARK    6  A    between atoms: C7_7  and  O1_8 
REMARK    7  A    between atoms: O1_8  and  C8_9 
REMARK    8  A    between atoms: C8_9  and  C9_10 
REMARK    9  A    between atoms: C9_10  and  O2_11 
REMARK   10  A    between atoms: C14_16  and  O3_17 
REMARK   11  A    between atoms: C15_18  and  C16_19 
REMARK   12  A    between atoms: C16_19  and  C17_20 
REMARK   13  A    between atoms: C17_20  and  C18_21 
REMARK   14  A    between atoms: C18_21  and  O4_22 
REMARK   15  A    between atoms: C20_24  and  C22_26 
REMARK   16  A    between atoms: C25_30  and  O6_32 
REMARK   17  A    between atoms: C27_33  and  C28_34 
REMARK   18  A    between atoms: C28_34  and  C29_35 
REMARK   19  A    between atoms: C30_36  and  C32_38 
REMARK   20  A    between atoms: C32_38  and  N1_39 
REMARK   21  A    between atoms: N1_39  and  C33_40 
ROOT
HETATM    1  C10 UNL     1      -9.387  47.011 -27.616  1.00  0.00     0.046 C 
HETATM    2  C11 UNL     1      -8.038  46.451 -27.175  1.00  0.00     0.013 C 
HETATM    3  C12 UNL     1      -7.406  45.980 -28.483  1.00  0.00     0.017 C 
HETATM    4  C13 UNL     1      -7.879  46.959 -29.617  1.00  0.00     0.024 C 
HETATM    5  C14 UNL     1      -8.992  47.822 -28.878  1.00  0.00     0.138 C 
HETATM    6  C15 UNL     1      -8.417  46.128 -30.865  1.00  0.00     0.029 C 
HETATM    7  C19 UNL     1      -8.413  46.936 -32.186  1.00  0.00    -0.066 C 
HETATM    8  C20 UNL     1      -8.395  46.401 -33.435  1.00  0.00    -0.021 C 
HETATM    9  C21 UNL     1      -8.390  47.208 -34.710  1.00  0.00     0.052 C 
HETATM   10  C23 UNL     1      -8.376  48.436 -31.969  1.00  0.00     0.038 C 
HETATM   11  C24 UNL     1      -7.130  48.867 -31.192  1.00  0.00     0.042 C 
HETATM   12  C25 UNL     1      -6.658  47.833 -30.138  1.00  0.00     0.065 C 
HETATM   13  C26 UNL     1      -5.492  47.014 -30.738  1.00  0.00     0.047 C 
ENDROOT
BRANCH   1  14
HETATM   14  C6  UNL     1     -10.197  47.670 -26.496  1.00  0.00    -0.050 C 
HETATM   15  C5  UNL     1      -9.683  48.092 -25.318  1.00  0.00     0.005 C 
BRANCH  15  16
HETATM   16  C4  UNL     1      -8.334  47.965 -24.803  1.00  0.00     0.001 C 
HETATM   17  C3  UNL     1      -7.652  49.034 -24.355  1.00  0.00     0.006 C 
BRANCH  17  18
HETATM   18  C2  UNL     1      -6.307  49.051 -23.779  1.00  0.00    -0.067 C 
HETATM   19  C1  UNL     1      -5.817  47.901 -23.287  1.00  0.00     0.019 C 
BRANCH  18  20
HETATM   20  C27 UNL     1      -5.538  50.364 -23.797  1.00  0.00     0.041 C 
BRANCH  20  21
HETATM   21  C28 UNL     1      -4.013  50.354 -24.029  1.00  0.00     0.032 C 
BRANCH  21  22
HETATM   22  C29 UNL     1      -3.614  50.747 -25.429  1.00  0.00    -0.022 C 
HETATM   23  C30 UNL     1      -3.448  49.948 -26.506  1.00  0.00    -0.060 C 
HETATM   24  C31 UNL     1      -3.606  48.452 -26.476  1.00  0.00     0.045 C 
BRANCH  23  25
HETATM   25  C32 UNL     1      -3.006  50.548 -27.828  1.00  0.00     0.303 C 
BRANCH  25  26
HETATM   26  N1  UNL     1      -2.098  51.682 -27.703  1.00  0.00     0.086 N 
HETATM   27  H50 UNL     1      -2.070  52.179 -28.593  1.00  0.00     0.316 HD
BRANCH  26  28
HETATM   28  C33 UNL     1      -0.741  51.392 -27.257  1.00  0.00     0.265 C 
HETATM   29  C34 UNL     1       0.340  51.807 -28.247  1.00  0.00     0.037 C 
ENDBRANCH  26  28
ENDBRANCH  25  26
ENDBRANCH  23  25
ENDBRANCH  21  22
ENDBRANCH  20  21
ENDBRANCH  18  20
ENDBRANCH  17  18
ENDBRANCH  15  16
BRANCH  14  30
HETATM   30  C7  UNL     1     -11.672  47.938 -26.730  1.00  0.00     0.202 C 
BRANCH  30  31
HETATM   31  O1  UNL     1     -12.404  47.552 -25.562  1.00  0.00    -0.385 OA
BRANCH  31  32
HETATM   32  C8  UNL     1     -13.038  46.268 -25.663  1.00  0.00     0.194 C 
BRANCH  32  33
HETATM   33  C9  UNL     1     -14.524  46.429 -25.983  1.00  0.00     0.190 C 
BRANCH  33  34
HETATM   34  O2  UNL     1     -14.741  46.268 -27.384  1.00  0.00    -0.399 OA
HETATM   35  H12 UNL     1     -14.031  46.773 -27.825  1.00  0.00     0.209 HD
ENDBRANCH  33  34
ENDBRANCH  32  33
ENDBRANCH  31  32
ENDBRANCH  30  31
ENDBRANCH  14  30
ENDBRANCH   1  14
BRANCH   5  36
HETATM   36  O3  UNL     1      -8.447  49.093 -28.521  1.00  0.00    -0.394 OA
HETATM   37  H19 UNL     1      -9.141  49.585 -28.030  1.00  0.00     0.210 HD
ENDBRANCH   5  36
BRANCH   6  38
HETATM   38  C16 UNL     1      -9.714  45.293 -30.670  1.00  0.00     0.012 C 
BRANCH  38  39
HETATM   39  C17 UNL     1      -9.573  43.778 -30.478  1.00  0.00     0.027 C 
BRANCH  39  40
HETATM   40  C18 UNL     1     -10.676  43.005 -31.201  1.00  0.00     0.164 C 
BRANCH  40  41
HETATM   41  O4  UNL     1     -10.546  41.608 -30.970  1.00  0.00    -0.401 OA
HETATM   42  H27 UNL     1      -9.948  41.253 -31.654  1.00  0.00     0.209 HD
ENDBRANCH  40  41
ENDBRANCH  39  40
ENDBRANCH  38  39
ENDBRANCH   6  38
BRANCH  12  43
HETATM   43  O6  UNL     1      -6.049  48.544 -29.049  1.00  0.00    -0.389 OA
HETATM   44  H39 UNL     1      -6.781  49.053 -28.634  1.00  0.00     0.210 HD
ENDBRANCH  12  43
BRANCH   8  45
HETATM   45  C22 UNL     1      -8.355  44.925 -33.664  1.00  0.00     0.265 C 
HETATM   46  O5  UNL     1      -8.716  44.404 -34.714  1.00  0.00    -0.302 OA
ENDBRANCH   8  45
TORSDOF 21
ENDMDL
MODEL 8
REMARK minimizedAffinity -6.58845854
REMARK CNNscore 0.279696405
REMARK CNNaffinity 6.71041346
REMARK  21 active torsions:
REMARK  status: ('A' for Active; 'I' for Inactive)
REMARK    1  A    between atoms: C2_2  and  C3_3 
REMARK    2  A    between atoms: C2_2  and  C27_33 
REMARK    3  A    between atoms: C4_4  and  C5_5 
REMARK    4  A    between atoms: C6_6  and  C7_7 
REMARK    5  A    between atoms: C6_6  and  C10_12 
REMARK    6  A    between atoms: C7_7  and  O1_8 
REMARK    7  A    between atoms: O1_8  and  C8_9 
REMARK    8  A    between atoms: C8_9  and  C9_10 
REMARK    9  A    between atoms: C9_10  and  O2_11 
REMARK   10  A    between atoms: C14_16  and  O3_17 
REMARK   11  A    between atoms: C15_18  and  C16_19 
REMARK   12  A    between atoms: C16_19  and  C17_20 
REMARK   13  A    between atoms: C17_20  and  C18_21 
REMARK   14  A    between atoms: C18_21  and  O4_22 
REMARK   15  A    between atoms: C20_24  and  C22_26 
REMARK   16  A    between atoms: C25_30  and  O6_32 
REMARK   17  A    between atoms: C27_33  and  C28_34 
REMARK   18  A    between atoms: C28_34  and  C29_35 
REMARK   19  A    between atoms: C30_36  and  C32_38 
REMARK   20  A    between atoms: C32_38  and  N1_39 
REMARK   21  A    between atoms: N1_39  and  C33_40 
ROOT
HETATM    1  C10 UNL     1      -1.431  50.971 -20.651  1.00  0.00     0.046 C 
HETATM    2  C11 UNL     1      -0.747  49.640 -20.945  1.00  0.00     0.013 C 
HETATM    3  C12 UNL     1      -1.795  48.607 -20.542  1.00  0.00     0.017 C 
HETATM    4  C13 UNL     1      -3.208  49.216 -20.859  1.00  0.00     0.024 C 
HETATM    5  C14 UNL     1      -2.854  50.724 -21.219  1.00  0.00     0.138 C 
HETATM    6  C15 UNL     1      -4.168  49.053 -19.597  1.00  0.00     0.029 C 
HETATM    7  C19 UNL     1      -5.671  49.132 -19.958  1.00  0.00    -0.066 C 
HETATM    8  C20 UNL     1      -6.686  48.616 -19.216  1.00  0.00    -0.021 C 
HETATM    9  C21 UNL     1      -8.145  48.704 -19.587  1.00  0.00     0.052 C 
HETATM   10  C23 UNL     1      -5.932  49.814 -21.287  1.00  0.00     0.038 C 
HETATM   11  C24 UNL     1      -5.245  49.084 -22.444  1.00  0.00     0.042 C 
HETATM   12  C25 UNL     1      -3.891  48.434 -22.062  1.00  0.00     0.065 C 
HETATM   13  C26 UNL     1      -4.125  46.928 -21.798  1.00  0.00     0.047 C 
ENDROOT
BRANCH   1  14
HETATM   14  C6  UNL     1      -0.631  52.204 -21.079  1.00  0.00    -0.050 C 
HETATM   15  C5  UNL     1       0.131  52.956 -20.252  1.00  0.00     0.005 C 
BRANCH  15  16
HETATM   16  C4  UNL     1       0.313  52.851 -18.818  1.00  0.00     0.001 C 
HETATM   17  C3  UNL     1       1.510  52.548 -18.285  1.00  0.00     0.006 C 
BRANCH  17  18
HETATM   18  C2  UNL     1       1.848  52.443 -16.865  1.00  0.00    -0.067 C 
HETATM   19  C1  UNL     1       3.090  52.787 -16.485  1.00  0.00     0.019 C 
BRANCH  18  20
HETATM   20  C27 UNL     1       0.764  51.978 -15.904  1.00  0.00     0.041 C 
BRANCH  20  21
HETATM   21  C28 UNL     1       1.158  51.383 -14.536  1.00  0.00     0.032 C 
BRANCH  21  22
HETATM   22  C29 UNL     1       0.656  52.185 -13.362  1.00  0.00    -0.022 C 
HETATM   23  C30 UNL     1      -0.006  51.744 -12.270  1.00  0.00    -0.060 C 
HETATM   24  C31 UNL     1      -0.403  50.309 -12.050  1.00  0.00     0.045 C 
BRANCH  23  25
HETATM   25  C32 UNL     1      -0.455  52.732 -11.210  1.00  0.00     0.303 C 
BRANCH  25  26
HETATM   26  N1  UNL     1      -1.607  53.543 -11.590  1.00  0.00     0.086 N 
HETATM   27  H50 UNL     1      -1.288  54.306 -12.186  1.00  0.00     0.316 HD
BRANCH  26  28
HETATM   28  C33 UNL     1      -2.425  54.071 -10.505  1.00  0.00     0.265 C 
HETATM   29  C34 UNL     1      -3.882  53.630 -10.556  1.00  0.00     0.037 C 
ENDBRANCH  26  28
ENDBRANCH  25  26
ENDBRANCH  23  25
ENDBRANCH  21  22
ENDBRANCH  20  21
ENDBRANCH  18  20
ENDBRANCH  17  18
ENDBRANCH  15  16
BRANCH  14  30
HETATM   30  C7  UNL     1      -0.625  52.590 -22.547  1.00  0.00     0.202 C 
BRANCH  30  31
HETATM   31  O1  UNL     1       0.722  52.559 -23.028  1.00  0.00    -0.385 OA
BRANCH  31  32
HETATM   32  C8  UNL     1       0.835  52.434 -24.454  1.00  0.00     0.194 C 
BRANCH  32  33
HETATM   33  C9  UNL     1       0.013  53.517 -25.153  1.00  0.00     0.190 C 
BRANCH  33  34
HETATM   34  O2  UNL     1       0.641  54.788 -24.987  1.00  0.00    -0.399 OA
HETATM   35  H12 UNL     1       0.915  54.831 -24.050  1.00  0.00     0.209 HD
ENDBRANCH  33  34
ENDBRANCH  32  33
ENDBRANCH  31  32
ENDBRANCH  30  31
ENDBRANCH  14  30
ENDBRANCH   1  14
BRANCH   5  36
HETATM   36  O3  UNL     1      -2.875  50.891 -22.637  1.00  0.00    -0.394 OA
HETATM   37  H19 UNL     1      -2.611  51.817 -22.830  1.00  0.00     0.210 HD
ENDBRANCH   5  36
BRANCH   6  38
HETATM   38  C16 UNL     1      -3.810  49.850 -18.312  1.00  0.00     0.012 C 
BRANCH  38  39
HETATM   39  C17 UNL     1      -3.013  49.131 -17.217  1.00  0.00     0.027 C 
BRANCH  39  40
HETATM   40  C18 UNL     1      -2.458  50.107 -16.178  1.00  0.00     0.164 C 
BRANCH  40  41
HETATM   41  O4  UNL     1      -1.828  49.406 -15.114  1.00  0.00    -0.401 OA
HETATM   42  H27 UNL     1      -2.514  49.202 -14.452  1.00  0.00     0.209 HD
ENDBRANCH  40  41
ENDBRANCH  39  40
ENDBRANCH  38  39
ENDBRANCH   6  38
BRANCH  12  43
HETATM   43  O6  UNL     1      -3.040  48.449 -23.218  1.00  0.00    -0.389 OA
HETATM   44  H39 UNL     1      -2.857  49.400 -23.389  1.00  0.00     0.210 HD
ENDBRANCH  12  43
BRANCH   8  45
HETATM   45  C22 UNL     1      -6.439  47.875 -17.942  1.00  0.00     0.265 C 
HETATM   46  O5  UNL     1      -7.341  47.535 -17.185  1.00  0.00    -0.302 OA
ENDBRANCH   8  45
TORSDOF 21
ENDMDL
MODEL 9
REMARK minimizedAffinity -6.81135607
REMARK CNNscore 0.257615119
REMARK CNNaffinity 5.60898447
REMARK  21 active torsions:
REMARK  status: ('A' for Active; 'I' for Inactive)
REMARK    1  A    between atoms: C2_2  and  C3_3 
REMARK    2  A    between atoms: C2_2  and  C27_33 
REMARK    3  A    between atoms: C4_4  and  C5_5 
REMARK    4  A    between atoms: C6_6  and  C7_7 
REMARK    5  A    between atoms: C6_6  and  C10_12 
REMARK    6  A    between atoms: C7_7  and  O1_8 
REMARK    7  A    between atoms: O1_8  and  C8_9 
REMARK    8  A    between atoms: C8_9  and  C9_10 
REMARK    9  A    between atoms: C9_10  and  O2_11 
REMARK   10  A    between atoms: C14_16  and  O3_17 
REMARK   11  A    between atoms: C15_18  and  C16_19 
REMARK   12  A    between atoms: C16_19  and  C17_20 
REMARK   13  A    between atoms: C17_20  and  C18_21 
REMARK   14  A    between atoms: C18_21  and  O4_22 
REMARK   15  A    between atoms: C20_24  and  C22_26 
REMARK   16  A    between atoms: C25_30  and  O6_32 
REMARK   17  A    between atoms: C27_33  and  C28_34 
REMARK   18  A    between atoms: C28_34  and  C29_35 
REMARK   19  A    between atoms: C30_36  and  C32_38 
REMARK   20  A    between atoms: C32_38  and  N1_39 
REMARK   21  A    between atoms: N1_39  and  C33_40 
ROOT
HETATM    1  C10 UNL     1     -11.944  46.340 -28.684  1.00  0.00     0.046 C 
HETATM    2  C11 UNL     1     -12.549  45.101 -29.336  1.00  0.00     0.013 C 
HETATM    3  C12 UNL     1     -11.534  44.738 -30.417  1.00  0.00     0.017 C 
HETATM    4  C13 UNL     1     -10.109  45.116 -29.874  1.00  0.00     0.024 C 
HETATM    5  C14 UNL     1     -10.454  45.926 -28.551  1.00  0.00     0.138 C 
HETATM    6  C15 UNL     1      -9.314  45.959 -30.969  1.00  0.00     0.029 C 
HETATM    7  C19 UNL     1      -7.780  45.933 -30.767  1.00  0.00    -0.066 C 
HETATM    8  C20 UNL     1      -6.854  46.172 -31.733  1.00  0.00    -0.021 C 
HETATM    9  C21 UNL     1      -5.363  46.140 -31.514  1.00  0.00     0.052 C 
HETATM   10  C23 UNL     1      -7.369  45.550 -29.358  1.00  0.00     0.038 C 
HETATM   11  C24 UNL     1      -7.882  44.161 -28.974  1.00  0.00     0.042 C 
HETATM   12  C25 UNL     1      -9.256  43.804 -29.596  1.00  0.00     0.065 C 
HETATM   13  C26 UNL     1      -9.019  42.917 -30.841  1.00  0.00     0.047 C 
ENDROOT
BRANCH   1  14
HETATM   14  C6  UNL     1     -12.714  46.856 -27.466  1.00  0.00    -0.050 C 
HETATM   15  C5  UNL     1     -13.884  46.344 -27.019  1.00  0.00     0.005 C 
BRANCH  15  16
HETATM   16  C4  UNL     1     -14.706  45.294 -27.586  1.00  0.00     0.001 C 
HETATM   17  C3  UNL     1     -16.024  45.222 -27.330  1.00  0.00     0.006 C 
BRANCH  17  18
HETATM   18  C2  UNL     1     -16.979  44.247 -27.857  1.00  0.00    -0.067 C 
HETATM   19  C1  UNL     1     -16.765  43.757 -29.090  1.00  0.00     0.019 C 
BRANCH  18  20
HETATM   20  C27 UNL     1     -18.140  43.829 -26.967  1.00  0.00     0.041 C 
BRANCH  20  21
HETATM   21  C28 UNL     1     -19.176  44.880 -26.517  1.00  0.00     0.032 C 
BRANCH  21  22
HETATM   22  C29 UNL     1     -19.415  44.892 -25.028  1.00  0.00    -0.022 C 
HETATM   23  C30 UNL     1     -19.020  45.816 -24.125  1.00  0.00    -0.060 C 
HETATM   24  C31 UNL     1     -18.202  47.031 -24.469  1.00  0.00     0.045 C 
BRANCH  23  25
HETATM   25  C32 UNL     1     -19.339  45.618 -22.655  1.00  0.00     0.303 C 
BRANCH  25  26
HETATM   26  N1  UNL     1     -18.639  46.529 -21.757  1.00  0.00     0.086 N 
HETATM   27  H50 UNL     1     -18.063  47.159 -22.314  1.00  0.00     0.316 HD
BRANCH  26  28
HETATM   28  C33 UNL     1     -17.834  45.923 -20.703  1.00  0.00     0.265 C 
HETATM   29  C34 UNL     1     -17.335  46.913 -19.657  1.00  0.00     0.037 C 
ENDBRANCH  26  28
ENDBRANCH  25  26
ENDBRANCH  23  25
ENDBRANCH  21  22
ENDBRANCH  20  21
ENDBRANCH  18  20
ENDBRANCH  17  18
ENDBRANCH  15  16
BRANCH  14  30
HETATM   30  C7  UNL     1     -12.107  47.980 -26.648  1.00  0.00     0.202 C 
BRANCH  30  31
HETATM   31  O1  UNL     1     -11.464  47.421 -25.497  1.00  0.00    -0.385 OA
BRANCH  31  32
HETATM   32  C8  UNL     1     -10.103  47.842 -25.321  1.00  0.00     0.194 C 
BRANCH  32  33
HETATM   33  C9  UNL     1      -9.701  48.828 -26.417  1.00  0.00     0.190 C 
BRANCH  33  34
HETATM   34  O2  UNL     1      -9.608  50.146 -25.877  1.00  0.00    -0.399 OA
HETATM   35  H12 UNL     1     -10.390  50.257 -25.304  1.00  0.00     0.209 HD
ENDBRANCH  33  34
ENDBRANCH  32  33
ENDBRANCH  31  32
ENDBRANCH  30  31
ENDBRANCH  14  30
ENDBRANCH   1  14
BRANCH   5  36
HETATM   36  O3  UNL     1     -10.255  45.085 -27.414  1.00  0.00    -0.394 OA
HETATM   37  H19 UNL     1     -10.517  45.597 -26.617  1.00  0.00     0.210 HD
ENDBRANCH   5  36
BRANCH   6  38
HETATM   38  C16 UNL     1      -9.855  47.373 -31.321  1.00  0.00     0.012 C 
BRANCH  38  39
HETATM   39  C17 UNL     1      -9.491  48.536 -30.388  1.00  0.00     0.027 C 
BRANCH  39  40
HETATM   40  C18 UNL     1      -8.539  49.528 -31.055  1.00  0.00     0.164 C 
BRANCH  40  41
HETATM   41  O4  UNL     1      -8.907  50.866 -30.745  1.00  0.00    -0.401 OA
HETATM   42  H27 UNL     1      -9.558  51.151 -31.413  1.00  0.00     0.209 HD
ENDBRANCH  40  41
ENDBRANCH  39  40
ENDBRANCH  38  39
ENDBRANCH   6  38
BRANCH  12  43
HETATM   43  O6  UNL     1      -9.952  42.937 -28.688  1.00  0.00    -0.389 OA
HETATM   44  H39 UNL     1     -10.137  43.490 -27.896  1.00  0.00     0.210 HD
ENDBRANCH  12  43
BRANCH   8  45
HETATM   45  C22 UNL     1      -7.243  46.475 -33.144  1.00  0.00     0.265 C 
HETATM   46  O5  UNL     1      -7.059  47.570 -33.664  1.00  0.00    -0.302 OA
ENDBRANCH   8  45
TORSDOF 21
ENDMDL
