MODEL 1
REMARK minimizedAffinity -10.2619419
REMARK  11 active torsions:
REMARK  status: ('A' for Active; 'I' for Inactive)
REMARK    1  A    between atoms: C4_4  and  C5_5 
REMARK    2  A    between atoms: C5_5  and  C6_6 
REMARK    3  A    between atoms: C7_7  and  O1_8 
REMARK    4  A    between atoms: C12_13  and  C14_15 
REMARK    5  A    between atoms: C14_15  and  C15_16 
REMARK    6  A    between atoms: C15_16  and  C16_17 
REMARK    7  A    between atoms: C16_17  and  C17_18 
REMARK    8  A    between atoms: C17_18  and  O2_21 
REMARK    9  A    between atoms: C23_26  and  C24_27 
REMARK   10  A    between atoms: C26_29  and  O4_30 
REMARK   11  A    between atoms: C28_32  and  O5_33 
ROOT
HETATM    1  C6  UNL     1      -2.698   8.600  13.742  1.00  0.00    -0.006 A 
HETATM    2  C7  UNL     1      -1.336   8.826  13.452  1.00  0.00     0.107 A 
HETATM    3  C8  UNL     1      -0.530   7.878  12.809  1.00  0.00     0.117 A 
HETATM    4  C9  UNL     1      -1.054   6.648  12.428  1.00  0.00     0.035 A 
HETATM    5  C10 UNL     1      -0.238   5.642  11.787  1.00  0.00     0.016 C 
HETATM    6  C11 UNL     1       1.019   5.986  11.493  1.00  0.00     0.012 C 
HETATM    7  C12 UNL     1       1.611   7.352  11.787  1.00  0.00     0.082 C 
HETATM    8  C13 UNL     1       2.906   7.165  12.593  1.00  0.00     0.051 C 
HETATM    9  O3  UNL     1       0.783   8.220  12.610  1.00  0.00    -0.333 OA
HETATM   10  C20 UNL     1      -2.400   6.419  12.711  1.00  0.00     0.100 A 
HETATM   11  C21 UNL     1      -3.224   7.343  13.348  1.00  0.00     0.011 A 
HETATM   12  C22 UNL     1      -4.499   6.711  13.438  1.00  0.00     0.053 A 
HETATM   13  C23 UNL     1      -4.382   5.461  12.861  1.00  0.00     0.087 A 
HETATM   14  O6  UNL     1      -3.102   5.286  12.417  1.00  0.00    -0.308 OA
ENDROOT
BRANCH  13  15
HETATM   15  C24 UNL     1      -5.302   4.347  12.646  1.00  0.00     0.003 A 
HETATM   16  C25 UNL     1      -6.618   4.384  13.131  1.00  0.00     0.051 A 
HETATM   17  C26 UNL     1      -7.481   3.310  12.919  1.00  0.00     0.069 A 
HETATM   18  C27 UNL     1      -7.064   2.180  12.225  1.00  0.00     0.073 A 
HETATM   19  C28 UNL     1      -5.761   2.141  11.742  1.00  0.00     0.069 A 
HETATM   20  C29 UNL     1      -4.884   3.206  11.946  1.00  0.00     0.051 A 
BRANCH  17  21
HETATM   21  O4  UNL     1      -8.746   3.408  13.422  1.00  0.00    -0.361 OA
HETATM   22  H31 UNL     1      -9.239   2.600  13.201  1.00  0.00     0.217 HD
ENDBRANCH  17  21
BRANCH  19  23
HETATM   23  O5  UNL     1      -5.289   1.063  11.051  1.00  0.00    -0.361 OA
HETATM   24  H33 UNL     1      -5.990   0.392  10.993  1.00  0.00     0.217 HD
ENDBRANCH  19  23
ENDBRANCH  13  15
BRANCH   1  25
HETATM   25  C5  UNL     1      -3.539   9.663  14.412  1.00  0.00     0.070 C 
BRANCH  25  26
HETATM   26  C4  UNL     1      -3.380   9.650  15.910  1.00  0.00    -0.020 C 
HETATM   27  C2  UNL     1      -3.606  10.652  16.783  1.00  0.00    -0.091 C 
HETATM   28  C1  UNL     1      -4.100  12.025  16.420  1.00  0.00     0.042 C 
HETATM   29  C3  UNL     1      -3.382  10.447  18.259  1.00  0.00     0.042 C 
ENDBRANCH  25  26
ENDBRANCH   1  25
BRANCH   2  30
HETATM   30  O1  UNL     1      -0.765  10.021  13.817  1.00  0.00    -0.357 OA
HETATM   31  H10 UNL     1       0.161   9.971  13.509  1.00  0.00     0.217 HD
ENDBRANCH   2  30
BRANCH   7  32
HETATM   32  C14 UNL     1       1.875   8.150  10.484  1.00  0.00     0.042 C 
BRANCH  32  33
HETATM   33  C15 UNL     1       0.639   8.515   9.654  1.00  0.00     0.006 C 
BRANCH  33  34
HETATM   34  C16 UNL     1       0.683   8.022   8.197  1.00  0.00     0.037 C 
BRANCH  34  35
HETATM   35  C17 UNL     1       2.063   7.651   7.613  1.00  0.00     0.051 C 
HETATM   36  C18 UNL     1       1.898   7.183   6.161  1.00  0.00     0.045 C 
HETATM   37  C19 UNL     1       2.775   6.567   8.422  1.00  0.00     0.045 C 
BRANCH  35  38
HETATM   38  O2  UNL     1       2.910   8.801   7.597  1.00  0.00    -0.391 OA
HETATM   39  H28 UNL     1       2.480   9.487   7.054  1.00  0.00     0.210 HD
ENDBRANCH  35  38
ENDBRANCH  34  35
ENDBRANCH  33  34
ENDBRANCH  32  33
ENDBRANCH   7  32
TORSDOF 11
ENDMDL
MODEL 2
REMARK minimizedAffinity -9.74995899
REMARK  11 active torsions:
REMARK  status: ('A' for Active; 'I' for Inactive)
REMARK    1  A    between atoms: C4_4  and  C5_5 
REMARK    2  A    between atoms: C5_5  and  C6_6 
REMARK    3  A    between atoms: C7_7  and  O1_8 
REMARK    4  A    between atoms: C12_13  and  C14_15 
REMARK    5  A    between atoms: C14_15  and  C15_16 
REMARK    6  A    between atoms: C15_16  and  C16_17 
REMARK    7  A    between atoms: C16_17  and  C17_18 
REMARK    8  A    between atoms: C17_18  and  O2_21 
REMARK    9  A    between atoms: C23_26  and  C24_27 
REMARK   10  A    between atoms: C26_29  and  O4_30 
REMARK   11  A    between atoms: C28_32  and  O5_33 
ROOT
HETATM    1  C6  UNL     1      -1.639   7.289  14.710  1.00  0.00    -0.006 A 
HETATM    2  C7  UNL     1      -0.373   7.560  14.149  1.00  0.00     0.107 A 
HETATM    3  C8  UNL     1       0.093   6.932  12.988  1.00  0.00     0.117 A 
HETATM    4  C9  UNL     1      -0.693   5.992  12.330  1.00  0.00     0.035 A 
HETATM    5  C10 UNL     1      -0.226   5.311  11.144  1.00  0.00     0.016 C 
HETATM    6  C11 UNL     1       0.957   5.695  10.656  1.00  0.00     0.012 C 
HETATM    7  C12 UNL     1       1.807   6.792  11.271  1.00  0.00     0.082 C 
HETATM    8  C13 UNL     1       3.216   6.237  11.531  1.00  0.00     0.051 C 
HETATM    9  O3  UNL     1       1.352   7.273  12.566  1.00  0.00    -0.333 OA
HETATM   10  C20 UNL     1      -1.946   5.721  12.878  1.00  0.00     0.100 A 
HETATM   11  C21 UNL     1      -2.434   6.330  14.031  1.00  0.00     0.011 A 
HETATM   12  C22 UNL     1      -3.728   5.769  14.234  1.00  0.00     0.053 A 
HETATM   13  C23 UNL     1      -3.952   4.866  13.212  1.00  0.00     0.087 A 
HETATM   14  O6  UNL     1      -2.865   4.840  12.387  1.00  0.00    -0.308 OA
ENDROOT
BRANCH  13  15
HETATM   15  C24 UNL     1      -5.057   3.979  12.860  1.00  0.00     0.003 A 
HETATM   16  C25 UNL     1      -6.350   4.187  13.362  1.00  0.00     0.051 A 
HETATM   17  C26 UNL     1      -7.392   3.328  13.017  1.00  0.00     0.069 A 
HETATM   18  C27 UNL     1      -7.180   2.248  12.169  1.00  0.00     0.073 A 
HETATM   19  C28 UNL     1      -5.900   2.038  11.668  1.00  0.00     0.069 A 
HETATM   20  C29 UNL     1      -4.846   2.887  12.004  1.00  0.00     0.051 A 
BRANCH  17  21
HETATM   21  O4  UNL     1      -8.624   3.585  13.546  1.00  0.00    -0.361 OA
HETATM   22  H31 UNL     1      -9.253   2.919  13.224  1.00  0.00     0.217 HD
ENDBRANCH  17  21
BRANCH  19  23
HETATM   23  O5  UNL     1      -5.625   0.997  10.830  1.00  0.00    -0.361 OA
HETATM   24  H33 UNL     1      -6.435   0.479  10.689  1.00  0.00     0.217 HD
ENDBRANCH  19  23
ENDBRANCH  13  15
BRANCH   1  25
HETATM   25  C5  UNL     1      -2.113   8.011  15.950  1.00  0.00     0.070 C 
BRANCH  25  26
HETATM   26  C4  UNL     1      -2.479   9.445  15.667  1.00  0.00    -0.020 C 
HETATM   27  C2  UNL     1      -3.707   9.979  15.512  1.00  0.00    -0.091 C 
HETATM   28  C1  UNL     1      -5.003   9.223  15.619  1.00  0.00     0.042 C 
HETATM   29  C3  UNL     1      -3.873  11.449  15.225  1.00  0.00     0.042 C 
ENDBRANCH  25  26
ENDBRANCH   1  25
BRANCH   2  30
HETATM   30  O1  UNL     1       0.449   8.473  14.766  1.00  0.00    -0.357 OA
HETATM   31  H10 UNL     1       1.251   8.518  14.210  1.00  0.00     0.217 HD
ENDBRANCH   2  30
BRANCH   7  32
HETATM   32  C14 UNL     1       1.861   8.047  10.361  1.00  0.00     0.042 C 
BRANCH  32  33
HETATM   33  C15 UNL     1       0.562   8.406   9.631  1.00  0.00     0.006 C 
BRANCH  33  34
HETATM   34  C16 UNL     1       0.542   8.020   8.141  1.00  0.00     0.037 C 
BRANCH  34  35
HETATM   35  C17 UNL     1       1.896   7.698   7.472  1.00  0.00     0.051 C 
HETATM   36  C18 UNL     1       1.699   7.549   5.958  1.00  0.00     0.045 C 
HETATM   37  C19 UNL     1       2.545   6.432   8.031  1.00  0.00     0.045 C 
BRANCH  35  38
HETATM   38  O2  UNL     1       2.810   8.776   7.679  1.00  0.00    -0.391 OA
HETATM   39  H28 UNL     1       2.419   9.582   7.295  1.00  0.00     0.210 HD
ENDBRANCH  35  38
ENDBRANCH  34  35
ENDBRANCH  33  34
ENDBRANCH  32  33
ENDBRANCH   7  32
TORSDOF 11
ENDMDL
MODEL 3
REMARK minimizedAffinity -9.5552187
REMARK  11 active torsions:
REMARK  status: ('A' for Active; 'I' for Inactive)
REMARK    1  A    between atoms: C4_4  and  C5_5 
REMARK    2  A    between atoms: C5_5  and  C6_6 
REMARK    3  A    between atoms: C7_7  and  O1_8 
REMARK    4  A    between atoms: C12_13  and  C14_15 
REMARK    5  A    between atoms: C14_15  and  C15_16 
REMARK    6  A    between atoms: C15_16  and  C16_17 
REMARK    7  A    between atoms: C16_17  and  C17_18 
REMARK    8  A    between atoms: C17_18  and  O2_21 
REMARK    9  A    between atoms: C23_26  and  C24_27 
REMARK   10  A    between atoms: C26_29  and  O4_30 
REMARK   11  A    between atoms: C28_32  and  O5_33 
ROOT
HETATM    1  C6  UNL     1      -2.372   4.076  11.773  1.00  0.00    -0.006 A 
HETATM    2  C7  UNL     1      -1.121   4.704  11.595  1.00  0.00     0.107 A 
HETATM    3  C8  UNL     1      -0.819   5.959  12.137  1.00  0.00     0.117 A 
HETATM    4  C9  UNL     1      -1.765   6.651  12.885  1.00  0.00     0.035 A 
HETATM    5  C10 UNL     1      -1.488   7.960  13.433  1.00  0.00     0.016 C 
HETATM    6  C11 UNL     1      -0.249   8.431  13.268  1.00  0.00     0.012 C 
HETATM    7  C12 UNL     1       0.854   7.670  12.555  1.00  0.00     0.082 C 
HETATM    8  C13 UNL     1       1.437   8.567  11.452  1.00  0.00     0.051 C 
HETATM    9  O3  UNL     1       0.427   6.463  11.866  1.00  0.00    -0.333 OA
HETATM   10  C20 UNL     1      -3.003   6.035  13.065  1.00  0.00     0.100 A 
HETATM   11  C21 UNL     1      -3.330   4.789  12.538  1.00  0.00     0.011 A 
HETATM   12  C22 UNL     1      -4.671   4.544  12.954  1.00  0.00     0.053 A 
HETATM   13  C23 UNL     1      -5.078   5.635  13.698  1.00  0.00     0.087 A 
HETATM   14  O6  UNL     1      -4.059   6.542  13.765  1.00  0.00    -0.308 OA
ENDROOT
BRANCH  13  15
HETATM   15  C24 UNL     1      -6.315   5.996  14.386  1.00  0.00     0.003 A 
HETATM   16  C25 UNL     1      -6.312   6.395  15.730  1.00  0.00     0.051 A 
HETATM   17  C26 UNL     1      -7.503   6.733  16.372  1.00  0.00     0.069 A 
HETATM   18  C27 UNL     1      -8.718   6.687  15.700  1.00  0.00     0.073 A 
HETATM   19  C28 UNL     1      -8.725   6.293  14.367  1.00  0.00     0.069 A 
HETATM   20  C29 UNL     1      -7.543   5.950  13.710  1.00  0.00     0.051 A 
BRANCH  17  21
HETATM   21  O4  UNL     1      -7.429   7.107  17.683  1.00  0.00    -0.361 OA
HETATM   22  H31 UNL     1      -8.322   7.318  18.003  1.00  0.00     0.217 HD
ENDBRANCH  17  21
BRANCH  19  23
HETATM   23  O5  UNL     1      -9.884   6.227  13.649  1.00  0.00    -0.361 OA
HETATM   24  H33 UNL     1     -10.628   6.475  14.223  1.00  0.00     0.217 HD
ENDBRANCH  19  23
ENDBRANCH  13  15
BRANCH   1  25
HETATM   25  C5  UNL     1      -2.646   2.706  11.193  1.00  0.00     0.070 C 
BRANCH  25  26
HETATM   26  C4  UNL     1      -3.972   2.154  11.644  1.00  0.00    -0.020 C 
HETATM   27  C2  UNL     1      -5.170   2.252  11.034  1.00  0.00    -0.091 C 
HETATM   28  C1  UNL     1      -5.421   2.940   9.720  1.00  0.00     0.042 C 
HETATM   29  C3  UNL     1      -6.397   1.632  11.650  1.00  0.00     0.042 C 
ENDBRANCH  25  26
ENDBRANCH   1  25
BRANCH   2  30
HETATM   30  O1  UNL     1      -0.154   4.068  10.854  1.00  0.00    -0.357 OA
HETATM   31  H10 UNL     1       0.622   4.662  10.876  1.00  0.00     0.217 HD
ENDBRANCH   2  30
BRANCH   7  32
HETATM   32  C14 UNL     1       1.959   7.213  13.543  1.00  0.00     0.042 C 
BRANCH  32  33
HETATM   33  C15 UNL     1       2.912   8.306  14.041  1.00  0.00     0.006 C 
BRANCH  33  34
HETATM   34  C16 UNL     1       4.364   8.155  13.554  1.00  0.00     0.037 C 
BRANCH  34  35
HETATM   35  C17 UNL     1       5.442   7.851  14.616  1.00  0.00     0.051 C 
HETATM   36  C18 UNL     1       5.857   9.152  15.316  1.00  0.00     0.045 C 
HETATM   37  C19 UNL     1       6.677   7.171  14.026  1.00  0.00     0.045 C 
BRANCH  35  38
HETATM   38  O2  UNL     1       4.909   6.980  15.615  1.00  0.00    -0.391 OA
HETATM   39  H28 UNL     1       4.141   7.420  16.022  1.00  0.00     0.210 HD
ENDBRANCH  35  38
ENDBRANCH  34  35
ENDBRANCH  33  34
ENDBRANCH  32  33
ENDBRANCH   7  32
TORSDOF 11
ENDMDL
MODEL 4
REMARK minimizedAffinity -9.52933884
REMARK  11 active torsions:
REMARK  status: ('A' for Active; 'I' for Inactive)
REMARK    1  A    between atoms: C4_4  and  C5_5 
REMARK    2  A    between atoms: C5_5  and  C6_6 
REMARK    3  A    between atoms: C7_7  and  O1_8 
REMARK    4  A    between atoms: C12_13  and  C14_15 
REMARK    5  A    between atoms: C14_15  and  C15_16 
REMARK    6  A    between atoms: C15_16  and  C16_17 
REMARK    7  A    between atoms: C16_17  and  C17_18 
REMARK    8  A    between atoms: C17_18  and  O2_21 
REMARK    9  A    between atoms: C23_26  and  C24_27 
REMARK   10  A    between atoms: C26_29  and  O4_30 
REMARK   11  A    between atoms: C28_32  and  O5_33 
ROOT
HETATM    1  C6  UNL     1      -2.467   4.015  11.794  1.00  0.00    -0.006 A 
HETATM    2  C7  UNL     1      -1.233   4.658  11.557  1.00  0.00     0.107 A 
HETATM    3  C8  UNL     1      -0.949   5.949  12.018  1.00  0.00     0.117 A 
HETATM    4  C9  UNL     1      -1.897   6.664  12.742  1.00  0.00     0.035 A 
HETATM    5  C10 UNL     1      -1.639   8.008  13.207  1.00  0.00     0.016 C 
HETATM    6  C11 UNL     1      -0.414   8.494  12.992  1.00  0.00     0.012 C 
HETATM    7  C12 UNL     1       0.693   7.716  12.305  1.00  0.00     0.082 C 
HETATM    8  C13 UNL     1       1.237   8.558  11.140  1.00  0.00     0.051 C 
HETATM    9  O3  UNL     1       0.281   6.461  11.696  1.00  0.00    -0.333 OA
HETATM   10  C20 UNL     1      -3.118   6.034  12.981  1.00  0.00     0.100 A 
HETATM   11  C21 UNL     1      -3.426   4.752  12.534  1.00  0.00     0.011 A 
HETATM   12  C22 UNL     1      -4.754   4.505  12.989  1.00  0.00     0.053 A 
HETATM   13  C23 UNL     1      -5.173   5.629  13.674  1.00  0.00     0.087 A 
HETATM   14  O6  UNL     1      -4.172   6.559  13.669  1.00  0.00    -0.308 OA
ENDROOT
BRANCH  13  15
HETATM   15  C24 UNL     1      -6.405   6.005  14.363  1.00  0.00     0.003 A 
HETATM   16  C25 UNL     1      -7.642   5.992  13.703  1.00  0.00     0.051 A 
HETATM   17  C26 UNL     1      -8.808   6.356  14.375  1.00  0.00     0.069 A 
HETATM   18  C27 UNL     1      -8.777   6.739  15.710  1.00  0.00     0.073 A 
HETATM   19  C28 UNL     1      -7.552   6.752  16.368  1.00  0.00     0.069 A 
HETATM   20  C29 UNL     1      -6.376   6.392  15.711  1.00  0.00     0.051 A 
BRANCH  17  21
HETATM   21  O4  UNL     1      -9.978   6.328  13.671  1.00  0.00    -0.361 OA
HETATM   22  H31 UNL     1     -10.706   6.597  14.255  1.00  0.00     0.217 HD
ENDBRANCH  17  21
BRANCH  19  23
HETATM   23  O5  UNL     1      -7.451   7.117  17.680  1.00  0.00    -0.361 OA
HETATM   24  H33 UNL     1      -8.333   7.356  18.011  1.00  0.00     0.217 HD
ENDBRANCH  19  23
ENDBRANCH  13  15
BRANCH   1  25
HETATM   25  C5  UNL     1      -2.720   2.609  11.301  1.00  0.00     0.070 C 
BRANCH  25  26
HETATM   26  C4  UNL     1      -4.075   2.098  11.717  1.00  0.00    -0.020 C 
HETATM   27  C2  UNL     1      -5.249   2.217  11.066  1.00  0.00    -0.091 C 
HETATM   28  C1  UNL     1      -5.440   2.891   9.735  1.00  0.00     0.042 C 
HETATM   29  C3  UNL     1      -6.512   1.638  11.651  1.00  0.00     0.042 C 
ENDBRANCH  25  26
ENDBRANCH   1  25
BRANCH   2  30
HETATM   30  O1  UNL     1      -0.265   3.999  10.837  1.00  0.00    -0.357 OA
HETATM   31  H10 UNL     1       0.498   4.609  10.810  1.00  0.00     0.217 HD
ENDBRANCH   2  30
BRANCH   7  32
HETATM   32  C14 UNL     1       1.825   7.340  13.297  1.00  0.00     0.042 C 
BRANCH  32  33
HETATM   33  C15 UNL     1       3.156   8.079  13.111  1.00  0.00     0.006 C 
BRANCH  33  34
HETATM   34  C16 UNL     1       3.707   8.043  11.675  1.00  0.00     0.037 C 
BRANCH  34  35
HETATM   35  C17 UNL     1       4.848   7.047  11.375  1.00  0.00     0.051 C 
HETATM   36  C18 UNL     1       6.027   7.791  10.734  1.00  0.00     0.045 C 
HETATM   37  C19 UNL     1       4.409   5.902  10.463  1.00  0.00     0.045 C 
BRANCH  35  38
HETATM   38  O2  UNL     1       5.321   6.469  12.593  1.00  0.00    -0.391 OA
HETATM   39  H28 UNL     1       5.636   7.189  13.168  1.00  0.00     0.210 HD
ENDBRANCH  35  38
ENDBRANCH  34  35
ENDBRANCH  33  34
ENDBRANCH  32  33
ENDBRANCH   7  32
TORSDOF 11
ENDMDL
MODEL 5
REMARK minimizedAffinity -9.47861385
REMARK  11 active torsions:
REMARK  status: ('A' for Active; 'I' for Inactive)
REMARK    1  A    between atoms: C4_4  and  C5_5 
REMARK    2  A    between atoms: C5_5  and  C6_6 
REMARK    3  A    between atoms: C7_7  and  O1_8 
REMARK    4  A    between atoms: C12_13  and  C14_15 
REMARK    5  A    between atoms: C14_15  and  C15_16 
REMARK    6  A    between atoms: C15_16  and  C16_17 
REMARK    7  A    between atoms: C16_17  and  C17_18 
REMARK    8  A    between atoms: C17_18  and  O2_21 
REMARK    9  A    between atoms: C23_26  and  C24_27 
REMARK   10  A    between atoms: C26_29  and  O4_30 
REMARK   11  A    between atoms: C28_32  and  O5_33 
ROOT
HETATM    1  C6  UNL     1      -5.535   4.203  13.044  1.00  0.00    -0.006 A 
HETATM    2  C7  UNL     1      -6.716   4.685  13.646  1.00  0.00     0.107 A 
HETATM    3  C8  UNL     1      -6.784   5.920  14.302  1.00  0.00     0.117 A 
HETATM    4  C9  UNL     1      -5.661   6.735  14.390  1.00  0.00     0.035 A 
HETATM    5  C10 UNL     1      -5.696   8.003  15.084  1.00  0.00     0.016 C 
HETATM    6  C11 UNL     1      -6.883   8.397  15.555  1.00  0.00     0.012 C 
HETATM    7  C12 UNL     1      -8.163   7.599  15.391  1.00  0.00     0.082 C 
HETATM    8  C13 UNL     1      -8.799   7.398  16.775  1.00  0.00     0.051 C 
HETATM    9  O3  UNL     1      -7.990   6.254  14.863  1.00  0.00    -0.333 OA
HETATM   10  C20 UNL     1      -4.490   6.264  13.796  1.00  0.00     0.100 A 
HETATM   11  C21 UNL     1      -4.395   5.041  13.138  1.00  0.00     0.011 A 
HETATM   12  C22 UNL     1      -3.044   4.958  12.692  1.00  0.00     0.053 A 
HETATM   13  C23 UNL     1      -2.403   6.114  13.096  1.00  0.00     0.087 A 
HETATM   14  O6  UNL     1      -3.288   6.909  13.767  1.00  0.00    -0.308 OA
ENDROOT
BRANCH  13  15
HETATM   15  C24 UNL     1      -1.043   6.626  12.960  1.00  0.00     0.003 A 
HETATM   16  C25 UNL     1      -0.685   7.477  11.904  1.00  0.00     0.051 A 
HETATM   17  C26 UNL     1       0.620   7.954  11.788  1.00  0.00     0.069 A 
HETATM   18  C27 UNL     1       1.596   7.604  12.713  1.00  0.00     0.073 A 
HETATM   19  C28 UNL     1       1.245   6.762  13.762  1.00  0.00     0.069 A 
HETATM   20  C29 UNL     1      -0.055   6.274  13.892  1.00  0.00     0.051 A 
BRANCH  17  21
HETATM   21  O4  UNL     1       0.901   8.773  10.733  1.00  0.00    -0.361 OA
HETATM   22  H31 UNL     1       1.836   9.035  10.775  1.00  0.00     0.217 HD
ENDBRANCH  17  21
BRANCH  19  23
HETATM   23  O5  UNL     1       2.156   6.380  14.704  1.00  0.00    -0.361 OA
HETATM   24  H33 UNL     1       3.018   6.774  14.491  1.00  0.00     0.217 HD
ENDBRANCH  19  23
ENDBRANCH  13  15
BRANCH   1  25
HETATM   25  C5  UNL     1      -5.515   2.875  12.322  1.00  0.00     0.070 C 
BRANCH  25  26
HETATM   26  C4  UNL     1      -5.891   3.013  10.870  1.00  0.00    -0.020 C 
HETATM   27  C2  UNL     1      -5.088   3.284   9.821  1.00  0.00    -0.091 C 
HETATM   28  C1  UNL     1      -3.600   3.486   9.895  1.00  0.00     0.042 C 
HETATM   29  C3  UNL     1      -5.657   3.390   8.429  1.00  0.00     0.042 C 
ENDBRANCH  25  26
ENDBRANCH   1  25
BRANCH   2  30
HETATM   30  O1  UNL     1      -7.853   3.914  13.598  1.00  0.00    -0.357 OA
HETATM   31  H10 UNL     1      -8.542   4.438  14.052  1.00  0.00     0.217 HD
ENDBRANCH   2  30
BRANCH   7  32
HETATM   32  C14 UNL     1      -9.150   8.298  14.420  1.00  0.00     0.042 C 
BRANCH  32  33
HETATM   33  C15 UNL     1     -10.552   7.687  14.329  1.00  0.00     0.006 C 
BRANCH  33  34
HETATM   34  C16 UNL     1     -11.225   7.839  12.954  1.00  0.00     0.037 C 
BRANCH  34  35
HETATM   35  C17 UNL     1     -12.245   8.985  12.783  1.00  0.00     0.051 C 
HETATM   36  C18 UNL     1     -12.051  10.018  13.902  1.00  0.00     0.045 C 
HETATM   37  C19 UNL     1     -13.692   8.493  12.787  1.00  0.00     0.045 C 
BRANCH  35  38
HETATM   38  O2  UNL     1     -12.022   9.654  11.541  1.00  0.00    -0.391 OA
HETATM   39  H28 UNL     1     -11.112  10.002  11.544  1.00  0.00     0.210 HD
ENDBRANCH  35  38
ENDBRANCH  34  35
ENDBRANCH  33  34
ENDBRANCH  32  33
ENDBRANCH   7  32
TORSDOF 11
ENDMDL
MODEL 6
REMARK minimizedAffinity -9.33002758
REMARK  11 active torsions:
REMARK  status: ('A' for Active; 'I' for Inactive)
REMARK    1  A    between atoms: C4_4  and  C5_5 
REMARK    2  A    between atoms: C5_5  and  C6_6 
REMARK    3  A    between atoms: C7_7  and  O1_8 
REMARK    4  A    between atoms: C12_13  and  C14_15 
REMARK    5  A    between atoms: C14_15  and  C15_16 
REMARK    6  A    between atoms: C15_16  and  C16_17 
REMARK    7  A    between atoms: C16_17  and  C17_18 
REMARK    8  A    between atoms: C17_18  and  O2_21 
REMARK    9  A    between atoms: C23_26  and  C24_27 
REMARK   10  A    between atoms: C26_29  and  O4_30 
REMARK   11  A    between atoms: C28_32  and  O5_33 
ROOT
HETATM    1  C6  UNL     1      -2.117   4.986  12.410  1.00  0.00    -0.006 A 
HETATM    2  C7  UNL     1      -1.117   4.878  11.420  1.00  0.00     0.107 A 
HETATM    3  C8  UNL     1      -0.217   5.912  11.136  1.00  0.00     0.117 A 
HETATM    4  C9  UNL     1      -0.279   7.114  11.831  1.00  0.00     0.035 A 
HETATM    5  C10 UNL     1       0.622   8.206  11.539  1.00  0.00     0.016 C 
HETATM    6  C11 UNL     1       1.577   7.972  10.635  1.00  0.00     0.012 C 
HETATM    7  C12 UNL     1       1.759   6.643   9.925  1.00  0.00     0.082 C 
HETATM    8  C13 UNL     1       1.774   6.893   8.409  1.00  0.00     0.051 C 
HETATM    9  O3  UNL     1       0.689   5.680  10.133  1.00  0.00    -0.333 OA
HETATM   10  C20 UNL     1      -1.264   7.227  12.812  1.00  0.00     0.100 A 
HETATM   11  C21 UNL     1      -2.172   6.215  13.116  1.00  0.00     0.011 A 
HETATM   12  C22 UNL     1      -2.989   6.744  14.157  1.00  0.00     0.053 A 
HETATM   13  C23 UNL     1      -2.541   8.023  14.425  1.00  0.00     0.087 A 
HETATM   14  O6  UNL     1      -1.489   8.314  13.604  1.00  0.00    -0.308 OA
ENDROOT
BRANCH  13  15
HETATM   15  C24 UNL     1      -2.948   9.072  15.356  1.00  0.00     0.003 A 
HETATM   16  C25 UNL     1      -3.564  10.249  14.906  1.00  0.00     0.051 A 
HETATM   17  C26 UNL     1      -3.943  11.241  15.808  1.00  0.00     0.069 A 
HETATM   18  C27 UNL     1      -3.724  11.092  17.173  1.00  0.00     0.073 A 
HETATM   19  C28 UNL     1      -3.114   9.927  17.623  1.00  0.00     0.069 A 
HETATM   20  C29 UNL     1      -2.728   8.924  16.733  1.00  0.00     0.051 A 
BRANCH  17  21
HETATM   21  O4  UNL     1      -4.533  12.364  15.302  1.00  0.00    -0.361 OA
HETATM   22  H31 UNL     1      -4.749  12.966  16.033  1.00  0.00     0.217 HD
ENDBRANCH  17  21
BRANCH  19  23
HETATM   23  O5  UNL     1      -2.871   9.716  18.949  1.00  0.00    -0.361 OA
HETATM   24  H33 UNL     1      -3.172  10.490  19.454  1.00  0.00     0.217 HD
ENDBRANCH  19  23
ENDBRANCH  13  15
BRANCH   1  25
HETATM   25  C5  UNL     1      -3.051   3.834  12.704  1.00  0.00     0.070 C 
BRANCH  25  26
HETATM   26  C4  UNL     1      -4.495   4.260  12.702  1.00  0.00    -0.020 C 
HETATM   27  C2  UNL     1      -5.555   3.620  12.168  1.00  0.00    -0.091 C 
HETATM   28  C1  UNL     1      -5.502   2.293  11.462  1.00  0.00     0.042 C 
HETATM   29  C3  UNL     1      -6.936   4.214  12.262  1.00  0.00     0.042 C 
ENDBRANCH  25  26
ENDBRANCH   1  25
BRANCH   2  30
HETATM   30  O1  UNL     1      -1.019   3.715  10.695  1.00  0.00    -0.357 OA
HETATM   31  H10 UNL     1      -0.263   3.849  10.091  1.00  0.00     0.217 HD
ENDBRANCH   2  30
BRANCH   7  32
HETATM   32  C14 UNL     1       3.055   5.926  10.385  1.00  0.00     0.042 C 
BRANCH  32  33
HETATM   33  C15 UNL     1       4.006   6.749  11.260  1.00  0.00     0.006 C 
BRANCH  33  34
HETATM   34  C16 UNL     1       4.822   7.805  10.494  1.00  0.00     0.037 C 
BRANCH  34  35
HETATM   35  C17 UNL     1       6.253   8.100  10.994  1.00  0.00     0.051 C 
HETATM   36  C18 UNL     1       6.316   7.906  12.515  1.00  0.00     0.045 C 
HETATM   37  C19 UNL     1       6.725   9.509  10.638  1.00  0.00     0.045 C 
BRANCH  35  38
HETATM   38  O2  UNL     1       7.173   7.178  10.408  1.00  0.00    -0.391 OA
HETATM   39  H28 UNL     1       6.900   6.277  10.659  1.00  0.00     0.210 HD
ENDBRANCH  35  38
ENDBRANCH  34  35
ENDBRANCH  33  34
ENDBRANCH  32  33
ENDBRANCH   7  32
TORSDOF 11
ENDMDL
MODEL 7
REMARK minimizedAffinity -9.26280594
REMARK  11 active torsions:
REMARK  status: ('A' for Active; 'I' for Inactive)
REMARK    1  A    between atoms: C4_4  and  C5_5 
REMARK    2  A    between atoms: C5_5  and  C6_6 
REMARK    3  A    between atoms: C7_7  and  O1_8 
REMARK    4  A    between atoms: C12_13  and  C14_15 
REMARK    5  A    between atoms: C14_15  and  C15_16 
REMARK    6  A    between atoms: C15_16  and  C16_17 
REMARK    7  A    between atoms: C16_17  and  C17_18 
REMARK    8  A    between atoms: C17_18  and  O2_21 
REMARK    9  A    between atoms: C23_26  and  C24_27 
REMARK   10  A    between atoms: C26_29  and  O4_30 
REMARK   11  A    between atoms: C28_32  and  O5_33 
ROOT
HETATM    1  C6  UNL     1       3.013   6.122  10.455  1.00  0.00    -0.006 A 
HETATM    2  C7  UNL     1       3.910   6.979  11.126  1.00  0.00     0.107 A 
HETATM    3  C8  UNL     1       3.585   7.632  12.321  1.00  0.00     0.117 A 
HETATM    4  C9  UNL     1       2.334   7.459  12.902  1.00  0.00     0.035 A 
HETATM    5  C10 UNL     1       1.964   8.142  14.121  1.00  0.00     0.016 C 
HETATM    6  C11 UNL     1       2.913   8.872  14.713  1.00  0.00     0.012 C 
HETATM    7  C12 UNL     1       4.328   9.008  14.181  1.00  0.00     0.082 C 
HETATM    8  C13 UNL     1       4.662  10.501  14.044  1.00  0.00     0.051 C 
HETATM    9  O3  UNL     1       4.544   8.455  12.853  1.00  0.00    -0.333 OA
HETATM   10  C20 UNL     1       1.443   6.612  12.244  1.00  0.00     0.100 A 
HETATM   11  C21 UNL     1       1.740   5.950  11.056  1.00  0.00     0.011 A 
HETATM   12  C22 UNL     1       0.567   5.206  10.737  1.00  0.00     0.053 A 
HETATM   13  C23 UNL     1      -0.361   5.451  11.730  1.00  0.00     0.087 A 
HETATM   14  O6  UNL     1       0.176   6.308  12.649  1.00  0.00    -0.308 OA
ENDROOT
BRANCH  13  15
HETATM   15  C24 UNL     1      -1.730   5.006  11.980  1.00  0.00     0.003 A 
HETATM   16  C25 UNL     1      -2.352   4.059  11.153  1.00  0.00     0.051 A 
HETATM   17  C26 UNL     1      -3.660   3.649  11.405  1.00  0.00     0.069 A 
HETATM   18  C27 UNL     1      -4.379   4.162  12.477  1.00  0.00     0.073 A 
HETATM   19  C28 UNL     1      -3.766   5.099  13.300  1.00  0.00     0.069 A 
HETATM   20  C29 UNL     1      -2.458   5.522  13.062  1.00  0.00     0.051 A 
BRANCH  17  21
HETATM   21  O4  UNL     1      -4.207   2.729  10.557  1.00  0.00    -0.361 OA
HETATM   22  H31 UNL     1      -5.113   2.529  10.847  1.00  0.00     0.217 HD
ENDBRANCH  17  21
BRANCH  19  23
HETATM   23  O5  UNL     1      -4.416   5.642  14.371  1.00  0.00    -0.361 OA
HETATM   24  H33 UNL     1      -5.315   5.276  14.415  1.00  0.00     0.217 HD
ENDBRANCH  19  23
ENDBRANCH  13  15
BRANCH   1  25
HETATM   25  C5  UNL     1       3.416   5.415   9.180  1.00  0.00     0.070 C 
BRANCH  25  26
HETATM   26  C4  UNL     1       2.582   5.848   8.004  1.00  0.00    -0.020 C 
HETATM   27  C2  UNL     1       2.405   7.094   7.518  1.00  0.00    -0.091 C 
HETATM   28  C1  UNL     1       3.048   8.338   8.065  1.00  0.00     0.042 C 
HETATM   29  C3  UNL     1       1.518   7.331   6.323  1.00  0.00     0.042 C 
ENDBRANCH  25  26
ENDBRANCH   1  25
BRANCH   2  30
HETATM   30  O1  UNL     1       5.157   7.194  10.588  1.00  0.00    -0.357 OA
HETATM   31  H10 UNL     1       5.609   7.793  11.213  1.00  0.00     0.217 HD
ENDBRANCH   2  30
BRANCH   7  32
HETATM   32  C14 UNL     1       5.352   8.289  15.098  1.00  0.00     0.042 C 
BRANCH  32  33
HETATM   33  C15 UNL     1       6.811   8.737  14.958  1.00  0.00     0.006 C 
BRANCH  33  34
HETATM   34  C16 UNL     1       7.502   9.082  16.290  1.00  0.00     0.037 C 
BRANCH  34  35
HETATM   35  C17 UNL     1       8.977   8.658  16.457  1.00  0.00     0.051 C 
HETATM   36  C18 UNL     1       9.700   9.659  17.367  1.00  0.00     0.045 C 
HETATM   37  C19 UNL     1       9.716   8.551  15.123  1.00  0.00     0.045 C 
BRANCH  35  38
HETATM   38  O2  UNL     1       9.046   7.379  17.090  1.00  0.00    -0.391 OA
HETATM   39  H28 UNL     1       8.607   7.446  17.957  1.00  0.00     0.210 HD
ENDBRANCH  35  38
ENDBRANCH  34  35
ENDBRANCH  33  34
ENDBRANCH  32  33
ENDBRANCH   7  32
TORSDOF 11
ENDMDL
MODEL 8
REMARK minimizedAffinity -9.23403168
REMARK  11 active torsions:
REMARK  status: ('A' for Active; 'I' for Inactive)
REMARK    1  A    between atoms: C4_4  and  C5_5 
REMARK    2  A    between atoms: C5_5  and  C6_6 
REMARK    3  A    between atoms: C7_7  and  O1_8 
REMARK    4  A    between atoms: C12_13  and  C14_15 
REMARK    5  A    between atoms: C14_15  and  C15_16 
REMARK    6  A    between atoms: C15_16  and  C16_17 
REMARK    7  A    between atoms: C16_17  and  C17_18 
REMARK    8  A    between atoms: C17_18  and  O2_21 
REMARK    9  A    between atoms: C23_26  and  C24_27 
REMARK   10  A    between atoms: C26_29  and  O4_30 
REMARK   11  A    between atoms: C28_32  and  O5_33 
ROOT
HETATM    1  C6  UNL     1      -0.228   6.428  12.037  1.00  0.00    -0.006 A 
HETATM    2  C7  UNL     1       0.171   7.567  12.767  1.00  0.00     0.107 A 
HETATM    3  C8  UNL     1      -0.649   8.183  13.721  1.00  0.00     0.117 A 
HETATM    4  C9  UNL     1      -1.919   7.685  13.987  1.00  0.00     0.035 A 
HETATM    5  C10 UNL     1      -2.795   8.316  14.948  1.00  0.00     0.016 C 
HETATM    6  C11 UNL     1      -2.291   9.344  15.636  1.00  0.00     0.012 C 
HETATM    7  C12 UNL     1      -0.874   9.860  15.465  1.00  0.00     0.082 C 
HETATM    8  C13 UNL     1      -0.930  11.369  15.180  1.00  0.00     0.051 C 
HETATM    9  O3  UNL     1      -0.143   9.297  14.341  1.00  0.00    -0.333 OA
HETATM   10  C20 UNL     1      -2.319   6.558  13.269  1.00  0.00     0.100 A 
HETATM   11  C21 UNL     1      -1.525   5.926  12.316  1.00  0.00     0.011 A 
HETATM   12  C22 UNL     1      -2.310   4.839  11.833  1.00  0.00     0.053 A 
HETATM   13  C23 UNL     1      -3.516   4.868  12.507  1.00  0.00     0.087 A 
HETATM   14  O6  UNL     1      -3.518   5.916  13.383  1.00  0.00    -0.308 OA
ENDROOT
BRANCH  13  15
HETATM   15  C24 UNL     1      -4.725   4.050  12.471  1.00  0.00     0.003 A 
HETATM   16  C25 UNL     1      -5.863   4.396  13.213  1.00  0.00     0.051 A 
HETATM   17  C26 UNL     1      -7.008   3.602  13.169  1.00  0.00     0.069 A 
HETATM   18  C27 UNL     1      -7.053   2.452  12.390  1.00  0.00     0.073 A 
HETATM   19  C28 UNL     1      -5.927   2.106  11.651  1.00  0.00     0.069 A 
HETATM   20  C29 UNL     1      -4.773   2.889  11.685  1.00  0.00     0.051 A 
BRANCH  17  21
HETATM   21  O4  UNL     1      -8.078   3.993  13.921  1.00  0.00    -0.361 OA
HETATM   22  H31 UNL     1      -8.803   3.359  13.795  1.00  0.00     0.217 HD
ENDBRANCH  17  21
BRANCH  19  23
HETATM   23  O5  UNL     1      -5.905   0.990  10.865  1.00  0.00    -0.361 OA
HETATM   24  H33 UNL     1      -6.759   0.531  10.942  1.00  0.00     0.217 HD
ENDBRANCH  19  23
ENDBRANCH  13  15
BRANCH   1  25
HETATM   25  C5  UNL     1       0.700   5.779  11.035  1.00  0.00     0.070 C 
BRANCH  25  26
HETATM   26  C4  UNL     1       0.846   6.600   9.781  1.00  0.00    -0.020 C 
HETATM   27  C2  UNL     1       1.976   6.928   9.123  1.00  0.00    -0.091 C 
HETATM   28  C1  UNL     1       3.363   6.502   9.515  1.00  0.00     0.042 C 
HETATM   29  C3  UNL     1       1.918   7.772   7.876  1.00  0.00     0.042 C 
ENDBRANCH  25  26
ENDBRANCH   1  25
BRANCH   2  30
HETATM   30  O1  UNL     1       1.414   8.107  12.535  1.00  0.00    -0.357 OA
HETATM   31  H10 UNL     1       1.487   8.863  13.151  1.00  0.00     0.217 HD
ENDBRANCH   2  30
BRANCH   7  32
HETATM   32  C14 UNL     1      -0.004   9.560  16.714  1.00  0.00     0.042 C 
BRANCH  32  33
HETATM   33  C15 UNL     1       0.504  10.781  17.489  1.00  0.00     0.006 C 
BRANCH  33  34
HETATM   34  C16 UNL     1       1.930  10.632  18.047  1.00  0.00     0.037 C 
BRANCH  34  35
HETATM   35  C17 UNL     1       2.108  10.725  19.578  1.00  0.00     0.051 C 
HETATM   36  C18 UNL     1       0.741  10.933  20.243  1.00  0.00     0.045 C 
HETATM   37  C19 UNL     1       3.057  11.849  19.995  1.00  0.00     0.045 C 
BRANCH  35  38
HETATM   38  O2  UNL     1       2.646   9.501  20.081  1.00  0.00    -0.391 OA
HETATM   39  H28 UNL     1       2.030   8.782  19.850  1.00  0.00     0.210 HD
ENDBRANCH  35  38
ENDBRANCH  34  35
ENDBRANCH  33  34
ENDBRANCH  32  33
ENDBRANCH   7  32
TORSDOF 11
ENDMDL
MODEL 9
REMARK minimizedAffinity -9.15778542
REMARK  11 active torsions:
REMARK  status: ('A' for Active; 'I' for Inactive)
REMARK    1  A    between atoms: C4_4  and  C5_5 
REMARK    2  A    between atoms: C5_5  and  C6_6 
REMARK    3  A    between atoms: C7_7  and  O1_8 
REMARK    4  A    between atoms: C12_13  and  C14_15 
REMARK    5  A    between atoms: C14_15  and  C15_16 
REMARK    6  A    between atoms: C15_16  and  C16_17 
REMARK    7  A    between atoms: C16_17  and  C17_18 
REMARK    8  A    between atoms: C17_18  and  O2_21 
REMARK    9  A    between atoms: C23_26  and  C24_27 
REMARK   10  A    between atoms: C26_29  and  O4_30 
REMARK   11  A    between atoms: C28_32  and  O5_33 
ROOT
HETATM    1  C6  UNL     1      -1.320   7.673  12.897  1.00  0.00    -0.006 A 
HETATM    2  C7  UNL     1      -1.341   8.896  13.601  1.00  0.00     0.107 A 
HETATM    3  C8  UNL     1      -2.453   9.333  14.330  1.00  0.00     0.117 A 
HETATM    4  C9  UNL     1      -3.608   8.561  14.386  1.00  0.00     0.035 A 
HETATM    5  C10 UNL     1      -4.779   9.001  15.111  1.00  0.00     0.016 C 
HETATM    6  C11 UNL     1      -4.667  10.139  15.801  1.00  0.00     0.012 C 
HETATM    7  C12 UNL     1      -3.395  10.965  15.864  1.00  0.00     0.082 C 
HETATM    8  C13 UNL     1      -3.726  12.410  15.458  1.00  0.00     0.051 C 
HETATM    9  O3  UNL     1      -2.344  10.553  14.947  1.00  0.00    -0.333 OA
HETATM   10  C20 UNL     1      -3.594   7.351  13.694  1.00  0.00     0.100 A 
HETATM   11  C21 UNL     1      -2.503   6.892  12.962  1.00  0.00     0.011 A 
HETATM   12  C22 UNL     1      -2.911   5.637  12.424  1.00  0.00     0.053 A 
HETATM   13  C23 UNL     1      -4.205   5.405  12.851  1.00  0.00     0.087 A 
HETATM   14  O6  UNL     1      -4.618   6.451  13.627  1.00  0.00    -0.308 OA
ENDROOT
BRANCH  13  15
HETATM   15  C24 UNL     1      -5.169   4.328  12.647  1.00  0.00     0.003 A 
HETATM   16  C25 UNL     1      -4.838   3.183  11.907  1.00  0.00     0.051 A 
HETATM   17  C26 UNL     1      -5.772   2.165  11.720  1.00  0.00     0.069 A 
HETATM   18  C27 UNL     1      -7.049   2.255  12.261  1.00  0.00     0.073 A 
HETATM   19  C28 UNL     1      -7.380   3.388  12.996  1.00  0.00     0.069 A 
HETATM   20  C29 UNL     1      -6.458   4.416  13.192  1.00  0.00     0.051 A 
BRANCH  17  21
HETATM   21  O4  UNL     1      -5.387   1.082  10.983  1.00  0.00    -0.361 OA
HETATM   22  H31 UNL     1      -6.125   0.452  10.936  1.00  0.00     0.217 HD
ENDBRANCH  17  21
BRANCH  19  23
HETATM   23  O5  UNL     1      -8.616   3.538  13.555  1.00  0.00    -0.361 OA
HETATM   24  H33 UNL     1      -9.162   2.765  13.333  1.00  0.00     0.217 HD
ENDBRANCH  19  23
ENDBRANCH  13  15
BRANCH   1  25
HETATM   25  C5  UNL     1      -0.087   7.227  12.145  1.00  0.00     0.070 C 
BRANCH  25  26
HETATM   26  C4  UNL     1      -0.035   7.798  10.752  1.00  0.00    -0.020 C 
HETATM   27  C2  UNL     1       0.795   7.466   9.744  1.00  0.00    -0.091 C 
HETATM   28  C1  UNL     1       1.859   6.405   9.808  1.00  0.00     0.042 C 
HETATM   29  C3  UNL     1       0.697   8.161   8.410  1.00  0.00     0.042 C 
ENDBRANCH  25  26
ENDBRANCH   1  25
BRANCH   2  30
HETATM   30  O1  UNL     1      -0.229   9.703  13.569  1.00  0.00    -0.357 OA
HETATM   31  H10 UNL     1      -0.451  10.473  14.127  1.00  0.00     0.217 HD
ENDBRANCH   2  30
BRANCH   7  32
HETATM   32  C14 UNL     1      -2.754  10.916  17.275  1.00  0.00     0.042 C 
BRANCH  32  33
HETATM   33  C15 UNL     1      -1.222  10.945  17.320  1.00  0.00     0.006 C 
BRANCH  33  34
HETATM   34  C16 UNL     1      -0.625  10.849  18.735  1.00  0.00     0.037 C 
BRANCH  34  35
HETATM   35  C17 UNL     1       0.885  11.132  18.891  1.00  0.00     0.051 C 
HETATM   36  C18 UNL     1       1.214  11.368  20.371  1.00  0.00     0.045 C 
HETATM   37  C19 UNL     1       1.350  12.331  18.065  1.00  0.00     0.045 C 
BRANCH  35  38
HETATM   38  O2  UNL     1       1.639   9.997  18.462  1.00  0.00    -0.391 OA
HETATM   39  H28 UNL     1       1.374   9.234  19.007  1.00  0.00     0.210 HD
ENDBRANCH  35  38
ENDBRANCH  34  35
ENDBRANCH  33  34
ENDBRANCH  32  33
ENDBRANCH   7  32
TORSDOF 11
ENDMDL
