MODEL 1
REMARK minimizedAffinity -9.12113094
REMARK  4 active torsions:
REMARK  status: ('A' for Active; 'I' for Inactive)
REMARK    1  A    between atoms: C2_2  and  C3_3 
REMARK    2  A    between atoms: C2_2  and  C9_9 
REMARK    3  A    between atoms: C3_3  and  C4_4 
REMARK    4  A    between atoms: C4_4  and  C5_5 
ROOT
HETATM    1  C9  UNL     1      -6.417   6.488  13.979  1.00  0.00     0.018 C 
HETATM    2  C10 UNL     1      -6.456   7.629  15.028  1.00  0.00     0.010 C 
HETATM    3  C11 UNL     1      -4.987   8.019  15.308  1.00  0.00     0.011 C 
HETATM    4  C12 UNL     1      -4.199   7.532  14.070  1.00  0.00    -0.032 C 
HETATM    5  C13 UNL     1      -4.497   8.561  12.929  1.00  0.00     0.016 C 
HETATM    6  C14 UNL     1      -4.915   6.174  13.845  1.00  0.00     0.002 C 
HETATM    7  C15 UNL     1      -4.450   5.475  12.576  1.00  0.00     0.006 C 
HETATM    8  C16 UNL     1      -2.931   5.241  12.626  1.00  0.00     0.006 C 
HETATM    9  C17 UNL     1      -2.120   6.533  12.925  1.00  0.00     0.003 C 
HETATM   10  C18 UNL     1      -0.548   6.387  12.741  1.00  0.00    -0.035 C 
HETATM   11  C19 UNL     1       0.049   5.264  13.618  1.00  0.00     0.016 C 
HETATM   12  C20 UNL     1      -0.268   5.982  11.250  1.00  0.00     0.017 C 
HETATM   13  C21 UNL     1       1.012   6.541  10.637  1.00  0.00     0.080 C 
HETATM   14  C22 UNL     1       2.066   6.834  11.674  1.00  0.00     0.135 C 
HETATM   15  O1  UNL     1       3.197   6.357  11.570  1.00  0.00    -0.297 OA
HETATM   16  C23 UNL     1       1.683   7.814  12.789  1.00  0.00     0.017 C 
HETATM   17  C24 UNL     1       2.120   9.215  12.308  1.00  0.00     0.023 C 
HETATM   18  C25 UNL     1       2.501   7.488  14.054  1.00  0.00     0.023 C 
HETATM   19  C26 UNL     1       0.126   7.786  12.999  1.00  0.00     0.009 C 
HETATM   20  C27 UNL     1      -0.321   8.425  14.328  1.00  0.00     0.007 C 
HETATM   21  C28 UNL     1      -1.841   8.592  14.402  1.00  0.00     0.011 C 
HETATM   22  C29 UNL     1      -2.626   7.265  14.238  1.00  0.00    -0.032 C 
HETATM   23  C30 UNL     1      -2.354   6.416  15.515  1.00  0.00     0.016 C 
ENDROOT
BRANCH   1  24
HETATM   24  C2  UNL     1      -7.315   5.290  14.289  1.00  0.00    -0.084 C 
HETATM   25  C1  UNL     1      -7.403   4.855  15.561  1.00  0.00     0.014 C 
BRANCH  24  26
HETATM   26  C3  UNL     1      -8.058   4.641  13.125  1.00  0.00     0.037 C 
BRANCH  26  27
HETATM   27  C4  UNL     1      -7.701   3.196  12.715  1.00  0.00     0.031 C 
BRANCH  27  28
HETATM   28  C5  UNL     1      -6.224   2.979  12.502  1.00  0.00    -0.024 C 
HETATM   29  C6  UNL     1      -5.636   2.038  11.738  1.00  0.00    -0.091 C 
HETATM   30  C7  UNL     1      -4.134   1.971  11.626  1.00  0.00     0.042 C 
HETATM   31  C8  UNL     1      -6.359   0.981  10.950  1.00  0.00     0.042 C 
ENDBRANCH  27  28
ENDBRANCH  26  27
ENDBRANCH  24  26
ENDBRANCH   1  24
TORSDOF 4
ENDMDL
MODEL 2
REMARK minimizedAffinity -8.95049667
REMARK  4 active torsions:
REMARK  status: ('A' for Active; 'I' for Inactive)
REMARK    1  A    between atoms: C2_2  and  C3_3 
REMARK    2  A    between atoms: C2_2  and  C9_9 
REMARK    3  A    between atoms: C3_3  and  C4_4 
REMARK    4  A    between atoms: C4_4  and  C5_5 
ROOT
HETATM    1  C9  UNL     1      -3.062   4.551  12.737  1.00  0.00     0.018 C 
HETATM    2  C10 UNL     1      -2.957   3.813  11.379  1.00  0.00     0.010 C 
HETATM    3  C11 UNL     1      -1.681   4.344  10.687  1.00  0.00     0.011 C 
HETATM    4  C12 UNL     1      -0.811   4.915  11.832  1.00  0.00    -0.032 C 
HETATM    5  C13 UNL     1      -0.182   3.680  12.559  1.00  0.00     0.016 C 
HETATM    6  C14 UNL     1      -1.927   5.591  12.671  1.00  0.00     0.002 C 
HETATM    7  C15 UNL     1      -1.406   6.153  13.985  1.00  0.00     0.006 C 
HETATM    8  C16 UNL     1      -0.288   7.175  13.718  1.00  0.00     0.006 C 
HETATM    9  C17 UNL     1       0.850   6.618  12.817  1.00  0.00     0.003 C 
HETATM   10  C18 UNL     1       2.135   7.547  12.720  1.00  0.00    -0.035 C 
HETATM   11  C19 UNL     1       1.803   8.966  12.207  1.00  0.00     0.016 C 
HETATM   12  C20 UNL     1       2.717   7.725  14.168  1.00  0.00     0.017 C 
HETATM   13  C21 UNL     1       4.235   7.834  14.267  1.00  0.00     0.080 C 
HETATM   14  C22 UNL     1       4.857   8.375  13.005  1.00  0.00     0.135 C 
HETATM   15  O1  UNL     1       5.604   9.354  13.044  1.00  0.00    -0.297 OA
HETATM   16  C23 UNL     1       4.585   7.596  11.713  1.00  0.00     0.017 C 
HETATM   17  C24 UNL     1       5.745   6.589  11.558  1.00  0.00     0.023 C 
HETATM   18  C25 UNL     1       4.652   8.562  10.514  1.00  0.00     0.023 C 
HETATM   19  C26 UNL     1       3.224   6.821  11.845  1.00  0.00     0.009 C 
HETATM   20  C27 UNL     1       2.668   6.330  10.494  1.00  0.00     0.007 C 
HETATM   21  C28 UNL     1       1.474   5.389  10.672  1.00  0.00     0.011 C 
HETATM   22  C29 UNL     1       0.295   6.016  11.458  1.00  0.00    -0.032 C 
HETATM   23  C30 UNL     1      -0.324   7.116  10.547  1.00  0.00     0.016 C 
ENDROOT
BRANCH   1  24
HETATM   24  C2  UNL     1      -4.447   5.109  13.068  1.00  0.00    -0.084 C 
HETATM   25  C1  UNL     1      -4.591   6.437  13.235  1.00  0.00     0.014 C 
BRANCH  24  26
HETATM   26  C3  UNL     1      -5.597   4.115  13.204  1.00  0.00     0.037 C 
BRANCH  26  27
HETATM   27  C4  UNL     1      -6.881   4.329  12.377  1.00  0.00     0.031 C 
BRANCH  27  28
HETATM   28  C5  UNL     1      -7.944   5.112  13.107  1.00  0.00    -0.024 C 
HETATM   29  C6  UNL     1      -8.929   5.857  12.569  1.00  0.00    -0.091 C 
HETATM   30  C7  UNL     1      -9.922   6.567  13.453  1.00  0.00     0.042 C 
HETATM   31  C8  UNL     1      -9.149   6.076  11.097  1.00  0.00     0.042 C 
ENDBRANCH  27  28
ENDBRANCH  26  27
ENDBRANCH  24  26
ENDBRANCH   1  24
TORSDOF 4
ENDMDL
MODEL 3
REMARK minimizedAffinity -8.86589432
REMARK  4 active torsions:
REMARK  status: ('A' for Active; 'I' for Inactive)
REMARK    1  A    between atoms: C2_2  and  C3_3 
REMARK    2  A    between atoms: C2_2  and  C9_9 
REMARK    3  A    between atoms: C3_3  and  C4_4 
REMARK    4  A    between atoms: C4_4  and  C5_5 
ROOT
HETATM    1  C9  UNL     1      -2.427   5.227  13.593  1.00  0.00     0.018 C 
HETATM    2  C10 UNL     1      -2.589   4.562  12.202  1.00  0.00     0.010 C 
HETATM    3  C11 UNL     1      -1.406   5.054  11.338  1.00  0.00     0.011 C 
HETATM    4  C12 UNL     1      -0.328   5.504  12.353  1.00  0.00    -0.032 C 
HETATM    5  C13 UNL     1       0.321   4.194  12.910  1.00  0.00     0.016 C 
HETATM    6  C14 UNL     1      -1.248   6.198  13.392  1.00  0.00     0.002 C 
HETATM    7  C15 UNL     1      -0.488   6.652  14.629  1.00  0.00     0.006 C 
HETATM    8  C16 UNL     1       0.642   7.617  14.233  1.00  0.00     0.006 C 
HETATM    9  C17 UNL     1       1.581   7.044  13.134  1.00  0.00     0.003 C 
HETATM   10  C18 UNL     1       2.895   7.899  12.875  1.00  0.00    -0.035 C 
HETATM   11  C19 UNL     1       2.585   9.362  12.488  1.00  0.00     0.016 C 
HETATM   12  C20 UNL     1       3.711   7.958  14.216  1.00  0.00     0.017 C 
HETATM   13  C21 UNL     1       5.229   7.969  14.073  1.00  0.00     0.080 C 
HETATM   14  C22 UNL     1       5.678   8.543  12.753  1.00  0.00     0.135 C 
HETATM   15  O1  UNL     1       6.488   9.470  12.717  1.00  0.00    -0.297 OA
HETATM   16  C23 UNL     1       5.152   7.856  11.487  1.00  0.00     0.017 C 
HETATM   17  C24 UNL     1       6.201   6.792  11.100  1.00  0.00     0.023 C 
HETATM   18  C25 UNL     1       5.095   8.884  10.340  1.00  0.00     0.023 C 
HETATM   19  C26 UNL     1       3.779   7.159  11.802  1.00  0.00     0.009 C 
HETATM   20  C27 UNL     1       2.984   6.781  10.537  1.00  0.00     0.007 C 
HETATM   21  C28 UNL     1       1.772   5.905  10.862  1.00  0.00     0.011 C 
HETATM   22  C29 UNL     1       0.777   6.556  11.857  1.00  0.00    -0.032 C 
HETATM   23  C30 UNL     1       0.099   7.742  11.111  1.00  0.00     0.016 C 
ENDROOT
BRANCH   1  24
HETATM   24  C2  UNL     1      -3.701   5.847  14.168  1.00  0.00    -0.084 C 
HETATM   25  C1  UNL     1      -3.741   6.152  15.480  1.00  0.00     0.014 C 
BRANCH  24  26
HETATM   26  C3  UNL     1      -4.871   6.074  13.216  1.00  0.00     0.037 C 
BRANCH  26  27
HETATM   27  C4  UNL     1      -6.011   5.036  13.161  1.00  0.00     0.031 C 
BRANCH  27  28
HETATM   28  C5  UNL     1      -5.701   3.848  12.285  1.00  0.00    -0.024 C 
HETATM   29  C6  UNL     1      -6.423   2.719  12.148  1.00  0.00    -0.091 C 
HETATM   30  C7  UNL     1      -5.969   1.628  11.211  1.00  0.00     0.042 C 
HETATM   31  C8  UNL     1      -7.699   2.409  12.880  1.00  0.00     0.042 C 
ENDBRANCH  27  28
ENDBRANCH  26  27
ENDBRANCH  24  26
ENDBRANCH   1  24
TORSDOF 4
ENDMDL
MODEL 4
REMARK minimizedAffinity -8.43902206
REMARK  4 active torsions:
REMARK  status: ('A' for Active; 'I' for Inactive)
REMARK    1  A    between atoms: C2_2  and  C3_3 
REMARK    2  A    between atoms: C2_2  and  C9_9 
REMARK    3  A    between atoms: C3_3  and  C4_4 
REMARK    4  A    between atoms: C4_4  and  C5_5 
ROOT
HETATM    1  C9  UNL     1      -0.895   5.640  11.407  1.00  0.00     0.018 C 
HETATM    2  C10 UNL     1      -1.700   6.439  12.463  1.00  0.00     0.010 C 
HETATM    3  C11 UNL     1      -0.694   7.378  13.166  1.00  0.00     0.011 C 
HETATM    4  C12 UNL     1       0.485   7.519  12.174  1.00  0.00    -0.032 C 
HETATM    5  C13 UNL     1      -0.001   8.498  11.054  1.00  0.00     0.016 C 
HETATM    6  C14 UNL     1       0.565   6.049  11.683  1.00  0.00     0.002 C 
HETATM    7  C15 UNL     1       1.575   5.866  10.560  1.00  0.00     0.006 C 
HETATM    8  C16 UNL     1       2.970   6.320  11.023  1.00  0.00     0.006 C 
HETATM    9  C17 UNL     1       2.985   7.760  11.607  1.00  0.00     0.003 C 
HETATM   10  C18 UNL     1       4.435   8.357  11.864  1.00  0.00    -0.035 C 
HETATM   11  C19 UNL     1       5.279   7.475  12.811  1.00  0.00     0.016 C 
HETATM   12  C20 UNL     1       5.198   8.391  10.492  1.00  0.00     0.017 C 
HETATM   13  C21 UNL     1       6.162   9.555  10.296  1.00  0.00     0.080 C 
HETATM   14  C22 UNL     1       6.692  10.091  11.601  1.00  0.00     0.135 C 
HETATM   15  O1  UNL     1       7.904  10.188  11.793  1.00  0.00    -0.297 OA
HETATM   16  C23 UNL     1       5.654  10.586  12.615  1.00  0.00     0.017 C 
HETATM   17  C24 UNL     1       5.472  12.096  12.353  1.00  0.00     0.023 C 
HETATM   18  C25 UNL     1       6.223  10.432  14.039  1.00  0.00     0.023 C 
HETATM   19  C26 UNL     1       4.291   9.838  12.378  1.00  0.00     0.009 C 
HETATM   20  C27 UNL     1       3.312   9.965  13.560  1.00  0.00     0.007 C 
HETATM   21  C28 UNL     1       1.921   9.429  13.213  1.00  0.00     0.011 C 
HETATM   22  C29 UNL     1       1.915   7.946  12.763  1.00  0.00    -0.032 C 
HETATM   23  C30 UNL     1       2.262   7.090  14.016  1.00  0.00     0.016 C 
ENDROOT
BRANCH   1  24
HETATM   24  C2  UNL     1      -1.164   4.135  11.387  1.00  0.00    -0.084 C 
HETATM   25  C1  UNL     1      -0.214   3.297  11.844  1.00  0.00     0.014 C 
BRANCH  24  26
HETATM   26  C3  UNL     1      -2.504   3.663  10.830  1.00  0.00     0.037 C 
BRANCH  26  27
HETATM   27  C4  UNL     1      -3.334   2.638  11.632  1.00  0.00     0.031 C 
BRANCH  27  28
HETATM   28  C5  UNL     1      -4.812   2.941  11.648  1.00  0.00    -0.024 C 
HETATM   29  C6  UNL     1      -5.450   3.868  12.388  1.00  0.00    -0.091 C 
HETATM   30  C7  UNL     1      -6.943   4.048  12.270  1.00  0.00     0.042 C 
HETATM   31  C8  UNL     1      -4.797   4.787  13.384  1.00  0.00     0.042 C 
ENDBRANCH  27  28
ENDBRANCH  26  27
ENDBRANCH  24  26
ENDBRANCH   1  24
TORSDOF 4
ENDMDL
MODEL 5
REMARK minimizedAffinity -8.39685535
REMARK  4 active torsions:
REMARK  status: ('A' for Active; 'I' for Inactive)
REMARK    1  A    between atoms: C2_2  and  C3_3 
REMARK    2  A    between atoms: C2_2  and  C9_9 
REMARK    3  A    between atoms: C3_3  and  C4_4 
REMARK    4  A    between atoms: C4_4  and  C5_5 
ROOT
HETATM    1  C9  UNL     1      -3.983   4.603  13.228  1.00  0.00     0.018 C 
HETATM    2  C10 UNL     1      -2.878   4.478  12.147  1.00  0.00     0.010 C 
HETATM    3  C11 UNL     1      -2.052   5.782  12.211  1.00  0.00     0.011 C 
HETATM    4  C12 UNL     1      -2.310   6.354  13.625  1.00  0.00    -0.032 C 
HETATM    5  C13 UNL     1      -1.454   5.489  14.609  1.00  0.00     0.016 C 
HETATM    6  C14 UNL     1      -3.828   6.049  13.735  1.00  0.00     0.002 C 
HETATM    7  C15 UNL     1      -4.388   6.380  15.110  1.00  0.00     0.006 C 
HETATM    8  C16 UNL     1      -4.146   7.863  15.439  1.00  0.00     0.006 C 
HETATM    9  C17 UNL     1      -2.660   8.292  15.283  1.00  0.00     0.003 C 
HETATM   10  C18 UNL     1      -2.325   9.739  15.847  1.00  0.00    -0.035 C 
HETATM   11  C19 UNL     1      -3.186  10.843  15.195  1.00  0.00     0.016 C 
HETATM   12  C20 UNL     1      -2.668   9.756  17.379  1.00  0.00     0.017 C 
HETATM   13  C21 UNL     1      -1.764  10.617  18.255  1.00  0.00     0.080 C 
HETATM   14  C22 UNL     1      -1.133  11.753  17.490  1.00  0.00     0.135 C 
HETATM   15  O1  UNL     1      -1.245  12.913  17.886  1.00  0.00    -0.297 OA
HETATM   16  C23 UNL     1      -0.285  11.375  16.270  1.00  0.00     0.017 C 
HETATM   17  C24 UNL     1       1.168  11.236  16.775  1.00  0.00     0.023 C 
HETATM   18  C25 UNL     1      -0.309  12.536  15.257  1.00  0.00     0.023 C 
HETATM   19  C26 UNL     1      -0.780  10.000  15.692  1.00  0.00     0.009 C 
HETATM   20  C27 UNL     1      -0.270   9.719  14.266  1.00  0.00     0.007 C 
HETATM   21  C28 UNL     1      -0.573   8.286  13.820  1.00  0.00     0.011 C 
HETATM   22  C29 UNL     1      -2.079   7.925  13.853  1.00  0.00    -0.032 C 
HETATM   23  C30 UNL     1      -2.768   8.743  12.722  1.00  0.00     0.016 C 
ENDROOT
BRANCH   1  24
HETATM   24  C2  UNL     1      -5.388   4.214  12.768  1.00  0.00    -0.084 C 
HETATM   25  C1  UNL     1      -5.523   3.292  11.795  1.00  0.00     0.014 C 
BRANCH  24  26
HETATM   26  C3  UNL     1      -6.571   4.911  13.434  1.00  0.00     0.037 C 
BRANCH  26  27
HETATM   27  C4  UNL     1      -7.969   4.807  12.789  1.00  0.00     0.031 C 
BRANCH  27  28
HETATM   28  C5  UNL     1      -8.872   5.968  13.122  1.00  0.00    -0.024 C 
HETATM   29  C6  UNL     1      -9.036   6.563  14.319  1.00  0.00    -0.091 C 
HETATM   30  C7  UNL     1      -9.979   7.730  14.472  1.00  0.00     0.042 C 
HETATM   31  C8  UNL     1      -8.347   6.158  15.593  1.00  0.00     0.042 C 
ENDBRANCH  27  28
ENDBRANCH  26  27
ENDBRANCH  24  26
ENDBRANCH   1  24
TORSDOF 4
ENDMDL
MODEL 6
REMARK minimizedAffinity -8.39438725
REMARK  4 active torsions:
REMARK  status: ('A' for Active; 'I' for Inactive)
REMARK    1  A    between atoms: C2_2  and  C3_3 
REMARK    2  A    between atoms: C2_2  and  C9_9 
REMARK    3  A    between atoms: C3_3  and  C4_4 
REMARK    4  A    between atoms: C4_4  and  C5_5 
ROOT
HETATM    1  C9  UNL     1       3.987   6.927  11.068  1.00  0.00     0.018 C 
HETATM    2  C10 UNL     1       3.482   5.705  10.259  1.00  0.00     0.010 C 
HETATM    3  C11 UNL     1       2.057   5.397  10.770  1.00  0.00     0.011 C 
HETATM    4  C12 UNL     1       1.567   6.716  11.414  1.00  0.00    -0.032 C 
HETATM    5  C13 UNL     1       1.188   7.665  10.229  1.00  0.00     0.016 C 
HETATM    6  C14 UNL     1       2.882   7.145  12.119  1.00  0.00     0.002 C 
HETATM    7  C15 UNL     1       2.775   8.520  12.758  1.00  0.00     0.006 C 
HETATM    8  C16 UNL     1       1.625   8.543  13.780  1.00  0.00     0.006 C 
HETATM    9  C17 UNL     1       0.272   8.055  13.190  1.00  0.00     0.003 C 
HETATM   10  C18 UNL     1      -0.986   8.295  14.132  1.00  0.00    -0.035 C 
HETATM   11  C19 UNL     1      -0.826   7.628  15.516  1.00  0.00     0.016 C 
HETATM   12  C20 UNL     1      -1.109   9.838  14.396  1.00  0.00     0.017 C 
HETATM   13  C21 UNL     1      -2.528  10.380  14.531  1.00  0.00     0.080 C 
HETATM   14  C22 UNL     1      -3.500   9.332  15.012  1.00  0.00     0.135 C 
HETATM   15  O1  UNL     1      -4.204   9.538  16.002  1.00  0.00    -0.297 OA
HETATM   16  C23 UNL     1      -3.625   8.064  14.160  1.00  0.00     0.017 C 
HETATM   17  C24 UNL     1      -4.775   8.319  13.163  1.00  0.00     0.023 C 
HETATM   18  C25 UNL     1      -4.050   6.888  15.061  1.00  0.00     0.023 C 
HETATM   19  C26 UNL     1      -2.284   7.826  13.375  1.00  0.00     0.009 C 
HETATM   20  C27 UNL     1      -2.157   6.401  12.804  1.00  0.00     0.007 C 
HETATM   21  C28 UNL     1      -0.961   6.267  11.857  1.00  0.00     0.011 C 
HETATM   22  C29 UNL     1       0.398   6.628  12.508  1.00  0.00    -0.032 C 
HETATM   23  C30 UNL     1       0.713   5.515  13.549  1.00  0.00     0.016 C 
ENDROOT
BRANCH   1  24
HETATM   24  C2  UNL     1       5.406   6.797  11.623  1.00  0.00    -0.084 C 
HETATM   25  C1  UNL     1       6.258   5.935  11.036  1.00  0.00     0.014 C 
BRANCH  24  26
HETATM   26  C3  UNL     1       5.775   7.652  12.832  1.00  0.00     0.037 C 
BRANCH  26  27
HETATM   27  C4  UNL     1       7.244   8.080  13.032  1.00  0.00     0.031 C 
BRANCH  27  28
HETATM   28  C5  UNL     1       7.726   7.930  14.454  1.00  0.00    -0.024 C 
HETATM   29  C6  UNL     1       9.000   7.908  14.890  1.00  0.00    -0.091 C 
HETATM   30  C7  UNL     1       9.305   7.763  16.359  1.00  0.00     0.042 C 
HETATM   31  C8  UNL     1      10.220   8.008  14.016  1.00  0.00     0.042 C 
ENDBRANCH  27  28
ENDBRANCH  26  27
ENDBRANCH  24  26
ENDBRANCH   1  24
TORSDOF 4
ENDMDL
MODEL 7
REMARK minimizedAffinity -8.2981863
REMARK  4 active torsions:
REMARK  status: ('A' for Active; 'I' for Inactive)
REMARK    1  A    between atoms: C2_2  and  C3_3 
REMARK    2  A    between atoms: C2_2  and  C9_9 
REMARK    3  A    between atoms: C3_3  and  C4_4 
REMARK    4  A    between atoms: C4_4  and  C5_5 
ROOT
HETATM    1  C9  UNL     1      -1.493   4.650  12.246  1.00  0.00     0.018 C 
HETATM    2  C10 UNL     1      -0.415   5.208  11.281  1.00  0.00     0.010 C 
HETATM    3  C11 UNL     1      -0.267   6.711  11.608  1.00  0.00     0.011 C 
HETATM    4  C12 UNL     1      -0.802   6.863  13.051  1.00  0.00    -0.032 C 
HETATM    5  C13 UNL     1       0.319   6.310  13.993  1.00  0.00     0.016 C 
HETATM    6  C14 UNL     1      -2.023   5.909  12.959  1.00  0.00     0.002 C 
HETATM    7  C15 UNL     1      -2.716   5.722  14.300  1.00  0.00     0.006 C 
HETATM    8  C16 UNL     1      -3.180   7.082  14.851  1.00  0.00     0.006 C 
HETATM    9  C17 UNL     1      -2.042   8.139  14.912  1.00  0.00     0.003 C 
HETATM   10  C18 UNL     1      -2.414   9.468  15.699  1.00  0.00    -0.035 C 
HETATM   11  C19 UNL     1      -3.659  10.174  15.117  1.00  0.00     0.016 C 
HETATM   12  C20 UNL     1      -2.779   9.074  17.175  1.00  0.00     0.017 C 
HETATM   13  C21 UNL     1      -2.389  10.083  18.250  1.00  0.00     0.080 C 
HETATM   14  C22 UNL     1      -2.313  11.492  17.717  1.00  0.00     0.135 C 
HETATM   15  O1  UNL     1      -2.949  12.399  18.253  1.00  0.00    -0.297 OA
HETATM   16  C23 UNL     1      -1.345  11.737  16.553  1.00  0.00     0.017 C 
HETATM   17  C24 UNL     1      -0.003  12.168  17.184  1.00  0.00     0.023 C 
HETATM   18  C25 UNL     1      -1.857  12.921  15.710  1.00  0.00     0.023 C 
HETATM   19  C26 UNL     1      -1.148  10.404  15.745  1.00  0.00     0.009 C 
HETATM   20  C27 UNL     1      -0.520  10.621  14.355  1.00  0.00     0.007 C 
HETATM   21  C28 UNL     1      -0.129   9.299  13.689  1.00  0.00     0.011 C 
HETATM   22  C29 UNL     1      -1.312   8.312  13.514  1.00  0.00    -0.032 C 
HETATM   23  C30 UNL     1      -2.258   8.923  12.439  1.00  0.00     0.016 C 
ENDROOT
BRANCH   1  24
HETATM   24  C2  UNL     1      -2.556   3.767  11.592  1.00  0.00    -0.084 C 
HETATM   25  C1  UNL     1      -2.478   3.526  10.269  1.00  0.00     0.014 C 
BRANCH  24  26
HETATM   26  C3  UNL     1      -3.664   3.215  12.484  1.00  0.00     0.037 C 
BRANCH  26  27
HETATM   27  C4  UNL     1      -5.137   3.446  12.086  1.00  0.00     0.031 C 
BRANCH  27  28
HETATM   28  C5  UNL     1      -5.833   4.481  12.933  1.00  0.00    -0.024 C 
HETATM   29  C6  UNL     1      -7.120   4.484  13.332  1.00  0.00    -0.091 C 
HETATM   30  C7  UNL     1      -7.652   5.601  14.195  1.00  0.00     0.042 C 
HETATM   31  C8  UNL     1      -8.142   3.439  12.980  1.00  0.00     0.042 C 
ENDBRANCH  27  28
ENDBRANCH  26  27
ENDBRANCH  24  26
ENDBRANCH   1  24
TORSDOF 4
ENDMDL
MODEL 8
REMARK minimizedAffinity -8.22554874
REMARK  4 active torsions:
REMARK  status: ('A' for Active; 'I' for Inactive)
REMARK    1  A    between atoms: C2_2  and  C3_3 
REMARK    2  A    between atoms: C2_2  and  C9_9 
REMARK    3  A    between atoms: C3_3  and  C4_4 
REMARK    4  A    between atoms: C4_4  and  C5_5 
ROOT
HETATM    1  C9  UNL     1      -3.166   8.679  15.220  1.00  0.00     0.018 C 
HETATM    2  C10 UNL     1      -2.231   8.662  16.456  1.00  0.00     0.010 C 
HETATM    3  C11 UNL     1      -0.856   8.160  15.961  1.00  0.00     0.011 C 
HETATM    4  C12 UNL     1      -0.853   8.432  14.438  1.00  0.00    -0.032 C 
HETATM    5  C13 UNL     1      -0.612   9.969  14.270  1.00  0.00     0.016 C 
HETATM    6  C14 UNL     1      -2.315   8.022  14.116  1.00  0.00     0.002 C 
HETATM    7  C15 UNL     1      -2.693   8.306  12.670  1.00  0.00     0.006 C 
HETATM    8  C16 UNL     1      -1.740   7.562  11.719  1.00  0.00     0.006 C 
HETATM    9  C17 UNL     1      -0.239   7.846  12.008  1.00  0.00     0.003 C 
HETATM   10  C18 UNL     1       0.763   7.300  10.902  1.00  0.00    -0.035 C 
HETATM   11  C19 UNL     1       0.625   5.779  10.674  1.00  0.00     0.016 C 
HETATM   12  C20 UNL     1       0.403   7.987   9.536  1.00  0.00     0.017 C 
HETATM   13  C21 UNL     1       1.577   8.281   8.609  1.00  0.00     0.080 C 
HETATM   14  C22 UNL     1       2.738   7.346   8.835  1.00  0.00     0.135 C 
HETATM   15  O1  UNL     1       3.218   6.707   7.899  1.00  0.00    -0.297 OA
HETATM   16  C23 UNL     1       3.331   7.312  10.248  1.00  0.00     0.017 C 
HETATM   17  C24 UNL     1       4.479   8.345  10.265  1.00  0.00     0.023 C 
HETATM   18  C25 UNL     1       3.955   5.927  10.502  1.00  0.00     0.023 C 
HETATM   19  C26 UNL     1       2.228   7.728  11.289  1.00  0.00     0.009 C 
HETATM   20  C27 UNL     1       2.591   7.358  12.740  1.00  0.00     0.007 C 
HETATM   21  C28 UNL     1       1.618   7.974  13.749  1.00  0.00     0.011 C 
HETATM   22  C29 UNL     1       0.140   7.566  13.523  1.00  0.00    -0.032 C 
HETATM   23  C30 UNL     1       0.026   6.055  13.879  1.00  0.00     0.016 C 
ENDROOT
BRANCH   1  24
HETATM   24  C2  UNL     1      -4.547   8.062  15.442  1.00  0.00    -0.084 C 
HETATM   25  C1  UNL     1      -5.607   8.878  15.597  1.00  0.00     0.014 C 
BRANCH  24  26
HETATM   26  C3  UNL     1      -4.644   6.540  15.490  1.00  0.00     0.037 C 
BRANCH  26  27
HETATM   27  C4  UNL     1      -4.820   5.754  14.174  1.00  0.00     0.031 C 
BRANCH  27  28
HETATM   28  C5  UNL     1      -6.132   6.027  13.481  1.00  0.00    -0.024 C 
HETATM   29  C6  UNL     1      -7.122   5.150  13.225  1.00  0.00    -0.091 C 
HETATM   30  C7  UNL     1      -8.382   5.599  12.529  1.00  0.00     0.042 C 
HETATM   31  C8  UNL     1      -7.098   3.686  13.570  1.00  0.00     0.042 C 
ENDBRANCH  27  28
ENDBRANCH  26  27
ENDBRANCH  24  26
ENDBRANCH   1  24
TORSDOF 4
ENDMDL
MODEL 9
REMARK minimizedAffinity -8.17214108
REMARK  4 active torsions:
REMARK  status: ('A' for Active; 'I' for Inactive)
REMARK    1  A    between atoms: C2_2  and  C3_3 
REMARK    2  A    between atoms: C2_2  and  C9_9 
REMARK    3  A    between atoms: C3_3  and  C4_4 
REMARK    4  A    between atoms: C4_4  and  C5_5 
ROOT
HETATM    1  C9  UNL     1      -3.343   6.264  13.005  1.00  0.00     0.018 C 
HETATM    2  C10 UNL     1      -4.240   5.695  14.134  1.00  0.00     0.010 C 
HETATM    3  C11 UNL     1      -4.160   6.698  15.307  1.00  0.00     0.011 C 
HETATM    4  C12 UNL     1      -3.714   8.033  14.665  1.00  0.00    -0.032 C 
HETATM    5  C13 UNL     1      -4.976   8.617  13.948  1.00  0.00     0.016 C 
HETATM    6  C14 UNL     1      -2.665   7.481  13.664  1.00  0.00     0.002 C 
HETATM    7  C15 UNL     1      -2.111   8.562  12.749  1.00  0.00     0.006 C 
HETATM    8  C16 UNL     1      -1.469   9.685  13.582  1.00  0.00     0.006 C 
HETATM    9  C17 UNL     1      -2.418  10.258  14.673  1.00  0.00     0.003 C 
HETATM   10  C18 UNL     1      -1.889  11.575  15.386  1.00  0.00    -0.035 C 
HETATM   11  C19 UNL     1      -0.506  11.379  16.045  1.00  0.00     0.016 C 
HETATM   12  C20 UNL     1      -1.703  12.682  14.287  1.00  0.00     0.017 C 
HETATM   13  C21 UNL     1      -1.997  14.113  14.726  1.00  0.00     0.080 C 
HETATM   14  C22 UNL     1      -1.800  14.313  16.207  1.00  0.00     0.135 C 
HETATM   15  O1  UNL     1      -1.063  15.206  16.626  1.00  0.00    -0.297 OA
HETATM   16  C23 UNL     1      -2.626  13.419  17.140  1.00  0.00     0.017 C 
HETATM   17  C24 UNL     1      -3.920  14.199  17.458  1.00  0.00     0.023 C 
HETATM   18  C25 UNL     1      -1.866  13.231  18.466  1.00  0.00     0.023 C 
HETATM   19  C26 UNL     1      -2.982  12.078  16.401  1.00  0.00     0.009 C 
HETATM   20  C27 UNL     1      -3.463  10.967  17.354  1.00  0.00     0.007 C 
HETATM   21  C28 UNL     1      -4.018   9.760  16.593  1.00  0.00     0.011 C 
HETATM   22  C29 UNL     1      -3.006   9.120  15.609  1.00  0.00    -0.032 C 
HETATM   23  C30 UNL     1      -1.897   8.449  16.471  1.00  0.00     0.016 C 
ENDROOT
BRANCH   1  24
HETATM   24  C2  UNL     1      -2.396   5.254  12.357  1.00  0.00    -0.084 C 
HETATM   25  C1  UNL     1      -1.142   5.640  12.052  1.00  0.00     0.014 C 
BRANCH  24  26
HETATM   26  C3  UNL     1      -2.937   3.855  12.075  1.00  0.00     0.037 C 
BRANCH  26  27
HETATM   27  C4  UNL     1      -4.159   3.692  11.147  1.00  0.00     0.031 C 
BRANCH  27  28
HETATM   28  C5  UNL     1      -5.463   3.542  11.890  1.00  0.00    -0.024 C 
HETATM   29  C6  UNL     1      -6.259   2.456  11.940  1.00  0.00    -0.091 C 
HETATM   30  C7  UNL     1      -7.531   2.475  12.748  1.00  0.00     0.042 C 
HETATM   31  C8  UNL     1      -6.002   1.157  11.225  1.00  0.00     0.042 C 
ENDBRANCH  27  28
ENDBRANCH  26  27
ENDBRANCH  24  26
ENDBRANCH   1  24
TORSDOF 4
ENDMDL
