MODEL 1
REMARK minimizedAffinity -9.59753227
REMARK CNNscore 0.78936708
REMARK CNNaffinity 7.30661249
REMARK  12 active torsions:
REMARK  status: ('A' for Active; 'I' for Inactive)
REMARK    1  A    between atoms: N1_6  and  O1_8 
REMARK    2  A    between atoms: O1_8  and  C6_9 
REMARK    3  A    between atoms: C6_9  and  C7_10 
REMARK       I    between atoms: C7_10  and  N2_12 
REMARK    4  A    between atoms: N2_12  and  C8_13 
REMARK    5  A    between atoms: C8_13  and  C9_14 
REMARK    6  A    between atoms: C12_17  and  C13_18 
REMARK    7  A    between atoms: C13_18  and  O4_20 
REMARK    8  A    between atoms: C22_29  and  O5_30 
REMARK    9  A    between atoms: C29_37  and  O6_38 
REMARK   10  A    between atoms: C29_37  and  C30_39 
REMARK   11  A    between atoms: C30_39  and  C31_41 
REMARK   12  A    between atoms: C31_41  and  O8_42 
ROOT
HETATM    1  C1  UNL     1      -0.157  50.361 -19.628  1.00  0.00     0.020 C 
HETATM    2  C2  UNL     1      -1.701  50.360 -19.587  1.00  0.00    -0.014 C 
HETATM    3  C3  UNL     1      -2.180  51.521 -18.668  1.00  0.00     0.020 C 
HETATM    4  C4  UNL     1      -1.996  51.252 -17.181  1.00  0.00     0.060 C 
HETATM    5  C5  UNL     1      -2.697  49.966 -16.800  1.00  0.00     0.032 C 
HETATM    6  N1  UNL     1      -3.318  49.757 -15.675  1.00  0.00    -0.271 N 
ATOM      7  H1  UNL     1      -3.751  48.870 -15.420  1.00  0.00     0.194 HD
HETATM    8  C16 UNL     1      -2.626  48.841 -17.767  1.00  0.00     0.030 C 
HETATM    9  C17 UNL     1      -2.139  49.007 -19.008  1.00  0.00    -0.069 C 
HETATM   10  C18 UNL     1      -1.992  47.813 -19.921  1.00  0.00     0.035 C 
HETATM   11  C19 UNL     1      -2.702  48.040 -21.247  1.00  0.00     0.010 C 
HETATM   12  C20 UNL     1      -2.212  49.319 -21.945  1.00  0.00    -0.002 C 
HETATM   13  C21 UNL     1      -2.376  50.556 -21.006  1.00  0.00     0.031 C 
HETATM   14  C22 UNL     1      -2.029  51.890 -21.732  1.00  0.00     0.124 C 
HETATM   15  C23 UNL     1      -2.730  52.037 -23.099  1.00  0.00     0.045 C 
HETATM   16  C24 UNL     1      -2.543  50.815 -24.030  1.00  0.00     0.001 C 
HETATM   17  C25 UNL     1      -1.071  50.701 -24.508  1.00  0.00     0.019 C 
HETATM   18  C26 UNL     1      -3.017  49.576 -23.231  1.00  0.00     0.002 C 
HETATM   19  C27 UNL     1      -3.084  48.474 -24.279  1.00  0.00     0.009 C 
HETATM   20  C28 UNL     1      -3.569  49.193 -25.551  1.00  0.00     0.047 C 
HETATM   21  C29 UNL     1      -3.498  50.724 -25.267  1.00  0.00     0.128 C 
ENDROOT
BRANCH   6  22
HETATM   22  O1  UNL     1      -3.322  50.894 -14.854  1.00  0.00    -0.271 OA
BRANCH  22  23
HETATM   23  C6  UNL     1      -2.583  50.622 -13.665  1.00  0.00     0.303 C 
BRANCH  23  24
HETATM   24  C7  UNL     1      -3.204  51.319 -12.459  1.00  0.00     0.244 C 
HETATM   25  O2  UNL     1      -3.930  50.727 -11.663  1.00  0.00    -0.271 OA
HETATM   26  N2  UNL     1      -2.849  52.645 -12.329  1.00  0.00    -0.355 N 
HETATM   27  H10 UNL     1      -2.361  53.053 -13.122  1.00  0.00     0.162 HD
BRANCH  26  28
HETATM   28  C8  UNL     1      -3.473  53.518 -11.365  1.00  0.00     0.161 C 
BRANCH  28  29
HETATM   29  C9  UNL     1      -2.502  53.887 -10.271  1.00  0.00    -0.040 A 
HETATM   30  C10 UNL     1      -1.752  55.071 -10.368  1.00  0.00     0.010 A 
HETATM   31  C11 UNL     1      -0.823  55.408  -9.379  1.00  0.00     0.019 A 
HETATM   32  C12 UNL     1      -0.631  54.562  -8.281  1.00  0.00     0.037 A 
HETATM   33  C14 UNL     1      -1.374  53.379  -8.180  1.00  0.00     0.019 A 
HETATM   34  C15 UNL     1      -2.300  53.041  -9.171  1.00  0.00     0.010 A 
BRANCH  32  35
HETATM   35  C13 UNL     1       0.346  54.873  -7.208  1.00  0.00     0.176 C 
HETATM   36  O3  UNL     1       0.233  54.577  -6.033  1.00  0.00    -0.646 OA
BRANCH  35  37
HETATM   37  O4  UNL     1       1.422  55.540  -7.660  1.00  0.00    -0.773 OA
HETATM   38  H15 UNL     1       1.967  55.674  -6.856  1.00  0.00     0.167 HD
ENDBRANCH  35  37
ENDBRANCH  32  35
ENDBRANCH  28  29
ENDBRANCH  26  28
ENDBRANCH  23  24
ENDBRANCH  22  23
ENDBRANCH   6  22
BRANCH  14  39
HETATM   39  O5  UNL     1      -0.627  52.031 -21.914  1.00  0.00    -0.395 OA
HETATM   40  H26 UNL     1      -0.457  52.938 -22.219  1.00  0.00     0.210 HD
ENDBRANCH  14  39
BRANCH  21  41
HETATM   41  O6  UNL     1      -4.829  51.127 -24.908  1.00  0.00    -0.381 OA
HETATM   42  H37 UNL     1      -4.821  52.104 -24.815  1.00  0.00     0.211 HD
ENDBRANCH  21  41
BRANCH  21  43
HETATM   43  C30 UNL     1      -3.047  51.514 -26.526  1.00  0.00     0.184 C 
HETATM   44  O7  UNL     1      -2.961  52.743 -26.562  1.00  0.00    -0.292 OA
BRANCH  43  45
HETATM   45  C31 UNL     1      -2.718  50.703 -27.775  1.00  0.00     0.245 C 
BRANCH  45  46
HETATM   46  O8  UNL     1      -3.513  51.064 -28.892  1.00  0.00    -0.393 OA
HETATM   47  H40 UNL     1      -4.387  50.647 -28.753  1.00  0.00     0.209 HD
ENDBRANCH  45  46
ENDBRANCH  43  45
ENDBRANCH  21  43
TORSDOF 12
ENDMDL
MODEL 2
REMARK minimizedAffinity -8.8919096
REMARK CNNscore 0.583475292
REMARK CNNaffinity 7.33166742
REMARK  12 active torsions:
REMARK  status: ('A' for Active; 'I' for Inactive)
REMARK    1  A    between atoms: N1_6  and  O1_8 
REMARK    2  A    between atoms: O1_8  and  C6_9 
REMARK    3  A    between atoms: C6_9  and  C7_10 
REMARK       I    between atoms: C7_10  and  N2_12 
REMARK    4  A    between atoms: N2_12  and  C8_13 
REMARK    5  A    between atoms: C8_13  and  C9_14 
REMARK    6  A    between atoms: C12_17  and  C13_18 
REMARK    7  A    between atoms: C13_18  and  O4_20 
REMARK    8  A    between atoms: C22_29  and  O5_30 
REMARK    9  A    between atoms: C29_37  and  O6_38 
REMARK   10  A    between atoms: C29_37  and  C30_39 
REMARK   11  A    between atoms: C30_39  and  C31_41 
REMARK   12  A    between atoms: C31_41  and  O8_42 
ROOT
HETATM    1  C1  UNL     1       1.063  50.487 -20.788  1.00  0.00     0.020 C 
HETATM    2  C2  UNL     1      -0.437  50.685 -20.478  1.00  0.00    -0.014 C 
HETATM    3  C3  UNL     1      -0.602  51.941 -19.573  1.00  0.00     0.020 C 
HETATM    4  C4  UNL     1      -0.183  51.722 -18.126  1.00  0.00     0.060 C 
HETATM    5  C5  UNL     1      -0.949  50.557 -17.539  1.00  0.00     0.032 C 
HETATM    6  N1  UNL     1      -1.375  50.484 -16.311  1.00  0.00    -0.271 N 
ATOM      7  H1  UNL     1      -1.856  49.672 -15.923  1.00  0.00     0.194 HD
HETATM    8  C16 UNL     1      -1.188  49.387 -18.422  1.00  0.00     0.030 C 
HETATM    9  C17 UNL     1      -0.919  49.429 -19.738  1.00  0.00    -0.069 C 
HETATM   10  C18 UNL     1      -1.081  48.183 -20.576  1.00  0.00     0.035 C 
HETATM   11  C19 UNL     1      -1.989  48.436 -21.770  1.00  0.00     0.010 C 
HETATM   12  C20 UNL     1      -1.488  49.606 -22.631  1.00  0.00    -0.002 C 
HETATM   13  C21 UNL     1      -1.331  50.897 -21.767  1.00  0.00     0.031 C 
HETATM   14  C22 UNL     1      -0.968  52.139 -22.634  1.00  0.00     0.124 C 
HETATM   15  C23 UNL     1      -1.885  52.309 -23.865  1.00  0.00     0.045 C 
HETATM   16  C24 UNL     1      -2.015  51.030 -24.726  1.00  0.00     0.001 C 
HETATM   17  C25 UNL     1      -0.678  50.705 -25.444  1.00  0.00     0.019 C 
HETATM   18  C26 UNL     1      -2.478  49.901 -23.771  1.00  0.00     0.002 C 
HETATM   19  C27 UNL     1      -2.863  48.768 -24.712  1.00  0.00     0.009 C 
HETATM   20  C28 UNL     1      -3.483  49.481 -25.927  1.00  0.00     0.047 C 
HETATM   21  C29 UNL     1      -3.182  51.002 -25.768  1.00  0.00     0.128 C 
ENDROOT
BRANCH   6  22
HETATM   22  O1  UNL     1      -1.096  51.650 -15.584  1.00  0.00    -0.271 OA
BRANCH  22  23
HETATM   23  C6  UNL     1       0.092  51.458 -14.818  1.00  0.00     0.303 C 
BRANCH  23  24
HETATM   24  C7  UNL     1      -0.160  51.716 -13.336  1.00  0.00     0.244 C 
HETATM   25  O2  UNL     1      -0.809  50.940 -12.638  1.00  0.00    -0.271 OA
HETATM   26  N2  UNL     1       0.431  52.865 -12.855  1.00  0.00    -0.355 N 
HETATM   27  H10 UNL     1       0.820  53.490 -13.556  1.00  0.00     0.162 HD
BRANCH  26  28
HETATM   28  C8  UNL     1       0.159  53.375 -11.534  1.00  0.00     0.161 C 
BRANCH  28  29
HETATM   29  C9  UNL     1       1.423  53.889 -10.888  1.00  0.00    -0.040 A 
HETATM   30  C10 UNL     1       1.613  55.270 -10.720  1.00  0.00     0.010 A 
HETATM   31  C11 UNL     1       2.795  55.762 -10.156  1.00  0.00     0.019 A 
HETATM   32  C12 UNL     1       3.801  54.876  -9.756  1.00  0.00     0.037 A 
HETATM   33  C14 UNL     1       3.618  53.497  -9.923  1.00  0.00     0.019 A 
HETATM   34  C15 UNL     1       2.438  53.007 -10.491  1.00  0.00     0.010 A 
BRANCH  32  35
HETATM   35  C13 UNL     1       5.074  55.348  -9.157  1.00  0.00     0.176 C 
HETATM   36  O3  UNL     1       5.188  55.951  -8.105  1.00  0.00    -0.646 OA
BRANCH  35  37
HETATM   37  O4  UNL     1       6.147  55.040  -9.904  1.00  0.00    -0.773 OA
HETATM   38  H15 UNL     1       6.900  55.408  -9.395  1.00  0.00     0.167 HD
ENDBRANCH  35  37
ENDBRANCH  32  35
ENDBRANCH  28  29
ENDBRANCH  26  28
ENDBRANCH  23  24
ENDBRANCH  22  23
ENDBRANCH   6  22
BRANCH  14  39
HETATM   39  O5  UNL     1       0.383  52.091 -23.068  1.00  0.00    -0.395 OA
HETATM   40  H26 UNL     1       0.601  52.952 -23.461  1.00  0.00     0.210 HD
ENDBRANCH  14  39
BRANCH  21  41
HETATM   41  O6  UNL     1      -4.369  51.590 -25.212  1.00  0.00    -0.381 OA
HETATM   42  H37 UNL     1      -4.230  52.561 -25.190  1.00  0.00     0.211 HD
ENDBRANCH  21  41
BRANCH  21  43
HETATM   43  C30 UNL     1      -2.878  51.666 -27.139  1.00  0.00     0.184 C 
HETATM   44  O7  UNL     1      -3.261  51.205 -28.216  1.00  0.00    -0.292 OA
BRANCH  43  45
HETATM   45  C31 UNL     1      -2.044  52.942 -27.124  1.00  0.00     0.245 C 
BRANCH  45  46
HETATM   46  O8  UNL     1      -2.150  53.685 -28.327  1.00  0.00    -0.393 OA
HETATM   47  H40 UNL     1      -1.587  53.228 -28.982  1.00  0.00     0.209 HD
ENDBRANCH  45  46
ENDBRANCH  43  45
ENDBRANCH  21  43
TORSDOF 12
ENDMDL
MODEL 3
REMARK minimizedAffinity -9.07574368
REMARK CNNscore 0.482643157
REMARK CNNaffinity 7.19447374
REMARK  12 active torsions:
REMARK  status: ('A' for Active; 'I' for Inactive)
REMARK    1  A    between atoms: N1_6  and  O1_8 
REMARK    2  A    between atoms: O1_8  and  C6_9 
REMARK    3  A    between atoms: C6_9  and  C7_10 
REMARK       I    between atoms: C7_10  and  N2_12 
REMARK    4  A    between atoms: N2_12  and  C8_13 
REMARK    5  A    between atoms: C8_13  and  C9_14 
REMARK    6  A    between atoms: C12_17  and  C13_18 
REMARK    7  A    between atoms: C13_18  and  O4_20 
REMARK    8  A    between atoms: C22_29  and  O5_30 
REMARK    9  A    between atoms: C29_37  and  O6_38 
REMARK   10  A    between atoms: C29_37  and  C30_39 
REMARK   11  A    between atoms: C30_39  and  C31_41 
REMARK   12  A    between atoms: C31_41  and  O8_42 
ROOT
HETATM    1  C1  UNL     1       0.232  49.904 -20.889  1.00  0.00     0.020 C 
HETATM    2  C2  UNL     1      -1.174  50.524 -21.038  1.00  0.00    -0.014 C 
HETATM    3  C3  UNL     1      -1.323  51.685 -20.010  1.00  0.00     0.020 C 
HETATM    4  C4  UNL     1      -1.521  51.220 -18.574  1.00  0.00     0.060 C 
HETATM    5  C5  UNL     1      -2.719  50.299 -18.492  1.00  0.00     0.032 C 
HETATM    6  N1  UNL     1      -3.560  50.250 -17.499  1.00  0.00    -0.271 N 
ATOM      7  H1  UNL     1      -4.339  49.595 -17.445  1.00  0.00     0.194 HD
HETATM    8  C16 UNL     1      -2.918  49.342 -19.610  1.00  0.00     0.030 C 
HETATM    9  C17 UNL     1      -2.195  49.416 -20.740  1.00  0.00    -0.069 C 
HETATM   10  C18 UNL     1      -2.361  48.361 -21.807  1.00  0.00     0.035 C 
HETATM   11  C19 UNL     1      -2.683  48.985 -23.157  1.00  0.00     0.010 C 
HETATM   12  C20 UNL     1      -1.623  50.017 -23.576  1.00  0.00    -0.002 C 
HETATM   13  C21 UNL     1      -1.461  51.115 -22.478  1.00  0.00     0.031 C 
HETATM   14  C22 UNL     1      -0.505  52.258 -22.934  1.00  0.00     0.124 C 
HETATM   15  C23 UNL     1      -0.843  52.810 -24.335  1.00  0.00     0.045 C 
HETATM   16  C24 UNL     1      -0.980  51.714 -25.419  1.00  0.00     0.001 C 
HETATM   17  C25 UNL     1       0.393  51.060 -25.726  1.00  0.00     0.019 C 
HETATM   18  C26 UNL     1      -2.028  50.702 -24.893  1.00  0.00     0.002 C 
HETATM   19  C27 UNL     1      -2.328  49.831 -26.104  1.00  0.00     0.009 C 
HETATM   20  C28 UNL     1      -2.266  50.805 -27.294  1.00  0.00     0.047 C 
HETATM   21  C29 UNL     1      -1.662  52.140 -26.762  1.00  0.00     0.128 C 
ENDROOT
BRANCH   6  22
HETATM   22  O1  UNL     1      -3.270  51.205 -16.514  1.00  0.00    -0.271 OA
BRANCH  22  23
HETATM   23  C6  UNL     1      -2.903  50.542 -15.305  1.00  0.00     0.303 C 
BRANCH  23  24
HETATM   24  C7  UNL     1      -2.199  51.496 -14.346  1.00  0.00     0.244 C 
HETATM   25  O2  UNL     1      -2.816  52.318 -13.672  1.00  0.00    -0.271 OA
HETATM   26  N2  UNL     1      -0.832  51.325 -14.281  1.00  0.00    -0.355 N 
HETATM   27  H10 UNL     1      -0.429  50.714 -14.985  1.00  0.00     0.162 HD
BRANCH  26  28
HETATM   28  C8  UNL     1       0.025  52.245 -13.575  1.00  0.00     0.161 C 
BRANCH  28  29
HETATM   29  C9  UNL     1       1.192  51.519 -12.953  1.00  0.00    -0.040 A 
HETATM   30  C10 UNL     1       1.684  51.923 -11.701  1.00  0.00     0.010 A 
HETATM   31  C11 UNL     1       2.788  51.282 -11.130  1.00  0.00     0.019 A 
HETATM   32  C12 UNL     1       3.414  50.229 -11.807  1.00  0.00     0.037 A 
HETATM   33  C14 UNL     1       2.930  49.823 -13.057  1.00  0.00     0.019 A 
HETATM   34  C15 UNL     1       1.829  50.468 -13.629  1.00  0.00     0.010 A 
BRANCH  32  35
HETATM   35  C13 UNL     1       4.591  49.520 -11.245  1.00  0.00     0.176 C 
HETATM   36  O3  UNL     1       4.567  48.700 -10.346  1.00  0.00    -0.646 OA
BRANCH  35  37
HETATM   37  O4  UNL     1       5.743  49.871 -11.840  1.00  0.00    -0.773 OA
HETATM   38  H15 UNL     1       6.419  49.335 -11.374  1.00  0.00     0.167 HD
ENDBRANCH  35  37
ENDBRANCH  32  35
ENDBRANCH  28  29
ENDBRANCH  26  28
ENDBRANCH  23  24
ENDBRANCH  22  23
ENDBRANCH   6  22
BRANCH  14  39
HETATM   39  O5  UNL     1       0.851  51.835 -22.918  1.00  0.00    -0.395 OA
HETATM   40  H26 UNL     1       1.409  52.620 -23.051  1.00  0.00     0.210 HD
ENDBRANCH  14  39
BRANCH  21  41
HETATM   41  O6  UNL     1      -2.775  53.011 -26.509  1.00  0.00    -0.381 OA
HETATM   42  H37 UNL     1      -2.409  53.886 -26.261  1.00  0.00     0.211 HD
ENDBRANCH  21  41
BRANCH  21  43
HETATM   43  C30 UNL     1      -0.728  52.797 -27.814  1.00  0.00     0.184 C 
HETATM   44  O7  UNL     1       0.122  52.173 -28.452  1.00  0.00    -0.292 OA
BRANCH  43  45
HETATM   45  C31 UNL     1      -0.877  54.299 -28.035  1.00  0.00     0.245 C 
BRANCH  45  46
HETATM   46  O8  UNL     1      -2.075  54.641 -28.712  1.00  0.00    -0.393 OA
HETATM   47  H40 UNL     1      -1.924  54.435 -29.656  1.00  0.00     0.209 HD
ENDBRANCH  45  46
ENDBRANCH  43  45
ENDBRANCH  21  43
TORSDOF 12
ENDMDL
MODEL 4
REMARK minimizedAffinity -8.68010139
REMARK CNNscore 0.463093668
REMARK CNNaffinity 6.87879181
REMARK  12 active torsions:
REMARK  status: ('A' for Active; 'I' for Inactive)
REMARK    1  A    between atoms: N1_6  and  O1_8 
REMARK    2  A    between atoms: O1_8  and  C6_9 
REMARK    3  A    between atoms: C6_9  and  C7_10 
REMARK       I    between atoms: C7_10  and  N2_12 
REMARK    4  A    between atoms: N2_12  and  C8_13 
REMARK    5  A    between atoms: C8_13  and  C9_14 
REMARK    6  A    between atoms: C12_17  and  C13_18 
REMARK    7  A    between atoms: C13_18  and  O4_20 
REMARK    8  A    between atoms: C22_29  and  O5_30 
REMARK    9  A    between atoms: C29_37  and  O6_38 
REMARK   10  A    between atoms: C29_37  and  C30_39 
REMARK   11  A    between atoms: C30_39  and  C31_41 
REMARK   12  A    between atoms: C31_41  and  O8_42 
ROOT
HETATM    1  C1  UNL     1      -5.163  51.800 -23.439  1.00  0.00     0.020 C 
HETATM    2  C2  UNL     1      -3.985  50.899 -23.008  1.00  0.00    -0.014 C 
HETATM    3  C3  UNL     1      -2.930  51.771 -22.264  1.00  0.00     0.020 C 
HETATM    4  C4  UNL     1      -2.104  52.661 -23.182  1.00  0.00     0.060 C 
HETATM    5  C5  UNL     1      -1.425  51.820 -24.241  1.00  0.00     0.032 C 
HETATM    6  N1  UNL     1      -0.233  52.035 -24.718  1.00  0.00    -0.271 N 
ATOM      7  H1  UNL     1       0.191  51.480 -25.461  1.00  0.00     0.194 HD
HETATM    8  C16 UNL     1      -2.203  50.693 -24.814  1.00  0.00     0.030 C 
HETATM    9  C17 UNL     1      -3.376  50.303 -24.286  1.00  0.00    -0.069 C 
HETATM   10  C18 UNL     1      -4.180  49.220 -24.964  1.00  0.00     0.035 C 
HETATM   11  C19 UNL     1      -4.512  48.091 -23.998  1.00  0.00     0.010 C 
HETATM   12  C20 UNL     1      -5.243  48.607 -22.748  1.00  0.00    -0.002 C 
HETATM   13  C21 UNL     1      -4.406  49.719 -22.040  1.00  0.00     0.031 C 
HETATM   14  C22 UNL     1      -5.044  50.159 -20.689  1.00  0.00     0.124 C 
HETATM   15  C23 UNL     1      -5.416  48.970 -19.777  1.00  0.00     0.045 C 
HETATM   16  C24 UNL     1      -6.264  47.885 -20.483  1.00  0.00     0.001 C 
HETATM   17  C25 UNL     1      -7.686  48.415 -20.806  1.00  0.00     0.019 C 
HETATM   18  C26 UNL     1      -5.474  47.462 -21.747  1.00  0.00     0.002 C 
HETATM   19  C27 UNL     1      -6.202  46.213 -22.225  1.00  0.00     0.009 C 
HETATM   20  C28 UNL     1      -6.629  45.505 -20.927  1.00  0.00     0.047 C 
HETATM   21  C29 UNL     1      -6.378  46.503 -19.757  1.00  0.00     0.128 C 
ENDROOT
BRANCH   6  22
HETATM   22  O1  UNL     1       0.399  53.119 -24.092  1.00  0.00    -0.271 OA
BRANCH  22  23
HETATM   23  C6  UNL     1       1.263  52.634 -23.065  1.00  0.00     0.303 C 
BRANCH  23  24
HETATM   24  C7  UNL     1       1.164  53.496 -21.810  1.00  0.00     0.244 C 
HETATM   25  O2  UNL     1       1.719  54.589 -21.722  1.00  0.00    -0.271 OA
HETATM   26  N2  UNL     1       0.375  52.957 -20.816  1.00  0.00    -0.355 N 
HETATM   27  H10 UNL     1       0.088  51.992 -20.953  1.00  0.00     0.162 HD
BRANCH  26  28
HETATM   28  C8  UNL     1       0.306  53.530 -19.494  1.00  0.00     0.161 C 
BRANCH  28  29
HETATM   29  C9  UNL     1       0.387  52.453 -18.440  1.00  0.00    -0.040 A 
HETATM   30  C10 UNL     1       1.279  52.591 -17.364  1.00  0.00     0.010 A 
HETATM   31  C11 UNL     1       1.391  51.585 -16.399  1.00  0.00     0.019 A 
HETATM   32  C12 UNL     1       0.612  50.427 -16.502  1.00  0.00     0.037 A 
HETATM   33  C14 UNL     1      -0.277  50.282 -17.575  1.00  0.00     0.019 A 
HETATM   34  C15 UNL     1      -0.385  51.287 -18.541  1.00  0.00     0.010 A 
BRANCH  32  35
HETATM   35  C13 UNL     1       0.697  49.329 -15.507  1.00  0.00     0.176 C 
HETATM   36  O3  UNL     1       0.704  48.138 -15.758  1.00  0.00    -0.646 OA
BRANCH  35  37
HETATM   37  O4  UNL     1       0.771  49.776 -14.242  1.00  0.00    -0.773 OA
HETATM   38  H15 UNL     1       0.819  48.956 -13.707  1.00  0.00     0.167 HD
ENDBRANCH  35  37
ENDBRANCH  32  35
ENDBRANCH  28  29
ENDBRANCH  26  28
ENDBRANCH  23  24
ENDBRANCH  22  23
ENDBRANCH   6  22
BRANCH  14  39
HETATM   39  O5  UNL     1      -6.199  50.959 -20.899  1.00  0.00    -0.395 OA
HETATM   40  H26 UNL     1      -6.460  51.336 -20.042  1.00  0.00     0.210 HD
ENDBRANCH  14  39
BRANCH  21  41
HETATM   41  O6  UNL     1      -5.118  46.132 -19.176  1.00  0.00    -0.381 OA
HETATM   42  H37 UNL     1      -4.988  46.693 -18.381  1.00  0.00     0.211 HD
ENDBRANCH  21  41
BRANCH  21  43
HETATM   43  C30 UNL     1      -7.489  46.400 -18.676  1.00  0.00     0.184 C 
HETATM   44  O7  UNL     1      -8.596  45.901 -18.886  1.00  0.00    -0.292 OA
BRANCH  43  45
HETATM   45  C31 UNL     1      -7.173  46.971 -17.298  1.00  0.00     0.245 C 
BRANCH  45  46
HETATM   46  O8  UNL     1      -8.033  48.037 -16.932  1.00  0.00    -0.393 OA
HETATM   47  H40 UNL     1      -7.717  48.823 -17.420  1.00  0.00     0.209 HD
ENDBRANCH  45  46
ENDBRANCH  43  45
ENDBRANCH  21  43
TORSDOF 12
ENDMDL
MODEL 5
REMARK minimizedAffinity -8.16261387
REMARK CNNscore 0.451691031
REMARK CNNaffinity 5.8609066
REMARK  12 active torsions:
REMARK  status: ('A' for Active; 'I' for Inactive)
REMARK    1  A    between atoms: N1_6  and  O1_8 
REMARK    2  A    between atoms: O1_8  and  C6_9 
REMARK    3  A    between atoms: C6_9  and  C7_10 
REMARK       I    between atoms: C7_10  and  N2_12 
REMARK    4  A    between atoms: N2_12  and  C8_13 
REMARK    5  A    between atoms: C8_13  and  C9_14 
REMARK    6  A    between atoms: C12_17  and  C13_18 
REMARK    7  A    between atoms: C13_18  and  O4_20 
REMARK    8  A    between atoms: C22_29  and  O5_30 
REMARK    9  A    between atoms: C29_37  and  O6_38 
REMARK   10  A    between atoms: C29_37  and  C30_39 
REMARK   11  A    between atoms: C30_39  and  C31_41 
REMARK   12  A    between atoms: C31_41  and  O8_42 
ROOT
HETATM    1  C1  UNL     1      -4.817  48.499 -19.790  1.00  0.00     0.020 C 
HETATM    2  C2  UNL     1      -5.796  48.969 -20.888  1.00  0.00    -0.014 C 
HETATM    3  C3  UNL     1      -6.868  49.897 -20.242  1.00  0.00     0.020 C 
HETATM    4  C4  UNL     1      -7.915  49.157 -19.421  1.00  0.00     0.060 C 
HETATM    5  C5  UNL     1      -8.588  48.104 -20.273  1.00  0.00     0.032 C 
HETATM    6  N1  UNL     1      -9.846  47.777 -20.205  1.00  0.00    -0.271 N 
ATOM      7  H1  UNL     1     -10.273  47.036 -20.761  1.00  0.00     0.194 HD
HETATM    8  C16 UNL     1      -7.732  47.351 -21.225  1.00  0.00     0.030 C 
HETATM    9  C17 UNL     1      -6.462  47.714 -21.472  1.00  0.00    -0.069 C 
HETATM   10  C18 UNL     1      -5.598  46.859 -22.368  1.00  0.00     0.035 C 
HETATM   11  C19 UNL     1      -4.999  47.678 -23.502  1.00  0.00     0.010 C 
HETATM   12  C20 UNL     1      -4.205  48.885 -22.976  1.00  0.00    -0.002 C 
HETATM   13  C21 UNL     1      -5.101  49.776 -22.059  1.00  0.00     0.031 C 
HETATM   14  C22 UNL     1      -4.376  51.085 -21.629  1.00  0.00     0.124 C 
HETATM   15  C23 UNL     1      -3.735  51.842 -22.813  1.00  0.00     0.045 C 
HETATM   16  C24 UNL     1      -2.832  50.954 -23.702  1.00  0.00     0.001 C 
HETATM   17  C25 UNL     1      -1.547  50.531 -22.942  1.00  0.00     0.019 C 
HETATM   18  C26 UNL     1      -3.697  49.748 -24.145  1.00  0.00     0.002 C 
HETATM   19  C27 UNL     1      -2.862  49.084 -25.230  1.00  0.00     0.009 C 
HETATM   20  C28 UNL     1      -2.189  50.259 -25.961  1.00  0.00     0.047 C 
HETATM   21  C29 UNL     1      -2.438  51.535 -25.101  1.00  0.00     0.128 C 
ENDROOT
BRANCH   6  22
HETATM   22  O1  UNL     1     -10.547  48.563 -19.279  1.00  0.00    -0.271 OA
BRANCH  22  23
HETATM   23  C6  UNL     1     -11.919  48.636 -19.663  1.00  0.00     0.303 C 
BRANCH  23  24
HETATM   24  C7  UNL     1     -12.574  47.259 -19.631  1.00  0.00     0.244 C 
HETATM   25  O2  UNL     1     -12.093  46.320 -19.002  1.00  0.00    -0.271 OA
HETATM   26  N2  UNL     1     -13.758  47.182 -20.335  1.00  0.00    -0.355 N 
HETATM   27  H10 UNL     1     -13.976  47.980 -20.924  1.00  0.00     0.162 HD
BRANCH  26  28
HETATM   28  C8  UNL     1     -14.429  45.928 -20.575  1.00  0.00     0.161 C 
BRANCH  28  29
HETATM   29  C9  UNL     1     -15.414  46.057 -21.710  1.00  0.00    -0.040 A 
HETATM   30  C10 UNL     1     -14.967  45.985 -23.040  1.00  0.00     0.010 A 
HETATM   31  C11 UNL     1     -15.864  46.140 -24.102  1.00  0.00     0.019 A 
HETATM   32  C12 UNL     1     -17.219  46.370 -23.845  1.00  0.00     0.037 A 
HETATM   33  C14 UNL     1     -17.672  46.445 -22.521  1.00  0.00     0.019 A 
HETATM   34  C15 UNL     1     -16.773  46.295 -21.461  1.00  0.00     0.010 A 
BRANCH  32  35
HETATM   35  C13 UNL     1     -18.210  46.545 -24.936  1.00  0.00     0.176 C 
HETATM   36  O3  UNL     1     -18.185  45.989 -26.019  1.00  0.00    -0.646 OA
BRANCH  35  37
HETATM   37  O4  UNL     1     -19.189  47.409 -24.618  1.00  0.00    -0.773 OA
HETATM   38  H15 UNL     1     -19.755  47.424 -25.418  1.00  0.00     0.167 HD
ENDBRANCH  35  37
ENDBRANCH  32  35
ENDBRANCH  28  29
ENDBRANCH  26  28
ENDBRANCH  23  24
ENDBRANCH  22  23
ENDBRANCH   6  22
BRANCH  14  39
HETATM   39  O5  UNL     1      -3.379  50.828 -20.651  1.00  0.00    -0.395 OA
HETATM   40  H26 UNL     1      -3.074  51.683 -20.304  1.00  0.00     0.210 HD
ENDBRANCH  14  39
BRANCH  21  41
HETATM   41  O6  UNL     1      -3.556  52.210 -25.700  1.00  0.00    -0.381 OA
HETATM   42  H37 UNL     1      -3.668  53.062 -25.227  1.00  0.00     0.211 HD
ENDBRANCH  21  41
BRANCH  21  43
HETATM   43  C30 UNL     1      -1.204  52.478 -25.117  1.00  0.00     0.184 C 
HETATM   44  O7  UNL     1      -1.203  53.603 -24.613  1.00  0.00    -0.292 OA
BRANCH  43  45
HETATM   45  C31 UNL     1       0.052  51.969 -25.815  1.00  0.00     0.245 C 
BRANCH  45  46
HETATM   46  O8  UNL     1       0.786  53.001 -26.453  1.00  0.00    -0.393 OA
HETATM   47  H40 UNL     1       0.308  53.204 -27.282  1.00  0.00     0.209 HD
ENDBRANCH  45  46
ENDBRANCH  43  45
ENDBRANCH  21  43
TORSDOF 12
ENDMDL
MODEL 6
REMARK minimizedAffinity -10.0428581
REMARK CNNscore 0.446246207
REMARK CNNaffinity 6.5567131
REMARK  12 active torsions:
REMARK  status: ('A' for Active; 'I' for Inactive)
REMARK    1  A    between atoms: N1_6  and  O1_8 
REMARK    2  A    between atoms: O1_8  and  C6_9 
REMARK    3  A    between atoms: C6_9  and  C7_10 
REMARK       I    between atoms: C7_10  and  N2_12 
REMARK    4  A    between atoms: N2_12  and  C8_13 
REMARK    5  A    between atoms: C8_13  and  C9_14 
REMARK    6  A    between atoms: C12_17  and  C13_18 
REMARK    7  A    between atoms: C13_18  and  O4_20 
REMARK    8  A    between atoms: C22_29  and  O5_30 
REMARK    9  A    between atoms: C29_37  and  O6_38 
REMARK   10  A    between atoms: C29_37  and  C30_39 
REMARK   11  A    between atoms: C30_39  and  C31_41 
REMARK   12  A    between atoms: C31_41  and  O8_42 
ROOT
HETATM    1  C1  UNL     1       0.452  50.194 -20.746  1.00  0.00     0.020 C 
HETATM    2  C2  UNL     1      -0.982  50.749 -20.894  1.00  0.00    -0.014 C 
HETATM    3  C3  UNL     1      -1.166  51.936 -19.903  1.00  0.00     0.020 C 
HETATM    4  C4  UNL     1      -1.324  51.513 -18.450  1.00  0.00     0.060 C 
HETATM    5  C5  UNL     1      -2.480  50.545 -18.318  1.00  0.00     0.032 C 
HETATM    6  N1  UNL     1      -3.304  50.495 -17.312  1.00  0.00    -0.271 N 
ATOM      7  H1  UNL     1      -4.053  49.809 -17.223  1.00  0.00     0.194 HD
HETATM    8  C16 UNL     1      -2.653  49.543 -19.400  1.00  0.00     0.030 C 
HETATM    9  C17 UNL     1      -1.950  49.609 -20.543  1.00  0.00    -0.069 C 
HETATM   10  C18 UNL     1      -2.085  48.511 -21.571  1.00  0.00     0.035 C 
HETATM   11  C19 UNL     1      -2.453  49.075 -22.936  1.00  0.00     0.010 C 
HETATM   12  C20 UNL     1      -1.445  50.135 -23.406  1.00  0.00    -0.002 C 
HETATM   13  C21 UNL     1      -1.314  51.277 -22.349  1.00  0.00     0.031 C 
HETATM   14  C22 UNL     1      -0.415  52.443 -22.857  1.00  0.00     0.124 C 
HETATM   15  C23 UNL     1      -0.796  52.932 -24.271  1.00  0.00     0.045 C 
HETATM   16  C24 UNL     1      -0.901  51.794 -25.315  1.00  0.00     0.001 C 
HETATM   17  C25 UNL     1       0.495  51.189 -25.621  1.00  0.00     0.019 C 
HETATM   18  C26 UNL     1      -1.897  50.757 -24.739  1.00  0.00     0.002 C 
HETATM   19  C27 UNL     1      -2.177  49.833 -25.915  1.00  0.00     0.009 C 
HETATM   20  C28 UNL     1      -2.173  50.767 -27.138  1.00  0.00     0.047 C 
HETATM   21  C29 UNL     1      -1.620  52.144 -26.662  1.00  0.00     0.128 C 
ENDROOT
BRANCH   6  22
HETATM   22  O1  UNL     1      -3.042  51.494 -16.364  1.00  0.00    -0.271 OA
BRANCH  22  23
HETATM   23  C6  UNL     1      -2.868  50.896 -15.080  1.00  0.00     0.303 C 
BRANCH  23  24
HETATM   24  C7  UNL     1      -3.372  51.814 -13.972  1.00  0.00     0.244 C 
HETATM   25  O2  UNL     1      -4.053  52.810 -14.206  1.00  0.00    -0.271 OA
HETATM   26  N2  UNL     1      -3.027  51.406 -12.700  1.00  0.00    -0.355 N 
HETATM   27  H10 UNL     1      -2.349  50.651 -12.646  1.00  0.00     0.162 HD
BRANCH  26  28
HETATM   28  C8  UNL     1      -3.252  52.232 -11.540  1.00  0.00     0.161 C 
BRANCH  28  29
HETATM   29  C9  UNL     1      -2.024  53.049 -11.219  1.00  0.00    -0.040 A 
HETATM   30  C10 UNL     1      -0.771  52.658 -11.718  1.00  0.00     0.010 A 
HETATM   31  C11 UNL     1       0.381  53.385 -11.399  1.00  0.00     0.019 A 
HETATM   32  C12 UNL     1       0.291  54.512 -10.575  1.00  0.00     0.037 A 
HETATM   33  C14 UNL     1      -0.956  54.906 -10.072  1.00  0.00     0.019 A 
HETATM   34  C15 UNL     1      -2.106  54.175 -10.388  1.00  0.00     0.010 A 
BRANCH  32  35
HETATM   35  C13 UNL     1       1.483  55.314 -10.204  1.00  0.00     0.176 C 
HETATM   36  O3  UNL     1       1.713  55.784  -9.105  1.00  0.00    -0.646 OA
BRANCH  35  37
HETATM   37  O4  UNL     1       2.333  55.489 -11.230  1.00  0.00    -0.773 OA
HETATM   38  H15 UNL     1       3.056  56.026 -10.844  1.00  0.00     0.167 HD
ENDBRANCH  35  37
ENDBRANCH  32  35
ENDBRANCH  28  29
ENDBRANCH  26  28
ENDBRANCH  23  24
ENDBRANCH  22  23
ENDBRANCH   6  22
BRANCH  14  39
HETATM   39  O5  UNL     1       0.958  52.079 -22.848  1.00  0.00    -0.395 OA
HETATM   40  H26 UNL     1       1.480  52.882 -23.016  1.00  0.00     0.210 HD
ENDBRANCH  14  39
BRANCH  21  41
HETATM   41  O6  UNL     1      -2.766  52.975 -26.421  1.00  0.00    -0.381 OA
HETATM   42  H37 UNL     1      -2.434  53.874 -26.208  1.00  0.00     0.211 HD
ENDBRANCH  21  41
BRANCH  21  43
HETATM   43  C30 UNL     1      -0.729  52.804 -27.749  1.00  0.00     0.184 C 
HETATM   44  O7  UNL     1      -0.035  52.162 -28.540  1.00  0.00    -0.292 OA
BRANCH  43  45
HETATM   45  C31 UNL     1      -0.716  54.328 -27.807  1.00  0.00     0.245 C 
BRANCH  45  46
HETATM   46  O8  UNL     1       0.123  54.910 -26.823  1.00  0.00    -0.393 OA
HETATM   47  H40 UNL     1      -0.372  54.865 -25.980  1.00  0.00     0.209 HD
ENDBRANCH  45  46
ENDBRANCH  43  45
ENDBRANCH  21  43
TORSDOF 12
ENDMDL
MODEL 7
REMARK minimizedAffinity -8.37402344
REMARK CNNscore 0.382997215
REMARK CNNaffinity 6.80204153
REMARK  12 active torsions:
REMARK  status: ('A' for Active; 'I' for Inactive)
REMARK    1  A    between atoms: N1_6  and  O1_8 
REMARK    2  A    between atoms: O1_8  and  C6_9 
REMARK    3  A    between atoms: C6_9  and  C7_10 
REMARK       I    between atoms: C7_10  and  N2_12 
REMARK    4  A    between atoms: N2_12  and  C8_13 
REMARK    5  A    between atoms: C8_13  and  C9_14 
REMARK    6  A    between atoms: C12_17  and  C13_18 
REMARK    7  A    between atoms: C13_18  and  O4_20 
REMARK    8  A    between atoms: C22_29  and  O5_30 
REMARK    9  A    between atoms: C29_37  and  O6_38 
REMARK   10  A    between atoms: C29_37  and  C30_39 
REMARK   11  A    between atoms: C30_39  and  C31_41 
REMARK   12  A    between atoms: C31_41  and  O8_42 
ROOT
HETATM    1  C1  UNL     1       0.132  50.080 -20.417  1.00  0.00     0.020 C 
HETATM    2  C2  UNL     1      -1.340  50.541 -20.498  1.00  0.00    -0.014 C 
HETATM    3  C3  UNL     1      -1.563  51.693 -19.473  1.00  0.00     0.020 C 
HETATM    4  C4  UNL     1      -1.636  51.228 -18.025  1.00  0.00     0.060 C 
HETATM    5  C5  UNL     1      -2.720  50.183 -17.874  1.00  0.00     0.032 C 
HETATM    6  N1  UNL     1      -3.499  50.057 -16.838  1.00  0.00    -0.271 N 
ATOM      7  H1  UNL     1      -4.197  49.320 -16.738  1.00  0.00     0.194 HD
HETATM    8  C16 UNL     1      -2.868  49.195 -18.972  1.00  0.00     0.030 C 
HETATM    9  C17 UNL     1      -2.216  49.332 -20.139  1.00  0.00    -0.069 C 
HETATM   10  C18 UNL     1      -2.318  48.250 -21.187  1.00  0.00     0.035 C 
HETATM   11  C19 UNL     1      -2.775  48.817 -22.523  1.00  0.00     0.010 C 
HETATM   12  C20 UNL     1      -1.858  49.952 -23.005  1.00  0.00    -0.002 C 
HETATM   13  C21 UNL     1      -1.762  51.077 -21.926  1.00  0.00     0.031 C 
HETATM   14  C22 UNL     1      -0.962  52.311 -22.440  1.00  0.00     0.124 C 
HETATM   15  C23 UNL     1      -1.429  52.804 -23.827  1.00  0.00     0.045 C 
HETATM   16  C24 UNL     1      -1.499  51.684 -24.893  1.00  0.00     0.001 C 
HETATM   17  C25 UNL     1      -0.079  51.180 -25.265  1.00  0.00     0.019 C 
HETATM   18  C26 UNL     1      -2.401  50.571 -24.305  1.00  0.00     0.002 C 
HETATM   19  C27 UNL     1      -2.665  49.656 -25.492  1.00  0.00     0.009 C 
HETATM   20  C28 UNL     1      -2.771  50.614 -26.691  1.00  0.00     0.047 C 
HETATM   21  C29 UNL     1      -2.291  52.014 -26.203  1.00  0.00     0.128 C 
ENDROOT
BRANCH   6  22
HETATM   22  O1  UNL     1      -3.266  51.050 -15.877  1.00  0.00    -0.271 OA
BRANCH  22  23
HETATM   23  C6  UNL     1      -2.879  50.439 -14.648  1.00  0.00     0.303 C 
BRANCH  23  24
HETATM   24  C7  UNL     1      -1.366  50.488 -14.462  1.00  0.00     0.244 C 
HETATM   25  O2  UNL     1      -0.730  51.537 -14.542  1.00  0.00    -0.271 OA
HETATM   26  N2  UNL     1      -0.794  49.269 -14.163  1.00  0.00    -0.355 N 
HETATM   27  H10 UNL     1      -1.400  48.460 -14.263  1.00  0.00     0.162 HD
BRANCH  26  28
HETATM   28  C8  UNL     1       0.635  49.077 -14.132  1.00  0.00     0.161 C 
BRANCH  28  29
HETATM   29  C9  UNL     1       0.978  47.609 -14.193  1.00  0.00    -0.040 A 
HETATM   30  C10 UNL     1       2.321  47.205 -14.276  1.00  0.00     0.010 A 
HETATM   31  C11 UNL     1       2.652  45.849 -14.369  1.00  0.00     0.019 A 
HETATM   32  C12 UNL     1       1.642  44.882 -14.382  1.00  0.00     0.037 A 
HETATM   33  C14 UNL     1       0.300  45.278 -14.302  1.00  0.00     0.019 A 
HETATM   34  C15 UNL     1      -0.029  46.634 -14.213  1.00  0.00     0.010 A 
BRANCH  32  35
HETATM   35  C13 UNL     1       1.940  43.431 -14.484  1.00  0.00     0.176 C 
HETATM   36  O3  UNL     1       2.227  42.832 -15.504  1.00  0.00    -0.646 OA
BRANCH  35  37
HETATM   37  O4  UNL     1       1.867  42.800 -13.300  1.00  0.00    -0.773 OA
HETATM   38  H15 UNL     1       2.082  41.869 -13.519  1.00  0.00     0.167 HD
ENDBRANCH  35  37
ENDBRANCH  32  35
ENDBRANCH  28  29
ENDBRANCH  26  28
ENDBRANCH  23  24
ENDBRANCH  22  23
ENDBRANCH   6  22
BRANCH  14  39
HETATM   39  O5  UNL     1       0.432  52.040 -22.491  1.00  0.00    -0.395 OA
HETATM   40  H26 UNL     1       0.892  52.879 -22.659  1.00  0.00     0.210 HD
ENDBRANCH  14  39
BRANCH  21  41
HETATM   41  O6  UNL     1      -3.479  52.762 -25.899  1.00  0.00    -0.381 OA
HETATM   42  H37 UNL     1      -3.199  53.675 -25.677  1.00  0.00     0.211 HD
ENDBRANCH  21  41
BRANCH  21  43
HETATM   43  C30 UNL     1      -1.489  52.756 -27.307  1.00  0.00     0.184 C 
HETATM   44  O7  UNL     1      -1.889  53.780 -27.864  1.00  0.00    -0.292 OA
BRANCH  43  45
HETATM   45  C31 UNL     1      -0.150  52.152 -27.718  1.00  0.00     0.245 C 
BRANCH  45  46
HETATM   46  O8  UNL     1      -0.177  51.583 -29.017  1.00  0.00    -0.393 OA
HETATM   47  H40 UNL     1      -0.631  50.721 -28.928  1.00  0.00     0.209 HD
ENDBRANCH  45  46
ENDBRANCH  43  45
ENDBRANCH  21  43
TORSDOF 12
ENDMDL
MODEL 8
REMARK minimizedAffinity -8.62499142
REMARK CNNscore 0.370865405
REMARK CNNaffinity 5.69910431
REMARK  12 active torsions:
REMARK  status: ('A' for Active; 'I' for Inactive)
REMARK    1  A    between atoms: N1_6  and  O1_8 
REMARK    2  A    between atoms: O1_8  and  C6_9 
REMARK    3  A    between atoms: C6_9  and  C7_10 
REMARK       I    between atoms: C7_10  and  N2_12 
REMARK    4  A    between atoms: N2_12  and  C8_13 
REMARK    5  A    between atoms: C8_13  and  C9_14 
REMARK    6  A    between atoms: C12_17  and  C13_18 
REMARK    7  A    between atoms: C13_18  and  O4_20 
REMARK    8  A    between atoms: C22_29  and  O5_30 
REMARK    9  A    between atoms: C29_37  and  O6_38 
REMARK   10  A    between atoms: C29_37  and  C30_39 
REMARK   11  A    between atoms: C30_39  and  C31_41 
REMARK   12  A    between atoms: C31_41  and  O8_42 
ROOT
HETATM    1  C1  UNL     1      -6.370  46.720 -20.432  1.00  0.00     0.020 C 
HETATM    2  C2  UNL     1      -7.235  47.716 -21.236  1.00  0.00    -0.014 C 
HETATM    3  C3  UNL     1      -8.014  48.623 -20.239  1.00  0.00     0.020 C 
HETATM    4  C4  UNL     1      -9.186  47.931 -19.557  1.00  0.00     0.060 C 
HETATM    5  C5  UNL     1     -10.132  47.375 -20.598  1.00  0.00     0.032 C 
HETATM    6  N1  UNL     1     -11.429  47.344 -20.491  1.00  0.00    -0.271 N 
ATOM      7  H1  UNL     1     -12.048  46.928 -21.187  1.00  0.00     0.194 HD
HETATM    8  C16 UNL     1      -9.527  46.772 -21.813  1.00  0.00     0.030 C 
HETATM    9  C17 UNL     1      -8.215  46.889 -22.081  1.00  0.00    -0.069 C 
HETATM   10  C18 UNL     1      -7.627  46.173 -23.273  1.00  0.00     0.035 C 
HETATM   11  C19 UNL     1      -6.878  47.137 -24.182  1.00  0.00     0.010 C 
HETATM   12  C20 UNL     1      -5.787  47.908 -23.420  1.00  0.00    -0.002 C 
HETATM   13  C21 UNL     1      -6.398  48.658 -22.194  1.00  0.00     0.031 C 
HETATM   14  C22 UNL     1      -5.350  49.568 -21.487  1.00  0.00     0.124 C 
HETATM   15  C23 UNL     1      -4.579  50.480 -22.466  1.00  0.00     0.045 C 
HETATM   16  C24 UNL     1      -3.960  49.722 -23.665  1.00  0.00     0.001 C 
HETATM   17  C25 UNL     1      -2.799  48.802 -23.202  1.00  0.00     0.019 C 
HETATM   18  C26 UNL     1      -5.117  48.944 -24.339  1.00  0.00     0.002 C 
HETATM   19  C27 UNL     1      -4.514  48.468 -25.654  1.00  0.00     0.009 C 
HETATM   20  C28 UNL     1      -3.590  49.622 -26.084  1.00  0.00     0.047 C 
HETATM   21  C29 UNL     1      -3.479  50.596 -24.872  1.00  0.00     0.128 C 
ENDROOT
BRANCH   6  22
HETATM   22  O1  UNL     1     -11.877  47.948 -19.308  1.00  0.00    -0.271 OA
BRANCH  22  23
HETATM   23  C6  UNL     1     -12.770  47.064 -18.632  1.00  0.00     0.303 C 
BRANCH  23  24
HETATM   24  C7  UNL     1     -14.222  47.476 -18.850  1.00  0.00     0.244 C 
HETATM   25  O2  UNL     1     -14.584  48.650 -18.797  1.00  0.00    -0.271 OA
HETATM   26  N2  UNL     1     -15.068  46.427 -19.143  1.00  0.00    -0.355 N 
HETATM   27  H10 UNL     1     -14.679  45.497 -19.020  1.00  0.00     0.162 HD
BRANCH  26  28
HETATM   28  C8  UNL     1     -16.500  46.588 -19.201  1.00  0.00     0.161 C 
BRANCH  28  29
HETATM   29  C9  UNL     1     -16.980  46.601 -20.631  1.00  0.00    -0.040 A 
HETATM   30  C10 UNL     1     -18.356  46.581 -20.911  1.00  0.00     0.010 A 
HETATM   31  C11 UNL     1     -18.814  46.557 -22.232  1.00  0.00     0.019 A 
HETATM   32  C12 UNL     1     -17.898  46.549 -23.290  1.00  0.00     0.037 A 
HETATM   33  C14 UNL     1     -16.524  46.567 -23.018  1.00  0.00     0.019 A 
HETATM   34  C15 UNL     1     -16.068  46.587 -21.697  1.00  0.00     0.010 A 
BRANCH  32  35
HETATM   35  C13 UNL     1     -18.333  46.519 -24.709  1.00  0.00     0.176 C 
HETATM   36  O3  UNL     1     -19.377  46.969 -25.145  1.00  0.00    -0.646 OA
BRANCH  35  37
HETATM   37  O4  UNL     1     -17.436  45.928 -25.516  1.00  0.00    -0.773 OA
HETATM   38  H15 UNL     1     -17.851  45.979 -26.402  1.00  0.00     0.167 HD
ENDBRANCH  35  37
ENDBRANCH  32  35
ENDBRANCH  28  29
ENDBRANCH  26  28
ENDBRANCH  23  24
ENDBRANCH  22  23
ENDBRANCH   6  22
BRANCH  14  39
HETATM   39  O5  UNL     1      -4.419  48.801 -20.738  1.00  0.00    -0.395 OA
HETATM   40  H26 UNL     1      -3.896  49.414 -20.195  1.00  0.00     0.210 HD
ENDBRANCH  14  39
BRANCH  21  41
HETATM   41  O6  UNL     1      -4.408  51.660 -25.127  1.00  0.00    -0.381 OA
HETATM   42  H37 UNL     1      -4.286  52.329 -24.419  1.00  0.00     0.211 HD
ENDBRANCH  21  41
BRANCH  21  43
HETATM   43  C30 UNL     1      -2.047  51.186 -24.749  1.00  0.00     0.184 C 
HETATM   44  O7  UNL     1      -1.249  50.852 -23.871  1.00  0.00    -0.292 OA
BRANCH  43  45
HETATM   45  C31 UNL     1      -1.643  52.246 -25.767  1.00  0.00     0.245 C 
BRANCH  45  46
HETATM   46  O8  UNL     1      -0.969  53.347 -25.180  1.00  0.00    -0.393 OA
HETATM   47  H40 UNL     1      -1.660  53.897 -24.760  1.00  0.00     0.209 HD
ENDBRANCH  45  46
ENDBRANCH  43  45
ENDBRANCH  21  43
TORSDOF 12
ENDMDL
MODEL 9
REMARK minimizedAffinity -8.36223507
REMARK CNNscore 0.320751637
REMARK CNNaffinity 5.66326475
REMARK  12 active torsions:
REMARK  status: ('A' for Active; 'I' for Inactive)
REMARK    1  A    between atoms: N1_6  and  O1_8 
REMARK    2  A    between atoms: O1_8  and  C6_9 
REMARK    3  A    between atoms: C6_9  and  C7_10 
REMARK       I    between atoms: C7_10  and  N2_12 
REMARK    4  A    between atoms: N2_12  and  C8_13 
REMARK    5  A    between atoms: C8_13  and  C9_14 
REMARK    6  A    between atoms: C12_17  and  C13_18 
REMARK    7  A    between atoms: C13_18  and  O4_20 
REMARK    8  A    between atoms: C22_29  and  O5_30 
REMARK    9  A    between atoms: C29_37  and  O6_38 
REMARK   10  A    between atoms: C29_37  and  C30_39 
REMARK   11  A    between atoms: C30_39  and  C31_41 
REMARK   12  A    between atoms: C31_41  and  O8_42 
ROOT
HETATM    1  C1  UNL     1     -10.401  44.747 -26.998  1.00  0.00     0.020 C 
HETATM    2  C2  UNL     1     -10.879  46.183 -27.305  1.00  0.00    -0.014 C 
HETATM    3  C3  UNL     1     -10.983  46.975 -25.967  1.00  0.00     0.020 C 
HETATM    4  C4  UNL     1     -12.188  46.599 -25.117  1.00  0.00     0.060 C 
HETATM    5  C5  UNL     1     -13.459  46.771 -25.920  1.00  0.00     0.032 C 
HETATM    6  N1  UNL     1     -14.594  47.194 -25.444  1.00  0.00    -0.271 N 
ATOM      7  H1  UNL     1     -15.450  47.266 -25.993  1.00  0.00     0.194 HD
HETATM    8  C16 UNL     1     -13.416  46.377 -27.351  1.00  0.00     0.030 C 
HETATM    9  C17 UNL     1     -12.260  46.072 -27.966  1.00  0.00    -0.069 C 
HETATM   10  C18 UNL     1     -12.277  45.579 -29.392  1.00  0.00     0.035 C 
HETATM   11  C19 UNL     1     -11.368  46.418 -30.278  1.00  0.00     0.010 C 
HETATM   12  C20 UNL     1      -9.930  46.464 -29.738  1.00  0.00    -0.002 C 
HETATM   13  C21 UNL     1      -9.911  46.985 -28.267  1.00  0.00     0.031 C 
HETATM   14  C22 UNL     1      -8.459  47.186 -27.738  1.00  0.00     0.124 C 
HETATM   15  C23 UNL     1      -7.566  47.992 -28.706  1.00  0.00     0.045 C 
HETATM   16  C24 UNL     1      -7.576  47.453 -30.156  1.00  0.00     0.001 C 
HETATM   17  C25 UNL     1      -6.868  46.074 -30.242  1.00  0.00     0.019 C 
HETATM   18  C26 UNL     1      -9.060  47.399 -30.596  1.00  0.00     0.002 C 
HETATM   19  C27 UNL     1      -8.983  47.148 -32.096  1.00  0.00     0.009 C 
HETATM   20  C28 UNL     1      -7.747  47.946 -32.549  1.00  0.00     0.047 C 
HETATM   21  C29 UNL     1      -6.998  48.401 -31.260  1.00  0.00     0.128 C 
ENDROOT
BRANCH   6  22
HETATM   22  O1  UNL     1     -14.503  47.540 -24.089  1.00  0.00    -0.271 OA
BRANCH  22  23
HETATM   23  C6  UNL     1     -15.679  47.105 -23.408  1.00  0.00     0.303 C 
BRANCH  23  24
HETATM   24  C7  UNL     1     -15.460  47.067 -21.899  1.00  0.00     0.244 C 
HETATM   25  O2  UNL     1     -14.681  47.830 -21.332  1.00  0.00    -0.271 OA
HETATM   26  N2  UNL     1     -16.235  46.135 -21.240  1.00  0.00    -0.355 N 
HETATM   27  H10 UNL     1     -16.731  45.474 -21.831  1.00  0.00     0.162 HD
BRANCH  26  28
HETATM   28  C8  UNL     1     -16.041  45.823 -19.846  1.00  0.00     0.161 C 
BRANCH  28  29
HETATM   29  C9  UNL     1     -17.320  45.312 -19.230  1.00  0.00    -0.040 A 
HETATM   30  C10 UNL     1     -17.347  44.051 -18.612  1.00  0.00     0.010 A 
HETATM   31  C11 UNL     1     -18.534  43.549 -18.068  1.00  0.00     0.019 A 
HETATM   32  C12 UNL     1     -19.710  44.305 -18.139  1.00  0.00     0.037 A 
HETATM   33  C14 UNL     1     -19.690  45.562 -18.756  1.00  0.00     0.019 A 
HETATM   34  C15 UNL     1     -18.504  46.060 -19.303  1.00  0.00     0.010 A 
BRANCH  32  35
HETATM   35  C13 UNL     1     -20.995  43.816 -17.582  1.00  0.00     0.176 C 
HETATM   36  O3  UNL     1     -22.104  44.084 -18.005  1.00  0.00    -0.646 OA
BRANCH  35  37
HETATM   37  O4  UNL     1     -20.830  43.011 -16.518  1.00  0.00    -0.773 OA
HETATM   38  H15 UNL     1     -21.745  42.772 -16.262  1.00  0.00     0.167 HD
ENDBRANCH  35  37
ENDBRANCH  32  35
ENDBRANCH  28  29
ENDBRANCH  26  28
ENDBRANCH  23  24
ENDBRANCH  22  23
ENDBRANCH   6  22
BRANCH  14  39
HETATM   39  O5  UNL     1      -7.833  45.942 -27.458  1.00  0.00    -0.395 OA
HETATM   40  H26 UNL     1      -7.004  46.126 -26.986  1.00  0.00     0.210 HD
ENDBRANCH  14  39
BRANCH  21  41
HETATM   41  O6  UNL     1      -7.400  49.758 -31.020  1.00  0.00    -0.381 OA
HETATM   42  H37 UNL     1      -6.869  50.090 -30.265  1.00  0.00     0.211 HD
ENDBRANCH  21  41
BRANCH  21  43
HETATM   43  C30 UNL     1      -5.458  48.351 -31.452  1.00  0.00     0.184 C 
HETATM   44  O7  UNL     1      -4.654  48.728 -30.597  1.00  0.00    -0.292 OA
BRANCH  43  45
HETATM   45  C31 UNL     1      -4.940  47.822 -32.786  1.00  0.00     0.245 C 
BRANCH  45  46
HETATM   46  O8  UNL     1      -3.569  48.112 -33.000  1.00  0.00    -0.393 OA
HETATM   47  H40 UNL     1      -3.526  49.052 -33.263  1.00  0.00     0.209 HD
ENDBRANCH  45  46
ENDBRANCH  43  45
ENDBRANCH  21  43
TORSDOF 12
ENDMDL
