MODEL 1
REMARK minimizedAffinity -7.25549603
REMARK CNNscore 0.7830863
REMARK CNNaffinity 7.13837862
REMARK  10 active torsions:
REMARK  status: ('A' for Active; 'I' for Inactive)
REMARK    1  A    between atoms: C2_2  and  O1_3 
REMARK    2  A    between atoms: O1_3  and  C3_4 
REMARK    3  A    between atoms: C3_4  and  C4_6 
REMARK    4  A    between atoms: C4_6  and  C5_7 
REMARK    5  A    between atoms: C5_7  and  C6_8 
REMARK    6  A    between atoms: C6_8  and  C8_10 
REMARK    7  A    between atoms: C13_15  and  O3_16 
REMARK    8  A    between atoms: C17_21  and  O4_22 
REMARK    9  A    between atoms: C24_29  and  O5_30 
REMARK   10  A    between atoms: O5_30  and  C25_31 
ROOT
HETATM    1  C8  UNL     1      -0.868  50.138 -16.144  1.00  0.00     0.000 C 
HETATM    2  C9  UNL     1      -2.058  49.172 -15.843  1.00  0.00     0.006 C 
HETATM    3  C10 UNL     1      -1.899  48.660 -14.418  1.00  0.00     0.006 C 
HETATM    4  C11 UNL     1      -0.950  49.655 -13.751  1.00  0.00     0.003 C 
HETATM    5  C12 UNL     1      -1.723  50.914 -13.206  1.00  0.00     0.025 C 
HETATM    6  C13 UNL     1      -2.636  50.533 -12.011  1.00  0.00     0.137 C 
HETATM    7  C14 UNL     1      -2.832  51.636 -10.968  1.00  0.00     0.092 C 
HETATM    8 BR1  UNL     1      -3.909  53.113 -11.678  1.00  0.00    -0.088 Br
HETATM    9  C15 UNL     1      -1.483  52.065 -10.377  1.00  0.00     0.013 C 
HETATM   10  C16 UNL     1      -1.632  53.148  -9.286  1.00  0.00     0.038 C 
HETATM   11  C17 UNL     1      -0.279  53.565  -8.730  1.00  0.00     0.118 C 
HETATM   12  C18 UNL     1       0.607  54.173  -9.816  1.00  0.00     0.032 C 
HETATM   13  C19 UNL     1       0.182  53.805 -11.240  1.00  0.00     0.012 C 
HETATM   14  C20 UNL     1      -0.334  52.342 -11.426  1.00  0.00    -0.035 C 
HETATM   15  C21 UNL     1       0.845  51.390 -11.111  1.00  0.00     0.016 C 
HETATM   16  C22 UNL     1      -0.835  52.156 -12.916  1.00  0.00     0.003 C 
HETATM   17  C23 UNL     1       0.201  52.367 -14.034  1.00  0.00     0.039 C 
HETATM   18  C24 UNL     1       0.979  51.119 -14.439  1.00  0.00     0.141 C 
HETATM   19  C27 UNL     1       0.081  49.941 -14.902  1.00  0.00    -0.009 C 
HETATM   20  C28 UNL     1       1.001  48.708 -15.117  1.00  0.00     0.018 C 
ENDROOT
BRANCH   1  21
HETATM   21  C6  UNL     1      -0.384  49.913 -17.620  1.00  0.00    -0.013 C 
HETATM   22  C7  UNL     1      -1.293  48.866 -18.303  1.00  0.00     0.010 C 
BRANCH  21  23
HETATM   23  C5  UNL     1      -0.339  51.198 -18.471  1.00  0.00     0.014 C 
BRANCH  23  24
HETATM   24  C4  UNL     1      -0.011  51.030 -19.956  1.00  0.00     0.111 C 
BRANCH  24  25
HETATM   25  C3  UNL     1      -0.380  52.259 -20.747  1.00  0.00     0.258 C 
HETATM   26  O2  UNL     1      -1.067  52.240 -21.758  1.00  0.00    -0.265 OA
BRANCH  25  27
HETATM   27  O1  UNL     1       0.134  53.377 -20.166  1.00  0.00    -0.322 OA
BRANCH  27  28
HETATM   28  C2  UNL     1       1.502  53.637 -20.499  1.00  0.00     0.174 C 
HETATM   29  C1  UNL     1       1.529  54.471 -21.766  1.00  0.00     0.034 C 
ENDBRANCH  27  28
ENDBRANCH  25  27
ENDBRANCH  24  25
ENDBRANCH  23  24
ENDBRANCH  21  23
ENDBRANCH   1  21
BRANCH  18  30
HETATM   30  O5  UNL     1       1.926  51.491 -15.452  1.00  0.00    -0.316 OA
BRANCH  30  31
HETATM   31  C25 UNL     1       3.226  51.620 -15.069  1.00  0.00     0.255 C 
HETATM   32  C26 UNL     1       3.937  52.561 -15.991  1.00  0.00     0.126 C 
HETATM   33  O6  UNL     1       3.751  51.045 -14.126  1.00  0.00    -0.266 OA
ENDBRANCH  30  31
ENDBRANCH  18  30
BRANCH   6  34
HETATM   34  O3  UNL     1      -3.897  50.067 -12.500  1.00  0.00    -0.394 OA
HETATM   35  H22 UNL     1      -4.516  49.991 -11.754  1.00  0.00     0.210 HD
ENDBRANCH   6  34
BRANCH  11  36
HETATM   36  O4  UNL     1      -0.484  54.513  -7.687  1.00  0.00    -0.396 OA
HETATM   37  H28 UNL     1       0.391  54.802  -7.377  1.00  0.00     0.210 HD
ENDBRANCH  11  36
TORSDOF 10
ENDMDL
MODEL 2
REMARK minimizedAffinity -8.31381798
REMARK CNNscore 0.719282806
REMARK CNNaffinity 7.62846565
REMARK  10 active torsions:
REMARK  status: ('A' for Active; 'I' for Inactive)
REMARK    1  A    between atoms: C2_2  and  O1_3 
REMARK    2  A    between atoms: O1_3  and  C3_4 
REMARK    3  A    between atoms: C3_4  and  C4_6 
REMARK    4  A    between atoms: C4_6  and  C5_7 
REMARK    5  A    between atoms: C5_7  and  C6_8 
REMARK    6  A    between atoms: C6_8  and  C8_10 
REMARK    7  A    between atoms: C13_15  and  O3_16 
REMARK    8  A    between atoms: C17_21  and  O4_22 
REMARK    9  A    between atoms: C24_29  and  O5_30 
REMARK   10  A    between atoms: O5_30  and  C25_31 
ROOT
HETATM    1  C8  UNL     1      -2.989  49.026 -20.359  1.00  0.00     0.000 C 
HETATM    2  C9  UNL     1      -4.450  48.606 -20.714  1.00  0.00     0.006 C 
HETATM    3  C10 UNL     1      -5.076  49.728 -21.531  1.00  0.00     0.006 C 
HETATM    4  C11 UNL     1      -3.890  50.539 -22.051  1.00  0.00     0.003 C 
HETATM    5  C12 UNL     1      -3.299  49.917 -23.371  1.00  0.00     0.025 C 
HETATM    6  C13 UNL     1      -4.296  50.064 -24.551  1.00  0.00     0.137 C 
HETATM    7  C14 UNL     1      -3.648  50.216 -25.930  1.00  0.00     0.092 C 
HETATM    8 BR1  UNL     1      -2.784  48.553 -26.504  1.00  0.00    -0.088 Br
HETATM    9  C15 UNL     1      -2.734  51.447 -25.964  1.00  0.00     0.013 C 
HETATM   10  C16 UNL     1      -2.090  51.669 -27.350  1.00  0.00     0.038 C 
HETATM   11  C17 UNL     1      -1.178  52.885 -27.350  1.00  0.00     0.118 C 
HETATM   12  C18 UNL     1      -0.023  52.716 -26.366  1.00  0.00     0.032 C 
HETATM   13  C19 UNL     1      -0.276  51.657 -25.289  1.00  0.00     0.012 C 
HETATM   14  C20 UNL     1      -1.738  51.594 -24.745  1.00  0.00    -0.035 C 
HETATM   15  C21 UNL     1      -2.032  52.942 -24.045  1.00  0.00     0.016 C 
HETATM   16  C22 UNL     1      -1.861  50.384 -23.731  1.00  0.00     0.003 C 
HETATM   17  C23 UNL     1      -0.965  50.426 -22.481  1.00  0.00     0.039 C 
HETATM   18  C24 UNL     1      -1.571  51.132 -21.274  1.00  0.00     0.141 C 
HETATM   19  C27 UNL     1      -2.926  50.534 -20.810  1.00  0.00    -0.009 C 
HETATM   20  C28 UNL     1      -3.486  51.456 -19.692  1.00  0.00     0.018 C 
ENDROOT
BRANCH   1  21
HETATM   21  C6  UNL     1      -2.666  48.571 -18.891  1.00  0.00    -0.013 C 
HETATM   22  C7  UNL     1      -2.889  47.047 -18.767  1.00  0.00     0.010 C 
BRANCH  21  23
HETATM   23  C5  UNL     1      -1.241  48.929 -18.421  1.00  0.00     0.014 C 
BRANCH  23  24
HETATM   24  C4  UNL     1      -1.127  49.757 -17.139  1.00  0.00     0.111 C 
BRANCH  24  25
HETATM   25  C3  UNL     1       0.263  49.691 -16.560  1.00  0.00     0.258 C 
HETATM   26  O2  UNL     1       0.671  48.773 -15.863  1.00  0.00    -0.265 OA
BRANCH  25  27
HETATM   27  O1  UNL     1       0.994  50.774 -16.940  1.00  0.00    -0.322 OA
BRANCH  27  28
HETATM   28  C2  UNL     1       1.439  51.595 -15.855  1.00  0.00     0.174 C 
HETATM   29  C1  UNL     1       2.710  52.301 -16.287  1.00  0.00     0.034 C 
ENDBRANCH  27  28
ENDBRANCH  25  27
ENDBRANCH  24  25
ENDBRANCH  23  24
ENDBRANCH  21  23
ENDBRANCH   1  21
BRANCH  18  30
HETATM   30  O5  UNL     1      -0.600  51.121 -20.216  1.00  0.00    -0.316 OA
BRANCH  30  31
HETATM   31  C25 UNL     1      -0.062  52.319 -19.856  1.00  0.00     0.255 C 
HETATM   32  C26 UNL     1       0.981  52.727 -20.851  1.00  0.00     0.126 C 
HETATM   33  O6  UNL     1      -0.361  52.966 -18.863  1.00  0.00    -0.266 OA
ENDBRANCH  30  31
ENDBRANCH  18  30
BRANCH   6  34
HETATM   34  O3  UNL     1      -5.217  48.970 -24.540  1.00  0.00    -0.394 OA
HETATM   35  H22 UNL     1      -5.725  48.978 -25.370  1.00  0.00     0.210 HD
ENDBRANCH   6  34
BRANCH  11  36
HETATM   36  O4  UNL     1      -0.667  53.076 -28.666  1.00  0.00    -0.396 OA
HETATM   37  H28 UNL     1      -0.052  53.828 -28.636  1.00  0.00     0.210 HD
ENDBRANCH  11  36
TORSDOF 10
ENDMDL
MODEL 3
REMARK minimizedAffinity -7.97705603
REMARK CNNscore 0.679116547
REMARK CNNaffinity 7.18588448
REMARK  10 active torsions:
REMARK  status: ('A' for Active; 'I' for Inactive)
REMARK    1  A    between atoms: C2_2  and  O1_3 
REMARK    2  A    between atoms: O1_3  and  C3_4 
REMARK    3  A    between atoms: C3_4  and  C4_6 
REMARK    4  A    between atoms: C4_6  and  C5_7 
REMARK    5  A    between atoms: C5_7  and  C6_8 
REMARK    6  A    between atoms: C6_8  and  C8_10 
REMARK    7  A    between atoms: C13_15  and  O3_16 
REMARK    8  A    between atoms: C17_21  and  O4_22 
REMARK    9  A    between atoms: C24_29  and  O5_30 
REMARK   10  A    between atoms: O5_30  and  C25_31 
ROOT
HETATM    1  C8  UNL     1      -0.843  50.175 -18.296  1.00  0.00     0.000 C 
HETATM    2  C9  UNL     1      -2.037  50.145 -17.291  1.00  0.00     0.006 C 
HETATM    3  C10 UNL     1      -3.242  50.779 -17.973  1.00  0.00     0.006 C 
HETATM    4  C11 UNL     1      -2.914  50.731 -19.465  1.00  0.00     0.003 C 
HETATM    5  C12 UNL     1      -3.298  49.340 -20.095  1.00  0.00     0.025 C 
HETATM    6  C13 UNL     1      -4.838  49.149 -20.126  1.00  0.00     0.137 C 
HETATM    7  C14 UNL     1      -5.363  48.305 -21.291  1.00  0.00     0.092 C 
HETATM    8 BR1  UNL     1      -4.854  46.422 -21.101  1.00  0.00    -0.088 Br
HETATM    9  C15 UNL     1      -4.966  48.934 -22.633  1.00  0.00     0.013 C 
HETATM   10  C16 UNL     1      -5.510  48.143 -23.842  1.00  0.00     0.038 C 
HETATM   11  C17 UNL     1      -5.089  48.779 -25.157  1.00  0.00     0.118 C 
HETATM   12  C18 UNL     1      -3.569  48.795 -25.308  1.00  0.00     0.032 C 
HETATM   13  C19 UNL     1      -2.814  48.641 -23.984  1.00  0.00     0.012 C 
HETATM   14  C20 UNL     1      -3.453  49.374 -22.762  1.00  0.00    -0.035 C 
HETATM   15  C21 UNL     1      -3.418  50.892 -23.059  1.00  0.00     0.016 C 
HETATM   16  C22 UNL     1      -2.623  49.027 -21.459  1.00  0.00     0.003 C 
HETATM   17  C23 UNL     1      -1.139  49.436 -21.447  1.00  0.00     0.039 C 
HETATM   18  C24 UNL     1      -0.858  50.836 -20.913  1.00  0.00     0.141 C 
HETATM   19  C27 UNL     1      -1.382  51.076 -19.471  1.00  0.00    -0.009 C 
HETATM   20  C28 UNL     1      -1.168  52.578 -19.140  1.00  0.00     0.018 C 
ENDROOT
BRANCH   1  21
HETATM   21  C6  UNL     1       0.478  50.508 -17.515  1.00  0.00    -0.013 C 
HETATM   22  C7  UNL     1       0.734  52.031 -17.569  1.00  0.00     0.010 C 
BRANCH  21  23
HETATM   23  C5  UNL     1       0.479  50.031 -16.049  1.00  0.00     0.014 C 
BRANCH  23  24
HETATM   24  C4  UNL     1       1.191  50.928 -15.033  1.00  0.00     0.111 C 
BRANCH  24  25
HETATM   25  C3  UNL     1       2.334  50.208 -14.364  1.00  0.00     0.258 C 
HETATM   26  O2  UNL     1       2.257  49.073 -13.914  1.00  0.00    -0.265 OA
BRANCH  25  27
HETATM   27  O1  UNL     1       3.452  50.983 -14.357  1.00  0.00    -0.322 OA
BRANCH  27  28
HETATM   28  C2  UNL     1       3.316  52.219 -15.067  1.00  0.00     0.174 C 
HETATM   29  C1  UNL     1       4.399  52.277 -16.127  1.00  0.00     0.034 C 
ENDBRANCH  27  28
ENDBRANCH  25  27
ENDBRANCH  24  25
ENDBRANCH  23  24
ENDBRANCH  21  23
ENDBRANCH   1  21
BRANCH  18  30
HETATM   30  O5  UNL     1       0.555  51.075 -21.008  1.00  0.00    -0.316 OA
BRANCH  30  31
HETATM   31  C25 UNL     1       0.948  52.243 -21.586  1.00  0.00     0.255 C 
HETATM   32  C26 UNL     1       0.267  52.410 -22.909  1.00  0.00     0.126 C 
HETATM   33  O6  UNL     1       1.751  53.037 -21.115  1.00  0.00    -0.266 OA
ENDBRANCH  30  31
ENDBRANCH  18  30
BRANCH   6  34
HETATM   34  O3  UNL     1      -5.280  48.616 -18.874  1.00  0.00    -0.394 OA
HETATM   35  H22 UNL     1      -6.210  48.343 -18.959  1.00  0.00     0.210 HD
ENDBRANCH   6  34
BRANCH  11  36
HETATM   36  O4  UNL     1      -5.673  48.046 -26.230  1.00  0.00    -0.396 OA
HETATM   37  H28 UNL     1      -5.356  48.438 -27.060  1.00  0.00     0.210 HD
ENDBRANCH  11  36
TORSDOF 10
ENDMDL
MODEL 4
REMARK minimizedAffinity -6.25589561
REMARK CNNscore 0.59189719
REMARK CNNaffinity 6.21231842
REMARK  10 active torsions:
REMARK  status: ('A' for Active; 'I' for Inactive)
REMARK    1  A    between atoms: C2_2  and  O1_3 
REMARK    2  A    between atoms: O1_3  and  C3_4 
REMARK    3  A    between atoms: C3_4  and  C4_6 
REMARK    4  A    between atoms: C4_6  and  C5_7 
REMARK    5  A    between atoms: C5_7  and  C6_8 
REMARK    6  A    between atoms: C6_8  and  C8_10 
REMARK    7  A    between atoms: C13_15  and  O3_16 
REMARK    8  A    between atoms: C17_21  and  O4_22 
REMARK    9  A    between atoms: C24_29  and  O5_30 
REMARK   10  A    between atoms: O5_30  and  C25_31 
ROOT
HETATM    1  C8  UNL     1     -12.263  46.302 -27.463  1.00  0.00     0.000 C 
HETATM    2  C9  UNL     1     -11.862  47.644 -26.772  1.00  0.00     0.006 C 
HETATM    3  C10 UNL     1     -10.373  47.584 -26.458  1.00  0.00     0.006 C 
HETATM    4  C11 UNL     1      -9.829  46.478 -27.362  1.00  0.00     0.003 C 
HETATM    5  C12 UNL     1      -9.497  47.021 -28.802  1.00  0.00     0.025 C 
HETATM    6  C13 UNL     1      -8.287  47.992 -28.765  1.00  0.00     0.137 C 
HETATM    7  C14 UNL     1      -7.422  47.997 -30.028  1.00  0.00     0.092 C 
HETATM    8 BR1  UNL     1      -8.371  48.795 -31.546  1.00  0.00    -0.088 Br
HETATM    9  C15 UNL     1      -6.859  46.596 -30.301  1.00  0.00     0.013 C 
HETATM   10  C16 UNL     1      -5.941  46.558 -31.542  1.00  0.00     0.038 C 
HETATM   11  C17 UNL     1      -5.411  45.155 -31.797  1.00  0.00     0.118 C 
HETATM   12  C18 UNL     1      -6.546  44.172 -32.075  1.00  0.00     0.032 C 
HETATM   13  C19 UNL     1      -7.914  44.649 -31.579  1.00  0.00     0.012 C 
HETATM   14  C20 UNL     1      -7.902  45.411 -30.216  1.00  0.00    -0.035 C 
HETATM   15  C21 UNL     1      -7.416  44.419 -29.133  1.00  0.00     0.016 C 
HETATM   16  C22 UNL     1      -9.364  45.931 -29.901  1.00  0.00     0.003 C 
HETATM   17  C23 UNL     1     -10.468  44.868 -29.761  1.00  0.00     0.039 C 
HETATM   18  C24 UNL     1     -10.663  44.319 -28.352  1.00  0.00     0.141 C 
HETATM   19  C27 UNL     1     -10.977  45.408 -27.291  1.00  0.00    -0.009 C 
HETATM   20  C28 UNL     1     -10.983  44.717 -25.899  1.00  0.00     0.018 C 
ENDROOT
BRANCH   1  21
HETATM   21  C6  UNL     1     -13.676  45.858 -26.941  1.00  0.00    -0.013 C 
HETATM   22  C7  UNL     1     -14.196  46.898 -25.924  1.00  0.00     0.010 C 
BRANCH  21  23
HETATM   23  C5  UNL     1     -14.721  45.650 -28.055  1.00  0.00     0.014 C 
BRANCH  23  24
HETATM   24  C4  UNL     1     -16.017  44.939 -27.659  1.00  0.00     0.111 C 
BRANCH  24  25
HETATM   25  C3  UNL     1     -16.025  43.504 -28.123  1.00  0.00     0.258 C 
HETATM   26  O2  UNL     1     -15.015  42.836 -28.294  1.00  0.00    -0.265 OA
BRANCH  25  27
HETATM   27  O1  UNL     1     -17.300  43.062 -28.296  1.00  0.00    -0.322 OA
BRANCH  27  28
HETATM   28  C2  UNL     1     -17.756  43.097 -29.653  1.00  0.00     0.174 C 
HETATM   29  C1  UNL     1     -19.203  43.551 -29.655  1.00  0.00     0.034 C 
ENDBRANCH  27  28
ENDBRANCH  25  27
ENDBRANCH  24  25
ENDBRANCH  23  24
ENDBRANCH  21  23
ENDBRANCH   1  21
BRANCH  18  30
HETATM   30  O5  UNL     1     -11.691  43.317 -28.401  1.00  0.00    -0.316 OA
BRANCH  30  31
HETATM   31  C25 UNL     1     -11.292  42.017 -28.337  1.00  0.00     0.255 C 
HETATM   32  C26 UNL     1     -11.945  41.231 -29.432  1.00  0.00     0.126 C 
HETATM   33  O6  UNL     1     -10.530  41.545 -27.506  1.00  0.00    -0.266 OA
ENDBRANCH  30  31
ENDBRANCH  18  30
BRANCH   6  34
HETATM   34  O3  UNL     1      -8.742  49.313 -28.456  1.00  0.00    -0.394 OA
HETATM   35  H22 UNL     1      -8.011  49.939 -28.600  1.00  0.00     0.210 HD
ENDBRANCH   6  34
BRANCH  11  36
HETATM   36  O4  UNL     1      -4.523  45.196 -32.911  1.00  0.00    -0.396 OA
HETATM   37  H28 UNL     1      -4.232  44.286 -33.087  1.00  0.00     0.210 HD
ENDBRANCH  11  36
TORSDOF 10
ENDMDL
MODEL 5
REMARK minimizedAffinity -7.15321684
REMARK CNNscore 0.565666378
REMARK CNNaffinity 6.67379904
REMARK  10 active torsions:
REMARK  status: ('A' for Active; 'I' for Inactive)
REMARK    1  A    between atoms: C2_2  and  O1_3 
REMARK    2  A    between atoms: O1_3  and  C3_4 
REMARK    3  A    between atoms: C3_4  and  C4_6 
REMARK    4  A    between atoms: C4_6  and  C5_7 
REMARK    5  A    between atoms: C5_7  and  C6_8 
REMARK    6  A    between atoms: C6_8  and  C8_10 
REMARK    7  A    between atoms: C13_15  and  O3_16 
REMARK    8  A    between atoms: C17_21  and  O4_22 
REMARK    9  A    between atoms: C24_29  and  O5_30 
REMARK   10  A    between atoms: O5_30  and  C25_31 
ROOT
HETATM    1  C8  UNL     1      -2.571  50.005 -21.691  1.00  0.00     0.000 C 
HETATM    2  C9  UNL     1      -2.290  50.154 -23.220  1.00  0.00     0.006 C 
HETATM    3  C10 UNL     1      -2.597  48.820 -23.886  1.00  0.00     0.006 C 
HETATM    4  C11 UNL     1      -3.483  48.080 -22.885  1.00  0.00     0.003 C 
HETATM    5  C12 UNL     1      -4.994  48.496 -23.035  1.00  0.00     0.025 C 
HETATM    6  C13 UNL     1      -5.581  47.987 -24.380  1.00  0.00     0.137 C 
HETATM    7  C14 UNL     1      -7.073  47.646 -24.347  1.00  0.00     0.092 C 
HETATM    8 BR1  UNL     1      -8.174  49.257 -24.157  1.00  0.00    -0.088 Br
HETATM    9  C15 UNL     1      -7.356  46.561 -23.300  1.00  0.00     0.013 C 
HETATM   10  C16 UNL     1      -8.844  46.150 -23.260  1.00  0.00     0.038 C 
HETATM   11  C17 UNL     1      -9.097  45.086 -22.203  1.00  0.00     0.118 C 
HETATM   12  C18 UNL     1      -8.757  45.596 -20.805  1.00  0.00     0.032 C 
HETATM   13  C19 UNL     1      -7.822  46.809 -20.798  1.00  0.00     0.012 C 
HETATM   14  C20 UNL     1      -6.698  46.791 -21.881  1.00  0.00    -0.035 C 
HETATM   15  C21 UNL     1      -5.778  45.586 -21.577  1.00  0.00     0.016 C 
HETATM   16  C22 UNL     1      -5.894  48.154 -21.815  1.00  0.00     0.003 C 
HETATM   17  C23 UNL     1      -5.178  48.480 -20.493  1.00  0.00     0.039 C 
HETATM   18  C24 UNL     1      -3.750  47.959 -20.385  1.00  0.00     0.141 C 
HETATM   19  C27 UNL     1      -2.811  48.458 -21.517  1.00  0.00    -0.009 C 
HETATM   20  C28 UNL     1      -1.455  47.716 -21.361  1.00  0.00     0.018 C 
ENDROOT
BRANCH   1  21
HETATM   21  C6  UNL     1      -1.469  50.784 -20.888  1.00  0.00    -0.013 C 
HETATM   22  C7  UNL     1      -0.193  49.916 -20.796  1.00  0.00     0.010 C 
BRANCH  21  23
HETATM   23  C5  UNL     1      -1.118  52.165 -21.477  1.00  0.00     0.014 C 
BRANCH  23  24
HETATM   24  C4  UNL     1       0.368  52.511 -21.583  1.00  0.00     0.111 C 
BRANCH  24  25
HETATM   25  C3  UNL     1       0.765  53.564 -20.580  1.00  0.00     0.258 C 
HETATM   26  O2  UNL     1       1.496  54.511 -20.835  1.00  0.00    -0.265 OA
BRANCH  25  27
HETATM   27  O1  UNL     1       0.180  53.324 -19.375  1.00  0.00    -0.322 OA
BRANCH  27  28
HETATM   28  C2  UNL     1       1.058  52.760 -18.395  1.00  0.00     0.174 C 
HETATM   29  C1  UNL     1       0.298  51.686 -17.641  1.00  0.00     0.034 C 
ENDBRANCH  27  28
ENDBRANCH  25  27
ENDBRANCH  24  25
ENDBRANCH  23  24
ENDBRANCH  21  23
ENDBRANCH   1  21
BRANCH  18  30
HETATM   30  O5  UNL     1      -3.243  48.307 -19.087  1.00  0.00    -0.316 OA
BRANCH  30  31
HETATM   31  C25 UNL     1      -3.343  47.364 -18.110  1.00  0.00     0.255 C 
HETATM   32  C26 UNL     1      -3.431  46.002 -18.725  1.00  0.00     0.126 C 
HETATM   33  O6  UNL     1      -3.377  47.585 -16.907  1.00  0.00    -0.266 OA
ENDBRANCH  30  31
ENDBRANCH  18  30
BRANCH   6  34
HETATM   34  O3  UNL     1      -5.299  48.934 -25.414  1.00  0.00    -0.394 OA
HETATM   35  H22 UNL     1      -5.808  48.694 -26.207  1.00  0.00     0.210 HD
ENDBRANCH   6  34
BRANCH  11  36
HETATM   36  O4  UNL     1     -10.468  44.702 -22.258  1.00  0.00    -0.396 OA
HETATM   37  H28 UNL     1     -10.620  44.057 -21.547  1.00  0.00     0.210 HD
ENDBRANCH  11  36
TORSDOF 10
ENDMDL
MODEL 6
REMARK minimizedAffinity -7.60389566
REMARK CNNscore 0.552743018
REMARK CNNaffinity 7.12871218
REMARK  10 active torsions:
REMARK  status: ('A' for Active; 'I' for Inactive)
REMARK    1  A    between atoms: C2_2  and  O1_3 
REMARK    2  A    between atoms: O1_3  and  C3_4 
REMARK    3  A    between atoms: C3_4  and  C4_6 
REMARK    4  A    between atoms: C4_6  and  C5_7 
REMARK    5  A    between atoms: C5_7  and  C6_8 
REMARK    6  A    between atoms: C6_8  and  C8_10 
REMARK    7  A    between atoms: C13_15  and  O3_16 
REMARK    8  A    between atoms: C17_21  and  O4_22 
REMARK    9  A    between atoms: C24_29  and  O5_30 
REMARK   10  A    between atoms: O5_30  and  C25_31 
ROOT
HETATM    1  C8  UNL     1       0.065  51.134 -20.340  1.00  0.00     0.000 C 
HETATM    2  C9  UNL     1       0.621  52.588 -20.223  1.00  0.00     0.006 C 
HETATM    3  C10 UNL     1      -0.009  53.235 -18.998  1.00  0.00     0.006 C 
HETATM    4  C11 UNL     1      -0.520  52.064 -18.160  1.00  0.00     0.003 C 
HETATM    5  C12 UNL     1       0.617  51.465 -17.250  1.00  0.00     0.025 C 
HETATM    6  C13 UNL     1       1.026  52.466 -16.137  1.00  0.00     0.137 C 
HETATM    7  C14 UNL     1       1.497  51.824 -14.830  1.00  0.00     0.092 C 
HETATM    8 BR1  UNL     1       3.229  50.933 -15.050  1.00  0.00    -0.088 Br
HETATM    9  C15 UNL     1       0.397  50.931 -14.241  1.00  0.00     0.013 C 
HETATM   10  C16 UNL     1       0.808  50.294 -12.896  1.00  0.00     0.038 C 
HETATM   11  C17 UNL     1      -0.294  49.402 -12.345  1.00  0.00     0.118 C 
HETATM   12  C18 UNL     1      -0.599  48.243 -13.290  1.00  0.00     0.032 C 
HETATM   13  C19 UNL     1      -0.127  48.476 -14.729  1.00  0.00     0.012 C 
HETATM   14  C20 UNL     1      -0.293  49.936 -15.257  1.00  0.00    -0.035 C 
HETATM   15  C21 UNL     1      -1.807  50.251 -15.286  1.00  0.00     0.016 C 
HETATM   16  C22 UNL     1       0.339  50.036 -16.706  1.00  0.00     0.003 C 
HETATM   17  C23 UNL     1      -0.269  49.138 -17.797  1.00  0.00     0.039 C 
HETATM   18  C24 UNL     1      -1.431  49.753 -18.569  1.00  0.00     0.141 C 
HETATM   19  C27 UNL     1      -1.083  51.098 -19.263  1.00  0.00    -0.009 C 
HETATM   20  C28 UNL     1      -2.399  51.671 -19.858  1.00  0.00     0.018 C 
ENDROOT
BRANCH   1  21
HETATM   21  C6  UNL     1      -0.187  50.800 -21.854  1.00  0.00    -0.013 C 
HETATM   22  C7  UNL     1      -1.508  50.011 -21.990  1.00  0.00     0.010 C 
BRANCH  21  23
HETATM   23  C5  UNL     1      -0.221  52.037 -22.774  1.00  0.00     0.014 C 
BRANCH  23  24
HETATM   24  C4  UNL     1       0.504  51.917 -24.116  1.00  0.00     0.111 C 
BRANCH  24  25
HETATM   25  C3  UNL     1       0.071  52.995 -25.077  1.00  0.00     0.258 C 
HETATM   26  O2  UNL     1      -0.915  53.701 -24.914  1.00  0.00    -0.265 OA
BRANCH  25  27
HETATM   27  O1  UNL     1       0.938  53.083 -26.122  1.00  0.00    -0.322 OA
BRANCH  27  28
HETATM   28  C2  UNL     1       1.128  51.856 -26.834  1.00  0.00     0.174 C 
HETATM   29  C1  UNL     1       2.619  51.628 -26.994  1.00  0.00     0.034 C 
ENDBRANCH  27  28
ENDBRANCH  25  27
ENDBRANCH  24  25
ENDBRANCH  23  24
ENDBRANCH  21  23
ENDBRANCH   1  21
BRANCH  18  30
HETATM   30  O5  UNL     1      -1.907  48.780 -19.511  1.00  0.00    -0.316 OA
BRANCH  30  31
HETATM   31  C25 UNL     1      -2.961  48.009 -19.127  1.00  0.00     0.255 C 
HETATM   32  C26 UNL     1      -3.085  46.827 -20.038  1.00  0.00     0.126 C 
HETATM   33  O6  UNL     1      -3.712  48.243 -18.191  1.00  0.00    -0.266 OA
ENDBRANCH  30  31
ENDBRANCH  18  30
BRANCH   6  34
HETATM   34  O3  UNL     1       2.014  53.369 -16.644  1.00  0.00    -0.394 OA
HETATM   35  H22 UNL     1       2.384  53.878 -15.903  1.00  0.00     0.210 HD
ENDBRANCH   6  34
BRANCH  11  36
HETATM   36  O4  UNL     1       0.115  48.898 -11.077  1.00  0.00    -0.396 OA
HETATM   37  H28 UNL     1      -0.580  48.295 -10.763  1.00  0.00     0.210 HD
ENDBRANCH  11  36
TORSDOF 10
ENDMDL
MODEL 7
REMARK minimizedAffinity -6.96283484
REMARK CNNscore 0.495775819
REMARK CNNaffinity 6.73648834
REMARK  10 active torsions:
REMARK  status: ('A' for Active; 'I' for Inactive)
REMARK    1  A    between atoms: C2_2  and  O1_3 
REMARK    2  A    between atoms: O1_3  and  C3_4 
REMARK    3  A    between atoms: C3_4  and  C4_6 
REMARK    4  A    between atoms: C4_6  and  C5_7 
REMARK    5  A    between atoms: C5_7  and  C6_8 
REMARK    6  A    between atoms: C6_8  and  C8_10 
REMARK    7  A    between atoms: C13_15  and  O3_16 
REMARK    8  A    between atoms: C17_21  and  O4_22 
REMARK    9  A    between atoms: C24_29  and  O5_30 
REMARK   10  A    between atoms: O5_30  and  C25_31 
ROOT
HETATM    1  C8  UNL     1      -2.559  49.815 -21.812  1.00  0.00     0.000 C 
HETATM    2  C9  UNL     1      -2.695  48.361 -22.364  1.00  0.00     0.006 C 
HETATM    3  C10 UNL     1      -1.847  47.446 -21.490  1.00  0.00     0.006 C 
HETATM    4  C11 UNL     1      -1.625  48.236 -20.201  1.00  0.00     0.003 C 
HETATM    5  C12 UNL     1      -2.829  48.061 -19.202  1.00  0.00     0.025 C 
HETATM    6  C13 UNL     1      -2.891  46.611 -18.652  1.00  0.00     0.137 C 
HETATM    7  C14 UNL     1      -3.444  46.481 -17.230  1.00  0.00     0.092 C 
HETATM    8 BR1  UNL     1      -5.362  46.883 -17.166  1.00  0.00    -0.088 Br
HETATM    9  C15 UNL     1      -2.595  47.294 -16.245  1.00  0.00     0.013 C 
HETATM   10  C16 UNL     1      -3.087  47.160 -14.788  1.00  0.00     0.038 C 
HETATM   11  C17 UNL     1      -2.237  47.988 -13.837  1.00  0.00     0.118 C 
HETATM   12  C18 UNL     1      -2.309  49.475 -14.175  1.00  0.00     0.032 C 
HETATM   13  C19 UNL     1      -2.780  49.763 -15.604  1.00  0.00     0.012 C 
HETATM   14  C20 UNL     1      -2.256  48.772 -16.692  1.00  0.00    -0.035 C 
HETATM   15  C21 UNL     1      -0.717  48.917 -16.750  1.00  0.00     0.016 C 
HETATM   16  C22 UNL     1      -2.917  49.136 -18.084  1.00  0.00     0.003 C 
HETATM   17  C23 UNL     1      -2.635  50.541 -18.645  1.00  0.00     0.039 C 
HETATM   18  C24 UNL     1      -1.395  50.650 -19.525  1.00  0.00     0.141 C 
HETATM   19  C27 UNL     1      -1.405  49.692 -20.747  1.00  0.00    -0.009 C 
HETATM   20  C28 UNL     1      -0.019  49.803 -21.440  1.00  0.00     0.018 C 
ENDROOT
BRANCH   1  21
HETATM   21  C6  UNL     1      -2.491  50.818 -23.019  1.00  0.00    -0.013 C 
HETATM   22  C7  UNL     1      -2.918  52.224 -22.540  1.00  0.00     0.010 C 
BRANCH  21  23
HETATM   23  C5  UNL     1      -1.107  50.896 -23.694  1.00  0.00     0.014 C 
BRANCH  23  24
HETATM   24  C4  UNL     1      -1.068  50.698 -25.211  1.00  0.00     0.111 C 
BRANCH  24  25
HETATM   25  C3  UNL     1      -0.879  52.006 -25.935  1.00  0.00     0.258 C 
HETATM   26  O2  UNL     1      -1.583  52.991 -25.763  1.00  0.00    -0.265 OA
BRANCH  25  27
HETATM   27  O1  UNL     1       0.188  51.939 -26.777  1.00  0.00    -0.322 OA
BRANCH  27  28
HETATM   28  C2  UNL     1       1.428  52.347 -26.190  1.00  0.00     0.174 C 
HETATM   29  C1  UNL     1       2.434  51.229 -26.386  1.00  0.00     0.034 C 
ENDBRANCH  27  28
ENDBRANCH  25  27
ENDBRANCH  24  25
ENDBRANCH  23  24
ENDBRANCH  21  23
ENDBRANCH   1  21
BRANCH  18  30
HETATM   30  O5  UNL     1      -1.251  52.020 -19.929  1.00  0.00    -0.316 OA
BRANCH  30  31
HETATM   31  C25 UNL     1      -0.142  52.680 -19.498  1.00  0.00     0.255 C 
HETATM   32  C26 UNL     1       0.479  53.430 -20.636  1.00  0.00     0.126 C 
HETATM   33  O6  UNL     1       0.304  52.659 -18.359  1.00  0.00    -0.266 OA
ENDBRANCH  30  31
ENDBRANCH  18  30
BRANCH   6  34
HETATM   34  O3  UNL     1      -3.625  45.785 -19.560  1.00  0.00    -0.394 OA
HETATM   35  H22 UNL     1      -3.803  44.929 -19.133  1.00  0.00     0.210 HD
ENDBRANCH   6  34
BRANCH  11  36
HETATM   36  O4  UNL     1      -2.697  47.773 -12.505  1.00  0.00    -0.396 OA
HETATM   37  H28 UNL     1      -2.173  48.344 -11.919  1.00  0.00     0.210 HD
ENDBRANCH  11  36
TORSDOF 10
ENDMDL
MODEL 8
REMARK minimizedAffinity -6.24134111
REMARK CNNscore 0.492180645
REMARK CNNaffinity 6.30512285
REMARK  10 active torsions:
REMARK  status: ('A' for Active; 'I' for Inactive)
REMARK    1  A    between atoms: C2_2  and  O1_3 
REMARK    2  A    between atoms: O1_3  and  C3_4 
REMARK    3  A    between atoms: C3_4  and  C4_6 
REMARK    4  A    between atoms: C4_6  and  C5_7 
REMARK    5  A    between atoms: C5_7  and  C6_8 
REMARK    6  A    between atoms: C6_8  and  C8_10 
REMARK    7  A    between atoms: C13_15  and  O3_16 
REMARK    8  A    between atoms: C17_21  and  O4_22 
REMARK    9  A    between atoms: C24_29  and  O5_30 
REMARK   10  A    between atoms: O5_30  and  C25_31 
ROOT
HETATM    1  C8  UNL     1       3.657  53.942  -9.661  1.00  0.00     0.000 C 
HETATM    2  C9  UNL     1       5.210  53.912  -9.822  1.00  0.00     0.006 C 
HETATM    3  C10 UNL     1       5.741  55.306  -9.516  1.00  0.00     0.006 C 
HETATM    4  C11 UNL     1       4.619  55.987  -8.735  1.00  0.00     0.003 C 
HETATM    5  C12 UNL     1       4.686  55.633  -7.202  1.00  0.00     0.025 C 
HETATM    6  C13 UNL     1       5.936  56.269  -6.537  1.00  0.00     0.137 C 
HETATM    7  C14 UNL     1       5.762  56.652  -5.065  1.00  0.00     0.092 C 
HETATM    8 BR1  UNL     1       5.618  55.066  -3.922  1.00  0.00    -0.088 Br
HETATM    9  C15 UNL     1       4.612  57.655  -4.901  1.00  0.00     0.013 C 
HETATM   10  C16 UNL     1       4.425  58.107  -3.437  1.00  0.00     0.038 C 
HETATM   11  C17 UNL     1       3.269  59.087  -3.302  1.00  0.00     0.118 C 
HETATM   12  C18 UNL     1       1.947  58.452  -3.725  1.00  0.00     0.032 C 
HETATM   13  C19 UNL     1       2.109  57.214  -4.612  1.00  0.00     0.012 C 
HETATM   14  C20 UNL     1       3.271  57.287  -5.653  1.00  0.00    -0.035 C 
HETATM   15  C21 UNL     1       2.942  58.435  -6.637  1.00  0.00     0.016 C 
HETATM   16  C22 UNL     1       3.377  55.900  -6.408  1.00  0.00     0.003 C 
HETATM   17  C23 UNL     1       2.144  55.443  -7.207  1.00  0.00     0.039 C 
HETATM   18  C24 UNL     1       2.104  55.909  -8.658  1.00  0.00     0.141 C 
HETATM   19  C27 UNL     1       3.341  55.476  -9.491  1.00  0.00    -0.009 C 
HETATM   20  C28 UNL     1       3.231  56.161 -10.882  1.00  0.00     0.018 C 
ENDROOT
BRANCH   1  21
HETATM   21  C6  UNL     1       3.006  53.066 -10.789  1.00  0.00    -0.013 C 
HETATM   22  C7  UNL     1       3.725  51.700 -10.856  1.00  0.00     0.010 C 
BRANCH  21  23
HETATM   23  C5  UNL     1       1.489  52.849 -10.620  1.00  0.00     0.014 C 
BRANCH  23  24
HETATM   24  C4  UNL     1       0.592  53.333 -11.762  1.00  0.00     0.111 C 
BRANCH  24  25
HETATM   25  C3  UNL     1       0.217  52.204 -12.688  1.00  0.00     0.258 C 
HETATM   26  O2  UNL     1      -0.099  51.085 -12.309  1.00  0.00    -0.265 OA
BRANCH  25  27
HETATM   27  O1  UNL     1       0.256  52.614 -13.985  1.00  0.00    -0.322 OA
BRANCH  27  28
HETATM   28  C2  UNL     1       0.895  51.692 -14.874  1.00  0.00     0.174 C 
HETATM   29  C1  UNL     1       1.451  52.475 -16.048  1.00  0.00     0.034 C 
ENDBRANCH  27  28
ENDBRANCH  25  27
ENDBRANCH  24  25
ENDBRANCH  23  24
ENDBRANCH  21  23
ENDBRANCH   1  21
BRANCH  18  30
HETATM   30  O5  UNL     1       0.881  55.439  -9.246  1.00  0.00    -0.316 OA
BRANCH  30  31
HETATM   31  C25 UNL     1      -0.262  55.626  -8.531  1.00  0.00     0.255 C 
HETATM   32  C26 UNL     1      -0.973  54.320  -8.357  1.00  0.00     0.126 C 
HETATM   33  O6  UNL     1      -0.669  56.698  -8.105  1.00  0.00    -0.266 OA
ENDBRANCH  30  31
ENDBRANCH  18  30
BRANCH   6  34
HETATM   34  O3  UNL     1       7.062  55.404  -6.707  1.00  0.00    -0.394 OA
HETATM   35  H22 UNL     1       7.791  55.724  -6.149  1.00  0.00     0.210 HD
ENDBRANCH   6  34
BRANCH  11  36
HETATM   36  O4  UNL     1       3.188  59.517  -1.946  1.00  0.00    -0.396 OA
HETATM   37  H28 UNL     1       2.418  60.105  -1.871  1.00  0.00     0.210 HD
ENDBRANCH  11  36
TORSDOF 10
ENDMDL
MODEL 9
REMARK minimizedAffinity -6.85300207
REMARK CNNscore 0.487715781
REMARK CNNaffinity 6.18694353
REMARK  10 active torsions:
REMARK  status: ('A' for Active; 'I' for Inactive)
REMARK    1  A    between atoms: C2_2  and  O1_3 
REMARK    2  A    between atoms: O1_3  and  C3_4 
REMARK    3  A    between atoms: C3_4  and  C4_6 
REMARK    4  A    between atoms: C4_6  and  C5_7 
REMARK    5  A    between atoms: C5_7  and  C6_8 
REMARK    6  A    between atoms: C6_8  and  C8_10 
REMARK    7  A    between atoms: C13_15  and  O3_16 
REMARK    8  A    between atoms: C17_21  and  O4_22 
REMARK    9  A    between atoms: C24_29  and  O5_30 
REMARK   10  A    between atoms: O5_30  and  C25_31 
ROOT
HETATM    1  C8  UNL     1     -12.622  46.752 -27.938  1.00  0.00     0.000 C 
HETATM    2  C9  UNL     1     -12.077  47.988 -27.156  1.00  0.00     0.006 C 
HETATM    3  C10 UNL     1     -10.641  47.690 -26.747  1.00  0.00     0.006 C 
HETATM    4  C11 UNL     1     -10.203  46.551 -27.668  1.00  0.00     0.003 C 
HETATM    5  C12 UNL     1      -9.689  47.094 -29.054  1.00  0.00     0.025 C 
HETATM    6  C13 UNL     1      -8.354  47.869 -28.888  1.00  0.00     0.137 C 
HETATM    7  C14 UNL     1      -7.408  47.792 -30.089  1.00  0.00     0.092 C 
HETATM    8 BR1  UNL     1      -8.115  48.784 -31.625  1.00  0.00    -0.088 Br
HETATM    9  C15 UNL     1      -7.041  46.334 -30.394  1.00  0.00     0.013 C 
HETATM   10  C16 UNL     1      -6.052  46.206 -31.573  1.00  0.00     0.038 C 
HETATM   11  C17 UNL     1      -5.719  44.750 -31.863  1.00  0.00     0.118 C 
HETATM   12  C18 UNL     1      -6.964  43.963 -32.264  1.00  0.00     0.032 C 
HETATM   13  C19 UNL     1      -8.279  44.621 -31.836  1.00  0.00     0.012 C 
HETATM   14  C20 UNL     1      -8.252  45.319 -30.439  1.00  0.00    -0.035 C 
HETATM   15  C21 UNL     1      -8.000  44.222 -29.377  1.00  0.00     0.016 C 
HETATM   16  C22 UNL     1      -9.640  46.041 -30.195  1.00  0.00     0.003 C 
HETATM   17  C23 UNL     1     -10.897  45.154 -30.182  1.00  0.00     0.039 C 
HETATM   18  C24 UNL     1     -11.274  44.586 -28.819  1.00  0.00     0.141 C 
HETATM   19  C27 UNL     1     -11.499  45.667 -27.727  1.00  0.00    -0.009 C 
HETATM   20  C28 UNL     1     -11.709  44.930 -26.376  1.00  0.00     0.018 C 
ENDROOT
BRANCH   1  21
HETATM   21  C6  UNL     1     -14.119  46.507 -27.534  1.00  0.00    -0.013 C 
HETATM   22  C7  UNL     1     -14.748  45.478 -28.500  1.00  0.00     0.010 C 
BRANCH  21  23
HETATM   23  C5  UNL     1     -14.309  46.037 -26.077  1.00  0.00     0.014 C 
BRANCH  23  24
HETATM   24  C4  UNL     1     -15.746  45.967 -25.558  1.00  0.00     0.111 C 
BRANCH  24  25
HETATM   25  C3  UNL     1     -15.953  46.881 -24.377  1.00  0.00     0.258 C 
HETATM   26  O2  UNL     1     -15.414  47.972 -24.254  1.00  0.00    -0.265 OA
BRANCH  25  27
HETATM   27  O1  UNL     1     -16.832  46.334 -23.494  1.00  0.00    -0.322 OA
BRANCH  27  28
HETATM   28  C2  UNL     1     -18.039  45.846 -24.090  1.00  0.00     0.174 C 
HETATM   29  C1  UNL     1     -18.951  47.030 -24.349  1.00  0.00     0.034 C 
ENDBRANCH  27  28
ENDBRANCH  25  27
ENDBRANCH  24  25
ENDBRANCH  23  24
ENDBRANCH  21  23
ENDBRANCH   1  21
BRANCH  18  30
HETATM   30  O5  UNL     1     -12.433  43.754 -28.986  1.00  0.00    -0.316 OA
BRANCH  30  31
HETATM   31  C25 UNL     1     -12.320  42.451 -28.609  1.00  0.00     0.255 C 
HETATM   32  C26 UNL     1     -11.169  41.813 -29.325  1.00  0.00     0.126 C 
HETATM   33  O6  UNL     1     -13.053  41.870 -27.821  1.00  0.00    -0.266 OA
ENDBRANCH  30  31
ENDBRANCH  18  30
BRANCH   6  34
HETATM   34  O3  UNL     1      -8.629  49.230 -28.544  1.00  0.00    -0.394 OA
HETATM   35  H22 UNL     1      -7.805  49.743 -28.608  1.00  0.00     0.210 HD
ENDBRANCH   6  34
BRANCH  11  36
HETATM   36  O4  UNL     1      -4.756  44.700 -32.912  1.00  0.00    -0.396 OA
HETATM   37  H28 UNL     1      -4.592  43.764 -33.113  1.00  0.00     0.210 HD
ENDBRANCH  11  36
TORSDOF 10
ENDMDL
