MODEL 1
REMARK minimizedAffinity -8.54039192
REMARK CNNscore 0.705437183
REMARK CNNaffinity 6.42917871
REMARK  7 active torsions:
REMARK  status: ('A' for Active; 'I' for Inactive)
REMARK    1  A    between atoms: C4_4  and  C5_5 
REMARK    2  A    between atoms: C5_5  and  C6_6 
REMARK    3  A    between atoms: C6_6  and  C7_7 
REMARK    4  A    between atoms: C7_7  and  C9_9 
REMARK    5  A    between atoms: C18_18  and  O1_19 
REMARK    6  A    between atoms: O1_19  and  C19_20 
REMARK    7  A    between atoms: C19_20  and  C20_22 
ROOT
HETATM    1  C9  UNL     1      -8.868  47.785 -28.818  1.00  0.00    -0.002 C 
HETATM    2  C10 UNL     1      -9.504  48.129 -30.190  1.00  0.00     0.006 C 
HETATM    3  C11 UNL     1     -10.985  47.731 -30.126  1.00  0.00     0.010 C 
HETATM    4  C12 UNL     1     -11.205  47.334 -28.671  1.00  0.00     0.023 C 
HETATM    5  C13 UNL     1     -12.398  46.498 -28.284  1.00  0.00    -0.070 C 
HETATM    6  C14 UNL     1     -13.504  46.357 -29.033  1.00  0.00     0.004 C 
HETATM    7  C15 UNL     1     -14.667  45.659 -28.547  1.00  0.00     0.004 C 
HETATM    8  C16 UNL     1     -14.808  45.332 -27.250  1.00  0.00    -0.069 C 
HETATM    9  C17 UNL     1     -16.159  44.972 -26.686  1.00  0.00     0.067 C 
HETATM   10  C18 UNL     1     -16.627  46.080 -25.728  1.00  0.00     0.136 C 
HETATM   11  C26 UNL     1     -15.548  46.452 -24.697  1.00  0.00     0.034 C 
HETATM   12  C27 UNL     1     -14.160  46.694 -25.317  1.00  0.00     0.017 C 
HETATM   13  C28 UNL     1     -13.685  45.530 -26.224  1.00  0.00    -0.013 C 
HETATM   14  C29 UNL     1     -13.492  44.249 -25.369  1.00  0.00     0.021 C 
HETATM   15  C30 UNL     1     -12.297  45.805 -26.931  1.00  0.00     0.027 C 
HETATM   16  C31 UNL     1     -11.248  46.515 -26.048  1.00  0.00     0.011 C 
HETATM   17  C32 UNL     1      -9.844  46.581 -26.693  1.00  0.00     0.011 C 
HETATM   18  C33 UNL     1      -9.851  46.710 -28.239  1.00  0.00    -0.033 C 
HETATM   19  C34 UNL     1      -9.592  45.327 -28.892  1.00  0.00     0.016 C 
ENDROOT
BRANCH  10  20
HETATM   20  O1  UNL     1     -17.795  45.582 -25.045  1.00  0.00    -0.312 OA
BRANCH  20  21
HETATM   21  C19 UNL     1     -18.539  46.493 -24.369  1.00  0.00     0.293 C 
HETATM   22  O2  UNL     1     -18.959  47.549 -24.812  1.00  0.00    -0.259 OA
BRANCH  21  23
HETATM   23  C20 UNL     1     -18.772  46.036 -22.973  1.00  0.00     0.039 A 
HETATM   24  C21 UNL     1     -19.465  44.833 -22.775  1.00  0.00     0.017 A 
HETATM   25  C22 UNL     1     -19.710  44.365 -21.482  1.00  0.00     0.001 A 
HETATM   26  C23 UNL     1     -19.262  45.094 -20.380  1.00  0.00     0.000 A 
HETATM   27  C24 UNL     1     -18.570  46.291 -20.567  1.00  0.00     0.001 A 
HETATM   28  C25 UNL     1     -18.324  46.762 -21.859  1.00  0.00     0.017 A 
ENDBRANCH  21  23
ENDBRANCH  20  21
ENDBRANCH  10  20
BRANCH   1  29
HETATM   29  C7  UNL     1      -7.351  47.440 -28.916  1.00  0.00    -0.014 C 
HETATM   30  C8  UNL     1      -7.120  45.926 -29.041  1.00  0.00     0.010 C 
BRANCH  29  31
HETATM   31  C6  UNL     1      -6.536  47.931 -27.684  1.00  0.00     0.008 C 
BRANCH  31  32
HETATM   32  C5  UNL     1      -5.020  48.026 -27.909  1.00  0.00     0.028 C 
BRANCH  32  33
HETATM   33  C4  UNL     1      -4.300  48.241 -26.603  1.00  0.00    -0.025 C 
HETATM   34  C2  UNL     1      -3.488  49.260 -26.258  1.00  0.00    -0.091 C 
HETATM   35  C1  UNL     1      -2.832  49.289 -24.900  1.00  0.00     0.042 C 
HETATM   36  C3  UNL     1      -3.140  50.437 -27.128  1.00  0.00     0.042 C 
ENDBRANCH  32  33
ENDBRANCH  31  32
ENDBRANCH  29  31
ENDBRANCH   1  29
TORSDOF 7
ENDMDL
MODEL 2
REMARK minimizedAffinity -9.76303577
REMARK CNNscore 0.446939677
REMARK CNNaffinity 7.24734354
REMARK  7 active torsions:
REMARK  status: ('A' for Active; 'I' for Inactive)
REMARK    1  A    between atoms: C4_4  and  C5_5 
REMARK    2  A    between atoms: C5_5  and  C6_6 
REMARK    3  A    between atoms: C6_6  and  C7_7 
REMARK    4  A    between atoms: C7_7  and  C9_9 
REMARK    5  A    between atoms: C18_18  and  O1_19 
REMARK    6  A    between atoms: O1_19  and  C19_20 
REMARK    7  A    between atoms: C19_20  and  C20_22 
ROOT
HETATM    1  C9  UNL     1       1.753  49.977 -14.508  1.00  0.00    -0.002 C 
HETATM    2  C10 UNL     1       0.946  48.661 -14.665  1.00  0.00     0.006 C 
HETATM    3  C11 UNL     1       0.203  48.732 -16.006  1.00  0.00     0.010 C 
HETATM    4  C12 UNL     1       0.736  49.999 -16.665  1.00  0.00     0.023 C 
HETATM    5  C13 UNL     1      -0.027  50.647 -17.793  1.00  0.00    -0.070 C 
HETATM    6  C14 UNL     1      -0.957  50.028 -18.537  1.00  0.00     0.004 C 
HETATM    7  C15 UNL     1      -1.550  50.656 -19.690  1.00  0.00     0.004 C 
HETATM    8  C16 UNL     1      -1.037  51.777 -20.230  1.00  0.00    -0.069 C 
HETATM    9  C17 UNL     1      -1.404  52.197 -21.630  1.00  0.00     0.067 C 
HETATM   10  C18 UNL     1      -0.181  52.040 -22.549  1.00  0.00     0.136 C 
HETATM   11  C26 UNL     1       1.079  52.696 -21.960  1.00  0.00     0.034 C 
HETATM   12  C27 UNL     1       1.339  52.323 -20.490  1.00  0.00     0.017 C 
HETATM   13  C28 UNL     1       0.110  52.556 -19.574  1.00  0.00    -0.013 C 
HETATM   14  C29 UNL     1      -0.219  54.072 -19.520  1.00  0.00     0.021 C 
HETATM   15  C30 UNL     1       0.340  52.099 -18.078  1.00  0.00     0.027 C 
HETATM   16  C31 UNL     1       1.740  52.414 -17.510  1.00  0.00     0.011 C 
HETATM   17  C32 UNL     1       1.864  52.145 -15.992  1.00  0.00     0.011 C 
HETATM   18  C33 UNL     1       1.008  50.959 -15.476  1.00  0.00    -0.033 C 
HETATM   19  C34 UNL     1      -0.295  51.487 -14.820  1.00  0.00     0.016 C 
ENDROOT
BRANCH  10  20
HETATM   20  O1  UNL     1      -0.511  52.671 -23.804  1.00  0.00    -0.312 OA
BRANCH  20  21
HETATM   21  C19 UNL     1       0.477  53.375 -24.409  1.00  0.00     0.293 C 
HETATM   22  O2  UNL     1       1.044  54.355 -23.953  1.00  0.00    -0.259 OA
BRANCH  21  23
HETATM   23  C20 UNL     1       0.781  52.797 -25.745  1.00  0.00     0.039 A 
HETATM   24  C21 UNL     1       1.860  51.907 -25.853  1.00  0.00     0.017 A 
HETATM   25  C22 UNL     1       2.185  51.340 -27.087  1.00  0.00     0.001 A 
HETATM   26  C23 UNL     1       1.433  51.656 -28.219  1.00  0.00     0.000 A 
HETATM   27  C24 UNL     1       0.357  52.538 -28.121  1.00  0.00     0.001 A 
HETATM   28  C25 UNL     1       0.030  53.108 -26.888  1.00  0.00     0.017 A 
ENDBRANCH  21  23
ENDBRANCH  20  21
ENDBRANCH  10  20
BRANCH   1  29
HETATM   29  C7  UNL     1       1.955  50.398 -13.021  1.00  0.00    -0.014 C 
HETATM   30  C8  UNL     1       0.626  50.417 -12.250  1.00  0.00     0.010 C 
BRANCH  29  31
HETATM   31  C6  UNL     1       2.597  51.807 -12.871  1.00  0.00     0.008 C 
BRANCH  31  32
HETATM   32  C5  UNL     1       2.214  52.559 -11.587  1.00  0.00     0.028 C 
BRANCH  32  33
HETATM   33  C4  UNL     1       3.309  53.509 -11.179  1.00  0.00    -0.025 C 
HETATM   34  C2  UNL     1       3.188  54.718 -10.596  1.00  0.00    -0.091 C 
HETATM   35  C1  UNL     1       4.412  55.542 -10.283  1.00  0.00     0.042 C 
HETATM   36  C3  UNL     1       1.894  55.377 -10.205  1.00  0.00     0.042 C 
ENDBRANCH  32  33
ENDBRANCH  31  32
ENDBRANCH  29  31
ENDBRANCH   1  29
TORSDOF 7
ENDMDL
MODEL 3
REMARK minimizedAffinity -8.16740513
REMARK CNNscore 0.323275685
REMARK CNNaffinity 6.30875826
REMARK  7 active torsions:
REMARK  status: ('A' for Active; 'I' for Inactive)
REMARK    1  A    between atoms: C4_4  and  C5_5 
REMARK    2  A    between atoms: C5_5  and  C6_6 
REMARK    3  A    between atoms: C6_6  and  C7_7 
REMARK    4  A    between atoms: C7_7  and  C9_9 
REMARK    5  A    between atoms: C18_18  and  O1_19 
REMARK    6  A    between atoms: O1_19  and  C19_20 
REMARK    7  A    between atoms: C19_20  and  C20_22 
ROOT
HETATM    1  C9  UNL     1     -11.072  46.068 -36.191  1.00  0.00    -0.002 C 
HETATM    2  C10 UNL     1     -12.188  45.267 -35.470  1.00  0.00     0.006 C 
HETATM    3  C11 UNL     1     -11.745  45.065 -34.014  1.00  0.00     0.010 C 
HETATM    4  C12 UNL     1     -10.476  45.900 -33.888  1.00  0.00     0.023 C 
HETATM    5  C13 UNL     1      -9.512  45.651 -32.756  1.00  0.00    -0.070 C 
HETATM    6  C14 UNL     1      -9.822  45.003 -31.621  1.00  0.00     0.004 C 
HETATM    7  C15 UNL     1      -8.898  44.919 -30.518  1.00  0.00     0.004 C 
HETATM    8  C16 UNL     1      -7.791  45.680 -30.459  1.00  0.00    -0.069 C 
HETATM    9  C17 UNL     1      -7.058  45.878 -29.157  1.00  0.00     0.067 C 
HETATM   10  C18 UNL     1      -7.228  47.333 -28.688  1.00  0.00     0.136 C 
HETATM   11  C26 UNL     1      -6.905  48.345 -29.800  1.00  0.00     0.034 C 
HETATM   12  C27 UNL     1      -7.589  48.027 -31.142  1.00  0.00     0.017 C 
HETATM   13  C28 UNL     1      -7.344  46.574 -31.623  1.00  0.00    -0.013 C 
HETATM   14  C29 UNL     1      -5.833  46.372 -31.919  1.00  0.00     0.021 C 
HETATM   15  C30 UNL     1      -8.109  46.212 -32.959  1.00  0.00     0.027 C 
HETATM   16  C31 UNL     1      -8.135  47.335 -34.018  1.00  0.00     0.011 C 
HETATM   17  C32 UNL     1      -8.705  46.881 -35.382  1.00  0.00     0.011 C 
HETATM   18  C33 UNL     1      -9.817  45.803 -35.290  1.00  0.00    -0.033 C 
HETATM   19  C34 UNL     1      -9.224  44.399 -35.579  1.00  0.00     0.016 C 
ENDROOT
BRANCH  10  20
HETATM   20  O1  UNL     1      -6.325  47.528 -27.581  1.00  0.00    -0.312 OA
BRANCH  20  21
HETATM   21  C19 UNL     1      -5.078  47.968 -27.884  1.00  0.00     0.293 C 
HETATM   22  O2  UNL     1      -4.588  48.027 -29.000  1.00  0.00    -0.259 OA
BRANCH  21  23
HETATM   23  C20 UNL     1      -4.355  48.366 -26.646  1.00  0.00     0.039 A 
HETATM   24  C21 UNL     1      -3.006  48.733 -26.755  1.00  0.00     0.017 A 
HETATM   25  C22 UNL     1      -2.285  49.112 -25.620  1.00  0.00     0.001 A 
HETATM   26  C23 UNL     1      -2.908  49.129 -24.372  1.00  0.00     0.000 A 
HETATM   27  C24 UNL     1      -4.251  48.768 -24.255  1.00  0.00     0.001 A 
HETATM   28  C25 UNL     1      -4.974  48.387 -25.388  1.00  0.00     0.017 A 
ENDBRANCH  21  23
ENDBRANCH  20  21
ENDBRANCH  10  20
BRANCH   1  29
HETATM   29  C7  UNL     1     -10.981  45.754 -37.715  1.00  0.00    -0.014 C 
HETATM   30  C8  UNL     1     -11.144  44.253 -37.997  1.00  0.00     0.010 C 
BRANCH  29  31
HETATM   31  C6  UNL     1      -9.629  46.199 -38.346  1.00  0.00     0.008 C 
BRANCH  31  32
HETATM   32  C5  UNL     1      -9.615  47.629 -38.904  1.00  0.00     0.028 C 
BRANCH  32  33
HETATM   33  C4  UNL     1      -8.429  48.395 -38.379  1.00  0.00    -0.025 C 
HETATM   34  C2  UNL     1      -7.166  48.401 -38.850  1.00  0.00    -0.091 C 
HETATM   35  C1  UNL     1      -6.099  49.220 -38.168  1.00  0.00     0.042 C 
HETATM   36  C3  UNL     1      -6.674  47.635 -40.046  1.00  0.00     0.042 C 
ENDBRANCH  32  33
ENDBRANCH  31  32
ENDBRANCH  29  31
ENDBRANCH   1  29
TORSDOF 7
ENDMDL
MODEL 4
REMARK minimizedAffinity -9.34487724
REMARK CNNscore 0.285568118
REMARK CNNaffinity 7.03180122
REMARK  7 active torsions:
REMARK  status: ('A' for Active; 'I' for Inactive)
REMARK    1  A    between atoms: C4_4  and  C5_5 
REMARK    2  A    between atoms: C5_5  and  C6_6 
REMARK    3  A    between atoms: C6_6  and  C7_7 
REMARK    4  A    between atoms: C7_7  and  C9_9 
REMARK    5  A    between atoms: C18_18  and  O1_19 
REMARK    6  A    between atoms: O1_19  and  C19_20 
REMARK    7  A    between atoms: C19_20  and  C20_22 
ROOT
HETATM    1  C9  UNL     1       1.523  50.144 -14.237  1.00  0.00    -0.002 C 
HETATM    2  C10 UNL     1       0.853  48.753 -14.391  1.00  0.00     0.006 C 
HETATM    3  C11 UNL     1       0.204  48.704 -15.781  1.00  0.00     0.010 C 
HETATM    4  C12 UNL     1       0.664  49.990 -16.457  1.00  0.00     0.023 C 
HETATM    5  C13 UNL     1      -0.072  50.521 -17.661  1.00  0.00    -0.070 C 
HETATM    6  C14 UNL     1      -0.886  49.789 -18.439  1.00  0.00     0.004 C 
HETATM    7  C15 UNL     1      -1.449  50.316 -19.656  1.00  0.00     0.004 C 
HETATM    8  C16 UNL     1      -1.005  51.459 -20.208  1.00  0.00    -0.069 C 
HETATM    9  C17 UNL     1      -1.307  51.791 -21.646  1.00  0.00     0.067 C 
HETATM   10  C18 UNL     1      -0.012  51.716 -22.473  1.00  0.00     0.136 C 
HETATM   11  C26 UNL     1       1.136  52.510 -21.829  1.00  0.00     0.034 C 
HETATM   12  C27 UNL     1       1.323  52.218 -20.330  1.00  0.00     0.017 C 
HETATM   13  C28 UNL     1       0.016  52.367 -19.510  1.00  0.00    -0.013 C 
HETATM   14  C29 UNL     1      -0.454  53.846 -19.545  1.00  0.00     0.021 C 
HETATM   15  C30 UNL     1       0.179  51.989 -17.984  1.00  0.00     0.027 C 
HETATM   16  C31 UNL     1       1.501  52.457 -17.337  1.00  0.00     0.011 C 
HETATM   17  C32 UNL     1       1.539  52.257 -15.804  1.00  0.00     0.011 C 
HETATM   18  C33 UNL     1       0.761  51.015 -15.295  1.00  0.00    -0.033 C 
HETATM   19  C34 UNL     1      -0.628  51.441 -14.752  1.00  0.00     0.016 C 
ENDROOT
BRANCH  10  20
HETATM   20  O1  UNL     1      -0.309  52.266 -23.773  1.00  0.00    -0.312 OA
BRANCH  20  21
HETATM   21  C19 UNL     1      -0.669  51.384 -24.738  1.00  0.00     0.293 C 
HETATM   22  O2  UNL     1      -1.582  50.576 -24.670  1.00  0.00    -0.259 OA
BRANCH  21  23
HETATM   23  C20 UNL     1       0.224  51.516 -25.920  1.00  0.00     0.039 A 
HETATM   24  C21 UNL     1       1.611  51.492 -25.710  1.00  0.00     0.017 A 
HETATM   25  C22 UNL     1       2.489  51.615 -26.789  1.00  0.00     0.001 A 
HETATM   26  C23 UNL     1       1.989  51.761 -28.083  1.00  0.00     0.000 A 
HETATM   27  C24 UNL     1       0.611  51.784 -28.301  1.00  0.00     0.001 A 
HETATM   28  C25 UNL     1      -0.271  51.663 -27.224  1.00  0.00     0.017 A 
ENDBRANCH  21  23
ENDBRANCH  20  21
ENDBRANCH  10  20
BRANCH   1  29
HETATM   29  C7  UNL     1       1.578  50.637 -12.760  1.00  0.00    -0.014 C 
HETATM   30  C8  UNL     1       2.425  49.704 -11.881  1.00  0.00     0.010 C 
BRANCH  29  31
HETATM   31  C6  UNL     1       0.172  50.742 -12.101  1.00  0.00     0.008 C 
BRANCH  31  32
HETATM   32  C5  UNL     1      -0.014  51.943 -11.162  1.00  0.00     0.028 C 
BRANCH  32  33
HETATM   33  C4  UNL     1      -1.357  52.589 -11.383  1.00  0.00    -0.025 C 
HETATM   34  C2  UNL     1      -2.521  52.330 -10.754  1.00  0.00    -0.091 C 
HETATM   35  C1  UNL     1      -3.778  53.070 -11.135  1.00  0.00     0.042 C 
HETATM   36  C3  UNL     1      -2.716  51.321  -9.656  1.00  0.00     0.042 C 
ENDBRANCH  32  33
ENDBRANCH  31  32
ENDBRANCH  29  31
ENDBRANCH   1  29
TORSDOF 7
ENDMDL
MODEL 5
REMARK minimizedAffinity -8.03787136
REMARK CNNscore 0.26691699
REMARK CNNaffinity 6.27489281
REMARK  7 active torsions:
REMARK  status: ('A' for Active; 'I' for Inactive)
REMARK    1  A    between atoms: C4_4  and  C5_5 
REMARK    2  A    between atoms: C5_5  and  C6_6 
REMARK    3  A    between atoms: C6_6  and  C7_7 
REMARK    4  A    between atoms: C7_7  and  C9_9 
REMARK    5  A    between atoms: C18_18  and  O1_19 
REMARK    6  A    between atoms: O1_19  and  C19_20 
REMARK    7  A    between atoms: C19_20  and  C20_22 
ROOT
HETATM    1  C9  UNL     1     -10.958  46.228 -36.004  1.00  0.00    -0.002 C 
HETATM    2  C10 UNL     1     -12.108  45.541 -35.223  1.00  0.00     0.006 C 
HETATM    3  C11 UNL     1     -11.645  45.375 -33.769  1.00  0.00     0.010 C 
HETATM    4  C12 UNL     1     -10.320  46.126 -33.709  1.00  0.00     0.023 C 
HETATM    5  C13 UNL     1      -9.349  45.862 -32.587  1.00  0.00    -0.070 C 
HETATM    6  C14 UNL     1      -9.674  45.290 -31.416  1.00  0.00     0.004 C 
HETATM    7  C15 UNL     1      -8.733  45.192 -30.330  1.00  0.00     0.004 C 
HETATM    8  C16 UNL     1      -7.575  45.877 -30.330  1.00  0.00    -0.069 C 
HETATM    9  C17 UNL     1      -6.799  46.083 -29.055  1.00  0.00     0.067 C 
HETATM   10  C18 UNL     1      -6.858  47.566 -28.652  1.00  0.00     0.136 C 
HETATM   11  C26 UNL     1      -6.494  48.502 -29.816  1.00  0.00     0.034 C 
HETATM   12  C27 UNL     1      -7.230  48.170 -31.127  1.00  0.00     0.017 C 
HETATM   13  C28 UNL     1      -7.096  46.684 -31.544  1.00  0.00    -0.013 C 
HETATM   14  C29 UNL     1      -5.610  46.364 -31.861  1.00  0.00     0.021 C 
HETATM   15  C30 UNL     1      -7.916  46.315 -32.845  1.00  0.00     0.027 C 
HETATM   16  C31 UNL     1      -7.890  47.387 -33.955  1.00  0.00     0.011 C 
HETATM   17  C32 UNL     1      -8.523  46.912 -35.284  1.00  0.00     0.011 C 
HETATM   18  C33 UNL     1      -9.703  45.919 -35.118  1.00  0.00    -0.033 C 
HETATM   19  C34 UNL     1      -9.215  44.466 -35.352  1.00  0.00     0.016 C 
ENDROOT
BRANCH  10  20
HETATM   20  O1  UNL     1      -5.918  47.749 -27.574  1.00  0.00    -0.312 OA
BRANCH  20  21
HETATM   21  C19 UNL     1      -4.666  48.140 -27.919  1.00  0.00     0.293 C 
HETATM   22  O2  UNL     1      -4.172  48.069 -29.034  1.00  0.00    -0.259 OA
BRANCH  21  23
HETATM   23  C20 UNL     1      -3.942  48.666 -26.731  1.00  0.00     0.039 A 
HETATM   24  C21 UNL     1      -4.424  48.331 -25.458  1.00  0.00     0.017 A 
HETATM   25  C22 UNL     1      -3.779  48.803 -24.313  1.00  0.00     0.001 A 
HETATM   26  C23 UNL     1      -2.647  49.610 -24.433  1.00  0.00     0.000 A 
HETATM   27  C24 UNL     1      -2.159  49.947 -25.696  1.00  0.00     0.001 A 
HETATM   28  C25 UNL     1      -2.803  49.477 -26.843  1.00  0.00     0.017 A 
ENDBRANCH  21  23
ENDBRANCH  20  21
ENDBRANCH  10  20
BRANCH   1  29
HETATM   29  C7  UNL     1     -10.925  45.840 -37.513  1.00  0.00    -0.014 C 
HETATM   30  C8  UNL     1     -10.238  44.484 -37.736  1.00  0.00     0.010 C 
BRANCH  29  31
HETATM   31  C6  UNL     1     -10.180  46.885 -38.393  1.00  0.00     0.008 C 
BRANCH  31  32
HETATM   32  C5  UNL     1     -10.484  48.352 -38.053  1.00  0.00     0.028 C 
BRANCH  32  33
HETATM   33  C4  UNL     1     -11.582  48.888 -38.935  1.00  0.00    -0.025 C 
HETATM   34  C2  UNL     1     -12.912  48.856 -38.722  1.00  0.00    -0.091 C 
HETATM   35  C1  UNL     1     -13.864  49.427 -39.743  1.00  0.00     0.042 C 
HETATM   36  C3  UNL     1     -13.592  48.277 -37.512  1.00  0.00     0.042 C 
ENDBRANCH  32  33
ENDBRANCH  31  32
ENDBRANCH  29  31
ENDBRANCH   1  29
TORSDOF 7
ENDMDL
MODEL 6
REMARK minimizedAffinity -8.87212086
REMARK CNNscore 0.265526414
REMARK CNNaffinity 7.0654397
REMARK  7 active torsions:
REMARK  status: ('A' for Active; 'I' for Inactive)
REMARK    1  A    between atoms: C4_4  and  C5_5 
REMARK    2  A    between atoms: C5_5  and  C6_6 
REMARK    3  A    between atoms: C6_6  and  C7_7 
REMARK    4  A    between atoms: C7_7  and  C9_9 
REMARK    5  A    between atoms: C18_18  and  O1_19 
REMARK    6  A    between atoms: O1_19  and  C19_20 
REMARK    7  A    between atoms: C19_20  and  C20_22 
ROOT
HETATM    1  C9  UNL     1      -0.833  50.423 -14.640  1.00  0.00    -0.002 C 
HETATM    2  C10 UNL     1       0.220  51.550 -14.470  1.00  0.00     0.006 C 
HETATM    3  C11 UNL     1       0.585  52.057 -15.872  1.00  0.00     0.010 C 
HETATM    4  C12 UNL     1      -0.390  51.339 -16.797  1.00  0.00     0.023 C 
HETATM    5  C13 UNL     1      -0.102  51.240 -18.274  1.00  0.00    -0.070 C 
HETATM    6  C14 UNL     1       0.753  52.034 -18.938  1.00  0.00     0.004 C 
HETATM    7  C15 UNL     1       0.879  51.984 -20.372  1.00  0.00     0.004 C 
HETATM    8  C16 UNL     1      -0.011  51.332 -21.141  1.00  0.00    -0.069 C 
HETATM    9  C17 UNL     1      -0.102  51.607 -22.620  1.00  0.00     0.067 C 
HETATM   10  C18 UNL     1      -1.426  52.326 -22.928  1.00  0.00     0.136 C 
HETATM   11  C26 UNL     1      -2.636  51.611 -22.303  1.00  0.00     0.034 C 
HETATM   12  C27 UNL     1      -2.440  51.249 -20.820  1.00  0.00     0.017 C 
HETATM   13  C28 UNL     1      -1.131  50.465 -20.550  1.00  0.00    -0.013 C 
HETATM   14  C29 UNL     1      -1.192  49.089 -21.264  1.00  0.00     0.021 C 
HETATM   15  C30 UNL     1      -0.880  50.161 -19.019  1.00  0.00     0.027 C 
HETATM   16  C31 UNL     1      -2.141  49.768 -18.220  1.00  0.00     0.011 C 
HETATM   17  C32 UNL     1      -1.832  49.277 -16.786  1.00  0.00     0.011 C 
HETATM   18  C33 UNL     1      -0.608  49.959 -16.120  1.00  0.00    -0.033 C 
HETATM   19  C34 UNL     1       0.636  49.037 -16.220  1.00  0.00     0.016 C 
ENDROOT
BRANCH  10  20
HETATM   20  O1  UNL     1      -1.569  52.352 -24.363  1.00  0.00    -0.312 OA
BRANCH  20  21
HETATM   21  C19 UNL     1      -1.297  51.198 -25.022  1.00  0.00     0.293 C 
HETATM   22  O2  UNL     1      -1.806  50.110 -24.807  1.00  0.00    -0.259 OA
BRANCH  21  23
HETATM   23  C20 UNL     1      -0.256  51.428 -26.059  1.00  0.00     0.039 A 
HETATM   24  C21 UNL     1      -0.673  51.641 -27.381  1.00  0.00     0.017 A 
HETATM   25  C22 UNL     1       0.268  51.860 -28.390  1.00  0.00     0.001 A 
HETATM   26  C23 UNL     1       1.629  51.870 -28.084  1.00  0.00     0.000 A 
HETATM   27  C24 UNL     1       2.053  51.661 -26.771  1.00  0.00     0.001 A 
HETATM   28  C25 UNL     1       1.114  51.441 -25.760  1.00  0.00     0.017 A 
ENDBRANCH  21  23
ENDBRANCH  20  21
ENDBRANCH  10  20
BRANCH   1  29
HETATM   29  C7  UNL     1      -0.779  49.359 -13.503  1.00  0.00    -0.014 C 
HETATM   30  C8  UNL     1      -1.504  48.064 -13.903  1.00  0.00     0.010 C 
BRANCH  29  31
HETATM   31  C6  UNL     1      -1.419  49.856 -12.175  1.00  0.00     0.008 C 
BRANCH  31  32
HETATM   32  C5  UNL     1      -2.383  51.042 -12.324  1.00  0.00     0.028 C 
BRANCH  32  33
HETATM   33  C4  UNL     1      -1.858  52.251 -11.595  1.00  0.00    -0.025 C 
HETATM   34  C2  UNL     1      -2.557  53.274 -11.066  1.00  0.00    -0.091 C 
HETATM   35  C1  UNL     1      -1.846  54.419 -10.390  1.00  0.00     0.042 C 
HETATM   36  C3  UNL     1      -4.055  53.411 -11.081  1.00  0.00     0.042 C 
ENDBRANCH  32  33
ENDBRANCH  31  32
ENDBRANCH  29  31
ENDBRANCH   1  29
TORSDOF 7
ENDMDL
MODEL 7
REMARK minimizedAffinity -8.37085342
REMARK CNNscore 0.254862309
REMARK CNNaffinity 6.92102575
REMARK  7 active torsions:
REMARK  status: ('A' for Active; 'I' for Inactive)
REMARK    1  A    between atoms: C4_4  and  C5_5 
REMARK    2  A    between atoms: C5_5  and  C6_6 
REMARK    3  A    between atoms: C6_6  and  C7_7 
REMARK    4  A    between atoms: C7_7  and  C9_9 
REMARK    5  A    between atoms: C18_18  and  O1_19 
REMARK    6  A    between atoms: O1_19  and  C19_20 
REMARK    7  A    between atoms: C19_20  and  C20_22 
ROOT
HETATM    1  C9  UNL     1      -1.128  50.711 -21.510  1.00  0.00    -0.002 C 
HETATM    2  C10 UNL     1      -0.224  51.940 -21.788  1.00  0.00     0.006 C 
HETATM    3  C11 UNL     1       0.477  52.305 -20.473  1.00  0.00     0.010 C 
HETATM    4  C12 UNL     1       0.099  51.178 -19.519  1.00  0.00     0.023 C 
HETATM    5  C13 UNL     1       0.238  51.365 -18.030  1.00  0.00    -0.070 C 
HETATM    6  C14 UNL     1       1.006  52.300 -17.448  1.00  0.00     0.004 C 
HETATM    7  C15 UNL     1       1.207  52.338 -16.022  1.00  0.00     0.004 C 
HETATM    8  C16 UNL     1       0.851  51.313 -15.227  1.00  0.00    -0.069 C 
HETATM    9  C17 UNL     1       1.410  51.188 -13.832  1.00  0.00     0.067 C 
HETATM   10  C18 UNL     1       2.364  49.983 -13.768  1.00  0.00     0.136 C 
HETATM   11  C26 UNL     1       1.734  48.709 -14.355  1.00  0.00     0.034 C 
HETATM   12  C27 UNL     1       1.075  48.924 -15.729  1.00  0.00     0.017 C 
HETATM   13  C28 UNL     1       0.067  50.102 -15.746  1.00  0.00    -0.013 C 
HETATM   14  C29 UNL     1      -1.126  49.780 -14.808  1.00  0.00     0.021 C 
HETATM   15  C30 UNL     1      -0.554  50.383 -17.173  1.00  0.00     0.027 C 
HETATM   16  C31 UNL     1      -0.897  49.120 -17.993  1.00  0.00     0.011 C 
HETATM   17  C32 UNL     1      -1.688  49.423 -19.286  1.00  0.00     0.011 C 
HETATM   18  C33 UNL     1      -1.334  50.776 -19.958  1.00  0.00    -0.033 C 
HETATM   19  C34 UNL     1      -2.396  51.846 -19.593  1.00  0.00     0.016 C 
ENDROOT
BRANCH  10  20
HETATM   20  O1  UNL     1       2.680  49.768 -12.377  1.00  0.00    -0.312 OA
BRANCH  20  21
HETATM   21  C19 UNL     1       3.943  50.070 -11.987  1.00  0.00     0.293 C 
HETATM   22  O2  UNL     1       4.972  49.673 -12.512  1.00  0.00    -0.259 OA
BRANCH  21  23
HETATM   23  C20 UNL     1       3.918  50.958 -10.795  1.00  0.00     0.039 A 
HETATM   24  C21 UNL     1       3.366  52.240 -10.933  1.00  0.00     0.017 A 
HETATM   25  C22 UNL     1       3.322  53.110  -9.842  1.00  0.00     0.001 A 
HETATM   26  C23 UNL     1       3.827  52.705  -8.606  1.00  0.00     0.000 A 
HETATM   27  C24 UNL     1       4.376  51.431  -8.458  1.00  0.00     0.001 A 
HETATM   28  C25 UNL     1       4.422  50.558  -9.548  1.00  0.00     0.017 A 
ENDBRANCH  21  23
ENDBRANCH  20  21
ENDBRANCH  10  20
BRANCH   1  29
HETATM   29  C7  UNL     1      -2.383  50.653 -22.432  1.00  0.00    -0.014 C 
HETATM   30  C8  UNL     1      -2.695  49.216 -22.877  1.00  0.00     0.010 C 
BRANCH  29  31
HETATM   31  C6  UNL     1      -2.231  51.512 -23.720  1.00  0.00     0.008 C 
BRANCH  31  32
HETATM   32  C5  UNL     1      -1.773  50.738 -24.965  1.00  0.00     0.028 C 
BRANCH  32  33
HETATM   33  C4  UNL     1      -0.321  51.009 -25.259  1.00  0.00    -0.025 C 
HETATM   34  C2  UNL     1       0.235  51.395 -26.424  1.00  0.00    -0.091 C 
HETATM   35  C1  UNL     1       1.726  51.594 -26.531  1.00  0.00     0.042 C 
HETATM   36  C3  UNL     1      -0.508  51.660 -27.704  1.00  0.00     0.042 C 
ENDBRANCH  32  33
ENDBRANCH  31  32
ENDBRANCH  29  31
ENDBRANCH   1  29
TORSDOF 7
ENDMDL
MODEL 8
REMARK minimizedAffinity -8.22815609
REMARK CNNscore 0.251051635
REMARK CNNaffinity 6.56405258
REMARK  7 active torsions:
REMARK  status: ('A' for Active; 'I' for Inactive)
REMARK    1  A    between atoms: C4_4  and  C5_5 
REMARK    2  A    between atoms: C5_5  and  C6_6 
REMARK    3  A    between atoms: C6_6  and  C7_7 
REMARK    4  A    between atoms: C7_7  and  C9_9 
REMARK    5  A    between atoms: C18_18  and  O1_19 
REMARK    6  A    between atoms: O1_19  and  C19_20 
REMARK    7  A    between atoms: C19_20  and  C20_22 
ROOT
HETATM    1  C9  UNL     1      -5.435  47.959 -18.983  1.00  0.00    -0.002 C 
HETATM    2  C10 UNL     1      -6.772  48.735 -19.117  1.00  0.00     0.006 C 
HETATM    3  C11 UNL     1      -6.657  49.641 -20.350  1.00  0.00     0.010 C 
HETATM    4  C12 UNL     1      -5.336  49.238 -20.993  1.00  0.00     0.023 C 
HETATM    5  C13 UNL     1      -4.659  50.157 -21.978  1.00  0.00    -0.070 C 
HETATM    6  C14 UNL     1      -5.274  51.152 -22.638  1.00  0.00     0.004 C 
HETATM    7  C15 UNL     1      -4.608  51.904 -23.670  1.00  0.00     0.004 C 
HETATM    8  C16 UNL     1      -3.439  51.502 -24.201  1.00  0.00    -0.069 C 
HETATM    9  C17 UNL     1      -2.958  52.054 -25.518  1.00  0.00     0.067 C 
HETATM   10  C18 UNL     1      -3.014  50.951 -26.589  1.00  0.00     0.136 C 
HETATM   11  C26 UNL     1      -2.340  49.651 -26.121  1.00  0.00     0.034 C 
HETATM   12  C27 UNL     1      -2.783  49.197 -24.718  1.00  0.00     0.017 C 
HETATM   13  C28 UNL     1      -2.651  50.308 -23.646  1.00  0.00    -0.013 C 
HETATM   14  C29 UNL     1      -1.155  50.679 -23.462  1.00  0.00     0.021 C 
HETATM   15  C30 UNL     1      -3.180  49.878 -22.219  1.00  0.00     0.027 C 
HETATM   16  C31 UNL     1      -2.839  48.429 -21.811  1.00  0.00     0.011 C 
HETATM   17  C32 UNL     1      -3.186  48.108 -20.338  1.00  0.00     0.011 C 
HETATM   18  C33 UNL     1      -4.432  48.852 -19.791  1.00  0.00    -0.033 C 
HETATM   19  C34 UNL     1      -3.995  50.079 -18.950  1.00  0.00     0.016 C 
ENDROOT
BRANCH  10  20
HETATM   20  O1  UNL     1      -2.330  51.457 -27.753  1.00  0.00    -0.312 OA
BRANCH  20  21
HETATM   21  C19 UNL     1      -1.598  52.587 -27.585  1.00  0.00     0.293 C 
HETATM   22  O2  UNL     1      -2.017  53.731 -27.646  1.00  0.00    -0.259 OA
BRANCH  21  23
HETATM   23  C20 UNL     1      -0.173  52.246 -27.324  1.00  0.00     0.039 A 
HETATM   24  C21 UNL     1       0.660  51.993 -28.422  1.00  0.00     0.017 A 
HETATM   25  C22 UNL     1       2.004  51.667 -28.227  1.00  0.00     0.001 A 
HETATM   26  C23 UNL     1       2.523  51.594 -26.934  1.00  0.00     0.000 A 
HETATM   27  C24 UNL     1       1.702  51.846 -25.835  1.00  0.00     0.001 A 
HETATM   28  C25 UNL     1       0.357  52.171 -26.027  1.00  0.00     0.017 A 
ENDBRANCH  21  23
ENDBRANCH  20  21
ENDBRANCH  10  20
BRANCH   1  29
HETATM   29  C7  UNL     1      -5.089  47.587 -17.510  1.00  0.00    -0.014 C 
HETATM   30  C8  UNL     1      -3.627  47.134 -17.367  1.00  0.00     0.010 C 
BRANCH  29  31
HETATM   31  C6  UNL     1      -5.983  46.446 -16.945  1.00  0.00     0.008 C 
BRANCH  31  32
HETATM   32  C5  UNL     1      -6.467  45.426 -17.986  1.00  0.00     0.028 C 
BRANCH  32  33
HETATM   33  C4  UNL     1      -7.747  44.772 -17.538  1.00  0.00    -0.025 C 
HETATM   34  C2  UNL     1      -9.013  45.187 -17.748  1.00  0.00    -0.091 C 
HETATM   35  C1  UNL     1     -10.176  44.404 -17.194  1.00  0.00     0.042 C 
HETATM   36  C3  UNL     1      -9.415  46.417 -18.514  1.00  0.00     0.042 C 
ENDBRANCH  32  33
ENDBRANCH  31  32
ENDBRANCH  29  31
ENDBRANCH   1  29
TORSDOF 7
ENDMDL
MODEL 9
REMARK minimizedAffinity -7.98408794
REMARK CNNscore 0.234960482
REMARK CNNaffinity 6.15502882
REMARK  7 active torsions:
REMARK  status: ('A' for Active; 'I' for Inactive)
REMARK    1  A    between atoms: C4_4  and  C5_5 
REMARK    2  A    between atoms: C5_5  and  C6_6 
REMARK    3  A    between atoms: C6_6  and  C7_7 
REMARK    4  A    between atoms: C7_7  and  C9_9 
REMARK    5  A    between atoms: C18_18  and  O1_19 
REMARK    6  A    between atoms: O1_19  and  C19_20 
REMARK    7  A    between atoms: C19_20  and  C20_22 
ROOT
HETATM    1  C9  UNL     1      -8.459  46.750 -23.781  1.00  0.00    -0.002 C 
HETATM    2  C10 UNL     1      -8.859  48.122 -24.384  1.00  0.00     0.006 C 
HETATM    3  C11 UNL     1      -7.856  49.164 -23.870  1.00  0.00     0.010 C 
HETATM    4  C12 UNL     1      -6.806  48.343 -23.131  1.00  0.00     0.023 C 
HETATM    5  C13 UNL     1      -5.884  49.005 -22.140  1.00  0.00    -0.070 C 
HETATM    6  C14 UNL     1      -5.638  50.324 -22.092  1.00  0.00     0.004 C 
HETATM    7  C15 UNL     1      -4.640  50.880 -21.214  1.00  0.00     0.004 C 
HETATM    8  C16 UNL     1      -3.737  50.106 -20.585  1.00  0.00    -0.069 C 
HETATM    9  C17 UNL     1      -2.481  50.702 -20.002  1.00  0.00     0.067 C 
HETATM   10  C18 UNL     1      -1.264  50.234 -20.819  1.00  0.00     0.136 C 
HETATM   11  C26 UNL     1      -1.251  48.710 -21.023  1.00  0.00     0.034 C 
HETATM   12  C27 UNL     1      -2.597  48.141 -21.507  1.00  0.00     0.017 C 
HETATM   13  C28 UNL     1      -3.796  48.574 -20.625  1.00  0.00    -0.013 C 
HETATM   14  C29 UNL     1      -3.633  47.983 -19.199  1.00  0.00     0.021 C 
HETATM   15  C30 UNL     1      -5.193  48.062 -21.161  1.00  0.00     0.027 C 
HETATM   16  C31 UNL     1      -5.185  46.625 -21.724  1.00  0.00     0.011 C 
HETATM   17  C32 UNL     1      -6.598  46.083 -22.046  1.00  0.00     0.011 C 
HETATM   18  C33 UNL     1      -7.607  47.157 -22.529  1.00  0.00    -0.033 C 
HETATM   19  C34 UNL     1      -8.529  47.588 -21.359  1.00  0.00     0.016 C 
ENDROOT
BRANCH  10  20
HETATM   20  O1  UNL     1      -0.087  50.633 -20.088  1.00  0.00    -0.312 OA
BRANCH  20  21
HETATM   21  C19 UNL     1       0.033  51.954 -19.802  1.00  0.00     0.293 C 
HETATM   22  O2  UNL     1      -0.170  52.476 -18.717  1.00  0.00    -0.259 OA
BRANCH  21  23
HETATM   23  C20 UNL     1       0.438  52.711 -21.016  1.00  0.00     0.039 A 
HETATM   24  C21 UNL     1       0.102  52.183 -22.271  1.00  0.00     0.017 A 
HETATM   25  C22 UNL     1       0.463  52.858 -23.439  1.00  0.00     0.001 A 
HETATM   26  C23 UNL     1       1.159  54.065 -23.361  1.00  0.00     0.000 A 
HETATM   27  C24 UNL     1       1.496  54.598 -22.117  1.00  0.00     0.001 A 
HETATM   28  C25 UNL     1       1.137  53.925 -20.946  1.00  0.00     0.017 A 
ENDBRANCH  21  23
ENDBRANCH  20  21
ENDBRANCH  10  20
BRANCH   1  29
HETATM   29  C7  UNL     1      -9.670  45.791 -23.584  1.00  0.00    -0.014 C 
HETATM   30  C8  UNL     1      -9.405  44.407 -24.196  1.00  0.00     0.010 C 
BRANCH  29  31
HETATM   31  C6  UNL     1     -10.984  46.332 -24.218  1.00  0.00     0.008 C 
BRANCH  31  32
HETATM   32  C5  UNL     1     -12.178  46.422 -23.256  1.00  0.00     0.028 C 
BRANCH  32  33
HETATM   33  C4  UNL     1     -13.442  46.753 -24.005  1.00  0.00    -0.025 C 
HETATM   34  C2  UNL     1     -14.645  47.093 -23.500  1.00  0.00    -0.091 C 
HETATM   35  C1  UNL     1     -15.810  47.366 -24.418  1.00  0.00     0.042 C 
HETATM   36  C3  UNL     1     -14.973  47.235 -22.040  1.00  0.00     0.042 C 
ENDBRANCH  32  33
ENDBRANCH  31  32
ENDBRANCH  29  31
ENDBRANCH   1  29
TORSDOF 7
ENDMDL
