MODEL 1
REMARK minimizedAffinity -8.57239532
REMARK CNNscore 0.385474294
REMARK CNNaffinity 6.928967
REMARK  13 active torsions:
REMARK  status: ('A' for Active; 'I' for Inactive)
REMARK    1  A    between atoms: C4_4  and  C5_5 
REMARK    2  A    between atoms: C5_5  and  C6_6 
REMARK    3  A    between atoms: C6_6  and  C7_7 
REMARK    4  A    between atoms: C7_7  and  C9_9 
REMARK    5  A    between atoms: C18_18  and  C20_20 
REMARK    6  A    between atoms: C20_20  and  O2_22 
REMARK    7  A    between atoms: C21_23  and  O3_24 
REMARK    8  A    between atoms: O3_24  and  C22_25 
REMARK    9  A    between atoms: C23_27  and  C24_28 
REMARK   10  A    between atoms: C24_28  and  O5_29 
REMARK   11  A    between atoms: C25_30  and  O6_31 
REMARK   12  A    between atoms: C26_32  and  O7_33 
REMARK   13  A    between atoms: C28_35  and  O8_36 
ROOT
HETATM    1  C9  UNL     1      -5.690   6.058  14.569  1.00  0.00    -0.002 C 
HETATM    2  C10 UNL     1      -5.533   5.125  13.338  1.00  0.00     0.006 C 
HETATM    3  C11 UNL     1      -4.135   5.362  12.742  1.00  0.00     0.011 C 
HETATM    4  C12 UNL     1      -3.398   6.231  13.777  1.00  0.00    -0.032 C 
HETATM    5  C13 UNL     1      -2.792   5.242  14.822  1.00  0.00     0.016 C 
HETATM    6  C14 UNL     1      -2.289   7.142  13.176  1.00  0.00     0.004 C 
HETATM    7  C15 UNL     1      -1.030   6.385  12.751  1.00  0.00     0.007 C 
HETATM    8  C16 UNL     1      -0.042   7.307  12.049  1.00  0.00     0.007 C 
HETATM    9  C17 UNL     1       0.478   8.502  12.884  1.00  0.00     0.018 C 
HETATM   10  C18 UNL     1       1.966   8.394  13.389  1.00  0.00     0.072 C 
HETATM   11  C19 UNL     1       2.915   8.053  12.205  1.00  0.00     0.030 C 
HETATM   12  C21 UNL     1       2.406   9.762  14.037  1.00  0.00     0.146 C 
HETATM   13  C27 UNL     1       1.251  10.580  14.630  1.00  0.00     0.066 C 
HETATM   14  C28 UNL     1       0.106   9.722  15.124  1.00  0.00     0.130 C 
HETATM   15  C29 UNL     1      -0.534   8.986  13.957  1.00  0.00    -0.001 A 
HETATM   16  C30 UNL     1      -1.775   9.659  13.406  1.00  0.00     0.024 A 
HETATM   17  C31 UNL     1      -1.938   8.327  14.100  1.00  0.00    -0.025 A 
HETATM   18  C32 UNL     1      -2.600   8.347  15.476  1.00  0.00     0.011 C 
HETATM   19  C33 UNL     1      -4.065   7.879  15.557  1.00  0.00     0.011 C 
HETATM   20  C34 UNL     1      -4.574   7.125  14.323  1.00  0.00    -0.032 C 
HETATM   21  C35 UNL     1      -5.099   8.173  13.296  1.00  0.00     0.016 C 
ENDROOT
BRANCH  12  22
HETATM   22  O3  UNL     1       3.072  10.577  13.044  1.00  0.00    -0.352 OA
BRANCH  22  23
HETATM   23  C22 UNL     1       4.353  11.059  13.450  1.00  0.00     0.292 C 
HETATM   24  O4  UNL     1       4.264  11.860  14.639  1.00  0.00    -0.348 OA
HETATM   25  C23 UNL     1       4.577  13.229  14.298  1.00  0.00     0.179 C 
HETATM   26  C25 UNL     1       5.526  13.104  13.116  1.00  0.00     0.182 C 
HETATM   27  C26 UNL     1       4.906  11.962  12.332  1.00  0.00     0.204 C 
BRANCH  25  28
HETATM   28  C24 UNL     1       3.290  14.016  14.000  1.00  0.00     0.198 C 
BRANCH  28  29
HETATM   29  O5  UNL     1       2.788  13.660  12.710  1.00  0.00    -0.398 OA
HETATM   30  H39 UNL     1       1.987  14.193  12.566  1.00  0.00     0.209 HD
ENDBRANCH  28  29
ENDBRANCH  25  28
BRANCH  26  31
HETATM   31  O6  UNL     1       5.665  14.282  12.332  1.00  0.00    -0.390 OA
HETATM   32  H41 UNL     1       6.126  14.003  11.511  1.00  0.00     0.210 HD
ENDBRANCH  26  31
BRANCH  27  33
HETATM   33  O7  UNL     1       5.880  11.367  11.466  1.00  0.00    -0.388 OA
HETATM   34  H43 UNL     1       6.328  10.647  11.939  1.00  0.00     0.210 HD
ENDBRANCH  27  33
ENDBRANCH  22  23
ENDBRANCH  12  22
BRANCH  10  35
HETATM   35  C20 UNL     1       2.185   7.254  14.385  1.00  0.00     0.151 C 
HETATM   36  O1  UNL     1       2.735   7.295  15.474  1.00  0.00    -0.649 OA
BRANCH  35  37
HETATM   37  O2  UNL     1       1.587   6.097  14.027  1.00  0.00    -0.776 OA
HETATM   38  H33 UNL     1       1.837   5.497  14.760  1.00  0.00     0.167 HD
ENDBRANCH  35  37
ENDBRANCH  10  35
BRANCH  14  39
HETATM   39  O8  UNL     1       0.592   8.797  16.084  1.00  0.00    -0.395 OA
HETATM   40  H47 UNL     1      -0.087   8.724  16.781  1.00  0.00     0.210 HD
ENDBRANCH  14  39
BRANCH   1  41
HETATM   41  C7  UNL     1      -7.166   6.496  14.810  1.00  0.00    -0.014 C 
HETATM   42  C8  UNL     1      -7.510   6.537  16.306  1.00  0.00     0.010 C 
BRANCH  41  43
HETATM   43  C6  UNL     1      -8.169   5.530  14.117  1.00  0.00     0.008 C 
BRANCH  43  44
HETATM   44  C5  UNL     1      -9.213   6.246  13.256  1.00  0.00     0.028 C 
BRANCH  44  45
HETATM   45  C4  UNL     1      -9.846   7.386  14.008  1.00  0.00    -0.025 C 
HETATM   46  C2  UNL     1     -11.120   7.477  14.439  1.00  0.00    -0.091 C 
HETATM   47  C1  UNL     1     -12.158   6.402  14.289  1.00  0.00     0.042 C 
HETATM   48  C3  UNL     1     -11.605   8.716  15.145  1.00  0.00     0.042 C 
ENDBRANCH  44  45
ENDBRANCH  43  44
ENDBRANCH  41  43
ENDBRANCH   1  41
TORSDOF 13
ENDMDL
MODEL 2
REMARK minimizedAffinity -7.60042
REMARK CNNscore 0.278208613
REMARK CNNaffinity 6.7235055
REMARK  13 active torsions:
REMARK  status: ('A' for Active; 'I' for Inactive)
REMARK    1  A    between atoms: C4_4  and  C5_5 
REMARK    2  A    between atoms: C5_5  and  C6_6 
REMARK    3  A    between atoms: C6_6  and  C7_7 
REMARK    4  A    between atoms: C7_7  and  C9_9 
REMARK    5  A    between atoms: C18_18  and  C20_20 
REMARK    6  A    between atoms: C20_20  and  O2_22 
REMARK    7  A    between atoms: C21_23  and  O3_24 
REMARK    8  A    between atoms: O3_24  and  C22_25 
REMARK    9  A    between atoms: C23_27  and  C24_28 
REMARK   10  A    between atoms: C24_28  and  O5_29 
REMARK   11  A    between atoms: C25_30  and  O6_31 
REMARK   12  A    between atoms: C26_32  and  O7_33 
REMARK   13  A    between atoms: C28_35  and  O8_36 
ROOT
HETATM    1  C9  UNL     1      -5.572   6.774  14.722  1.00  0.00    -0.002 C 
HETATM    2  C10 UNL     1      -5.053   5.512  13.982  1.00  0.00     0.006 C 
HETATM    3  C11 UNL     1      -3.538   5.678  13.774  1.00  0.00     0.011 C 
HETATM    4  C12 UNL     1      -3.147   6.903  14.619  1.00  0.00    -0.032 C 
HETATM    5  C13 UNL     1      -2.897   6.370  16.066  1.00  0.00     0.016 C 
HETATM    6  C14 UNL     1      -1.901   7.673  14.096  1.00  0.00     0.004 C 
HETATM    7  C15 UNL     1      -0.578   6.945  14.336  1.00  0.00     0.007 C 
HETATM    8  C16 UNL     1       0.585   7.681  13.683  1.00  0.00     0.007 C 
HETATM    9  C17 UNL     1       0.832   9.127  14.176  1.00  0.00     0.018 C 
HETATM   10  C18 UNL     1       2.093   9.334  15.096  1.00  0.00     0.072 C 
HETATM   11  C19 UNL     1       3.357   8.722  14.428  1.00  0.00     0.030 C 
HETATM   12  C21 UNL     1       2.324  10.875  15.341  1.00  0.00     0.146 C 
HETATM   13  C27 UNL     1       1.048  11.724  15.259  1.00  0.00     0.066 C 
HETATM   14  C28 UNL     1      -0.198  10.966  15.660  1.00  0.00     0.130 C 
HETATM   15  C29 UNL     1      -0.456   9.832  14.680  1.00  0.00    -0.001 A 
HETATM   16  C30 UNL     1      -1.464  10.166  13.598  1.00  0.00     0.024 A 
HETATM   17  C31 UNL     1      -1.841   9.122  14.623  1.00  0.00    -0.025 A 
HETATM   18  C32 UNL     1      -2.892   9.523  15.656  1.00  0.00     0.011 C 
HETATM   19  C33 UNL     1      -4.315   8.967  15.461  1.00  0.00     0.011 C 
HETATM   20  C34 UNL     1      -4.427   7.807  14.465  1.00  0.00    -0.032 C 
HETATM   21  C35 UNL     1      -4.605   8.409  13.038  1.00  0.00     0.016 C 
ENDROOT
BRANCH  12  22
HETATM   22  O3  UNL     1       3.267  11.384  14.369  1.00  0.00    -0.352 OA
BRANCH  22  23
HETATM   23  C22 UNL     1       4.416  12.008  14.945  1.00  0.00     0.292 C 
HETATM   24  O4  UNL     1       4.063  13.195  15.673  1.00  0.00    -0.348 OA
HETATM   25  C23 UNL     1       4.595  14.342  14.973  1.00  0.00     0.179 C 
HETATM   26  C25 UNL     1       5.830  13.801  14.268  1.00  0.00     0.182 C 
HETATM   27  C26 UNL     1       5.355  12.436  13.802  1.00  0.00     0.204 C 
BRANCH  25  28
HETATM   28  C24 UNL     1       3.534  14.934  14.032  1.00  0.00     0.198 C 
BRANCH  28  29
HETATM   29  O5  UNL     1       3.941  16.231  13.591  1.00  0.00    -0.398 OA
HETATM   30  H39 UNL     1       3.233  16.565  13.014  1.00  0.00     0.209 HD
ENDBRANCH  28  29
ENDBRANCH  25  28
BRANCH  26  31
HETATM   31  O6  UNL     1       6.305  14.601  13.194  1.00  0.00    -0.390 OA
HETATM   32  H41 UNL     1       6.955  14.043  12.714  1.00  0.00     0.210 HD
ENDBRANCH  26  31
BRANCH  27  33
HETATM   33  O7  UNL     1       6.477  11.579  13.554  1.00  0.00    -0.388 OA
HETATM   34  H43 UNL     1       6.694  11.097  14.369  1.00  0.00     0.210 HD
ENDBRANCH  27  33
ENDBRANCH  22  23
ENDBRANCH  12  22
BRANCH  10  35
HETATM   35  C20 UNL     1       1.990   8.607  16.438  1.00  0.00     0.151 C 
HETATM   36  O1  UNL     1       1.660   7.452  16.650  1.00  0.00    -0.649 OA
BRANCH  35  37
HETATM   37  O2  UNL     1       2.429   9.337  17.487  1.00  0.00    -0.776 OA
HETATM   38  H33 UNL     1       2.283   8.729  18.240  1.00  0.00     0.167 HD
ENDBRANCH  35  37
ENDBRANCH  10  35
BRANCH  14  39
HETATM   39  O8  UNL     1      -0.036  10.454  16.974  1.00  0.00    -0.395 OA
HETATM   40  H47 UNL     1      -0.896  10.545  17.426  1.00  0.00     0.210 HD
ENDBRANCH  14  39
BRANCH   1  41
HETATM   41  C7  UNL     1      -7.048   7.121  14.361  1.00  0.00    -0.014 C 
HETATM   42  C8  UNL     1      -7.632   8.179  15.309  1.00  0.00     0.010 C 
BRANCH  41  43
HETATM   43  C6  UNL     1      -7.963   5.865  14.429  1.00  0.00     0.008 C 
BRANCH  43  44
HETATM   44  C5  UNL     1      -8.591   5.491  13.083  1.00  0.00     0.028 C 
BRANCH  44  45
HETATM   45  C4  UNL     1      -7.577   4.854  12.172  1.00  0.00    -0.025 C 
HETATM   46  C2  UNL     1      -7.089   3.598  12.238  1.00  0.00    -0.091 C 
HETATM   47  C1  UNL     1      -7.520   2.560  13.235  1.00  0.00     0.042 C 
HETATM   48  C3  UNL     1      -6.040   3.130  11.265  1.00  0.00     0.042 C 
ENDBRANCH  44  45
ENDBRANCH  43  44
ENDBRANCH  41  43
ENDBRANCH   1  41
TORSDOF 13
ENDMDL
MODEL 3
REMARK minimizedAffinity -9.07963467
REMARK CNNscore 0.274169177
REMARK CNNaffinity 6.85143042
REMARK  13 active torsions:
REMARK  status: ('A' for Active; 'I' for Inactive)
REMARK    1  A    between atoms: C4_4  and  C5_5 
REMARK    2  A    between atoms: C5_5  and  C6_6 
REMARK    3  A    between atoms: C6_6  and  C7_7 
REMARK    4  A    between atoms: C7_7  and  C9_9 
REMARK    5  A    between atoms: C18_18  and  C20_20 
REMARK    6  A    between atoms: C20_20  and  O2_22 
REMARK    7  A    between atoms: C21_23  and  O3_24 
REMARK    8  A    between atoms: O3_24  and  C22_25 
REMARK    9  A    between atoms: C23_27  and  C24_28 
REMARK   10  A    between atoms: C24_28  and  O5_29 
REMARK   11  A    between atoms: C25_30  and  O6_31 
REMARK   12  A    between atoms: C26_32  and  O7_33 
REMARK   13  A    between atoms: C28_35  and  O8_36 
ROOT
HETATM    1  C9  UNL     1      -5.695   5.903  14.469  1.00  0.00    -0.002 C 
HETATM    2  C10 UNL     1      -5.485   4.955  13.257  1.00  0.00     0.006 C 
HETATM    3  C11 UNL     1      -4.070   5.202  12.706  1.00  0.00     0.011 C 
HETATM    4  C12 UNL     1      -3.380   6.094  13.753  1.00  0.00    -0.032 C 
HETATM    5  C13 UNL     1      -2.798   5.126  14.832  1.00  0.00     0.016 C 
HETATM    6  C14 UNL     1      -2.262   7.010  13.179  1.00  0.00     0.004 C 
HETATM    7  C15 UNL     1      -0.980   6.263  12.807  1.00  0.00     0.007 C 
HETATM    8  C16 UNL     1       0.021   7.188  12.127  1.00  0.00     0.007 C 
HETATM    9  C17 UNL     1       0.497   8.400  12.963  1.00  0.00     0.018 C 
HETATM   10  C18 UNL     1       1.968   8.318  13.520  1.00  0.00     0.072 C 
HETATM   11  C19 UNL     1       2.961   7.973  12.374  1.00  0.00     0.030 C 
HETATM   12  C21 UNL     1       2.370   9.700  14.164  1.00  0.00     0.146 C 
HETATM   13  C27 UNL     1       1.185  10.511  14.705  1.00  0.00     0.066 C 
HETATM   14  C28 UNL     1       0.034   9.646  15.172  1.00  0.00     0.130 C 
HETATM   15  C29 UNL     1      -0.556   8.886  13.994  1.00  0.00    -0.001 A 
HETATM   16  C30 UNL     1      -1.786   9.536  13.392  1.00  0.00     0.024 A 
HETATM   17  C31 UNL     1      -1.957   8.211  14.098  1.00  0.00    -0.025 A 
HETATM   18  C32 UNL     1      -2.666   8.242  15.450  1.00  0.00     0.011 C 
HETATM   19  C33 UNL     1      -4.128   7.757  15.487  1.00  0.00     0.011 C 
HETATM   20  C34 UNL     1      -4.584   6.980  14.247  1.00  0.00    -0.032 C 
HETATM   21  C35 UNL     1      -5.086   8.008  13.189  1.00  0.00     0.016 C 
ENDROOT
BRANCH  12  22
HETATM   22  O3  UNL     1       3.059  10.510  13.183  1.00  0.00    -0.352 OA
BRANCH  22  23
HETATM   23  C22 UNL     1       4.256  11.119  13.669  1.00  0.00     0.292 C 
HETATM   24  O4  UNL     1       5.427  10.468  13.154  1.00  0.00    -0.348 OA
HETATM   25  C23 UNL     1       6.099   9.795  14.242  1.00  0.00     0.179 C 
HETATM   26  C25 UNL     1       5.742  10.629  15.463  1.00  0.00     0.182 C 
HETATM   27  C26 UNL     1       4.286  10.967  15.201  1.00  0.00     0.204 C 
BRANCH  25  28
HETATM   28  C24 UNL     1       5.651   8.326  14.323  1.00  0.00     0.198 C 
BRANCH  28  29
HETATM   29  O5  UNL     1       5.833   7.832  15.651  1.00  0.00    -0.398 OA
HETATM   30  H39 UNL     1       5.550   6.902  15.644  1.00  0.00     0.209 HD
ENDBRANCH  28  29
ENDBRANCH  25  28
BRANCH  26  31
HETATM   31  O6  UNL     1       5.926   9.973  16.711  1.00  0.00    -0.390 OA
HETATM   32  H41 UNL     1       5.472  10.534  17.377  1.00  0.00     0.210 HD
ENDBRANCH  26  31
BRANCH  27  33
HETATM   33  O7  UNL     1       3.901  12.123  15.956  1.00  0.00    -0.388 OA
HETATM   34  H43 UNL     1       4.062  12.918  15.423  1.00  0.00     0.210 HD
ENDBRANCH  27  33
ENDBRANCH  22  23
ENDBRANCH  12  22
BRANCH  10  35
HETATM   35  C20 UNL     1       2.167   7.194  14.539  1.00  0.00     0.151 C 
HETATM   36  O1  UNL     1       2.689   7.253  15.640  1.00  0.00    -0.649 OA
BRANCH  35  37
HETATM   37  O2  UNL     1       1.583   6.028  14.183  1.00  0.00    -0.776 OA
HETATM   38  H33 UNL     1       1.816   5.441  14.931  1.00  0.00     0.167 HD
ENDBRANCH  35  37
ENDBRANCH  10  35
BRANCH  14  39
HETATM   39  O8  UNL     1       0.498   8.739  16.161  1.00  0.00    -0.395 OA
HETATM   40  H47 UNL     1      -0.204   8.667  16.835  1.00  0.00     0.210 HD
ENDBRANCH  14  39
BRANCH   1  41
HETATM   41  C7  UNL     1      -7.183   6.326  14.654  1.00  0.00    -0.014 C 
HETATM   42  C8  UNL     1      -7.610   6.277  16.129  1.00  0.00     0.010 C 
BRANCH  41  43
HETATM   43  C6  UNL     1      -8.144   5.403  13.850  1.00  0.00     0.008 C 
BRANCH  43  44
HETATM   44  C5  UNL     1      -9.276   6.159  13.149  1.00  0.00     0.028 C 
BRANCH  44  45
HETATM   45  C4  UNL     1      -9.804   7.269  14.017  1.00  0.00    -0.025 C 
HETATM   46  C2  UNL     1     -11.068   7.436  14.456  1.00  0.00    -0.091 C 
HETATM   47  C1  UNL     1     -12.202   6.486  14.194  1.00  0.00     0.042 C 
HETATM   48  C3  UNL     1     -11.439   8.635  15.289  1.00  0.00     0.042 C 
ENDBRANCH  44  45
ENDBRANCH  43  44
ENDBRANCH  41  43
ENDBRANCH   1  41
TORSDOF 13
ENDMDL
MODEL 4
REMARK minimizedAffinity -7.19136667
REMARK CNNscore 0.269902915
REMARK CNNaffinity 6.25813913
REMARK  13 active torsions:
REMARK  status: ('A' for Active; 'I' for Inactive)
REMARK    1  A    between atoms: C4_4  and  C5_5 
REMARK    2  A    between atoms: C5_5  and  C6_6 
REMARK    3  A    between atoms: C6_6  and  C7_7 
REMARK    4  A    between atoms: C7_7  and  C9_9 
REMARK    5  A    between atoms: C18_18  and  C20_20 
REMARK    6  A    between atoms: C20_20  and  O2_22 
REMARK    7  A    between atoms: C21_23  and  O3_24 
REMARK    8  A    between atoms: O3_24  and  C22_25 
REMARK    9  A    between atoms: C23_27  and  C24_28 
REMARK   10  A    between atoms: C24_28  and  O5_29 
REMARK   11  A    between atoms: C25_30  and  O6_31 
REMARK   12  A    between atoms: C26_32  and  O7_33 
REMARK   13  A    between atoms: C28_35  and  O8_36 
ROOT
HETATM    1  C9  UNL     1     -13.016 -11.290  14.950  1.00  0.00    -0.002 C 
HETATM    2  C10 UNL     1     -12.109 -11.961  16.016  1.00  0.00     0.006 C 
HETATM    3  C11 UNL     1     -10.661 -11.918  15.499  1.00  0.00     0.011 C 
HETATM    4  C12 UNL     1     -10.701 -10.996  14.267  1.00  0.00    -0.032 C 
HETATM    5  C13 UNL     1     -10.558  -9.538  14.811  1.00  0.00     0.016 C 
HETATM    6  C14 UNL     1      -9.604 -11.295  13.206  1.00  0.00     0.004 C 
HETATM    7  C15 UNL     1      -8.200 -10.858  13.627  1.00  0.00     0.007 C 
HETATM    8  C16 UNL     1      -7.156 -11.299  12.610  1.00  0.00     0.007 C 
HETATM    9  C17 UNL     1      -7.331 -10.744  11.176  1.00  0.00     0.018 C 
HETATM   10  C18 UNL     1      -6.309  -9.628  10.741  1.00  0.00     0.072 C 
HETATM   11  C19 UNL     1      -4.851 -10.094  11.011  1.00  0.00     0.030 C 
HETATM   12  C21 UNL     1      -6.484  -9.318   9.205  1.00  0.00     0.146 C 
HETATM   13  C27 UNL     1      -7.895  -9.589   8.664  1.00  0.00     0.066 C 
HETATM   14  C28 UNL     1      -8.977  -9.410   9.707  1.00  0.00     0.130 C 
HETATM   15  C29 UNL     1      -8.809 -10.442  10.812  1.00  0.00    -0.001 A 
HETATM   16  C30 UNL     1      -9.690 -11.666  10.655  1.00  0.00     0.024 A 
HETATM   17  C31 UNL     1      -9.965 -10.736  11.814  1.00  0.00    -0.025 A 
HETATM   18  C32 UNL     1     -11.226  -9.880  11.721  1.00  0.00     0.011 C 
HETATM   19  C33 UNL     1     -12.433 -10.313  12.575  1.00  0.00     0.011 C 
HETATM   20  C34 UNL     1     -12.117 -11.338  13.671  1.00  0.00    -0.032 C 
HETATM   21  C35 UNL     1     -12.211 -12.762  13.045  1.00  0.00     0.016 C 
ENDROOT
BRANCH  12  22
HETATM   22  O3  UNL     1      -5.549 -10.114   8.440  1.00  0.00    -0.352 OA
BRANCH  22  23
HETATM   23  C22 UNL     1      -5.027  -9.451   7.288  1.00  0.00     0.292 C 
HETATM   24  O4  UNL     1      -5.643  -9.925   6.080  1.00  0.00    -0.348 OA
HETATM   25  C23 UNL     1      -4.656 -10.647   5.311  1.00  0.00     0.179 C 
HETATM   26  C25 UNL     1      -3.338  -9.993   5.698  1.00  0.00     0.182 C 
HETATM   27  C26 UNL     1      -3.523  -9.769   7.188  1.00  0.00     0.204 C 
BRANCH  25  28
HETATM   28  C24 UNL     1      -4.733 -12.151   5.617  1.00  0.00     0.198 C 
BRANCH  28  29
HETATM   29  O5  UNL     1      -6.082 -12.522   5.909  1.00  0.00    -0.398 OA
HETATM   30  H39 UNL     1      -6.074 -13.474   6.109  1.00  0.00     0.209 HD
ENDBRANCH  28  29
ENDBRANCH  25  28
BRANCH  26  31
HETATM   31  O6  UNL     1      -2.179 -10.763   5.410  1.00  0.00    -0.390 OA
HETATM   32  H41 UNL     1      -1.443 -10.326   5.890  1.00  0.00     0.210 HD
ENDBRANCH  26  31
BRANCH  27  33
HETATM   33  O7  UNL     1      -2.631  -8.747   7.651  1.00  0.00    -0.388 OA
HETATM   34  H43 UNL     1      -3.073  -7.885   7.584  1.00  0.00     0.210 HD
ENDBRANCH  27  33
ENDBRANCH  22  23
ENDBRANCH  12  22
BRANCH  10  35
HETATM   35  C20 UNL     1      -6.444  -8.335  11.548  1.00  0.00     0.151 C 
HETATM   36  O1  UNL     1      -6.738  -7.220  11.150  1.00  0.00    -0.649 OA
BRANCH  35  37
HETATM   37  O2  UNL     1      -6.319  -8.512  12.882  1.00  0.00    -0.776 OA
HETATM   38  H33 UNL     1      -6.423  -7.601  13.224  1.00  0.00     0.167 HD
ENDBRANCH  35  37
ENDBRANCH  10  35
BRANCH  14  39
HETATM   39  O8  UNL     1      -8.903  -8.098  10.242  1.00  0.00    -0.395 OA
HETATM   40  H47 UNL     1      -9.819  -7.790  10.375  1.00  0.00     0.210 HD
ENDBRANCH  14  39
BRANCH   1  41
HETATM   41  C7  UNL     1     -14.458 -11.878  14.927  1.00  0.00    -0.014 C 
HETATM   42  C8  UNL     1     -15.049 -11.884  13.509  1.00  0.00     0.010 C 
BRANCH  41  43
HETATM   43  C6  UNL     1     -15.421 -11.066  15.840  1.00  0.00     0.008 C 
BRANCH  43  44
HETATM   44  C5  UNL     1     -14.771  -9.833  16.473  1.00  0.00     0.028 C 
BRANCH  44  45
HETATM   45  C4  UNL     1     -15.499  -9.419  17.723  1.00  0.00    -0.025 C 
HETATM   46  C2  UNL     1     -15.773  -8.164  18.135  1.00  0.00    -0.091 C 
HETATM   47  C1  UNL     1     -15.437  -6.916  17.371  1.00  0.00     0.042 C 
HETATM   48  C3  UNL     1     -16.480  -7.923  19.443  1.00  0.00     0.042 C 
ENDBRANCH  44  45
ENDBRANCH  43  44
ENDBRANCH  41  43
ENDBRANCH   1  41
TORSDOF 13
ENDMDL
MODEL 5
REMARK minimizedAffinity -8.25536251
REMARK CNNscore 0.235829115
REMARK CNNaffinity 6.43495321
REMARK  13 active torsions:
REMARK  status: ('A' for Active; 'I' for Inactive)
REMARK    1  A    between atoms: C4_4  and  C5_5 
REMARK    2  A    between atoms: C5_5  and  C6_6 
REMARK    3  A    between atoms: C6_6  and  C7_7 
REMARK    4  A    between atoms: C7_7  and  C9_9 
REMARK    5  A    between atoms: C18_18  and  C20_20 
REMARK    6  A    between atoms: C20_20  and  O2_22 
REMARK    7  A    between atoms: C21_23  and  O3_24 
REMARK    8  A    between atoms: O3_24  and  C22_25 
REMARK    9  A    between atoms: C23_27  and  C24_28 
REMARK   10  A    between atoms: C24_28  and  O5_29 
REMARK   11  A    between atoms: C25_30  and  O6_31 
REMARK   12  A    between atoms: C26_32  and  O7_33 
REMARK   13  A    between atoms: C28_35  and  O8_36 
ROOT
HETATM    1  C9  UNL     1      -1.592   5.845  12.015  1.00  0.00    -0.002 C 
HETATM    2  C10 UNL     1      -2.453   4.963  12.959  1.00  0.00     0.006 C 
HETATM    3  C11 UNL     1      -2.844   5.817  14.177  1.00  0.00     0.011 C 
HETATM    4  C12 UNL     1      -2.433   7.254  13.809  1.00  0.00    -0.032 C 
HETATM    5  C13 UNL     1      -3.626   7.852  12.998  1.00  0.00     0.016 C 
HETATM    6  C14 UNL     1      -2.094   8.156  15.030  1.00  0.00     0.004 C 
HETATM    7  C15 UNL     1      -3.318   8.593  15.836  1.00  0.00     0.007 C 
HETATM    8  C16 UNL     1      -2.911   9.356  17.089  1.00  0.00     0.007 C 
HETATM    9  C17 UNL     1      -2.104  10.657  16.857  1.00  0.00     0.018 C 
HETATM   10  C18 UNL     1      -2.884  12.003  17.101  1.00  0.00     0.072 C 
HETATM   11  C19 UNL     1      -3.571  11.985  18.496  1.00  0.00     0.030 C 
HETATM   12  C21 UNL     1      -1.881  13.218  17.027  1.00  0.00     0.146 C 
HETATM   13  C27 UNL     1      -0.654  12.969  16.139  1.00  0.00     0.066 C 
HETATM   14  C28 UNL     1      -0.927  12.007  15.003  1.00  0.00     0.130 C 
HETATM   15  C29 UNL     1      -1.258  10.629  15.556  1.00  0.00    -0.001 A 
HETATM   16  C30 UNL     1      -0.082   9.673  15.581  1.00  0.00     0.024 A 
HETATM   17  C31 UNL     1      -1.225   9.370  14.640  1.00  0.00    -0.025 A 
HETATM   18  C32 UNL     1      -0.959   9.577  13.150  1.00  0.00     0.011 C 
HETATM   19  C33 UNL     1      -0.725   8.316  12.297  1.00  0.00     0.011 C 
HETATM   20  C34 UNL     1      -1.129   6.996  12.966  1.00  0.00    -0.032 C 
HETATM   21  C35 UNL     1       0.079   6.493  13.812  1.00  0.00     0.016 C 
ENDROOT
BRANCH  12  22
HETATM   22  O3  UNL     1      -1.414  13.544  18.357  1.00  0.00    -0.352 OA
BRANCH  22  23
HETATM   23  C22 UNL     1       0.000  13.715  18.452  1.00  0.00     0.292 C 
HETATM   24  O4  UNL     1       0.701  12.494  18.171  1.00  0.00    -0.348 OA
HETATM   25  C23 UNL     1       1.329  12.031  19.388  1.00  0.00     0.179 C 
HETATM   26  C25 UNL     1       1.599  13.308  20.169  1.00  0.00     0.182 C 
HETATM   27  C26 UNL     1       0.342  14.116  19.899  1.00  0.00     0.204 C 
BRANCH  25  28
HETATM   28  C24 UNL     1       0.419  11.024  20.111  1.00  0.00     0.198 C 
BRANCH  28  29
HETATM   29  O5  UNL     1       1.208  10.139  20.909  1.00  0.00    -0.398 OA
HETATM   30  H39 UNL     1       0.590   9.517  21.330  1.00  0.00     0.209 HD
ENDBRANCH  28  29
ENDBRANCH  25  28
BRANCH  26  31
HETATM   31  O6  UNL     1       1.830  13.122  21.559  1.00  0.00    -0.390 OA
HETATM   32  H41 UNL     1       1.781  14.018  21.960  1.00  0.00     0.210 HD
ENDBRANCH  26  31
BRANCH  27  33
HETATM   33  O7  UNL     1       0.589  15.509  20.126  1.00  0.00    -0.388 OA
HETATM   34  H43 UNL     1       0.890  15.917  19.298  1.00  0.00     0.210 HD
ENDBRANCH  27  33
ENDBRANCH  22  23
ENDBRANCH  12  22
BRANCH  10  35
HETATM   35  C20 UNL     1      -4.036  12.223  16.119  1.00  0.00     0.151 C 
HETATM   36  O1  UNL     1      -4.483  13.277  15.698  1.00  0.00    -0.649 OA
BRANCH  35  37
HETATM   37  O2  UNL     1      -4.526  11.079  15.592  1.00  0.00    -0.776 OA
HETATM   38  H33 UNL     1      -5.241  11.406  15.010  1.00  0.00     0.167 HD
ENDBRANCH  35  37
ENDBRANCH  10  35
BRANCH  14  39
HETATM   39  O8  UNL     1      -2.005  12.496  14.220  1.00  0.00    -0.395 OA
HETATM   40  H47 UNL     1      -1.793  12.306  13.287  1.00  0.00     0.210 HD
ENDBRANCH  14  39
BRANCH   1  41
HETATM   41  C7  UNL     1      -0.550   5.021  11.202  1.00  0.00    -0.014 C 
HETATM   42  C8  UNL     1       0.000   3.839  12.014  1.00  0.00     0.010 C 
BRANCH  41  43
HETATM   43  C6  UNL     1       0.657   5.899  10.763  1.00  0.00     0.008 C 
BRANCH  43  44
HETATM   44  C5  UNL     1       0.380   6.741   9.515  1.00  0.00     0.028 C 
BRANCH  44  45
HETATM   45  C4  UNL     1       1.507   7.702   9.249  1.00  0.00    -0.025 C 
HETATM   46  C2  UNL     1       2.146   7.914   8.081  1.00  0.00    -0.091 C 
HETATM   47  C1  UNL     1       1.804   7.245   6.780  1.00  0.00     0.042 C 
HETATM   48  C3  UNL     1       3.290   8.890   7.998  1.00  0.00     0.042 C 
ENDBRANCH  44  45
ENDBRANCH  43  44
ENDBRANCH  41  43
ENDBRANCH   1  41
TORSDOF 13
ENDMDL
MODEL 6
REMARK minimizedAffinity -7.26439953
REMARK CNNscore 0.224657029
REMARK CNNaffinity 5.34838867
REMARK  13 active torsions:
REMARK  status: ('A' for Active; 'I' for Inactive)
REMARK    1  A    between atoms: C4_4  and  C5_5 
REMARK    2  A    between atoms: C5_5  and  C6_6 
REMARK    3  A    between atoms: C6_6  and  C7_7 
REMARK    4  A    between atoms: C7_7  and  C9_9 
REMARK    5  A    between atoms: C18_18  and  C20_20 
REMARK    6  A    between atoms: C20_20  and  O2_22 
REMARK    7  A    between atoms: C21_23  and  O3_24 
REMARK    8  A    between atoms: O3_24  and  C22_25 
REMARK    9  A    between atoms: C23_27  and  C24_28 
REMARK   10  A    between atoms: C24_28  and  O5_29 
REMARK   11  A    between atoms: C25_30  and  O6_31 
REMARK   12  A    between atoms: C26_32  and  O7_33 
REMARK   13  A    between atoms: C28_35  and  O8_36 
ROOT
HETATM    1  C9  UNL     1       6.379  12.918  22.284  1.00  0.00    -0.002 C 
HETATM    2  C10 UNL     1       5.973  11.750  23.224  1.00  0.00     0.006 C 
HETATM    3  C11 UNL     1       4.628  11.193  22.729  1.00  0.00     0.011 C 
HETATM    4  C12 UNL     1       4.394  11.861  21.362  1.00  0.00    -0.032 C 
HETATM    5  C13 UNL     1       5.150  10.984  20.314  1.00  0.00     0.016 C 
HETATM    6  C14 UNL     1       2.896  12.012  20.970  1.00  0.00     0.004 C 
HETATM    7  C15 UNL     1       2.226  10.698  20.568  1.00  0.00     0.007 C 
HETATM    8  C16 UNL     1       0.734  10.889  20.329  1.00  0.00     0.007 C 
HETATM    9  C17 UNL     1       0.351  11.888  19.211  1.00  0.00     0.018 C 
HETATM   10  C18 UNL     1      -0.199  11.253  17.879  1.00  0.00     0.072 C 
HETATM   11  C19 UNL     1      -1.352  10.256  18.190  1.00  0.00     0.030 C 
HETATM   12  C21 UNL     1      -0.734  12.392  16.929  1.00  0.00     0.146 C 
HETATM   13  C27 UNL     1      -0.053  13.753  17.131  1.00  0.00     0.066 C 
HETATM   14  C28 UNL     1       1.375  13.638  17.618  1.00  0.00     0.130 C 
HETATM   15  C29 UNL     1       1.403  13.010  19.003  1.00  0.00    -0.001 A 
HETATM   16  C30 UNL     1       1.497  14.013  20.136  1.00  0.00     0.024 A 
HETATM   17  C31 UNL     1       2.676  13.098  19.897  1.00  0.00    -0.025 A 
HETATM   18  C32 UNL     1       3.928  13.736  19.296  1.00  0.00     0.011 C 
HETATM   19  C33 UNL     1       5.107  14.003  20.250  1.00  0.00     0.011 C 
HETATM   20  C34 UNL     1       5.021  13.284  21.602  1.00  0.00    -0.032 C 
HETATM   21  C35 UNL     1       4.197  14.181  22.576  1.00  0.00     0.016 C 
ENDROOT
BRANCH  12  22
HETATM   22  O3  UNL     1      -2.156  12.566  17.132  1.00  0.00    -0.352 OA
BRANCH  22  23
HETATM   23  C22 UNL     1      -2.931  12.467  15.937  1.00  0.00     0.292 C 
HETATM   24  O4  UNL     1      -4.216  11.876  16.187  1.00  0.00    -0.348 OA
HETATM   25  C23 UNL     1      -4.259  10.579  15.551  1.00  0.00     0.179 C 
HETATM   26  C25 UNL     1      -3.318  10.721  14.365  1.00  0.00     0.182 C 
HETATM   27  C26 UNL     1      -2.187  11.543  14.955  1.00  0.00     0.204 C 
BRANCH  25  28
HETATM   28  C24 UNL     1      -3.863   9.479  16.549  1.00  0.00     0.198 C 
BRANCH  28  29
HETATM   29  O5  UNL     1      -4.337   8.210  16.091  1.00  0.00    -0.398 OA
HETATM   30  H39 UNL     1      -4.074   7.556  16.761  1.00  0.00     0.209 HD
ENDBRANCH  28  29
ENDBRANCH  25  28
BRANCH  26  31
HETATM   31  O6  UNL     1      -2.861   9.494  13.812  1.00  0.00    -0.390 OA
HETATM   32  H41 UNL     1      -2.121   9.731  13.212  1.00  0.00     0.210 HD
ENDBRANCH  26  31
BRANCH  27  33
HETATM   33  O7  UNL     1      -1.450  12.194  13.913  1.00  0.00    -0.388 OA
HETATM   34  H43 UNL     1      -1.841  13.066  13.745  1.00  0.00     0.210 HD
ENDBRANCH  27  33
ENDBRANCH  22  23
ENDBRANCH  12  22
BRANCH  10  35
HETATM   35  C20 UNL     1       0.838  10.406  17.139  1.00  0.00     0.151 C 
HETATM   36  O1  UNL     1       1.099  10.399  15.947  1.00  0.00    -0.649 OA
BRANCH  35  37
HETATM   37  O2  UNL     1       1.616   9.664  17.957  1.00  0.00    -0.776 OA
HETATM   38  H33 UNL     1       2.198   9.196  17.323  1.00  0.00     0.167 HD
ENDBRANCH  35  37
ENDBRANCH  10  35
BRANCH  14  39
HETATM   39  O8  UNL     1       2.122  12.849  16.705  1.00  0.00    -0.395 OA
HETATM   40  H47 UNL     1       3.008  13.253  16.635  1.00  0.00     0.210 HD
ENDBRANCH  14  39
BRANCH   1  41
HETATM   41  C7  UNL     1       7.224  14.009  23.007  1.00  0.00    -0.014 C 
HETATM   42  C8  UNL     1       7.417  15.254  22.129  1.00  0.00     0.010 C 
BRANCH  41  43
HETATM   43  C6  UNL     1       8.633  13.478  23.396  1.00  0.00     0.008 C 
BRANCH  43  44
HETATM   44  C5  UNL     1       9.088  12.279  22.559  1.00  0.00     0.028 C 
BRANCH  44  45
HETATM   45  C4  UNL     1      10.014  12.710  21.454  1.00  0.00    -0.025 C 
HETATM   46  C2  UNL     1       9.808  12.611  20.125  1.00  0.00    -0.091 C 
HETATM   47  C1  UNL     1       8.555  12.084  19.486  1.00  0.00     0.042 C 
HETATM   48  C3  UNL     1      10.865  13.056  19.149  1.00  0.00     0.042 C 
ENDBRANCH  44  45
ENDBRANCH  43  44
ENDBRANCH  41  43
ENDBRANCH   1  41
TORSDOF 13
ENDMDL
MODEL 7
REMARK minimizedAffinity -7.96306515
REMARK CNNscore 0.213694394
REMARK CNNaffinity 6.22938776
REMARK  13 active torsions:
REMARK  status: ('A' for Active; 'I' for Inactive)
REMARK    1  A    between atoms: C4_4  and  C5_5 
REMARK    2  A    between atoms: C5_5  and  C6_6 
REMARK    3  A    between atoms: C6_6  and  C7_7 
REMARK    4  A    between atoms: C7_7  and  C9_9 
REMARK    5  A    between atoms: C18_18  and  C20_20 
REMARK    6  A    between atoms: C20_20  and  O2_22 
REMARK    7  A    between atoms: C21_23  and  O3_24 
REMARK    8  A    between atoms: O3_24  and  C22_25 
REMARK    9  A    between atoms: C23_27  and  C24_28 
REMARK   10  A    between atoms: C24_28  and  O5_29 
REMARK   11  A    between atoms: C25_30  and  O6_31 
REMARK   12  A    between atoms: C26_32  and  O7_33 
REMARK   13  A    between atoms: C28_35  and  O8_36 
ROOT
HETATM    1  C9  UNL     1      -1.212   6.483  12.982  1.00  0.00    -0.002 C 
HETATM    2  C10 UNL     1      -0.898   7.421  11.785  1.00  0.00     0.006 C 
HETATM    3  C11 UNL     1      -1.121   8.870  12.251  1.00  0.00     0.011 C 
HETATM    4  C12 UNL     1      -1.307   8.778  13.776  1.00  0.00    -0.032 C 
HETATM    5  C13 UNL     1       0.130   8.795  14.390  1.00  0.00     0.016 C 
HETATM    6  C14 UNL     1      -2.176   9.914  14.386  1.00  0.00     0.004 C 
HETATM    7  C15 UNL     1      -1.473  11.271  14.442  1.00  0.00     0.007 C 
HETATM    8  C16 UNL     1      -2.418  12.365  14.919  1.00  0.00     0.007 C 
HETATM    9  C17 UNL     1      -3.017  12.171  16.333  1.00  0.00     0.018 C 
HETATM   10  C18 UNL     1      -2.439  13.108  17.460  1.00  0.00     0.072 C 
HETATM   11  C19 UNL     1      -2.488  14.594  17.005  1.00  0.00     0.030 C 
HETATM   12  C21 UNL     1      -3.286  12.936  18.779  1.00  0.00     0.146 C 
HETATM   13  C27 UNL     1      -3.952  11.561  18.925  1.00  0.00     0.066 C 
HETATM   14  C28 UNL     1      -3.181  10.450  18.246  1.00  0.00     0.130 C 
HETATM   15  C29 UNL     1      -3.153  10.680  16.743  1.00  0.00    -0.001 A 
HETATM   16  C30 UNL     1      -4.207   9.903  15.978  1.00  0.00     0.024 A 
HETATM   17  C31 UNL     1      -2.757   9.534  15.765  1.00  0.00    -0.025 A 
HETATM   18  C32 UNL     1      -2.291   8.210  16.367  1.00  0.00     0.011 C 
HETATM   19  C33 UNL     1      -2.101   7.027  15.399  1.00  0.00     0.011 C 
HETATM   20  C34 UNL     1      -2.063   7.404  13.914  1.00  0.00    -0.032 C 
HETATM   21  C35 UNL     1      -3.529   7.436  13.385  1.00  0.00     0.016 C 
ENDROOT
BRANCH  12  22
HETATM   22  O3  UNL     1      -4.321  13.945  18.826  1.00  0.00    -0.352 OA
BRANCH  22  23
HETATM   23  C22 UNL     1      -4.473  14.563  20.104  1.00  0.00     0.292 C 
HETATM   24  O4  UNL     1      -5.134  13.694  21.037  1.00  0.00    -0.348 OA
HETATM   25  C23 UNL     1      -6.436  14.243  21.338  1.00  0.00     0.179 C 
HETATM   26  C25 UNL     1      -6.250  15.743  21.163  1.00  0.00     0.182 C 
HETATM   27  C26 UNL     1      -5.361  15.810  19.935  1.00  0.00     0.204 C 
BRANCH  25  28
HETATM   28  C24 UNL     1      -7.504  13.624  20.423  1.00  0.00     0.198 C 
BRANCH  28  29
HETATM   29  O5  UNL     1      -8.450  12.890  21.203  1.00  0.00    -0.398 OA
HETATM   30  H39 UNL     1      -9.092  12.509  20.579  1.00  0.00     0.209 HD
ENDBRANCH  28  29
ENDBRANCH  25  28
BRANCH  26  31
HETATM   31  O6  UNL     1      -7.454  16.480  20.997  1.00  0.00    -0.390 OA
HETATM   32  H41 UNL     1      -7.180  17.373  20.693  1.00  0.00     0.210 HD
ENDBRANCH  26  31
BRANCH  27  33
HETATM   33  O7  UNL     1      -4.677  17.068  19.885  1.00  0.00    -0.388 OA
HETATM   34  H43 UNL     1      -3.830  16.988  20.351  1.00  0.00     0.210 HD
ENDBRANCH  27  33
ENDBRANCH  22  23
ENDBRANCH  12  22
BRANCH  10  35
HETATM   35  C20 UNL     1      -0.960  12.856  17.757  1.00  0.00     0.151 C 
HETATM   36  O1  UNL     1      -0.033  12.766  16.970  1.00  0.00    -0.649 OA
BRANCH  35  37
HETATM   37  O2  UNL     1      -0.666  12.842  19.076  1.00  0.00    -0.776 OA
HETATM   38  H33 UNL     1       0.297  12.665  19.074  1.00  0.00     0.167 HD
ENDBRANCH  35  37
ENDBRANCH  10  35
BRANCH  14  39
HETATM   39  O8  UNL     1      -1.860  10.409  18.763  1.00  0.00    -0.395 OA
HETATM   40  H47 UNL     1      -1.610   9.469  18.840  1.00  0.00     0.210 HD
ENDBRANCH  14  39
BRANCH   1  41
HETATM   41  C7  UNL     1      -1.753   5.092  12.532  1.00  0.00    -0.014 C 
HETATM   42  C8  UNL     1      -1.127   4.640  11.204  1.00  0.00     0.010 C 
BRANCH  41  43
HETATM   43  C6  UNL     1      -3.297   5.112  12.348  1.00  0.00     0.008 C 
BRANCH  43  44
HETATM   44  C5  UNL     1      -3.963   3.760  12.615  1.00  0.00     0.028 C 
BRANCH  44  45
HETATM   45  C4  UNL     1      -5.428   3.927  12.914  1.00  0.00    -0.025 C 
HETATM   46  C2  UNL     1      -6.446   3.151  12.490  1.00  0.00    -0.091 C 
HETATM   47  C1  UNL     1      -6.292   1.910  11.658  1.00  0.00     0.042 C 
HETATM   48  C3  UNL     1      -7.869   3.487  12.850  1.00  0.00     0.042 C 
ENDBRANCH  44  45
ENDBRANCH  43  44
ENDBRANCH  41  43
ENDBRANCH   1  41
TORSDOF 13
ENDMDL
MODEL 8
REMARK minimizedAffinity -10.1276484
REMARK CNNscore 0.20867984
REMARK CNNaffinity 6.81235838
REMARK  13 active torsions:
REMARK  status: ('A' for Active; 'I' for Inactive)
REMARK    1  A    between atoms: C4_4  and  C5_5 
REMARK    2  A    between atoms: C5_5  and  C6_6 
REMARK    3  A    between atoms: C6_6  and  C7_7 
REMARK    4  A    between atoms: C7_7  and  C9_9 
REMARK    5  A    between atoms: C18_18  and  C20_20 
REMARK    6  A    between atoms: C20_20  and  O2_22 
REMARK    7  A    between atoms: C21_23  and  O3_24 
REMARK    8  A    between atoms: O3_24  and  C22_25 
REMARK    9  A    between atoms: C23_27  and  C24_28 
REMARK   10  A    between atoms: C24_28  and  O5_29 
REMARK   11  A    between atoms: C25_30  and  O6_31 
REMARK   12  A    between atoms: C26_32  and  O7_33 
REMARK   13  A    between atoms: C28_35  and  O8_36 
ROOT
HETATM    1  C9  UNL     1      -6.308   6.920  14.339  1.00  0.00    -0.002 C 
HETATM    2  C10 UNL     1      -6.298   8.319  15.013  1.00  0.00     0.006 C 
HETATM    3  C11 UNL     1      -4.878   8.895  14.881  1.00  0.00     0.011 C 
HETATM    4  C12 UNL     1      -4.149   7.950  13.909  1.00  0.00    -0.032 C 
HETATM    5  C13 UNL     1      -4.496   8.454  12.472  1.00  0.00     0.016 C 
HETATM    6  C14 UNL     1      -2.608   7.887  14.111  1.00  0.00     0.004 C 
HETATM    7  C15 UNL     1      -1.869   9.135  13.628  1.00  0.00     0.007 C 
HETATM    8  C16 UNL     1      -0.388   9.070  13.976  1.00  0.00     0.007 C 
HETATM    9  C17 UNL     1       0.398   7.884  13.367  1.00  0.00     0.018 C 
HETATM   10  C18 UNL     1       1.378   8.240  12.187  1.00  0.00     0.072 C 
HETATM   11  C19 UNL     1       2.315   9.411  12.597  1.00  0.00     0.030 C 
HETATM   12  C21 UNL     1       2.247   6.977  11.819  1.00  0.00     0.146 C 
HETATM   13  C27 UNL     1       1.572   5.634  12.131  1.00  0.00     0.066 C 
HETATM   14  C28 UNL     1       0.062   5.694  12.048  1.00  0.00     0.130 C 
HETATM   15  C29 UNL     1      -0.481   6.629  13.118  1.00  0.00    -0.001 A 
HETATM   16  C30 UNL     1      -0.955   5.924  14.374  1.00  0.00     0.024 A 
HETATM   17  C31 UNL     1      -1.989   6.608  13.509  1.00  0.00    -0.025 A 
HETATM   18  C32 UNL     1      -2.922   5.701  12.709  1.00  0.00     0.011 C 
HETATM   19  C33 UNL     1      -4.360   5.535  13.234  1.00  0.00     0.011 C 
HETATM   20  C34 UNL     1      -4.787   6.563  14.290  1.00  0.00    -0.032 C 
HETATM   21  C35 UNL     1      -4.351   6.030  15.688  1.00  0.00     0.016 C 
ENDROOT
BRANCH  12  22
HETATM   22  O3  UNL     1       3.502   7.026  12.537  1.00  0.00    -0.352 OA
BRANCH  22  23
HETATM   23  C22 UNL     1       4.448   7.948  11.992  1.00  0.00     0.292 C 
HETATM   24  O4  UNL     1       4.936   7.511  10.714  1.00  0.00    -0.348 OA
HETATM   25  C23 UNL     1       6.331   7.160  10.847  1.00  0.00     0.179 C 
HETATM   26  C25 UNL     1       6.827   8.051  11.976  1.00  0.00     0.182 C 
HETATM   27  C26 UNL     1       5.657   8.016  12.943  1.00  0.00     0.204 C 
BRANCH  25  28
HETATM   28  C24 UNL     1       6.481   5.653  11.114  1.00  0.00     0.198 C 
BRANCH  28  29
HETATM   29  O5  UNL     1       5.517   4.924  10.351  1.00  0.00    -0.398 OA
HETATM   30  H39 UNL     1       5.645   3.984  10.566  1.00  0.00     0.209 HD
ENDBRANCH  28  29
ENDBRANCH  25  28
BRANCH  26  31
HETATM   31  O6  UNL     1       8.040   7.629  12.584  1.00  0.00    -0.390 OA
HETATM   32  H41 UNL     1       8.125   8.159  13.406  1.00  0.00     0.210 HD
ENDBRANCH  26  31
BRANCH  27  33
HETATM   33  O7  UNL     1       5.705   9.148  13.820  1.00  0.00    -0.388 OA
HETATM   34  H43 UNL     1       5.206   9.880  13.423  1.00  0.00     0.210 HD
ENDBRANCH  27  33
ENDBRANCH  22  23
ENDBRANCH  12  22
BRANCH  10  35
HETATM   35  C20 UNL     1       0.659   8.755  10.938  1.00  0.00     0.151 C 
HETATM   36  O1  UNL     1       0.987   8.631   9.770  1.00  0.00    -0.649 OA
BRANCH  35  37
HETATM   37  O2  UNL     1      -0.540   9.322  11.197  1.00  0.00    -0.776 OA
HETATM   38  H33 UNL     1      -0.840   9.592  10.305  1.00  0.00     0.167 HD
ENDBRANCH  35  37
ENDBRANCH  10  35
BRANCH  14  39
HETATM   39  O8  UNL     1      -0.322   6.145  10.759  1.00  0.00    -0.395 OA
HETATM   40  H47 UNL     1      -1.112   5.636  10.499  1.00  0.00     0.210 HD
ENDBRANCH  14  39
BRANCH   1  41
HETATM   41  C7  UNL     1      -7.331   5.943  14.992  1.00  0.00    -0.014 C 
HETATM   42  C8  UNL     1      -7.263   5.988  16.526  1.00  0.00     0.010 C 
BRANCH  41  43
HETATM   43  C6  UNL     1      -7.082   4.473  14.548  1.00  0.00     0.008 C 
BRANCH  43  44
HETATM   44  C5  UNL     1      -7.535   4.181  13.115  1.00  0.00     0.028 C 
BRANCH  44  45
HETATM   45  C4  UNL     1      -7.137   2.793  12.693  1.00  0.00    -0.025 C 
HETATM   46  C2  UNL     1      -6.305   2.447  11.690  1.00  0.00    -0.091 C 
HETATM   47  C1  UNL     1      -5.561   3.417  10.817  1.00  0.00     0.042 C 
HETATM   48  C3  UNL     1      -6.046   0.998  11.373  1.00  0.00     0.042 C 
ENDBRANCH  44  45
ENDBRANCH  43  44
ENDBRANCH  41  43
ENDBRANCH   1  41
TORSDOF 13
ENDMDL
MODEL 9
REMARK minimizedAffinity -9.23413563
REMARK CNNscore 0.183004633
REMARK CNNaffinity 6.64031172
REMARK  13 active torsions:
REMARK  status: ('A' for Active; 'I' for Inactive)
REMARK    1  A    between atoms: C4_4  and  C5_5 
REMARK    2  A    between atoms: C5_5  and  C6_6 
REMARK    3  A    between atoms: C6_6  and  C7_7 
REMARK    4  A    between atoms: C7_7  and  C9_9 
REMARK    5  A    between atoms: C18_18  and  C20_20 
REMARK    6  A    between atoms: C20_20  and  O2_22 
REMARK    7  A    between atoms: C21_23  and  O3_24 
REMARK    8  A    between atoms: O3_24  and  C22_25 
REMARK    9  A    between atoms: C23_27  and  C24_28 
REMARK   10  A    between atoms: C24_28  and  O5_29 
REMARK   11  A    between atoms: C25_30  and  O6_31 
REMARK   12  A    between atoms: C26_32  and  O7_33 
REMARK   13  A    between atoms: C28_35  and  O8_36 
ROOT
HETATM    1  C9  UNL     1      -0.079   7.218  13.208  1.00  0.00    -0.002 C 
HETATM    2  C10 UNL     1       0.166   8.162  14.416  1.00  0.00     0.006 C 
HETATM    3  C11 UNL     1      -1.189   8.426  15.092  1.00  0.00     0.011 C 
HETATM    4  C12 UNL     1      -2.165   7.432  14.437  1.00  0.00    -0.032 C 
HETATM    5  C13 UNL     1      -2.022   6.095  15.231  1.00  0.00     0.016 C 
HETATM    6  C14 UNL     1      -3.648   7.904  14.422  1.00  0.00     0.004 C 
HETATM    7  C15 UNL     1      -4.330   7.844  15.790  1.00  0.00     0.007 C 
HETATM    8  C16 UNL     1      -5.728   8.444  15.737  1.00  0.00     0.007 C 
HETATM    9  C17 UNL     1      -6.722   7.759  14.768  1.00  0.00     0.018 C 
HETATM   10  C18 UNL     1      -7.848   6.888  15.440  1.00  0.00     0.072 C 
HETATM   11  C19 UNL     1      -8.579   7.706  16.543  1.00  0.00     0.030 C 
HETATM   12  C21 UNL     1      -8.890   6.433  14.348  1.00  0.00     0.146 C 
HETATM   13  C27 UNL     1      -8.310   6.320  12.931  1.00  0.00     0.066 C 
HETATM   14  C28 UNL     1      -6.838   5.967  12.918  1.00  0.00     0.130 C 
HETATM   15  C29 UNL     1      -6.029   7.088  13.552  1.00  0.00    -0.001 A 
HETATM   16  C30 UNL     1      -5.420   8.053  12.554  1.00  0.00     0.024 A 
HETATM   17  C31 UNL     1      -4.486   7.174  13.353  1.00  0.00    -0.025 A 
HETATM   18  C32 UNL     1      -3.800   6.038  12.596  1.00  0.00     0.011 C 
HETATM   19  C33 UNL     1      -2.317   6.235  12.229  1.00  0.00     0.011 C 
HETATM   20  C34 UNL     1      -1.614   7.383  12.964  1.00  0.00    -0.032 C 
HETATM   21  C35 UNL     1      -1.856   8.694  12.156  1.00  0.00     0.016 C 
ENDROOT
BRANCH  12  22
HETATM   22  O3  UNL     1      -9.993   7.368  14.309  1.00  0.00    -0.352 OA
BRANCH  22  23
HETATM   23  C22 UNL     1     -11.015   7.024  13.373  1.00  0.00     0.292 C 
HETATM   24  O4  UNL     1     -11.211   8.061  12.399  1.00  0.00    -0.348 OA
HETATM   25  C23 UNL     1     -12.510   8.657  12.614  1.00  0.00     0.179 C 
HETATM   26  C25 UNL     1     -13.337   7.528  13.210  1.00  0.00     0.182 C 
HETATM   27  C26 UNL     1     -12.340   6.865  14.143  1.00  0.00     0.204 C 
BRANCH  25  28
HETATM   28  C24 UNL     1     -12.389   9.900  13.511  1.00  0.00     0.198 C 
BRANCH  28  29
HETATM   29  O5  UNL     1     -11.026  10.325  13.574  1.00  0.00    -0.398 OA
HETATM   30  H39 UNL     1     -11.002  11.100  14.162  1.00  0.00     0.209 HD
ENDBRANCH  28  29
ENDBRANCH  25  28
BRANCH  26  31
HETATM   31  O6  UNL     1     -14.515   7.943  13.889  1.00  0.00    -0.390 OA
HETATM   32  H41 UNL     1     -14.826   7.156  14.388  1.00  0.00     0.210 HD
ENDBRANCH  26  31
BRANCH  27  33
HETATM   33  O7  UNL     1     -12.745   5.521  14.428  1.00  0.00    -0.388 OA
HETATM   34  H43 UNL     1     -12.351   4.924  13.771  1.00  0.00     0.210 HD
ENDBRANCH  27  33
ENDBRANCH  22  23
ENDBRANCH  12  22
BRANCH  10  35
HETATM   35  C20 UNL     1      -7.306   5.663  16.181  1.00  0.00     0.151 C 
HETATM   36  O1  UNL     1      -6.240   5.538  16.759  1.00  0.00    -0.649 OA
BRANCH  35  37
HETATM   37  O2  UNL     1      -8.194   4.648  16.275  1.00  0.00    -0.776 OA
HETATM   38  H33 UNL     1      -7.683   3.968  16.759  1.00  0.00     0.167 HD
ENDBRANCH  35  37
ENDBRANCH  10  35
BRANCH  14  39
HETATM   39  O8  UNL     1      -6.637   4.754  13.625  1.00  0.00    -0.395 OA
HETATM   40  H47 UNL     1      -5.958   4.248  13.141  1.00  0.00     0.210 HD
ENDBRANCH  14  39
BRANCH   1  41
HETATM   41  C7  UNL     1       0.937   7.444  12.049  1.00  0.00    -0.014 C 
HETATM   42  C8  UNL     1       0.238   7.509  10.683  1.00  0.00     0.010 C 
BRANCH  41  43
HETATM   43  C6  UNL     1       1.996   6.307  11.987  1.00  0.00     0.008 C 
BRANCH  43  44
HETATM   44  C5  UNL     1       3.166   6.609  11.047  1.00  0.00     0.028 C 
BRANCH  44  45
HETATM   45  C4  UNL     1       2.904   6.069   9.667  1.00  0.00    -0.025 C 
HETATM   46  C2  UNL     1       2.880   6.757   8.507  1.00  0.00    -0.091 C 
HETATM   47  C1  UNL     1       3.171   8.225   8.373  1.00  0.00     0.042 C 
HETATM   48  C3  UNL     1       2.559   6.064   7.210  1.00  0.00     0.042 C 
ENDBRANCH  44  45
ENDBRANCH  43  44
ENDBRANCH  41  43
ENDBRANCH   1  41
TORSDOF 13
ENDMDL
