MODEL 1
REMARK minimizedAffinity -7.10896921
REMARK CNNscore 0.651042402
REMARK CNNaffinity 6.99904585
REMARK  6 active torsions:
REMARK  status: ('A' for Active; 'I' for Inactive)
REMARK    1  A    between atoms: C2_2  and  C3_3 
REMARK    2  A    between atoms: C2_2  and  C27_30 
REMARK    3  A    between atoms: C3_3  and  C4_4 
REMARK    4  A    between atoms: C4_4  and  C5_5 
REMARK    5  A    between atoms: C5_5  and  C7_7 
REMARK    6  A    between atoms: C26_28  and  O3_29 
ROOT
HETATM    1  C7  UNL     1      -9.517   8.759  14.819  1.00  0.00    -0.002 C 
HETATM    2  C8  UNL     1      -8.375   9.548  15.510  1.00  0.00     0.006 C 
HETATM    3  C9  UNL     1      -7.063   8.819  15.195  1.00  0.00     0.010 C 
HETATM    4  C10 UNL     1      -7.455   7.773  14.155  1.00  0.00     0.027 C 
HETATM    5  C11 UNL     1      -6.545   6.605  13.854  1.00  0.00    -0.036 C 
HETATM    6  C12 UNL     1      -7.035   5.467  13.302  1.00  0.00     0.002 C 
HETATM    7  C13 UNL     1      -8.534   5.357  13.088  1.00  0.00     0.157 C 
HETATM    8  O1  UNL     1      -9.028   4.337  12.607  1.00  0.00    -0.293 OA
HETATM    9  C14 UNL     1      -9.443   6.523  13.450  1.00  0.00     0.093 C 
HETATM   10  C15 UNL     1      -8.876   7.351  14.604  1.00  0.00    -0.026 C 
HETATM   11  C16 UNL     1      -8.893   6.522  15.914  1.00  0.00     0.016 C 
HETATM   12  C17 UNL     1      -6.144   4.278  12.883  1.00  0.00    -0.008 C 
HETATM   13  C18 UNL     1      -6.350   3.177  13.958  1.00  0.00     0.021 C 
HETATM   14  C19 UNL     1      -6.535   3.704  11.481  1.00  0.00     0.022 C 
HETATM   15  C20 UNL     1      -5.388   3.123  10.653  1.00  0.00     0.080 C 
HETATM   16  C21 UNL     1      -4.282   2.580  11.518  1.00  0.00     0.131 C 
HETATM   17  O2  UNL     1      -3.835   1.445  11.356  1.00  0.00    -0.298 OA
HETATM   18  C22 UNL     1      -3.687   3.528  12.548  1.00  0.00     0.056 C 
HETATM   19  C23 UNL     1      -2.305   3.963  12.059  1.00  0.00     0.018 C 
HETATM   20  C24 UNL     1      -4.640   4.723  12.789  1.00  0.00     0.012 C 
HETATM   21  C25 UNL     1      -4.228   5.546  14.017  1.00  0.00     0.042 C 
HETATM   22  C26 UNL     1      -5.079   6.811  14.127  1.00  0.00     0.148 C 
ENDROOT
BRANCH   1  23
HETATM   23  C5  UNL     1     -10.880   8.883  15.568  1.00  0.00    -0.014 C 
HETATM   24  C6  UNL     1     -11.756   9.986  14.958  1.00  0.00     0.010 C 
BRANCH  23  25
HETATM   25  C4  UNL     1     -10.688   9.208  17.079  1.00  0.00     0.009 C 
BRANCH  25  26
HETATM   26  C3  UNL     1     -11.649  10.238  17.693  1.00  0.00     0.034 C 
BRANCH  26  27
HETATM   27  C2  UNL     1     -12.093   9.986  19.124  1.00  0.00    -0.086 C 
HETATM   28  C1  UNL     1     -13.288   9.413  19.364  1.00  0.00     0.014 C 
BRANCH  27  29
HETATM   29  C27 UNL     1     -11.159  10.291  20.292  1.00  0.00     0.005 C 
HETATM   30  C28 UNL     1     -10.749  11.762  20.384  1.00  0.00     0.014 C 
HETATM   31  C29 UNL     1     -11.709   9.797  21.631  1.00  0.00     0.014 C 
ENDBRANCH  27  29
ENDBRANCH  26  27
ENDBRANCH  25  26
ENDBRANCH  23  25
ENDBRANCH   1  23
BRANCH  22  32
HETATM   32  O3  UNL     1      -4.620   7.772  13.182  1.00  0.00    -0.391 OA
HETATM   33  H37 UNL     1      -3.716   8.023  13.437  1.00  0.00     0.210 HD
ENDBRANCH  22  32
TORSDOF 6
ENDMDL
MODEL 2
REMARK minimizedAffinity -7.52783489
REMARK CNNscore 0.624118567
REMARK CNNaffinity 6.96709108
REMARK  6 active torsions:
REMARK  status: ('A' for Active; 'I' for Inactive)
REMARK    1  A    between atoms: C2_2  and  C3_3 
REMARK    2  A    between atoms: C2_2  and  C27_30 
REMARK    3  A    between atoms: C3_3  and  C4_4 
REMARK    4  A    between atoms: C4_4  and  C5_5 
REMARK    5  A    between atoms: C5_5  and  C7_7 
REMARK    6  A    between atoms: C26_28  and  O3_29 
ROOT
HETATM    1  C7  UNL     1      -9.148   7.374  14.449  1.00  0.00    -0.002 C 
HETATM    2  C8  UNL     1     -10.161   6.560  13.603  1.00  0.00     0.006 C 
HETATM    3  C9  UNL     1     -11.281   7.521  13.186  1.00  0.00     0.010 C 
HETATM    4  C10 UNL     1     -10.772   8.897  13.606  1.00  0.00     0.027 C 
HETATM    5  C11 UNL     1     -11.717  10.070  13.718  1.00  0.00    -0.036 C 
HETATM    6  C12 UNL     1     -11.408  11.141  14.489  1.00  0.00     0.002 C 
HETATM    7  C13 UNL     1     -10.137  11.090  15.317  1.00  0.00     0.157 C 
HETATM    8  O1  UNL     1      -9.822  12.030  16.046  1.00  0.00    -0.293 OA
HETATM    9  C14 UNL     1      -9.223   9.876  15.236  1.00  0.00     0.093 C 
HETATM   10  C15 UNL     1      -9.999   8.598  14.915  1.00  0.00    -0.026 C 
HETATM   11  C16 UNL     1     -10.919   8.219  16.105  1.00  0.00     0.016 C 
HETATM   12  C17 UNL     1     -12.285  12.408  14.569  1.00  0.00    -0.008 C 
HETATM   13  C18 UNL     1     -13.021  12.347  15.935  1.00  0.00     0.021 C 
HETATM   14  C19 UNL     1     -11.442  13.724  14.500  1.00  0.00     0.022 C 
HETATM   15  C20 UNL     1     -12.121  14.921  13.833  1.00  0.00     0.080 C 
HETATM   16  C21 UNL     1     -13.620  14.875  13.977  1.00  0.00     0.131 C 
HETATM   17  O2  UNL     1     -14.256  15.841  14.397  1.00  0.00    -0.298 OA
HETATM   18  C22 UNL     1     -14.317  13.611  13.501  1.00  0.00     0.056 C 
HETATM   19  C23 UNL     1     -15.033  13.922  12.187  1.00  0.00     0.018 C 
HETATM   20  C24 UNL     1     -13.298  12.454  13.368  1.00  0.00     0.012 C 
HETATM   21  C25 UNL     1     -13.990  11.099  13.175  1.00  0.00     0.042 C 
HETATM   22  C26 UNL     1     -12.963  10.008  12.873  1.00  0.00     0.148 C 
ENDROOT
BRANCH   1  23
HETATM   23  C5  UNL     1      -8.402   6.503  15.506  1.00  0.00    -0.014 C 
HETATM   24  C6  UNL     1      -7.999   7.333  16.733  1.00  0.00     0.010 C 
BRANCH  23  25
HETATM   25  C4  UNL     1      -7.110   5.857  14.925  1.00  0.00     0.009 C 
BRANCH  25  26
HETATM   26  C3  UNL     1      -7.300   4.698  13.933  1.00  0.00     0.034 C 
BRANCH  26  27
HETATM   27  C2  UNL     1      -6.088   4.306  13.105  1.00  0.00    -0.086 C 
HETATM   28  C1  UNL     1      -5.025   5.130  13.040  1.00  0.00     0.014 C 
BRANCH  27  29
HETATM   29  C27 UNL     1      -6.025   2.945  12.417  1.00  0.00     0.005 C 
HETATM   30  C28 UNL     1      -7.328   2.147  12.513  1.00  0.00     0.014 C 
HETATM   31  C29 UNL     1      -5.554   3.040  10.965  1.00  0.00     0.014 C 
ENDBRANCH  27  29
ENDBRANCH  26  27
ENDBRANCH  25  26
ENDBRANCH  23  25
ENDBRANCH   1  23
BRANCH  22  32
HETATM   32  O3  UNL     1     -12.540  10.118  11.517  1.00  0.00    -0.391 OA
HETATM   33  H37 UNL     1     -13.312   9.935  10.956  1.00  0.00     0.210 HD
ENDBRANCH  22  32
TORSDOF 6
ENDMDL
MODEL 3
REMARK minimizedAffinity -8.9702177
REMARK CNNscore 0.607898116
REMARK CNNaffinity 7.31487513
REMARK  6 active torsions:
REMARK  status: ('A' for Active; 'I' for Inactive)
REMARK    1  A    between atoms: C2_2  and  C3_3 
REMARK    2  A    between atoms: C2_2  and  C27_30 
REMARK    3  A    between atoms: C3_3  and  C4_4 
REMARK    4  A    between atoms: C4_4  and  C5_5 
REMARK    5  A    between atoms: C5_5  and  C7_7 
REMARK    6  A    between atoms: C26_28  and  O3_29 
ROOT
HETATM    1  C7  UNL     1      -2.326   5.648  12.605  1.00  0.00    -0.002 C 
HETATM    2  C8  UNL     1      -2.913   4.323  12.052  1.00  0.00     0.006 C 
HETATM    3  C9  UNL     1      -4.414   4.325  12.364  1.00  0.00     0.010 C 
HETATM    4  C10 UNL     1      -4.689   5.734  12.880  1.00  0.00     0.027 C 
HETATM    5  C11 UNL     1      -5.954   6.044  13.645  1.00  0.00    -0.036 C 
HETATM    6  C12 UNL     1      -6.021   7.115  14.474  1.00  0.00     0.002 C 
HETATM    7  C13 UNL     1      -4.763   7.936  14.693  1.00  0.00     0.157 C 
HETATM    8  O1  UNL     1      -4.769   8.907  15.451  1.00  0.00    -0.293 OA
HETATM    9  C14 UNL     1      -3.481   7.576  13.958  1.00  0.00     0.093 C 
HETATM   10  C15 UNL     1      -3.395   6.079  13.659  1.00  0.00    -0.026 C 
HETATM   11  C16 UNL     1      -3.234   5.280  14.978  1.00  0.00     0.016 C 
HETATM   12  C17 UNL     1      -7.311   7.538  15.208  1.00  0.00    -0.008 C 
HETATM   13  C18 UNL     1      -7.133   7.112  16.690  1.00  0.00     0.021 C 
HETATM   14  C19 UNL     1      -7.555   9.082  15.145  1.00  0.00     0.022 C 
HETATM   15  C20 UNL     1      -9.017   9.529  15.122  1.00  0.00     0.080 C 
HETATM   16  C21 UNL     1      -9.920   8.552  15.828  1.00  0.00     0.131 C 
HETATM   17  O2  UNL     1     -10.716   8.918  16.692  1.00  0.00    -0.298 OA
HETATM   18  C22 UNL     1      -9.861   7.105  15.364  1.00  0.00     0.056 C 
HETATM   19  C23 UNL     1     -11.128   6.806  14.562  1.00  0.00     0.018 C 
HETATM   20  C24 UNL     1      -8.566   6.854  14.555  1.00  0.00     0.012 C 
HETATM   21  C25 UNL     1      -8.320   5.358  14.317  1.00  0.00     0.042 C 
HETATM   22  C26 UNL     1      -7.136   5.151  13.373  1.00  0.00     0.148 C 
ENDROOT
BRANCH   1  23
HETATM   23  C5  UNL     1      -0.830   5.519  13.028  1.00  0.00    -0.014 C 
HETATM   24  C6  UNL     1      -0.634   5.880  14.508  1.00  0.00     0.010 C 
BRANCH  23  25
HETATM   25  C4  UNL     1       0.097   6.443  12.186  1.00  0.00     0.009 C 
BRANCH  25  26
HETATM   26  C3  UNL     1       0.148   6.182  10.672  1.00  0.00     0.034 C 
BRANCH  26  27
HETATM   27  C2  UNL     1       1.436   6.555   9.960  1.00  0.00    -0.086 C 
HETATM   28  C1  UNL     1       2.558   5.846  10.189  1.00  0.00     0.014 C 
BRANCH  27  29
HETATM   29  C27 UNL     1       1.452   7.669   8.917  1.00  0.00     0.005 C 
HETATM   30  C28 UNL     1       1.987   7.226   7.553  1.00  0.00     0.014 C 
HETATM   31  C29 UNL     1       0.094   8.356   8.769  1.00  0.00     0.014 C 
ENDBRANCH  27  29
ENDBRANCH  26  27
ENDBRANCH  25  26
ENDBRANCH  23  25
ENDBRANCH   1  23
BRANCH  22  32
HETATM   32  O3  UNL     1      -7.547   5.417  12.035  1.00  0.00    -0.391 OA
HETATM   33  H37 UNL     1      -8.212   4.749  11.797  1.00  0.00     0.210 HD
ENDBRANCH  22  32
TORSDOF 6
ENDMDL
MODEL 4
REMARK minimizedAffinity -8.66690159
REMARK CNNscore 0.577321351
REMARK CNNaffinity 6.98842382
REMARK  6 active torsions:
REMARK  status: ('A' for Active; 'I' for Inactive)
REMARK    1  A    between atoms: C2_2  and  C3_3 
REMARK    2  A    between atoms: C2_2  and  C27_30 
REMARK    3  A    between atoms: C3_3  and  C4_4 
REMARK    4  A    between atoms: C4_4  and  C5_5 
REMARK    5  A    between atoms: C5_5  and  C7_7 
REMARK    6  A    between atoms: C26_28  and  O3_29 
ROOT
HETATM    1  C7  UNL     1      -8.267   7.631  14.682  1.00  0.00    -0.002 C 
HETATM    2  C8  UNL     1      -7.428   8.810  15.240  1.00  0.00     0.006 C 
HETATM    3  C9  UNL     1      -5.975   8.580  14.807  1.00  0.00     0.010 C 
HETATM    4  C10 UNL     1      -6.054   7.409  13.833  1.00  0.00     0.027 C 
HETATM    5  C11 UNL     1      -4.816   6.626  13.463  1.00  0.00    -0.036 C 
HETATM    6  C12 UNL     1      -4.911   5.360  12.985  1.00  0.00     0.002 C 
HETATM    7  C13 UNL     1      -6.283   4.713  12.925  1.00  0.00     0.157 C 
HETATM    8  O1  UNL     1      -6.418   3.560  12.516  1.00  0.00    -0.293 OA
HETATM    9  C14 UNL     1      -7.514   5.497  13.355  1.00  0.00     0.093 C 
HETATM   10  C15 UNL     1      -7.184   6.534  14.430  1.00  0.00    -0.026 C 
HETATM   11  C16 UNL     1      -6.787   5.825  15.750  1.00  0.00     0.016 C 
HETATM   12  C17 UNL     1      -3.693   4.545  12.501  1.00  0.00    -0.008 C 
HETATM   13  C18 UNL     1      -3.394   3.502  13.611  1.00  0.00     0.021 C 
HETATM   14  C19 UNL     1      -3.972   3.796  11.156  1.00  0.00     0.022 C 
HETATM   15  C20 UNL     1      -2.770   3.616  10.227  1.00  0.00     0.080 C 
HETATM   16  C21 UNL     1      -1.472   3.549  10.987  1.00  0.00     0.131 C 
HETATM   17  O2  UNL     1      -0.663   2.641  10.801  1.00  0.00    -0.298 OA
HETATM   18  C22 UNL     1      -1.170   4.701  11.933  1.00  0.00     0.056 C 
HETATM   19  C23 UNL     1      -0.085   5.572  11.299  1.00  0.00     0.018 C 
HETATM   20  C24 UNL     1      -2.463   5.490  12.247  1.00  0.00     0.012 C 
HETATM   21  C25 UNL     1      -2.269   6.470  13.411  1.00  0.00     0.042 C 
HETATM   22  C26 UNL     1      -3.504   7.354  13.583  1.00  0.00     0.148 C 
ENDROOT
BRANCH   1  23
HETATM   23  C5  UNL     1      -9.511   7.302  15.563  1.00  0.00    -0.014 C 
HETATM   24  C6  UNL     1     -10.686   6.803  14.709  1.00  0.00     0.010 C 
BRANCH  23  25
HETATM   25  C4  UNL     1     -10.002   8.541  16.368  1.00  0.00     0.009 C 
BRANCH  25  26
HETATM   26  C3  UNL     1     -11.353   9.146  15.956  1.00  0.00     0.034 C 
BRANCH  26  27
HETATM   27  C2  UNL     1     -11.333  10.131  14.800  1.00  0.00    -0.086 C 
HETATM   28  C1  UNL     1     -10.353  11.051  14.719  1.00  0.00     0.014 C 
BRANCH  27  29
HETATM   29  C27 UNL     1     -12.362  10.032  13.677  1.00  0.00     0.005 C 
HETATM   30  C28 UNL     1     -11.841   9.317  12.427  1.00  0.00     0.014 C 
HETATM   31  C29 UNL     1     -13.683   9.416  14.141  1.00  0.00     0.014 C 
ENDBRANCH  27  29
ENDBRANCH  26  27
ENDBRANCH  25  26
ENDBRANCH  23  25
ENDBRANCH   1  23
BRANCH  22  32
HETATM   32  O3  UNL     1      -3.506   8.363  12.578  1.00  0.00    -0.391 OA
HETATM   33  H37 UNL     1      -2.734   8.933  12.736  1.00  0.00     0.210 HD
ENDBRANCH  22  32
TORSDOF 6
ENDMDL
MODEL 5
REMARK minimizedAffinity -6.55642223
REMARK CNNscore 0.541753292
REMARK CNNaffinity 6.7513032
REMARK  6 active torsions:
REMARK  status: ('A' for Active; 'I' for Inactive)
REMARK    1  A    between atoms: C2_2  and  C3_3 
REMARK    2  A    between atoms: C2_2  and  C27_30 
REMARK    3  A    between atoms: C3_3  and  C4_4 
REMARK    4  A    between atoms: C4_4  and  C5_5 
REMARK    5  A    between atoms: C5_5  and  C7_7 
REMARK    6  A    between atoms: C26_28  and  O3_29 
ROOT
HETATM    1  C7  UNL     1     -10.338   7.357  14.757  1.00  0.00    -0.002 C 
HETATM    2  C8  UNL     1     -10.008   8.421  15.837  1.00  0.00     0.006 C 
HETATM    3  C9  UNL     1     -11.286   9.232  16.081  1.00  0.00     0.010 C 
HETATM    4  C10 UNL     1     -12.364   8.477  15.310  1.00  0.00     0.027 C 
HETATM    5  C11 UNL     1     -13.683   9.136  14.979  1.00  0.00    -0.036 C 
HETATM    6  C12 UNL     1     -14.448   8.684  13.954  1.00  0.00     0.002 C 
HETATM    7  C13 UNL     1     -13.900   7.568  13.084  1.00  0.00     0.157 C 
HETATM    8  O1  UNL     1     -14.549   7.136  12.130  1.00  0.00    -0.293 OA
HETATM    9  C14 UNL     1     -12.544   6.953  13.397  1.00  0.00     0.093 C 
HETATM   10  C15 UNL     1     -11.603   7.957  14.065  1.00  0.00    -0.026 C 
HETATM   11  C16 UNL     1     -11.217   9.074  13.062  1.00  0.00     0.016 C 
HETATM   12  C17 UNL     1     -15.845   9.252  13.626  1.00  0.00    -0.008 C 
HETATM   13  C18 UNL     1     -15.673  10.141  12.365  1.00  0.00     0.021 C 
HETATM   14  C19 UNL     1     -16.890   8.128  13.322  1.00  0.00     0.022 C 
HETATM   15  C20 UNL     1     -18.335   8.431  13.723  1.00  0.00     0.080 C 
HETATM   16  C21 UNL     1     -18.635   9.906  13.689  1.00  0.00     0.131 C 
HETATM   17  O2  UNL     1     -19.614  10.351  13.090  1.00  0.00    -0.298 OA
HETATM   18  C22 UNL     1     -17.721  10.812  14.500  1.00  0.00     0.056 C 
HETATM   19  C23 UNL     1     -18.482  11.274  15.743  1.00  0.00     0.018 C 
HETATM   20  C24 UNL     1     -16.404  10.075  14.843  1.00  0.00     0.012 C 
HETATM   21  C25 UNL     1     -15.341  11.030  15.401  1.00  0.00     0.042 C 
HETATM   22  C26 UNL     1     -14.121  10.251  15.891  1.00  0.00     0.148 C 
ENDROOT
BRANCH   1  23
HETATM   23  C5  UNL     1      -9.098   6.963  13.896  1.00  0.00    -0.014 C 
HETATM   24  C6  UNL     1      -9.437   5.837  12.909  1.00  0.00     0.010 C 
BRANCH  23  25
HETATM   25  C4  UNL     1      -7.905   6.483  14.774  1.00  0.00     0.009 C 
BRANCH  25  26
HETATM   26  C3  UNL     1      -7.435   5.033  14.573  1.00  0.00     0.034 C 
BRANCH  26  27
HETATM   27  C2  UNL     1      -6.329   4.812  13.556  1.00  0.00    -0.086 C 
HETATM   28  C1  UNL     1      -5.187   5.519  13.642  1.00  0.00     0.014 C 
BRANCH  27  29
HETATM   29  C27 UNL     1      -6.462   3.727  12.490  1.00  0.00     0.005 C 
HETATM   30  C28 UNL     1      -5.121   3.143  12.037  1.00  0.00     0.014 C 
HETATM   31  C29 UNL     1      -7.427   2.614  12.899  1.00  0.00     0.014 C 
ENDBRANCH  27  29
ENDBRANCH  26  27
ENDBRANCH  25  26
ENDBRANCH  23  25
ENDBRANCH   1  23
BRANCH  22  32
HETATM   32  O3  UNL     1     -14.416   9.655  17.150  1.00  0.00    -0.391 OA
HETATM   33  H37 UNL     1     -14.558  10.375  17.787  1.00  0.00     0.210 HD
ENDBRANCH  22  32
TORSDOF 6
ENDMDL
MODEL 6
REMARK minimizedAffinity -8.35032654
REMARK CNNscore 0.489542931
REMARK CNNaffinity 7.0857296
REMARK  6 active torsions:
REMARK  status: ('A' for Active; 'I' for Inactive)
REMARK    1  A    between atoms: C2_2  and  C3_3 
REMARK    2  A    between atoms: C2_2  and  C27_30 
REMARK    3  A    between atoms: C3_3  and  C4_4 
REMARK    4  A    between atoms: C4_4  and  C5_5 
REMARK    5  A    between atoms: C5_5  and  C7_7 
REMARK    6  A    between atoms: C26_28  and  O3_29 
ROOT
HETATM    1  C7  UNL     1      -6.398   6.415  14.943  1.00  0.00    -0.002 C 
HETATM    2  C8  UNL     1      -6.821   5.359  13.888  1.00  0.00     0.006 C 
HETATM    3  C9  UNL     1      -5.568   4.994  13.083  1.00  0.00     0.010 C 
HETATM    4  C10 UNL     1      -4.427   5.672  13.836  1.00  0.00     0.027 C 
HETATM    5  C11 UNL     1      -3.082   5.877  13.179  1.00  0.00    -0.036 C 
HETATM    6  C12 UNL     1      -2.229   6.833  13.624  1.00  0.00     0.002 C 
HETATM    7  C13 UNL     1      -2.699   7.758  14.731  1.00  0.00     0.157 C 
HETATM    8  O1  UNL     1      -1.969   8.653  15.157  1.00  0.00    -0.293 OA
HETATM    9  C14 UNL     1      -4.080   7.574  15.344  1.00  0.00     0.093 C 
HETATM   10  C15 UNL     1      -5.074   6.984  14.342  1.00  0.00    -0.026 C 
HETATM   11  C16 UNL     1      -5.365   8.008  13.215  1.00  0.00     0.016 C 
HETATM   12  C17 UNL     1      -0.806   7.028  13.059  1.00  0.00    -0.008 C 
HETATM   13  C18 UNL     1      -0.861   8.291  12.159  1.00  0.00     0.021 C 
HETATM   14  C19 UNL     1       0.258   7.246  14.184  1.00  0.00     0.022 C 
HETATM   15  C20 UNL     1       1.662   6.714  13.891  1.00  0.00     0.080 C 
HETATM   16  C21 UNL     1       1.969   6.707  12.416  1.00  0.00     0.131 C 
HETATM   17  O2  UNL     1       2.999   7.212  11.970  1.00  0.00    -0.298 OA
HETATM   18  C22 UNL     1       0.988   5.974  11.514  1.00  0.00     0.056 C 
HETATM   19  C23 UNL     1       1.635   4.664  11.066  1.00  0.00     0.018 C 
HETATM   20  C24 UNL     1      -0.356   5.758  12.249  1.00  0.00     0.012 C 
HETATM   21  C25 UNL     1      -1.462   5.290  11.295  1.00  0.00     0.042 C 
HETATM   22  C26 UNL     1      -2.724   4.919  12.073  1.00  0.00     0.148 C 
ENDROOT
BRANCH   1  23
HETATM   23  C5  UNL     1      -7.556   7.387  15.325  1.00  0.00    -0.014 C 
HETATM   24  C6  UNL     1      -8.098   7.089  16.730  1.00  0.00     0.010 C 
BRANCH  23  25
HETATM   25  C4  UNL     1      -8.749   7.297  14.327  1.00  0.00     0.009 C 
BRANCH  25  26
HETATM   26  C3  UNL     1     -10.156   7.187  14.936  1.00  0.00     0.034 C 
BRANCH  26  27
HETATM   27  C2  UNL     1     -11.324   7.277  13.970  1.00  0.00    -0.086 C 
HETATM   28  C1  UNL     1     -11.095   7.355  12.645  1.00  0.00     0.014 C 
BRANCH  27  29
HETATM   29  C27 UNL     1     -12.761   7.189  14.479  1.00  0.00     0.005 C 
HETATM   30  C28 UNL     1     -13.698   8.228  13.859  1.00  0.00     0.014 C 
HETATM   31  C29 UNL     1     -13.347   5.783  14.344  1.00  0.00     0.014 C 
ENDBRANCH  27  29
ENDBRANCH  26  27
ENDBRANCH  25  26
ENDBRANCH  23  25
ENDBRANCH   1  23
BRANCH  22  32
HETATM   32  O3  UNL     1      -2.546   3.643  12.682  1.00  0.00    -0.391 OA
HETATM   33  H37 UNL     1      -2.459   2.990  11.967  1.00  0.00     0.210 HD
ENDBRANCH  22  32
TORSDOF 6
ENDMDL
MODEL 7
REMARK minimizedAffinity -7.06242371
REMARK CNNscore 0.48928526
REMARK CNNaffinity 6.82905197
REMARK  6 active torsions:
REMARK  status: ('A' for Active; 'I' for Inactive)
REMARK    1  A    between atoms: C2_2  and  C3_3 
REMARK    2  A    between atoms: C2_2  and  C27_30 
REMARK    3  A    between atoms: C3_3  and  C4_4 
REMARK    4  A    between atoms: C4_4  and  C5_5 
REMARK    5  A    between atoms: C5_5  and  C7_7 
REMARK    6  A    between atoms: C26_28  and  O3_29 
ROOT
HETATM    1  C7  UNL     1      -9.307   7.385  14.589  1.00  0.00    -0.002 C 
HETATM    2  C8  UNL     1     -10.321   6.574  13.740  1.00  0.00     0.006 C 
HETATM    3  C9  UNL     1     -11.395   7.554  13.256  1.00  0.00     0.010 C 
HETATM    4  C10 UNL     1     -10.855   8.927  13.644  1.00  0.00     0.027 C 
HETATM    5  C11 UNL     1     -11.765  10.133  13.686  1.00  0.00    -0.036 C 
HETATM    6  C12 UNL     1     -11.444  11.220  14.430  1.00  0.00     0.002 C 
HETATM    7  C13 UNL     1     -10.200  11.158  15.298  1.00  0.00     0.157 C 
HETATM    8  O1  UNL     1      -9.877  12.113  16.004  1.00  0.00    -0.293 OA
HETATM    9  C14 UNL     1      -9.325   9.914  15.287  1.00  0.00     0.093 C 
HETATM   10  C15 UNL     1     -10.132   8.650  14.986  1.00  0.00    -0.026 C 
HETATM   11  C16 UNL     1     -11.099   8.343  16.159  1.00  0.00     0.016 C 
HETATM   12  C17 UNL     1     -12.281  12.517  14.439  1.00  0.00    -0.008 C 
HETATM   13  C18 UNL     1     -13.059  12.527  15.782  1.00  0.00     0.021 C 
HETATM   14  C19 UNL     1     -11.394  13.802  14.351  1.00  0.00     0.022 C 
HETATM   15  C20 UNL     1     -12.013  14.995  13.623  1.00  0.00     0.080 C 
HETATM   16  C21 UNL     1     -13.516  15.002  13.721  1.00  0.00     0.131 C 
HETATM   17  O2  UNL     1     -14.133  16.002  14.088  1.00  0.00    -0.298 OA
HETATM   18  C22 UNL     1     -14.240  13.744  13.267  1.00  0.00     0.056 C 
HETATM   19  C23 UNL     1     -14.905  14.032  11.921  1.00  0.00     0.018 C 
HETATM   20  C24 UNL     1     -13.255  12.552  13.206  1.00  0.00     0.012 C 
HETATM   21  C25 UNL     1     -13.985  11.213  13.037  1.00  0.00     0.042 C 
HETATM   22  C26 UNL     1     -12.985  10.080  12.805  1.00  0.00     0.148 C 
ENDROOT
BRANCH   1  23
HETATM   23  C5  UNL     1      -8.622   6.528  15.698  1.00  0.00    -0.014 C 
HETATM   24  C6  UNL     1      -7.940   7.415  16.750  1.00  0.00     0.010 C 
BRANCH  23  25
HETATM   25  C4  UNL     1      -7.544   5.569  15.114  1.00  0.00     0.009 C 
BRANCH  25  26
HETATM   26  C3  UNL     1      -6.075   5.979  15.304  1.00  0.00     0.034 C 
BRANCH  26  27
HETATM   27  C2  UNL     1      -5.343   6.480  14.071  1.00  0.00    -0.086 C 
HETATM   28  C1  UNL     1      -4.788   5.601  13.216  1.00  0.00     0.014 C 
BRANCH  27  29
HETATM   29  C27 UNL     1      -5.309   7.971  13.741  1.00  0.00     0.005 C 
HETATM   30  C28 UNL     1      -5.432   8.876  14.969  1.00  0.00     0.014 C 
HETATM   31  C29 UNL     1      -4.092   8.360  12.900  1.00  0.00     0.014 C 
ENDBRANCH  27  29
ENDBRANCH  26  27
ENDBRANCH  25  26
ENDBRANCH  23  25
ENDBRANCH   1  23
BRANCH  22  32
HETATM   32  O3  UNL     1     -12.519  10.130  11.461  1.00  0.00    -0.391 OA
HETATM   33  H37 UNL     1     -13.279   9.951  10.882  1.00  0.00     0.210 HD
ENDBRANCH  22  32
TORSDOF 6
ENDMDL
MODEL 8
REMARK minimizedAffinity -6.793221
REMARK CNNscore 0.479032218
REMARK CNNaffinity 6.91193008
REMARK  6 active torsions:
REMARK  status: ('A' for Active; 'I' for Inactive)
REMARK    1  A    between atoms: C2_2  and  C3_3 
REMARK    2  A    between atoms: C2_2  and  C27_30 
REMARK    3  A    between atoms: C3_3  and  C4_4 
REMARK    4  A    between atoms: C4_4  and  C5_5 
REMARK    5  A    between atoms: C5_5  and  C7_7 
REMARK    6  A    between atoms: C26_28  and  O3_29 
ROOT
HETATM    1  C7  UNL     1      -9.704   8.641  14.714  1.00  0.00    -0.002 C 
HETATM    2  C8  UNL     1      -8.620   9.500  15.415  1.00  0.00     0.006 C 
HETATM    3  C9  UNL     1      -7.264   8.840  15.135  1.00  0.00     0.010 C 
HETATM    4  C10 UNL     1      -7.578   7.760  14.104  1.00  0.00     0.027 C 
HETATM    5  C11 UNL     1      -6.601   6.639  13.837  1.00  0.00    -0.036 C 
HETATM    6  C12 UNL     1      -7.017   5.469  13.293  1.00  0.00     0.002 C 
HETATM    7  C13 UNL     1      -8.503   5.275  13.053  1.00  0.00     0.157 C 
HETATM    8  O1  UNL     1      -8.932   4.223  12.577  1.00  0.00    -0.293 OA
HETATM    9  C14 UNL     1      -9.481   6.393  13.380  1.00  0.00     0.093 C 
HETATM   10  C15 UNL     1      -8.983   7.268  14.532  1.00  0.00    -0.026 C 
HETATM   11  C16 UNL     1      -8.980   6.457  15.853  1.00  0.00     0.016 C 
HETATM   12  C17 UNL     1      -6.056   4.325  12.909  1.00  0.00    -0.008 C 
HETATM   13  C18 UNL     1      -6.222   3.228  13.995  1.00  0.00     0.021 C 
HETATM   14  C19 UNL     1      -6.386   3.712  11.508  1.00  0.00     0.022 C 
HETATM   15  C20 UNL     1      -5.194   3.182  10.710  1.00  0.00     0.080 C 
HETATM   16  C21 UNL     1      -4.077   2.712  11.604  1.00  0.00     0.131 C 
HETATM   17  O2  UNL     1      -3.566   1.601  11.466  1.00  0.00    -0.298 OA
HETATM   18  C22 UNL     1      -3.555   3.705  12.630  1.00  0.00     0.056 C 
HETATM   19  C23 UNL     1      -2.189   4.208  12.161  1.00  0.00     0.018 C 
HETATM   20  C24 UNL     1      -4.576   4.849  12.836  1.00  0.00     0.012 C 
HETATM   21  C25 UNL     1      -4.234   5.710  14.059  1.00  0.00     0.042 C 
HETATM   22  C26 UNL     1      -5.153   6.929  14.135  1.00  0.00     0.148 C 
ENDROOT
BRANCH   1  23
HETATM   23  C5  UNL     1     -11.085   8.700  15.436  1.00  0.00    -0.014 C 
HETATM   24  C6  UNL     1     -12.143   7.876  14.689  1.00  0.00     0.010 C 
BRANCH  23  25
HETATM   25  C4  UNL     1     -11.618  10.158  15.559  1.00  0.00     0.009 C 
BRANCH  25  26
HETATM   26  C3  UNL     1     -11.659  10.993  14.269  1.00  0.00     0.034 C 
BRANCH  26  27
HETATM   27  C2  UNL     1     -13.033  11.402  13.767  1.00  0.00    -0.086 C 
HETATM   28  C1  UNL     1     -13.621  10.702  12.778  1.00  0.00     0.014 C 
BRANCH  27  29
HETATM   29  C27 UNL     1     -13.796  12.543  14.434  1.00  0.00     0.005 C 
HETATM   30  C28 UNL     1     -12.893  13.545  15.159  1.00  0.00     0.014 C 
HETATM   31  C29 UNL     1     -14.739  13.264  13.470  1.00  0.00     0.014 C 
ENDBRANCH  27  29
ENDBRANCH  26  27
ENDBRANCH  25  26
ENDBRANCH  23  25
ENDBRANCH   1  23
BRANCH  22  32
HETATM   32  O3  UNL     1      -4.729   7.901  13.184  1.00  0.00    -0.391 OA
HETATM   33  H37 UNL     1      -3.846   8.204  13.453  1.00  0.00     0.210 HD
ENDBRANCH  22  32
TORSDOF 6
ENDMDL
MODEL 9
REMARK minimizedAffinity -8.01869678
REMARK CNNscore 0.468226522
REMARK CNNaffinity 6.46706533
REMARK  6 active torsions:
REMARK  status: ('A' for Active; 'I' for Inactive)
REMARK    1  A    between atoms: C2_2  and  C3_3 
REMARK    2  A    between atoms: C2_2  and  C27_30 
REMARK    3  A    between atoms: C3_3  and  C4_4 
REMARK    4  A    between atoms: C4_4  and  C5_5 
REMARK    5  A    between atoms: C5_5  and  C7_7 
REMARK    6  A    between atoms: C26_28  and  O3_29 
ROOT
HETATM    1  C7  UNL     1      -0.784   9.057  13.576  1.00  0.00    -0.002 C 
HETATM    2  C8  UNL     1       0.255   7.945  13.277  1.00  0.00     0.006 C 
HETATM    3  C9  UNL     1      -0.525   6.656  12.996  1.00  0.00     0.010 C 
HETATM    4  C10 UNL     1      -1.981   7.107  12.918  1.00  0.00     0.027 C 
HETATM    5  C11 UNL     1      -3.107   6.106  13.027  1.00  0.00    -0.036 C 
HETATM    6  C12 UNL     1      -4.350   6.496  13.404  1.00  0.00     0.002 C 
HETATM    7  C13 UNL     1      -4.558   7.943  13.812  1.00  0.00     0.157 C 
HETATM    8  O1  UNL     1      -5.664   8.342  14.179  1.00  0.00    -0.293 OA
HETATM    9  C14 UNL     1      -3.398   8.927  13.750  1.00  0.00     0.093 C 
HETATM   10  C15 UNL     1      -2.052   8.237  13.975  1.00  0.00    -0.026 C 
HETATM   11  C16 UNL     1      -1.953   7.727  15.436  1.00  0.00     0.016 C 
HETATM   12  C17 UNL     1      -5.562   5.541  13.443  1.00  0.00    -0.008 C 
HETATM   13  C18 UNL     1      -5.821   5.220  14.939  1.00  0.00     0.021 C 
HETATM   14  C19 UNL     1      -6.848   6.184  12.827  1.00  0.00     0.022 C 
HETATM   15  C20 UNL     1      -7.811   5.221  12.131  1.00  0.00     0.080 C 
HETATM   16  C21 UNL     1      -7.746   3.834  12.714  1.00  0.00     0.131 C 
HETATM   17  O2  UNL     1      -8.762   3.236  13.067  1.00  0.00    -0.298 OA
HETATM   18  C22 UNL     1      -6.376   3.175  12.769  1.00  0.00     0.056 C 
HETATM   19  C23 UNL     1      -6.318   2.096  11.688  1.00  0.00     0.018 C 
HETATM   20  C24 UNL     1      -5.264   4.239  12.614  1.00  0.00     0.012 C 
HETATM   21  C25 UNL     1      -3.878   3.673  12.951  1.00  0.00     0.042 C 
HETATM   22  C26 UNL     1      -2.786   4.691  12.623  1.00  0.00     0.148 C 
ENDROOT
BRANCH   1  23
HETATM   23  C5  UNL     1      -0.238  10.155  14.540  1.00  0.00    -0.014 C 
HETATM   24  C6  UNL     1       0.822   9.585  15.494  1.00  0.00     0.010 C 
BRANCH  23  25
HETATM   25  C4  UNL     1      -1.367  10.787  15.406  1.00  0.00     0.009 C 
BRANCH  25  26
HETATM   26  C3  UNL     1      -1.073  10.969  16.903  1.00  0.00     0.034 C 
BRANCH  26  27
HETATM   27  C2  UNL     1      -2.276  11.090  17.823  1.00  0.00    -0.086 C 
HETATM   28  C1  UNL     1      -2.579  10.085  18.667  1.00  0.00     0.014 C 
BRANCH  27  29
HETATM   29  C27 UNL     1      -3.093  12.379  17.868  1.00  0.00     0.005 C 
HETATM   30  C28 UNL     1      -4.146  12.401  18.978  1.00  0.00     0.014 C 
HETATM   31  C29 UNL     1      -2.216  13.630  17.928  1.00  0.00     0.014 C 
ENDBRANCH  27  29
ENDBRANCH  26  27
ENDBRANCH  25  26
ENDBRANCH  23  25
ENDBRANCH   1  23
BRANCH  22  32
HETATM   32  O3  UNL     1      -2.566   4.710  11.216  1.00  0.00    -0.391 OA
HETATM   33  H37 UNL     1      -2.217   3.839  10.964  1.00  0.00     0.210 HD
ENDBRANCH  22  32
TORSDOF 6
ENDMDL
