MODEL 1
REMARK minimizedAffinity -9.68996525
REMARK CNNscore 0.637030065
REMARK CNNaffinity 7.2898097
REMARK  12 active torsions:
REMARK  status: ('A' for Active; 'I' for Inactive)
REMARK    1  A    between atoms: C2_2  and  C4_4 
REMARK    2  A    between atoms: C4_4  and  C6_6 
REMARK    3  A    between atoms: C7_8  and  C8_9 
REMARK    4  A    between atoms: C8_9  and  O2_11 
REMARK    5  A    between atoms: C8_9  and  C10_12 
REMARK    6  A    between atoms: C13_15  and  O3_16 
REMARK    7  A    between atoms: C19_23  and  O5_24 
REMARK    8  A    between atoms: C20_25  and  O6_26 
REMARK    9  A    between atoms: C27_33  and  C28_34 
REMARK   10  A    between atoms: C28_34  and  C29_35 
REMARK   11  A    between atoms: C29_35  and  C30_36 
REMARK   12  A    between atoms: C34_40  and  O7_41 
ROOT
HETATM    1  C10 UNL     1      -1.209   7.112  13.043  1.00  0.00     0.034 C 
HETATM    2  C11 UNL     1      -1.424   8.375  12.182  1.00  0.00     0.012 C 
HETATM    3  C12 UNL     1      -2.782   8.878  12.640  1.00  0.00     0.044 C 
HETATM    4  C13 UNL     1      -2.683   8.800  14.173  1.00  0.00     0.090 C 
HETATM    5  C14 UNL     1      -1.939   9.987  14.805  1.00  0.00    -0.037 C 
HETATM    6  C15 UNL     1      -1.617  11.128  14.159  1.00  0.00     0.057 C 
HETATM    7  C16 UNL     1      -0.871  12.228  14.817  1.00  0.00     0.154 C 
HETATM    8  O4  UNL     1      -0.822  13.327  14.264  1.00  0.00    -0.293 OA
HETATM    9  C17 UNL     1      -0.195  11.918  16.140  1.00  0.00     0.071 C 
HETATM   10  C18 UNL     1       0.307  13.191  16.830  1.00  0.00     0.047 C 
HETATM   11  C19 UNL     1       0.977  12.884  18.174  1.00  0.00     0.147 C 
HETATM   12  C20 UNL     1       0.104  12.032  19.106  1.00  0.00     0.147 C 
HETATM   13  C21 UNL     1      -0.450  10.795  18.388  1.00  0.00     0.044 C 
HETATM   14  C22 UNL     1      -1.157  11.085  17.027  1.00  0.00    -0.023 C 
HETATM   15  C23 UNL     1      -2.483  11.853  17.309  1.00  0.00     0.016 C 
HETATM   16  C24 UNL     1      -1.558   9.763  16.266  1.00  0.00     0.027 C 
HETATM   17  C25 UNL     1      -0.504   8.657  16.195  1.00  0.00     0.011 C 
HETATM   18  C26 UNL     1      -1.155   7.355  15.728  1.00  0.00     0.014 C 
HETATM   19  C27 UNL     1      -1.990   7.381  14.408  1.00  0.00     0.002 C 
ENDROOT
BRANCH   1  20
HETATM   20  C8  UNL     1       0.215   6.482  12.915  1.00  0.00     0.087 C 
HETATM   21  C9  UNL     1       1.301   7.570  12.951  1.00  0.00     0.049 C 
BRANCH  20  22
HETATM   22  C7  UNL     1       0.437   5.611  11.699  1.00  0.00     0.185 A 
HETATM   23  C6  UNL     1       0.937   6.029  10.313  1.00  0.00     0.158 A 
HETATM   24  O1  UNL     1       1.791   5.402  11.280  1.00  0.00    -0.372 OA
BRANCH  23  25
HETATM   25  C4  UNL     1       1.413   7.390   9.869  1.00  0.00     0.017 C 
HETATM   26  C5  UNL     1       0.278   8.142   9.163  1.00  0.00     0.013 C 
BRANCH  25  27
HETATM   27  C2  UNL     1       2.698   7.268   8.993  1.00  0.00    -0.016 C 
HETATM   28  C1  UNL     1       2.724   6.035   8.080  1.00  0.00     0.010 C 
HETATM   29  C3  UNL     1       2.919   8.529   8.148  1.00  0.00     0.010 C 
ENDBRANCH  25  27
ENDBRANCH  23  25
ENDBRANCH  20  22
BRANCH  20  30
HETATM   30  O2  UNL     1       0.434   5.715  14.111  1.00  0.00    -0.387 OA
HETATM   31  H17 UNL     1       0.267   6.282  14.881  1.00  0.00     0.210 HD
ENDBRANCH  20  30
ENDBRANCH   1  20
BRANCH  19  32
HETATM   32  C28 UNL     1      -3.047   6.211  14.638  1.00  0.00     0.018 C 
BRANCH  32  33
HETATM   33  C29 UNL     1      -4.541   6.440  14.359  1.00  0.00     0.039 C 
BRANCH  33  34
HETATM   34  C30 UNL     1      -5.126   5.264  13.603  1.00  0.00    -0.056 A 
HETATM   35  C31 UNL     1      -4.354   4.545  12.678  1.00  0.00     0.007 A 
HETATM   36  C32 UNL     1      -4.905   3.460  11.995  1.00  0.00     0.003 A 
HETATM   37  C33 UNL     1      -6.225   3.071  12.237  1.00  0.00     0.036 A 
HETATM   38  C34 UNL     1      -6.985   3.777  13.164  1.00  0.00     0.066 A 
HETATM   39  C35 UNL     1      -6.449   4.868  13.844  1.00  0.00     0.043 A 
BRANCH  38  40
HETATM   40  O7  UNL     1      -8.276   3.430  13.436  1.00  0.00    -0.361 OA
HETATM   41  H49 UNL     1      -8.477   2.603  12.973  1.00  0.00     0.217 HD
ENDBRANCH  38  40
ENDBRANCH  33  34
ENDBRANCH  32  33
ENDBRANCH  19  32
BRANCH   4  42
HETATM   42  O3  UNL     1      -3.994   8.823  14.727  1.00  0.00    -0.384 OA
HETATM   43  H23 UNL     1      -4.293   9.744  14.755  1.00  0.00     0.211 HD
ENDBRANCH   4  42
BRANCH  12  44
HETATM   44  O6  UNL     1      -0.963  12.816  19.643  1.00  0.00    -0.393 OA
HETATM   45  H31 UNL     1      -0.554  13.425  20.287  1.00  0.00     0.210 HD
ENDBRANCH  12  44
BRANCH  11  46
HETATM   46  O5  UNL     1       1.320  14.109  18.824  1.00  0.00    -0.393 OA
HETATM   47  H29 UNL     1       0.515  14.662  18.818  1.00  0.00     0.210 HD
ENDBRANCH  11  46
TORSDOF 12
ENDMDL
MODEL 2
REMARK minimizedAffinity -9.78894997
REMARK CNNscore 0.529928803
REMARK CNNaffinity 7.1782937
REMARK  12 active torsions:
REMARK  status: ('A' for Active; 'I' for Inactive)
REMARK    1  A    between atoms: C2_2  and  C4_4 
REMARK    2  A    between atoms: C4_4  and  C6_6 
REMARK    3  A    between atoms: C7_8  and  C8_9 
REMARK    4  A    between atoms: C8_9  and  O2_11 
REMARK    5  A    between atoms: C8_9  and  C10_12 
REMARK    6  A    between atoms: C13_15  and  O3_16 
REMARK    7  A    between atoms: C19_23  and  O5_24 
REMARK    8  A    between atoms: C20_25  and  O6_26 
REMARK    9  A    between atoms: C27_33  and  C28_34 
REMARK   10  A    between atoms: C28_34  and  C29_35 
REMARK   11  A    between atoms: C29_35  and  C30_36 
REMARK   12  A    between atoms: C34_40  and  O7_41 
ROOT
HETATM    1  C10 UNL     1      -0.792   7.576  11.894  1.00  0.00     0.034 C 
HETATM    2  C11 UNL     1      -1.618   8.873  11.769  1.00  0.00     0.012 C 
HETATM    3  C12 UNL     1      -2.591   8.776  12.932  1.00  0.00     0.044 C 
HETATM    4  C13 UNL     1      -1.690   8.354  14.104  1.00  0.00     0.090 C 
HETATM    5  C14 UNL     1      -0.918   9.520  14.742  1.00  0.00    -0.037 C 
HETATM    6  C15 UNL     1      -1.163  10.827  14.508  1.00  0.00     0.057 C 
HETATM    7  C16 UNL     1      -0.362  11.907  15.132  1.00  0.00     0.154 C 
HETATM    8  O4  UNL     1      -0.781  13.064  15.079  1.00  0.00    -0.293 OA
HETATM    9  C17 UNL     1       0.947  11.513  15.792  1.00  0.00     0.071 C 
HETATM   10  C18 UNL     1       1.533  12.664  16.616  1.00  0.00     0.047 C 
HETATM   11  C19 UNL     1       2.847  12.266  17.296  1.00  0.00     0.147 C 
HETATM   12  C20 UNL     1       2.738  10.972  18.114  1.00  0.00     0.147 C 
HETATM   13  C21 UNL     1       2.087   9.843  17.304  1.00  0.00     0.044 C 
HETATM   14  C22 UNL     1       0.737  10.219  16.620  1.00  0.00    -0.023 C 
HETATM   15  C23 UNL     1      -0.343  10.418  17.726  1.00  0.00     0.016 C 
HETATM   16  C24 UNL     1       0.203   9.073  15.675  1.00  0.00     0.027 C 
HETATM   17  C25 UNL     1       1.218   8.425  14.733  1.00  0.00     0.011 C 
HETATM   18  C26 UNL     1       0.629   7.143  14.145  1.00  0.00     0.014 C 
HETATM   19  C27 UNL     1      -0.769   7.226  13.451  1.00  0.00     0.002 C 
ENDROOT
BRANCH   1  20
HETATM   20  C8  UNL     1       0.430   7.496  10.922  1.00  0.00     0.087 C 
HETATM   21  C9  UNL     1       0.032   7.942   9.505  1.00  0.00     0.049 C 
BRANCH  20  22
HETATM   22  C7  UNL     1       1.108   6.146  10.836  1.00  0.00     0.185 A 
HETATM   23  C6  UNL     1       2.369   5.768  10.055  1.00  0.00     0.158 A 
HETATM   24  O1  UNL     1       2.387   6.014  11.468  1.00  0.00    -0.372 OA
BRANCH  23  25
HETATM   25  C4  UNL     1       3.280   6.676   9.265  1.00  0.00     0.017 C 
HETATM   26  C5  UNL     1       4.051   7.604  10.211  1.00  0.00     0.013 C 
BRANCH  25  27
HETATM   27  C2  UNL     1       2.477   7.450   8.174  1.00  0.00    -0.016 C 
HETATM   28  C1  UNL     1       3.087   8.802   7.782  1.00  0.00     0.010 C 
HETATM   29  C3  UNL     1       2.286   6.597   6.913  1.00  0.00     0.010 C 
ENDBRANCH  25  27
ENDBRANCH  23  25
ENDBRANCH  20  22
BRANCH  20  30
HETATM   30  O2  UNL     1       1.372   8.488  11.362  1.00  0.00    -0.387 OA
HETATM   31  H17 UNL     1       0.915   9.343  11.432  1.00  0.00     0.210 HD
ENDBRANCH  20  30
ENDBRANCH   1  20
BRANCH  19  32
HETATM   32  C28 UNL     1      -1.352   5.758  13.658  1.00  0.00     0.018 C 
BRANCH  32  33
HETATM   33  C29 UNL     1      -1.669   4.864  12.449  1.00  0.00     0.039 C 
BRANCH  33  34
HETATM   34  C30 UNL     1      -3.142   4.509  12.422  1.00  0.00    -0.056 A 
HETATM   35  C31 UNL     1      -4.061   5.183  13.241  1.00  0.00     0.007 A 
HETATM   36  C32 UNL     1      -5.415   4.849  13.201  1.00  0.00     0.003 A 
HETATM   37  C33 UNL     1      -5.871   3.853  12.333  1.00  0.00     0.036 A 
HETATM   38  C34 UNL     1      -4.960   3.196  11.512  1.00  0.00     0.066 A 
HETATM   39  C35 UNL     1      -3.605   3.513  11.551  1.00  0.00     0.043 A 
BRANCH  38  40
HETATM   40  O7  UNL     1      -5.360   2.221  10.646  1.00  0.00    -0.361 OA
HETATM   41  H49 UNL     1      -6.328   2.180  10.652  1.00  0.00     0.217 HD
ENDBRANCH  38  40
ENDBRANCH  33  34
ENDBRANCH  32  33
ENDBRANCH  19  32
BRANCH   4  42
HETATM   42  O3  UNL     1      -2.499   7.809  15.141  1.00  0.00    -0.384 OA
HETATM   43  H23 UNL     1      -2.876   8.546  15.646  1.00  0.00     0.211 HD
ENDBRANCH   4  42
BRANCH  12  44
HETATM   44  O6  UNL     1       2.008  11.205  19.319  1.00  0.00    -0.393 OA
HETATM   45  H31 UNL     1       2.595  11.733  19.894  1.00  0.00     0.210 HD
ENDBRANCH  12  44
BRANCH  11  46
HETATM   46  O5  UNL     1       3.288  13.332  18.138  1.00  0.00    -0.393 OA
HETATM   47  H29 UNL     1       2.527  13.576  18.699  1.00  0.00     0.210 HD
ENDBRANCH  11  46
TORSDOF 12
ENDMDL
MODEL 3
REMARK minimizedAffinity -9.596632
REMARK CNNscore 0.468319565
REMARK CNNaffinity 7.02831316
REMARK  12 active torsions:
REMARK  status: ('A' for Active; 'I' for Inactive)
REMARK    1  A    between atoms: C2_2  and  C4_4 
REMARK    2  A    between atoms: C4_4  and  C6_6 
REMARK    3  A    between atoms: C7_8  and  C8_9 
REMARK    4  A    between atoms: C8_9  and  O2_11 
REMARK    5  A    between atoms: C8_9  and  C10_12 
REMARK    6  A    between atoms: C13_15  and  O3_16 
REMARK    7  A    between atoms: C19_23  and  O5_24 
REMARK    8  A    between atoms: C20_25  and  O6_26 
REMARK    9  A    between atoms: C27_33  and  C28_34 
REMARK   10  A    between atoms: C28_34  and  C29_35 
REMARK   11  A    between atoms: C29_35  and  C30_36 
REMARK   12  A    between atoms: C34_40  and  O7_41 
ROOT
HETATM    1  C10 UNL     1      -1.068   7.460  13.979  1.00  0.00     0.034 C 
HETATM    2  C11 UNL     1      -0.676   8.675  13.112  1.00  0.00     0.012 C 
HETATM    3  C12 UNL     1      -2.014   9.179  12.599  1.00  0.00     0.044 C 
HETATM    4  C13 UNL     1      -2.893   9.179  13.861  1.00  0.00     0.090 C 
HETATM    5  C14 UNL     1      -2.683  10.408  14.760  1.00  0.00    -0.037 C 
HETATM    6  C15 UNL     1      -2.007  11.520  14.401  1.00  0.00     0.057 C 
HETATM    7  C16 UNL     1      -1.812  12.662  15.326  1.00  0.00     0.154 C 
HETATM    8  O4  UNL     1      -1.409  13.733  14.872  1.00  0.00    -0.293 OA
HETATM    9  C17 UNL     1      -2.114  12.430  16.795  1.00  0.00     0.071 C 
HETATM   10  C18 UNL     1      -2.128  13.743  17.585  1.00  0.00     0.047 C 
HETATM   11  C19 UNL     1      -2.446  13.514  19.066  1.00  0.00     0.147 C 
HETATM   12  C20 UNL     1      -3.726  12.696  19.291  1.00  0.00     0.147 C 
HETATM   13  C21 UNL     1      -3.735  11.416  18.446  1.00  0.00     0.044 C 
HETATM   14  C22 UNL     1      -3.434  11.627  16.929  1.00  0.00    -0.023 C 
HETATM   15  C23 UNL     1      -4.632  12.388  16.285  1.00  0.00     0.016 C 
HETATM   16  C24 UNL     1      -3.299  10.262  16.149  1.00  0.00     0.027 C 
HETATM   17  C25 UNL     1      -2.451   9.171  16.805  1.00  0.00     0.011 C 
HETATM   18  C26 UNL     1      -2.693   7.837  16.098  1.00  0.00     0.014 C 
HETATM   19  C27 UNL     1      -2.524   7.785  14.546  1.00  0.00     0.002 C 
ENDROOT
BRANCH   1  20
HETATM   20  C8  UNL     1       0.113   6.847  14.798  1.00  0.00     0.087 C 
HETATM   21  C9  UNL     1       0.573   7.812  15.905  1.00  0.00     0.049 C 
BRANCH  20  22
HETATM   22  C7  UNL     1       1.319   6.424  13.988  1.00  0.00     0.185 A 
HETATM   23  C6  UNL     1       1.356   5.886  12.555  1.00  0.00     0.158 A 
HETATM   24  O1  UNL     1       1.679   7.247  12.871  1.00  0.00    -0.372 OA
BRANCH  23  25
HETATM   25  C4  UNL     1       0.207   5.739  11.587  1.00  0.00     0.017 C 
HETATM   26  C5  UNL     1      -0.330   4.304  11.618  1.00  0.00     0.013 C 
BRANCH  25  27
HETATM   27  C2  UNL     1       0.627   6.201  10.157  1.00  0.00    -0.016 C 
HETATM   28  C1  UNL     1       0.211   7.637   9.810  1.00  0.00     0.010 C 
HETATM   29  C3  UNL     1       2.138   6.047   9.944  1.00  0.00     0.010 C 
ENDBRANCH  25  27
ENDBRANCH  23  25
ENDBRANCH  20  22
BRANCH  20  30
HETATM   30  O2  UNL     1      -0.420   5.715  15.505  1.00  0.00    -0.387 OA
HETATM   31  H17 UNL     1      -1.205   5.999  16.003  1.00  0.00     0.210 HD
ENDBRANCH  20  30
ENDBRANCH   1  20
BRANCH  19  32
HETATM   32  C28 UNL     1      -3.516   6.611  14.123  1.00  0.00     0.018 C 
BRANCH  32  33
HETATM   33  C29 UNL     1      -3.293   5.831  12.818  1.00  0.00     0.039 C 
BRANCH  33  34
HETATM   34  C30 UNL     1      -4.372   4.783  12.635  1.00  0.00    -0.056 A 
HETATM   35  C31 UNL     1      -5.647   4.955  13.196  1.00  0.00     0.007 A 
HETATM   36  C32 UNL     1      -6.633   3.984  13.013  1.00  0.00     0.003 A 
HETATM   37  C33 UNL     1      -6.364   2.840  12.257  1.00  0.00     0.036 A 
HETATM   38  C34 UNL     1      -5.104   2.678  11.691  1.00  0.00     0.066 A 
HETATM   39  C35 UNL     1      -4.109   3.635  11.875  1.00  0.00     0.043 A 
BRANCH  38  40
HETATM   40  O7  UNL     1      -4.798   1.580  10.941  1.00  0.00    -0.361 OA
HETATM   41  H49 UNL     1      -5.605   1.059  10.813  1.00  0.00     0.217 HD
ENDBRANCH  38  40
ENDBRANCH  33  34
ENDBRANCH  32  33
ENDBRANCH  19  32
BRANCH   4  42
HETATM   42  O3  UNL     1      -4.263   9.209  13.476  1.00  0.00    -0.384 OA
HETATM   43  H23 UNL     1      -4.497  10.126  13.266  1.00  0.00     0.211 HD
ENDBRANCH   4  42
BRANCH  12  44
HETATM   44  O6  UNL     1      -4.880  13.489  19.007  1.00  0.00    -0.393 OA
HETATM   45  H31 UNL     1      -4.950  14.136  19.735  1.00  0.00     0.210 HD
ENDBRANCH  12  44
BRANCH  11  46
HETATM   46  O5  UNL     1      -2.560  14.775  19.727  1.00  0.00    -0.393 OA
HETATM   47  H29 UNL     1      -3.176  15.314  19.195  1.00  0.00     0.210 HD
ENDBRANCH  11  46
TORSDOF 12
ENDMDL
MODEL 4
REMARK minimizedAffinity -7.68172073
REMARK CNNscore 0.455817163
REMARK CNNaffinity 6.51680994
REMARK  12 active torsions:
REMARK  status: ('A' for Active; 'I' for Inactive)
REMARK    1  A    between atoms: C2_2  and  C4_4 
REMARK    2  A    between atoms: C4_4  and  C6_6 
REMARK    3  A    between atoms: C7_8  and  C8_9 
REMARK    4  A    between atoms: C8_9  and  O2_11 
REMARK    5  A    between atoms: C8_9  and  C10_12 
REMARK    6  A    between atoms: C13_15  and  O3_16 
REMARK    7  A    between atoms: C19_23  and  O5_24 
REMARK    8  A    between atoms: C20_25  and  O6_26 
REMARK    9  A    between atoms: C27_33  and  C28_34 
REMARK   10  A    between atoms: C28_34  and  C29_35 
REMARK   11  A    between atoms: C29_35  and  C30_36 
REMARK   12  A    between atoms: C34_40  and  O7_41 
ROOT
HETATM    1  C10 UNL     1      -3.185  11.957  16.695  1.00  0.00     0.034 C 
HETATM    2  C11 UNL     1      -2.176  11.958  17.863  1.00  0.00     0.012 C 
HETATM    3  C12 UNL     1      -2.178  10.510  18.323  1.00  0.00     0.044 C 
HETATM    4  C13 UNL     1      -2.078   9.726  17.004  1.00  0.00     0.090 C 
HETATM    5  C14 UNL     1      -0.647   9.632  16.449  1.00  0.00    -0.037 C 
HETATM    6  C15 UNL     1       0.469   9.958  17.135  1.00  0.00     0.057 C 
HETATM    7  C16 UNL     1       1.821   9.874  16.533  1.00  0.00     0.154 C 
HETATM    8  O4  UNL     1       2.805   9.945  17.270  1.00  0.00    -0.293 OA
HETATM    9  C17 UNL     1       1.905   9.717  15.026  1.00  0.00     0.071 C 
HETATM   10  C18 UNL     1       3.330   9.379  14.571  1.00  0.00     0.047 C 
HETATM   11  C19 UNL     1       3.416   9.206  13.051  1.00  0.00     0.147 C 
HETATM   12  C20 UNL     1       2.386   8.214  12.495  1.00  0.00     0.147 C 
HETATM   13  C21 UNL     1       0.972   8.518  13.009  1.00  0.00     0.044 C 
HETATM   14  C22 UNL     1       0.855   8.677  14.556  1.00  0.00    -0.023 C 
HETATM   15  C23 UNL     1       1.094   7.287  15.219  1.00  0.00     0.016 C 
HETATM   16  C24 UNL     1      -0.583   9.146  15.004  1.00  0.00     0.027 C 
HETATM   17  C25 UNL     1      -1.216  10.291  14.212  1.00  0.00     0.011 C 
HETATM   18  C26 UNL     1      -2.703  10.392  14.553  1.00  0.00     0.014 C 
HETATM   19  C27 UNL     1      -3.107  10.496  16.058  1.00  0.00     0.002 C 
ENDROOT
BRANCH   1  20
HETATM   20  C8  UNL     1      -3.245  13.298  15.896  1.00  0.00     0.087 C 
HETATM   21  C9  UNL     1      -1.930  13.544  15.137  1.00  0.00     0.049 C 
BRANCH  20  22
HETATM   22  C7  UNL     1      -3.575  14.529  16.711  1.00  0.00     0.185 A 
HETATM   23  C6  UNL     1      -4.777  14.763  17.630  1.00  0.00     0.158 A 
HETATM   24  O1  UNL     1      -3.481  14.417  18.137  1.00  0.00    -0.372 OA
BRANCH  23  25
HETATM   25  C4  UNL     1      -5.863  13.784  18.008  1.00  0.00     0.017 C 
HETATM   26  C5  UNL     1      -7.046  13.909  17.040  1.00  0.00     0.013 C 
BRANCH  25  27
HETATM   27  C2  UNL     1      -6.276  13.966  19.501  1.00  0.00    -0.016 C 
HETATM   28  C1  UNL     1      -7.762  13.704  19.781  1.00  0.00     0.010 C 
HETATM   29  C3  UNL     1      -5.424  13.088  20.426  1.00  0.00     0.010 C 
ENDBRANCH  25  27
ENDBRANCH  23  25
ENDBRANCH  20  22
BRANCH  20  30
HETATM   30  O2  UNL     1      -4.229  13.119  14.864  1.00  0.00    -0.387 OA
HETATM   31  H17 UNL     1      -4.014  12.314  14.364  1.00  0.00     0.210 HD
ENDBRANCH  20  30
ENDBRANCH   1  20
BRANCH  19  32
HETATM   32  C28 UNL     1      -4.563   9.847  16.076  1.00  0.00     0.018 C 
BRANCH  32  33
HETATM   33  C29 UNL     1      -5.054   8.996  14.895  1.00  0.00     0.039 C 
BRANCH  33  34
HETATM   34  C30 UNL     1      -6.288   8.207  15.286  1.00  0.00    -0.056 A 
HETATM   35  C31 UNL     1      -6.187   6.875  15.712  1.00  0.00     0.007 A 
HETATM   36  C32 UNL     1      -7.332   6.164  16.075  1.00  0.00     0.003 A 
HETATM   37  C33 UNL     1      -8.586   6.777  16.033  1.00  0.00     0.036 A 
HETATM   38  C34 UNL     1      -8.683   8.103  15.623  1.00  0.00     0.066 A 
HETATM   39  C35 UNL     1      -7.549   8.820  15.248  1.00  0.00     0.043 A 
BRANCH  38  40
HETATM   40  O7  UNL     1      -9.886   8.745  15.571  1.00  0.00    -0.361 OA
HETATM   41  H49 UNL     1     -10.562   8.165  15.953  1.00  0.00     0.217 HD
ENDBRANCH  38  40
ENDBRANCH  33  34
ENDBRANCH  32  33
ENDBRANCH  19  32
BRANCH   4  42
HETATM   42  O3  UNL     1      -2.498   8.384  17.226  1.00  0.00    -0.384 OA
HETATM   43  H23 UNL     1      -1.757   7.898  17.617  1.00  0.00     0.211 HD
ENDBRANCH   4  42
BRANCH  12  44
HETATM   44  O6  UNL     1       2.758   6.874  12.822  1.00  0.00    -0.393 OA
HETATM   45  H31 UNL     1       3.530   6.663  12.264  1.00  0.00     0.210 HD
ENDBRANCH  12  44
BRANCH  11  46
HETATM   46  O5  UNL     1       4.733   8.781  12.696  1.00  0.00    -0.393 OA
HETATM   47  H29 UNL     1       4.942   8.017  13.266  1.00  0.00     0.210 HD
ENDBRANCH  11  46
TORSDOF 12
ENDMDL
MODEL 5
REMARK minimizedAffinity -7.4912219
REMARK CNNscore 0.423393339
REMARK CNNaffinity 6.27264977
REMARK  12 active torsions:
REMARK  status: ('A' for Active; 'I' for Inactive)
REMARK    1  A    between atoms: C2_2  and  C4_4 
REMARK    2  A    between atoms: C4_4  and  C6_6 
REMARK    3  A    between atoms: C7_8  and  C8_9 
REMARK    4  A    between atoms: C8_9  and  O2_11 
REMARK    5  A    between atoms: C8_9  and  C10_12 
REMARK    6  A    between atoms: C13_15  and  O3_16 
REMARK    7  A    between atoms: C19_23  and  O5_24 
REMARK    8  A    between atoms: C20_25  and  O6_26 
REMARK    9  A    between atoms: C27_33  and  C28_34 
REMARK   10  A    between atoms: C28_34  and  C29_35 
REMARK   11  A    between atoms: C29_35  and  C30_36 
REMARK   12  A    between atoms: C34_40  and  O7_41 
ROOT
HETATM    1  C10 UNL     1     -15.464  -2.965  13.613  1.00  0.00     0.034 C 
HETATM    2  C11 UNL     1     -16.677  -3.896  13.407  1.00  0.00     0.012 C 
HETATM    3  C12 UNL     1     -17.540  -3.128  12.420  1.00  0.00     0.044 C 
HETATM    4  C13 UNL     1     -16.527  -2.667  11.359  1.00  0.00     0.090 C 
HETATM    5  C14 UNL     1     -16.175  -3.752  10.330  1.00  0.00    -0.037 C 
HETATM    6  C15 UNL     1     -16.845  -4.914  10.172  1.00  0.00     0.057 C 
HETATM    7  C16 UNL     1     -16.436  -5.936   9.180  1.00  0.00     0.154 C 
HETATM    8  O4  UNL     1     -17.216  -6.850   8.913  1.00  0.00    -0.293 OA
HETATM    9  C17 UNL     1     -15.058  -5.794   8.559  1.00  0.00     0.071 C 
HETATM   10  C18 UNL     1     -14.872  -6.748   7.373  1.00  0.00     0.047 C 
HETATM   11  C19 UNL     1     -13.487  -6.598   6.735  1.00  0.00     0.147 C 
HETATM   12  C20 UNL     1     -13.144  -5.148   6.365  1.00  0.00     0.147 C 
HETATM   13  C21 UNL     1     -13.398  -4.190   7.536  1.00  0.00     0.044 C 
HETATM   14  C22 UNL     1     -14.810  -4.309   8.189  1.00  0.00    -0.023 C 
HETATM   15  C23 UNL     1     -15.873  -3.789   7.175  1.00  0.00     0.016 C 
HETATM   16  C24 UNL     1     -14.951  -3.417   9.482  1.00  0.00     0.027 C 
HETATM   17  C25 UNL     1     -13.796  -3.464  10.484  1.00  0.00     0.011 C 
HETATM   18  C26 UNL     1     -13.938  -2.318  11.486  1.00  0.00     0.014 C 
HETATM   19  C27 UNL     1     -15.296  -2.164  12.242  1.00  0.00     0.002 C 
ENDROOT
BRANCH   1  20
HETATM   20  C8  UNL     1     -14.305  -3.594  14.450  1.00  0.00     0.087 C 
HETATM   21  C9  UNL     1     -13.127  -3.991  13.543  1.00  0.00     0.049 C 
BRANCH  20  22
HETATM   22  C7  UNL     1     -14.686  -4.784  15.303  1.00  0.00     0.185 A 
HETATM   23  C6  UNL     1     -14.389  -6.264  15.051  1.00  0.00     0.158 A 
HETATM   24  O1  UNL     1     -13.627  -5.475  15.975  1.00  0.00    -0.372 OA
BRANCH  23  25
HETATM   25  C4  UNL     1     -13.565  -6.871  13.941  1.00  0.00     0.017 C 
HETATM   26  C5  UNL     1     -12.120  -6.363  14.017  1.00  0.00     0.013 C 
BRANCH  25  27
HETATM   27  C2  UNL     1     -14.230  -6.609  12.554  1.00  0.00    -0.016 C 
HETATM   28  C1  UNL     1     -13.343  -6.962  11.352  1.00  0.00     0.010 C 
HETATM   29  C3  UNL     1     -15.568  -7.348  12.429  1.00  0.00     0.010 C 
ENDBRANCH  25  27
ENDBRANCH  23  25
ENDBRANCH  20  22
BRANCH  20  30
HETATM   30  O2  UNL     1     -13.782  -2.546  15.282  1.00  0.00    -0.387 OA
HETATM   31  H17 UNL     1     -13.561  -1.783  14.722  1.00  0.00     0.210 HD
ENDBRANCH  20  30
ENDBRANCH   1  20
BRANCH  19  32
HETATM   32  C28 UNL     1     -15.354  -0.602  12.547  1.00  0.00     0.018 C 
BRANCH  32  33
HETATM   33  C29 UNL     1     -15.647  -0.092  13.967  1.00  0.00     0.039 C 
BRANCH  33  34
HETATM   34  C30 UNL     1     -16.070   1.363  13.932  1.00  0.00    -0.056 A 
HETATM   35  C31 UNL     1     -15.409   2.325  14.711  1.00  0.00     0.007 A 
HETATM   36  C32 UNL     1     -15.807   3.662  14.664  1.00  0.00     0.003 A 
HETATM   37  C33 UNL     1     -16.854   4.057  13.828  1.00  0.00     0.036 A 
HETATM   38  C34 UNL     1     -17.499   3.104  13.046  1.00  0.00     0.066 A 
HETATM   39  C35 UNL     1     -17.118   1.765  13.093  1.00  0.00     0.043 A 
BRANCH  38  40
HETATM   40  O7  UNL     1     -18.524   3.444  12.213  1.00  0.00    -0.361 OA
HETATM   41  H49 UNL     1     -18.609   4.410  12.206  1.00  0.00     0.217 HD
ENDBRANCH  38  40
ENDBRANCH  33  34
ENDBRANCH  32  33
ENDBRANCH  19  32
BRANCH   4  42
HETATM   42  O3  UNL     1     -17.089  -1.592  10.614  1.00  0.00    -0.384 OA
HETATM   43  H23 UNL     1     -17.680  -1.967   9.944  1.00  0.00     0.211 HD
ENDBRANCH   4  42
BRANCH  12  44
HETATM   44  O6  UNL     1     -13.887  -4.739   5.216  1.00  0.00    -0.393 OA
HETATM   45  H31 UNL     1     -13.498  -5.215   4.457  1.00  0.00     0.210 HD
ENDBRANCH  12  44
BRANCH  11  46
HETATM   46  O5  UNL     1     -13.410  -7.422   5.571  1.00  0.00    -0.393 OA
HETATM   47  H29 UNL     1     -14.197  -7.217   5.032  1.00  0.00     0.210 HD
ENDBRANCH  11  46
TORSDOF 12
ENDMDL
MODEL 6
REMARK minimizedAffinity -9.44836712
REMARK CNNscore 0.415337384
REMARK CNNaffinity 7.11788368
REMARK  12 active torsions:
REMARK  status: ('A' for Active; 'I' for Inactive)
REMARK    1  A    between atoms: C2_2  and  C4_4 
REMARK    2  A    between atoms: C4_4  and  C6_6 
REMARK    3  A    between atoms: C7_8  and  C8_9 
REMARK    4  A    between atoms: C8_9  and  O2_11 
REMARK    5  A    between atoms: C8_9  and  C10_12 
REMARK    6  A    between atoms: C13_15  and  O3_16 
REMARK    7  A    between atoms: C19_23  and  O5_24 
REMARK    8  A    between atoms: C20_25  and  O6_26 
REMARK    9  A    between atoms: C27_33  and  C28_34 
REMARK   10  A    between atoms: C28_34  and  C29_35 
REMARK   11  A    between atoms: C29_35  and  C30_36 
REMARK   12  A    between atoms: C34_40  and  O7_41 
ROOT
HETATM    1  C10 UNL     1      -1.426   7.340  12.898  1.00  0.00     0.034 C 
HETATM    2  C11 UNL     1      -2.165   8.603  12.408  1.00  0.00     0.012 C 
HETATM    3  C12 UNL     1      -3.312   8.737  13.395  1.00  0.00     0.044 C 
HETATM    4  C13 UNL     1      -2.627   8.526  14.756  1.00  0.00     0.090 C 
HETATM    5  C14 UNL     1      -1.915   9.779  15.289  1.00  0.00    -0.037 C 
HETATM    6  C15 UNL     1      -2.063  11.024  14.787  1.00  0.00     0.057 C 
HETATM    7  C16 UNL     1      -1.324  12.189  15.328  1.00  0.00     0.154 C 
HETATM    8  O4  UNL     1      -1.678  13.322  15.000  1.00  0.00    -0.293 OA
HETATM    9  C17 UNL     1      -0.154  11.906  16.253  1.00  0.00     0.071 C 
HETATM   10  C18 UNL     1       0.345  13.181  16.940  1.00  0.00     0.047 C 
HETATM   11  C19 UNL     1       1.517  12.898  17.886  1.00  0.00     0.147 C 
HETATM   12  C20 UNL     1       1.223  11.779  18.895  1.00  0.00     0.147 C 
HETATM   13  C21 UNL     1       0.660  10.529  18.207  1.00  0.00     0.044 C 
HETATM   14  C22 UNL     1      -0.549  10.790  17.256  1.00  0.00    -0.023 C 
HETATM   15  C23 UNL     1      -1.780  11.206  18.116  1.00  0.00     0.016 C 
HETATM   16  C24 UNL     1      -0.976   9.497  16.459  1.00  0.00     0.027 C 
HETATM   17  C25 UNL     1       0.146   8.671  15.827  1.00  0.00     0.011 C 
HETATM   18  C26 UNL     1      -0.399   7.311  15.392  1.00  0.00     0.014 C 
HETATM   19  C27 UNL     1      -1.664   7.284  14.475  1.00  0.00     0.002 C 
ENDROOT
BRANCH   1  20
HETATM   20  C8  UNL     1      -0.071   7.064  12.170  1.00  0.00     0.087 C 
HETATM   21  C9  UNL     1       0.779   6.053  12.959  1.00  0.00     0.049 C 
BRANCH  20  22
HETATM   22  C7  UNL     1       0.772   8.285  11.875  1.00  0.00     0.185 A 
HETATM   23  C6  UNL     1       2.034   8.378  11.014  1.00  0.00     0.158 A 
HETATM   24  O1  UNL     1       0.747   8.791  10.535  1.00  0.00    -0.372 OA
BRANCH  23  25
HETATM   25  C4  UNL     1       2.676   7.293  10.185  1.00  0.00     0.017 C 
HETATM   26  C5  UNL     1       4.186   7.250  10.449  1.00  0.00     0.013 C 
BRANCH  25  27
HETATM   27  C2  UNL     1       2.328   7.472   8.675  1.00  0.00    -0.016 C 
HETATM   28  C1  UNL     1       3.064   8.631   7.990  1.00  0.00     0.010 C 
HETATM   29  C3  UNL     1       2.578   6.179   7.888  1.00  0.00     0.010 C 
ENDBRANCH  25  27
ENDBRANCH  23  25
ENDBRANCH  20  22
BRANCH  20  30
HETATM   30  O2  UNL     1      -0.393   6.386  10.945  1.00  0.00    -0.387 OA
HETATM   31  H17 UNL     1      -0.952   5.618  11.150  1.00  0.00     0.210 HD
ENDBRANCH  20  30
ENDBRANCH   1  20
BRANCH  19  32
HETATM   32  C28 UNL     1      -2.337   5.888  14.846  1.00  0.00     0.018 C 
BRANCH  32  33
HETATM   33  C29 UNL     1      -3.794   5.594  14.457  1.00  0.00     0.039 C 
BRANCH  33  34
HETATM   34  C30 UNL     1      -3.847   4.723  13.217  1.00  0.00    -0.056 A 
HETATM   35  C31 UNL     1      -5.064   4.196  12.758  1.00  0.00     0.007 A 
HETATM   36  C32 UNL     1      -5.098   3.402  11.611  1.00  0.00     0.003 A 
HETATM   37  C33 UNL     1      -3.924   3.138  10.901  1.00  0.00     0.036 A 
HETATM   38  C34 UNL     1      -2.721   3.673  11.350  1.00  0.00     0.066 A 
HETATM   39  C35 UNL     1      -2.673   4.458  12.499  1.00  0.00     0.043 A 
BRANCH  38  40
HETATM   40  O7  UNL     1      -1.550   3.446  10.686  1.00  0.00    -0.361 OA
HETATM   41  H49 UNL     1      -1.749   2.977   9.861  1.00  0.00     0.217 HD
ENDBRANCH  38  40
ENDBRANCH  33  34
ENDBRANCH  32  33
ENDBRANCH  19  32
BRANCH   4  42
HETATM   42  O3  UNL     1      -3.613   8.195  15.728  1.00  0.00    -0.384 OA
HETATM   43  H23 UNL     1      -4.032   9.017  16.023  1.00  0.00     0.211 HD
ENDBRANCH   4  42
BRANCH  12  44
HETATM   44  O6  UNL     1       0.322  12.242  19.903  1.00  0.00    -0.393 OA
HETATM   45  H31 UNL     1       0.834  12.858  20.461  1.00  0.00     0.210 HD
ENDBRANCH  12  44
BRANCH  11  46
HETATM   46  O5  UNL     1       1.865  14.095  18.583  1.00  0.00    -0.393 OA
HETATM   47  H29 UNL     1       1.036  14.449  18.959  1.00  0.00     0.210 HD
ENDBRANCH  11  46
TORSDOF 12
ENDMDL
MODEL 7
REMARK minimizedAffinity -9.71268845
REMARK CNNscore 0.401229948
REMARK CNNaffinity 7.16562796
REMARK  12 active torsions:
REMARK  status: ('A' for Active; 'I' for Inactive)
REMARK    1  A    between atoms: C2_2  and  C4_4 
REMARK    2  A    between atoms: C4_4  and  C6_6 
REMARK    3  A    between atoms: C7_8  and  C8_9 
REMARK    4  A    between atoms: C8_9  and  O2_11 
REMARK    5  A    between atoms: C8_9  and  C10_12 
REMARK    6  A    between atoms: C13_15  and  O3_16 
REMARK    7  A    between atoms: C19_23  and  O5_24 
REMARK    8  A    between atoms: C20_25  and  O6_26 
REMARK    9  A    between atoms: C27_33  and  C28_34 
REMARK   10  A    between atoms: C28_34  and  C29_35 
REMARK   11  A    between atoms: C29_35  and  C30_36 
REMARK   12  A    between atoms: C34_40  and  O7_41 
ROOT
HETATM    1  C10 UNL     1      -1.117   6.909  13.956  1.00  0.00     0.034 C 
HETATM    2  C11 UNL     1      -0.344   6.893  15.291  1.00  0.00     0.012 C 
HETATM    3  C12 UNL     1       0.713   7.965  15.092  1.00  0.00     0.044 C 
HETATM    4  C13 UNL     1      -0.086   9.133  14.490  1.00  0.00     0.090 C 
HETATM    5  C14 UNL     1      -0.846   9.964  15.536  1.00  0.00    -0.037 C 
HETATM    6  C15 UNL     1      -0.661   9.881  16.871  1.00  0.00     0.057 C 
HETATM    7  C16 UNL     1      -1.449  10.690  17.832  1.00  0.00     0.154 C 
HETATM    8  O4  UNL     1      -1.072  10.755  19.002  1.00  0.00    -0.293 OA
HETATM    9  C17 UNL     1      -2.693  11.383  17.306  1.00  0.00     0.071 C 
HETATM   10  C18 UNL     1      -3.255  12.384  18.321  1.00  0.00     0.047 C 
HETATM   11  C19 UNL     1      -4.502  13.095  17.788  1.00  0.00     0.147 C 
HETATM   12  C20 UNL     1      -4.292  13.734  16.408  1.00  0.00     0.147 C 
HETATM   13  C21 UNL     1      -3.666  12.746  15.416  1.00  0.00     0.044 C 
HETATM   14  C22 UNL     1      -2.381  12.024  15.929  1.00  0.00    -0.023 C 
HETATM   15  C23 UNL     1      -1.231  13.070  16.034  1.00  0.00     0.016 C 
HETATM   16  C24 UNL     1      -1.882  10.908  14.932  1.00  0.00     0.027 C 
HETATM   17  C25 UNL     1      -2.941   9.963  14.364  1.00  0.00     0.011 C 
HETATM   18  C26 UNL     1      -2.355   9.178  13.190  1.00  0.00     0.014 C 
HETATM   19  C27 UNL     1      -1.016   8.407  13.415  1.00  0.00     0.002 C 
ENDROOT
BRANCH   1  20
HETATM   20  C8  UNL     1      -2.403   6.021  13.947  1.00  0.00     0.087 C 
HETATM   21  C9  UNL     1      -2.136   4.678  13.245  1.00  0.00     0.049 C 
BRANCH  20  22
HETATM   22  C7  UNL     1      -3.631   6.656  13.333  1.00  0.00     0.185 A 
HETATM   23  C6  UNL     1      -4.975   5.999  13.007  1.00  0.00     0.158 A 
HETATM   24  O1  UNL     1      -4.780   6.809  14.174  1.00  0.00    -0.372 OA
BRANCH  23  25
HETATM   25  C4  UNL     1      -5.417   4.587  13.310  1.00  0.00     0.017 C 
HETATM   26  C5  UNL     1      -5.168   3.685  12.095  1.00  0.00     0.013 C 
BRANCH  25  27
HETATM   27  C2  UNL     1      -6.900   4.565  13.792  1.00  0.00    -0.016 C 
HETATM   28  C1  UNL     1      -7.794   5.625  13.135  1.00  0.00     0.010 C 
HETATM   29  C3  UNL     1      -7.530   3.180  13.592  1.00  0.00     0.010 C 
ENDBRANCH  25  27
ENDBRANCH  23  25
ENDBRANCH  20  22
BRANCH  20  30
HETATM   30  O2  UNL     1      -2.669   5.667  15.314  1.00  0.00    -0.387 OA
HETATM   31  H17 UNL     1      -1.865   5.280  15.699  1.00  0.00     0.210 HD
ENDBRANCH  20  30
ENDBRANCH   1  20
BRANCH  19  32
HETATM   32  C28 UNL     1      -0.372   8.387  11.958  1.00  0.00     0.018 C 
BRANCH  32  33
HETATM   33  C29 UNL     1      -0.320   7.084  11.144  1.00  0.00     0.039 C 
BRANCH  33  34
HETATM   34  C30 UNL     1       0.678   7.206  10.009  1.00  0.00    -0.056 A 
HETATM   35  C31 UNL     1       0.621   8.283   9.112  1.00  0.00     0.007 A 
HETATM   36  C32 UNL     1       1.550   8.386   8.076  1.00  0.00     0.003 A 
HETATM   37  C33 UNL     1       2.556   7.427   7.934  1.00  0.00     0.036 A 
HETATM   38  C34 UNL     1       2.619   6.367   8.833  1.00  0.00     0.066 A 
HETATM   39  C35 UNL     1       1.690   6.249   9.864  1.00  0.00     0.043 A 
BRANCH  38  40
HETATM   40  O7  UNL     1       3.586   5.409   8.736  1.00  0.00    -0.361 OA
HETATM   41  H49 UNL     1       4.214   5.673   8.047  1.00  0.00     0.217 HD
ENDBRANCH  38  40
ENDBRANCH  33  34
ENDBRANCH  32  33
ENDBRANCH  19  32
BRANCH   4  42
HETATM   42  O3  UNL     1       0.814  10.036  13.856  1.00  0.00    -0.384 OA
HETATM   43  H23 UNL     1       1.203  10.603  14.539  1.00  0.00     0.211 HD
ENDBRANCH   4  42
BRANCH  12  44
HETATM   44  O6  UNL     1      -3.484  14.907  16.521  1.00  0.00    -0.393 OA
HETATM   45  H31 UNL     1      -4.044  15.582  16.948  1.00  0.00     0.210 HD
ENDBRANCH  12  44
BRANCH  11  46
HETATM   46  O5  UNL     1      -4.914  14.094  18.723  1.00  0.00    -0.393 OA
HETATM   47  H29 UNL     1      -4.122  14.628  18.926  1.00  0.00     0.210 HD
ENDBRANCH  11  46
TORSDOF 12
ENDMDL
MODEL 8
REMARK minimizedAffinity -9.23073387
REMARK CNNscore 0.392593235
REMARK CNNaffinity 7.09333658
REMARK  12 active torsions:
REMARK  status: ('A' for Active; 'I' for Inactive)
REMARK    1  A    between atoms: C2_2  and  C4_4 
REMARK    2  A    between atoms: C4_4  and  C6_6 
REMARK    3  A    between atoms: C7_8  and  C8_9 
REMARK    4  A    between atoms: C8_9  and  O2_11 
REMARK    5  A    between atoms: C8_9  and  C10_12 
REMARK    6  A    between atoms: C13_15  and  O3_16 
REMARK    7  A    between atoms: C19_23  and  O5_24 
REMARK    8  A    between atoms: C20_25  and  O6_26 
REMARK    9  A    between atoms: C27_33  and  C28_34 
REMARK   10  A    between atoms: C28_34  and  C29_35 
REMARK   11  A    between atoms: C29_35  and  C30_36 
REMARK   12  A    between atoms: C34_40  and  O7_41 
ROOT
HETATM    1  C10 UNL     1      -0.012   6.990  13.821  1.00  0.00     0.034 C 
HETATM    2  C11 UNL     1       1.321   6.770  14.567  1.00  0.00     0.012 C 
HETATM    3  C12 UNL     1       2.251   7.781  13.918  1.00  0.00     0.044 C 
HETATM    4  C13 UNL     1       1.402   9.063  13.883  1.00  0.00     0.090 C 
HETATM    5  C14 UNL     1       1.376   9.823  15.218  1.00  0.00    -0.037 C 
HETATM    6  C15 UNL     1       2.198   9.579  16.261  1.00  0.00     0.057 C 
HETATM    7  C16 UNL     1       2.104  10.328  17.537  1.00  0.00     0.154 C 
HETATM    8  O4  UNL     1       3.023  10.236  18.350  1.00  0.00    -0.293 OA
HETATM    9  C17 UNL     1       0.856  11.162  17.766  1.00  0.00     0.071 C 
HETATM   10  C18 UNL     1       1.004  12.080  18.984  1.00  0.00     0.047 C 
HETATM   11  C19 UNL     1      -0.248  12.933  19.210  1.00  0.00     0.147 C 
HETATM   12  C20 UNL     1      -0.689  13.706  17.959  1.00  0.00     0.147 C 
HETATM   13  C21 UNL     1      -0.770  12.793  16.729  1.00  0.00     0.044 C 
HETATM   14  C22 UNL     1       0.503  11.930  16.465  1.00  0.00    -0.023 C 
HETATM   15  C23 UNL     1       1.664  12.874  16.028  1.00  0.00     0.016 C 
HETATM   16  C24 UNL     1       0.297  10.899  15.289  1.00  0.00     0.027 C 
HETATM   17  C25 UNL     1      -1.008  10.100  15.289  1.00  0.00     0.011 C 
HETATM   18  C26 UNL     1      -1.190   9.413  13.935  1.00  0.00     0.014 C 
HETATM   19  C27 UNL     1      -0.021   8.528  13.395  1.00  0.00     0.002 C 
ENDROOT
BRANCH   1  20
HETATM   20  C8  UNL     1      -1.221   6.201  14.419  1.00  0.00     0.087 C 
HETATM   21  C9  UNL     1      -2.024   5.504  13.307  1.00  0.00     0.049 C 
BRANCH  20  22
HETATM   22  C7  UNL     1      -2.171   7.012  15.272  1.00  0.00     0.185 A 
HETATM   23  C6  UNL     1      -3.607   7.434  14.950  1.00  0.00     0.158 A 
HETATM   24  O1  UNL     1      -3.308   6.330  15.815  1.00  0.00    -0.372 OA
BRANCH  23  25
HETATM   25  C4  UNL     1      -4.439   7.061  13.747  1.00  0.00     0.017 C 
HETATM   26  C5  UNL     1      -4.898   8.324  13.010  1.00  0.00     0.013 C 
BRANCH  25  27
HETATM   27  C2  UNL     1      -5.623   6.133  14.160  1.00  0.00    -0.016 C 
HETATM   28  C1  UNL     1      -6.977   6.847  14.265  1.00  0.00     0.010 C 
HETATM   29  C3  UNL     1      -5.754   4.939  13.207  1.00  0.00     0.010 C 
ENDBRANCH  25  27
ENDBRANCH  23  25
ENDBRANCH  20  22
BRANCH  20  30
HETATM   30  O2  UNL     1      -0.668   5.125  15.193  1.00  0.00    -0.387 OA
HETATM   31  H17 UNL     1      -0.045   4.627  14.637  1.00  0.00     0.210 HD
ENDBRANCH  20  30
ENDBRANCH   1  20
BRANCH  19  32
HETATM   32  C28 UNL     1      -0.207   8.625  11.816  1.00  0.00     0.018 C 
BRANCH  32  33
HETATM   33  C29 UNL     1      -0.402   7.356  10.972  1.00  0.00     0.039 C 
BRANCH  33  34
HETATM   34  C30 UNL     1       0.628   7.294   9.862  1.00  0.00    -0.056 A 
HETATM   35  C31 UNL     1       0.541   8.143   8.748  1.00  0.00     0.007 A 
HETATM   36  C32 UNL     1       1.501   8.078   7.737  1.00  0.00     0.003 A 
HETATM   37  C33 UNL     1       2.565   7.179   7.833  1.00  0.00     0.036 A 
HETATM   38  C34 UNL     1       2.658   6.347   8.944  1.00  0.00     0.066 A 
HETATM   39  C35 UNL     1       1.700   6.396   9.954  1.00  0.00     0.043 A 
BRANCH  38  40
HETATM   40  O7  UNL     1       3.683   5.457   9.082  1.00  0.00    -0.361 OA
HETATM   41  H49 UNL     1       4.319   5.605   8.367  1.00  0.00     0.217 HD
ENDBRANCH  38  40
ENDBRANCH  33  34
ENDBRANCH  32  33
ENDBRANCH  19  32
BRANCH   4  42
HETATM   42  O3  UNL     1       1.958   9.964  12.932  1.00  0.00    -0.384 OA
HETATM   43  H23 UNL     1       2.702  10.423  13.351  1.00  0.00     0.211 HD
ENDBRANCH   4  42
BRANCH  12  44
HETATM   44  O6  UNL     1       0.198  14.798  17.711  1.00  0.00    -0.393 OA
HETATM   45  H31 UNL     1       0.014  15.460  18.405  1.00  0.00     0.210 HD
ENDBRANCH  12  44
BRANCH  11  46
HETATM   46  O5  UNL     1      -0.012  13.848  20.281  1.00  0.00    -0.393 OA
HETATM   47  H29 UNL     1       0.831  14.299  20.081  1.00  0.00     0.210 HD
ENDBRANCH  11  46
TORSDOF 12
ENDMDL
MODEL 9
REMARK minimizedAffinity -7.73151875
REMARK CNNscore 0.382286012
REMARK CNNaffinity 6.36324835
REMARK  12 active torsions:
REMARK  status: ('A' for Active; 'I' for Inactive)
REMARK    1  A    between atoms: C2_2  and  C4_4 
REMARK    2  A    between atoms: C4_4  and  C6_6 
REMARK    3  A    between atoms: C7_8  and  C8_9 
REMARK    4  A    between atoms: C8_9  and  O2_11 
REMARK    5  A    between atoms: C8_9  and  C10_12 
REMARK    6  A    between atoms: C13_15  and  O3_16 
REMARK    7  A    between atoms: C19_23  and  O5_24 
REMARK    8  A    between atoms: C20_25  and  O6_26 
REMARK    9  A    between atoms: C27_33  and  C28_34 
REMARK   10  A    between atoms: C28_34  and  C29_35 
REMARK   11  A    between atoms: C29_35  and  C30_36 
REMARK   12  A    between atoms: C34_40  and  O7_41 
ROOT
HETATM    1  C10 UNL     1      -0.518  11.007  17.510  1.00  0.00     0.034 C 
HETATM    2  C11 UNL     1      -0.240  12.099  16.456  1.00  0.00     0.012 C 
HETATM    3  C12 UNL     1      -1.252  11.794  15.366  1.00  0.00     0.044 C 
HETATM    4  C13 UNL     1      -2.553  11.567  16.153  1.00  0.00     0.090 C 
HETATM    5  C14 UNL     1      -3.264  12.867  16.559  1.00  0.00    -0.037 C 
HETATM    6  C15 UNL     1      -2.962  14.093  16.082  1.00  0.00     0.057 C 
HETATM    7  C16 UNL     1      -3.666  15.316  16.537  1.00  0.00     0.154 C 
HETATM    8  O4  UNL     1      -3.522  16.358  15.896  1.00  0.00    -0.293 OA
HETATM    9  C17 UNL     1      -4.519  15.206  17.787  1.00  0.00     0.071 C 
HETATM   10  C18 UNL     1      -5.388  16.452  17.991  1.00  0.00     0.047 C 
HETATM   11  C19 UNL     1      -6.262  16.338  19.244  1.00  0.00     0.147 C 
HETATM   12  C20 UNL     1      -7.090  15.047  19.291  1.00  0.00     0.147 C 
HETATM   13  C21 UNL     1      -6.225  13.809  19.019  1.00  0.00     0.044 C 
HETATM   14  C22 UNL     1      -5.343  13.893  17.735  1.00  0.00    -0.023 C 
HETATM   15  C23 UNL     1      -6.275  13.854  16.486  1.00  0.00     0.016 C 
HETATM   16  C24 UNL     1      -4.362  12.665  17.600  1.00  0.00     0.027 C 
HETATM   17  C25 UNL     1      -3.594  12.250  18.856  1.00  0.00     0.011 C 
HETATM   18  C26 UNL     1      -2.962  10.875  18.642  1.00  0.00     0.014 C 
HETATM   19  C27 UNL     1      -2.071  10.663  17.377  1.00  0.00     0.002 C 
ENDROOT
BRANCH   1  20
HETATM   20  C8  UNL     1       0.264  11.192  18.850  1.00  0.00     0.087 C 
HETATM   21  C9  UNL     1      -0.015  12.576  19.461  1.00  0.00     0.049 C 
BRANCH  20  22
HETATM   22  C7  UNL     1       1.760  10.989  18.766  1.00  0.00     0.185 A 
HETATM   23  C6  UNL     1       2.757  10.804  19.914  1.00  0.00     0.158 A 
HETATM   24  O1  UNL     1       2.269   9.702  19.138  1.00  0.00    -0.372 OA
BRANCH  23  25
HETATM   25  C4  UNL     1       2.463  10.690  21.390  1.00  0.00     0.017 C 
HETATM   26  C5  UNL     1       2.790  12.011  22.097  1.00  0.00     0.013 C 
BRANCH  25  27
HETATM   27  C2  UNL     1       3.211   9.468  22.009  1.00  0.00    -0.016 C 
HETATM   28  C1  UNL     1       4.203   9.832  23.121  1.00  0.00     0.010 C 
HETATM   29  C3  UNL     1       2.222   8.419  22.536  1.00  0.00     0.010 C 
ENDBRANCH  25  27
ENDBRANCH  23  25
ENDBRANCH  20  22
BRANCH  20  30
HETATM   30  O2  UNL     1      -0.303  10.263  19.789  1.00  0.00    -0.387 OA
HETATM   31  H17 UNL     1      -1.265  10.393  19.815  1.00  0.00     0.210 HD
ENDBRANCH  20  30
ENDBRANCH   1  20
BRANCH  19  32
HETATM   32  C28 UNL     1      -2.231   9.103  17.091  1.00  0.00     0.018 C 
BRANCH  32  33
HETATM   33  C29 UNL     1      -1.160   8.340  16.297  1.00  0.00     0.039 C 
BRANCH  33  34
HETATM   34  C30 UNL     1      -1.792   7.579  15.149  1.00  0.00    -0.056 A 
HETATM   35  C31 UNL     1      -3.115   7.118  15.231  1.00  0.00     0.007 A 
HETATM   36  C32 UNL     1      -3.686   6.424  14.163  1.00  0.00     0.003 A 
HETATM   37  C33 UNL     1      -2.951   6.197  12.997  1.00  0.00     0.036 A 
HETATM   38  C34 UNL     1      -1.644   6.667  12.912  1.00  0.00     0.066 A 
HETATM   39  C35 UNL     1      -1.061   7.351  13.975  1.00  0.00     0.043 A 
BRANCH  38  40
HETATM   40  O7  UNL     1      -0.891   6.473  11.791  1.00  0.00    -0.361 OA
HETATM   41  H49 UNL     1      -1.453   6.080  11.105  1.00  0.00     0.217 HD
ENDBRANCH  38  40
ENDBRANCH  33  34
ENDBRANCH  32  33
ENDBRANCH  19  32
BRANCH   4  42
HETATM   42  O3  UNL     1      -3.477  10.859  15.332  1.00  0.00    -0.384 OA
HETATM   43  H23 UNL     1      -3.902  11.496  14.738  1.00  0.00     0.211 HD
ENDBRANCH   4  42
BRANCH  12  44
HETATM   44  O6  UNL     1      -8.170  15.115  18.358  1.00  0.00    -0.393 OA
HETATM   45  H31 UNL     1      -8.809  15.752  18.730  1.00  0.00     0.210 HD
ENDBRANCH  12  44
BRANCH  11  46
HETATM   46  O5  UNL     1      -7.130  17.469  19.322  1.00  0.00    -0.393 OA
HETATM   47  H29 UNL     1      -7.568  17.544  18.452  1.00  0.00     0.210 HD
ENDBRANCH  11  46
TORSDOF 12
ENDMDL
