MODEL 1
REMARK minimizedAffinity -9.79428959
REMARK  7 active torsions:
REMARK  status: ('A' for Active; 'I' for Inactive)
REMARK    1  A    between atoms: C2_2  and  C30_32 
REMARK    2  A    between atoms: C3_3  and  C4_4 
REMARK    3  A    between atoms: C4_4  and  O1_5 
REMARK    4  A    between atoms: C4_4  and  C5_6 
REMARK    5  A    between atoms: C5_6  and  C6_7 
REMARK    6  A    between atoms: C6_7  and  C8_9 
REMARK    7  A    between atoms: C30_32  and  O4_34 
ROOT
HETATM    1  C8  UNL     1      -0.813  50.562 -22.206  1.00  0.00    -0.002 C 
HETATM    2  C9  UNL     1      -0.948  50.456 -20.653  1.00  0.00     0.007 C 
HETATM    3  C10 UNL     1      -2.308  49.793 -20.348  1.00  0.00     0.015 C 
HETATM    4  C11 UNL     1      -2.764  49.227 -21.703  1.00  0.00    -0.013 C 
HETATM    5  C12 UNL     1      -1.999  47.867 -21.884  1.00  0.00     0.021 C 
HETATM    6  C13 UNL     1      -4.244  48.886 -21.896  1.00  0.00    -0.070 C 
HETATM    7  C14 UNL     1      -4.925  48.224 -20.940  1.00  0.00    -0.022 C 
HETATM    8  C15 UNL     1      -6.212  47.502 -21.191  1.00  0.00     0.034 C 
HETATM    9  C16 UNL     1      -6.356  47.142 -22.686  1.00  0.00     0.013 C 
HETATM   10  C17 UNL     1      -7.545  46.158 -22.983  1.00  0.00     0.018 C 
HETATM   11  C18 UNL     1      -7.193  44.760 -22.409  1.00  0.00     0.023 C 
HETATM   12  C19 UNL     1      -8.905  46.554 -22.385  1.00  0.00     0.023 C 
HETATM   13  C20 UNL     1      -7.718  46.014 -24.502  1.00  0.00     0.135 C 
HETATM   14  O2  UNL     1      -7.917  44.929 -25.048  1.00  0.00    -0.297 OA
HETATM   15  C21 UNL     1      -7.707  47.279 -25.324  1.00  0.00     0.080 C 
HETATM   16  C22 UNL     1      -6.430  48.056 -25.050  1.00  0.00     0.017 C 
HETATM   17  C23 UNL     1      -6.246  48.440 -23.561  1.00  0.00    -0.031 C 
HETATM   18  C24 UNL     1      -7.332  49.494 -23.196  1.00  0.00     0.016 C 
HETATM   19  C25 UNL     1      -4.840  49.152 -23.289  1.00  0.00     0.024 C 
HETATM   20  C26 UNL     1      -3.751  48.996 -24.373  1.00  0.00     0.010 C 
HETATM   21  C27 UNL     1      -2.484  49.865 -24.136  1.00  0.00     0.011 C 
HETATM   22  C28 UNL     1      -2.291  50.361 -22.682  1.00  0.00    -0.029 C 
HETATM   23  C29 UNL     1      -3.037  51.720 -22.479  1.00  0.00     0.016 C 
ENDROOT
BRANCH   1  24
HETATM   24  C6  UNL     1      -0.007  51.827 -22.641  1.00  0.00    -0.011 C 
HETATM   25  C7  UNL     1       0.311  52.744 -21.455  1.00  0.00     0.010 C 
BRANCH  24  26
HETATM   26  C5  UNL     1      -0.807  52.610 -23.725  1.00  0.00     0.040 C 
BRANCH  26  27
HETATM   27  C4  UNL     1       0.048  53.399 -24.733  1.00  0.00     0.142 C 
BRANCH  27  28
HETATM   28  C3  UNL     1       0.567  52.507 -25.833  1.00  0.00     0.018 C 
HETATM   29  C2  UNL     1       0.251  52.554 -27.144  1.00  0.00     0.010 C 
HETATM   30  C1  UNL     1       0.883  51.668 -28.172  1.00  0.00     0.055 C 
BRANCH  29  31
HETATM   31  C30 UNL     1      -0.740  53.507 -27.686  1.00  0.00     0.171 C 
HETATM   32  O3  UNL     1      -0.563  54.702 -27.833  1.00  0.00    -0.646 OA
BRANCH  31  33
HETATM   33  O4  UNL     1      -1.862  52.890 -28.094  1.00  0.00    -0.773 OA
HETATM   34  H46 UNL     1      -2.439  53.625 -28.384  1.00  0.00     0.167 HD
ENDBRANCH  31  33
ENDBRANCH  29  31
ENDBRANCH  27  28
BRANCH  27  35
HETATM   35  O1  UNL     1       1.144  53.986 -24.041  1.00  0.00    -0.392 OA
HETATM   36  H6  UNL     1       1.726  53.265 -23.748  1.00  0.00     0.210 HD
ENDBRANCH  27  35
ENDBRANCH  26  27
ENDBRANCH  24  26
ENDBRANCH   1  24
TORSDOF 7
ENDMDL
MODEL 2
REMARK minimizedAffinity -9.56298447
REMARK  7 active torsions:
REMARK  status: ('A' for Active; 'I' for Inactive)
REMARK    1  A    between atoms: C2_2  and  C30_32 
REMARK    2  A    between atoms: C3_3  and  C4_4 
REMARK    3  A    between atoms: C4_4  and  O1_5 
REMARK    4  A    between atoms: C4_4  and  C5_6 
REMARK    5  A    between atoms: C5_6  and  C6_7 
REMARK    6  A    between atoms: C6_7  and  C8_9 
REMARK    7  A    between atoms: C30_32  and  O4_34 
ROOT
HETATM    1  C8  UNL     1      -6.128  49.589 -21.722  1.00  0.00    -0.002 C 
HETATM    2  C9  UNL     1      -5.192  48.976 -20.631  1.00  0.00     0.007 C 
HETATM    3  C10 UNL     1      -3.735  49.240 -21.065  1.00  0.00     0.015 C 
HETATM    4  C11 UNL     1      -3.859  50.279 -22.192  1.00  0.00    -0.013 C 
HETATM    5  C12 UNL     1      -4.032  51.669 -21.483  1.00  0.00     0.021 C 
HETATM    6  C13 UNL     1      -2.683  50.461 -23.155  1.00  0.00    -0.070 C 
HETATM    7  C14 UNL     1      -1.421  50.529 -22.690  1.00  0.00    -0.022 C 
HETATM    8  C15 UNL     1      -0.280  51.102 -23.473  1.00  0.00     0.034 C 
HETATM    9  C16 UNL     1      -0.795  52.063 -24.567  1.00  0.00     0.013 C 
HETATM   10  C17 UNL     1       0.345  52.902 -25.252  1.00  0.00     0.018 C 
HETATM   11  C18 UNL     1       0.890  53.935 -24.231  1.00  0.00     0.023 C 
HETATM   12  C19 UNL     1       1.553  52.098 -25.759  1.00  0.00     0.023 C 
HETATM   13  C20 UNL     1      -0.241  53.678 -26.441  1.00  0.00     0.135 C 
HETATM   14  O2  UNL     1       0.043  54.854 -26.671  1.00  0.00    -0.297 OA
HETATM   15  C21 UNL     1      -1.143  52.924 -27.385  1.00  0.00     0.080 C 
HETATM   16  C22 UNL     1      -2.285  52.290 -26.606  1.00  0.00     0.017 C 
HETATM   17  C23 UNL     1      -1.813  51.316 -25.499  1.00  0.00    -0.031 C 
HETATM   18  C24 UNL     1      -1.183  50.071 -26.186  1.00  0.00     0.016 C 
HETATM   19  C25 UNL     1      -3.031  50.760 -24.624  1.00  0.00     0.024 C 
HETATM   20  C26 UNL     1      -4.367  51.529 -24.709  1.00  0.00     0.010 C 
HETATM   21  C27 UNL     1      -5.554  50.830 -23.987  1.00  0.00     0.011 C 
HETATM   22  C28 UNL     1      -5.149  49.773 -22.931  1.00  0.00    -0.029 C 
HETATM   23  C29 UNL     1      -4.979  48.376 -23.613  1.00  0.00     0.016 C 
ENDROOT
BRANCH   1  24
HETATM   24  C6  UNL     1      -7.448  48.773 -21.890  1.00  0.00    -0.011 C 
HETATM   25  C7  UNL     1      -7.266  47.297 -21.519  1.00  0.00     0.010 C 
BRANCH  24  26
HETATM   26  C5  UNL     1      -7.958  48.899 -23.357  1.00  0.00     0.040 C 
BRANCH  26  27
HETATM   27  C4  UNL     1      -8.570  47.618 -23.954  1.00  0.00     0.142 C 
BRANCH  27  28
HETATM   28  C3  UNL     1      -8.230  47.475 -25.417  1.00  0.00     0.018 C 
HETATM   29  C2  UNL     1      -8.845  48.066 -26.462  1.00  0.00     0.010 C 
HETATM   30  C1  UNL     1      -8.380  47.917 -27.878  1.00  0.00     0.055 C 
BRANCH  29  31
HETATM   31  C30 UNL     1     -10.031  48.933 -26.298  1.00  0.00     0.171 C 
HETATM   32  O3  UNL     1     -11.188  48.558 -26.323  1.00  0.00    -0.646 OA
BRANCH  31  33
HETATM   33  O4  UNL     1      -9.691  50.204 -26.024  1.00  0.00    -0.773 OA
HETATM   34  H46 UNL     1     -10.550  50.670 -25.983  1.00  0.00     0.167 HD
ENDBRANCH  31  33
ENDBRANCH  29  31
ENDBRANCH  27  28
BRANCH  27  35
HETATM   35  O1  UNL     1      -9.983  47.672 -23.796  1.00  0.00    -0.392 OA
HETATM   36  H6  UNL     1     -10.315  48.384 -24.369  1.00  0.00     0.210 HD
ENDBRANCH  27  35
ENDBRANCH  26  27
ENDBRANCH  24  26
ENDBRANCH   1  24
TORSDOF 7
ENDMDL
MODEL 3
REMARK minimizedAffinity -9.54440594
REMARK  7 active torsions:
REMARK  status: ('A' for Active; 'I' for Inactive)
REMARK    1  A    between atoms: C2_2  and  C30_32 
REMARK    2  A    between atoms: C3_3  and  C4_4 
REMARK    3  A    between atoms: C4_4  and  O1_5 
REMARK    4  A    between atoms: C4_4  and  C5_6 
REMARK    5  A    between atoms: C5_6  and  C6_7 
REMARK    6  A    between atoms: C6_7  and  C8_9 
REMARK    7  A    between atoms: C30_32  and  O4_34 
ROOT
HETATM    1  C8  UNL     1      -1.841  50.974 -22.057  1.00  0.00    -0.002 C 
HETATM    2  C9  UNL     1      -3.051  49.987 -21.987  1.00  0.00     0.007 C 
HETATM    3  C10 UNL     1      -3.198  49.533 -20.520  1.00  0.00     0.015 C 
HETATM    4  C11 UNL     1      -2.312  50.512 -19.731  1.00  0.00    -0.013 C 
HETATM    5  C12 UNL     1      -3.168  51.816 -19.546  1.00  0.00     0.021 C 
HETATM    6  C13 UNL     1      -1.861  50.121 -18.321  1.00  0.00    -0.070 C 
HETATM    7  C14 UNL     1      -2.733  49.583 -17.448  1.00  0.00    -0.022 C 
HETATM    8  C15 UNL     1      -2.509  49.553 -15.967  1.00  0.00     0.034 C 
HETATM    9  C16 UNL     1      -1.506  50.648 -15.542  1.00  0.00     0.013 C 
HETATM   10  C17 UNL     1      -1.422  50.852 -13.986  1.00  0.00     0.018 C 
HETATM   11  C18 UNL     1      -2.743  51.500 -13.493  1.00  0.00     0.023 C 
HETATM   12  C19 UNL     1      -1.217  49.575 -13.155  1.00  0.00     0.023 C 
HETATM   13  C20 UNL     1      -0.273  51.818 -13.662  1.00  0.00     0.135 C 
HETATM   14  O2  UNL     1      -0.379  52.722 -12.832  1.00  0.00    -0.297 OA
HETATM   15  C21 UNL     1       1.046  51.584 -14.354  1.00  0.00     0.080 C 
HETATM   16  C22 UNL     1       0.838  51.561 -15.860  1.00  0.00     0.017 C 
HETATM   17  C23 UNL     1      -0.160  50.475 -16.331  1.00  0.00    -0.031 C 
HETATM   18  C24 UNL     1       0.492  49.082 -16.090  1.00  0.00     0.016 C 
HETATM   19  C25 UNL     1      -0.446  50.556 -17.902  1.00  0.00     0.024 C 
HETATM   20  C26 UNL     1      -0.056  51.866 -18.622  1.00  0.00     0.010 C 
HETATM   21  C27 UNL     1      -0.184  51.807 -20.170  1.00  0.00     0.011 C 
HETATM   22  C28 UNL     1      -1.096  50.679 -20.711  1.00  0.00    -0.029 C 
HETATM   23  C29 UNL     1      -0.264  49.371 -20.913  1.00  0.00     0.016 C 
ENDROOT
BRANCH   1  24
HETATM   24  C6  UNL     1      -1.082  50.879 -23.418  1.00  0.00    -0.011 C 
HETATM   25  C7  UNL     1      -0.236  52.126 -23.696  1.00  0.00     0.010 C 
BRANCH  24  26
HETATM   26  C5  UNL     1      -2.106  50.657 -24.572  1.00  0.00     0.040 C 
BRANCH  26  27
HETATM   27  C4  UNL     1      -1.984  51.633 -25.757  1.00  0.00     0.142 C 
BRANCH  27  28
HETATM   28  C3  UNL     1      -0.730  51.377 -26.556  1.00  0.00     0.018 C 
HETATM   29  C2  UNL     1      -0.020  52.270 -27.275  1.00  0.00     0.010 C 
HETATM   30  C1  UNL     1       1.260  51.928 -27.973  1.00  0.00     0.055 C 
BRANCH  29  31
HETATM   31  C30 UNL     1      -0.438  53.679 -27.423  1.00  0.00     0.171 C 
HETATM   32  O3  UNL     1      -1.325  54.079 -28.153  1.00  0.00    -0.646 OA
BRANCH  31  33
HETATM   33  O4  UNL     1       0.224  54.492 -26.581  1.00  0.00    -0.773 OA
HETATM   34  H46 UNL     1      -0.110  55.383 -26.809  1.00  0.00     0.167 HD
ENDBRANCH  31  33
ENDBRANCH  29  31
ENDBRANCH  27  28
BRANCH  27  35
HETATM   35  O1  UNL     1      -1.964  52.963 -25.253  1.00  0.00    -0.392 OA
HETATM   36  H6  UNL     1      -1.132  53.078 -24.763  1.00  0.00     0.210 HD
ENDBRANCH  27  35
ENDBRANCH  26  27
ENDBRANCH  24  26
ENDBRANCH   1  24
TORSDOF 7
ENDMDL
MODEL 4
REMARK minimizedAffinity -9.48548222
REMARK  7 active torsions:
REMARK  status: ('A' for Active; 'I' for Inactive)
REMARK    1  A    between atoms: C2_2  and  C30_32 
REMARK    2  A    between atoms: C3_3  and  C4_4 
REMARK    3  A    between atoms: C4_4  and  O1_5 
REMARK    4  A    between atoms: C4_4  and  C5_6 
REMARK    5  A    between atoms: C5_6  and  C6_7 
REMARK    6  A    between atoms: C6_7  and  C8_9 
REMARK    7  A    between atoms: C30_32  and  O4_34 
ROOT
HETATM    1  C8  UNL     1      -2.004  50.687 -22.522  1.00  0.00    -0.002 C 
HETATM    2  C9  UNL     1      -1.680  50.396 -21.020  1.00  0.00     0.007 C 
HETATM    3  C10 UNL     1      -2.700  49.354 -20.517  1.00  0.00     0.015 C 
HETATM    4  C11 UNL     1      -3.357  48.818 -21.799  1.00  0.00    -0.013 C 
HETATM    5  C12 UNL     1      -2.363  47.750 -22.381  1.00  0.00     0.021 C 
HETATM    6  C13 UNL     1      -4.703  48.098 -21.689  1.00  0.00    -0.070 C 
HETATM    7  C14 UNL     1      -4.914  47.183 -20.723  1.00  0.00    -0.022 C 
HETATM    8  C15 UNL     1      -6.005  46.158 -20.778  1.00  0.00     0.034 C 
HETATM    9  C16 UNL     1      -6.460  45.920 -22.235  1.00  0.00     0.013 C 
HETATM   10  C17 UNL     1      -7.407  44.677 -22.401  1.00  0.00     0.018 C 
HETATM   11  C18 UNL     1      -6.582  43.383 -22.168  1.00  0.00     0.023 C 
HETATM   12  C19 UNL     1      -8.606  44.617 -21.440  1.00  0.00     0.023 C 
HETATM   13  C20 UNL     1      -7.948  44.639 -23.838  1.00  0.00     0.135 C 
HETATM   14  O2  UNL     1      -8.018  43.599 -24.494  1.00  0.00    -0.297 OA
HETATM   15  C21 UNL     1      -8.471  45.930 -24.416  1.00  0.00     0.080 C 
HETATM   16  C22 UNL     1      -7.397  47.002 -24.327  1.00  0.00     0.017 C 
HETATM   17  C23 UNL     1      -6.913  47.276 -22.882  1.00  0.00    -0.031 C 
HETATM   18  C24 UNL     1      -8.080  47.944 -22.099  1.00  0.00     0.016 C 
HETATM   19  C25 UNL     1      -5.704  48.321 -22.837  1.00  0.00     0.024 C 
HETATM   20  C26 UNL     1      -4.949  48.582 -24.158  1.00  0.00     0.010 C 
HETATM   21  C27 UNL     1      -3.916  49.742 -24.087  1.00  0.00     0.011 C 
HETATM   22  C28 UNL     1      -3.461  50.128 -22.659  1.00  0.00    -0.029 C 
HETATM   23  C29 UNL     1      -4.431  51.199 -22.062  1.00  0.00     0.016 C 
ENDROOT
BRANCH   1  24
HETATM   24  C6  UNL     1      -1.681  52.162 -22.918  1.00  0.00    -0.011 C 
HETATM   25  C7  UNL     1      -2.551  52.651 -24.081  1.00  0.00     0.010 C 
BRANCH  24  26
HETATM   26  C5  UNL     1      -0.173  52.286 -23.286  1.00  0.00     0.040 C 
BRANCH  26  27
HETATM   27  C4  UNL     1       0.137  53.179 -24.502  1.00  0.00     0.142 C 
BRANCH  27  28
HETATM   28  C3  UNL     1       0.623  52.364 -25.675  1.00  0.00     0.018 C 
HETATM   29  C2  UNL     1       0.528  52.674 -26.984  1.00  0.00     0.010 C 
HETATM   30  C1  UNL     1       1.113  51.828 -28.072  1.00  0.00     0.055 C 
BRANCH  29  31
HETATM   31  C30 UNL     1      -0.152  53.896 -27.461  1.00  0.00     0.171 C 
HETATM   32  O3  UNL     1       0.096  55.030 -27.095  1.00  0.00    -0.646 OA
BRANCH  31  33
HETATM   33  O4  UNL     1      -1.042  53.632 -28.433  1.00  0.00    -0.773 OA
HETATM   34  H46 UNL     1      -1.444  54.504 -28.623  1.00  0.00     0.167 HD
ENDBRANCH  31  33
ENDBRANCH  29  31
ENDBRANCH  27  28
BRANCH  27  35
HETATM   35  O1  UNL     1       1.136  54.122 -24.132  1.00  0.00    -0.392 OA
HETATM   36  H6  UNL     1       1.961  53.631 -23.981  1.00  0.00     0.210 HD
ENDBRANCH  27  35
ENDBRANCH  26  27
ENDBRANCH  24  26
ENDBRANCH   1  24
TORSDOF 7
ENDMDL
MODEL 5
REMARK minimizedAffinity -9.48186398
REMARK  7 active torsions:
REMARK  status: ('A' for Active; 'I' for Inactive)
REMARK    1  A    between atoms: C2_2  and  C30_32 
REMARK    2  A    between atoms: C3_3  and  C4_4 
REMARK    3  A    between atoms: C4_4  and  O1_5 
REMARK    4  A    between atoms: C4_4  and  C5_6 
REMARK    5  A    between atoms: C5_6  and  C6_7 
REMARK    6  A    between atoms: C6_7  and  C8_9 
REMARK    7  A    between atoms: C30_32  and  O4_34 
ROOT
HETATM    1  C8  UNL     1      -1.408  48.833 -18.295  1.00  0.00    -0.002 C 
HETATM    2  C9  UNL     1      -2.497  47.826 -18.788  1.00  0.00     0.007 C 
HETATM    3  C10 UNL     1      -2.802  48.156 -20.264  1.00  0.00     0.015 C 
HETATM    4  C11 UNL     1      -1.661  49.097 -20.685  1.00  0.00    -0.013 C 
HETATM    5  C12 UNL     1      -0.436  48.170 -21.013  1.00  0.00     0.021 C 
HETATM    6  C13 UNL     1      -1.850  49.971 -21.927  1.00  0.00    -0.070 C 
HETATM    7  C14 UNL     1      -2.375  49.455 -23.054  1.00  0.00    -0.022 C 
HETATM    8  C15 UNL     1      -2.223  50.088 -24.403  1.00  0.00     0.034 C 
HETATM    9  C16 UNL     1      -0.994  51.024 -24.434  1.00  0.00     0.013 C 
HETATM   10  C17 UNL     1      -0.617  51.516 -25.878  1.00  0.00     0.018 C 
HETATM   11  C18 UNL     1      -0.053  50.316 -26.685  1.00  0.00     0.023 C 
HETATM   12  C19 UNL     1      -1.770  52.106 -26.706  1.00  0.00     0.023 C 
HETATM   13  C20 UNL     1       0.489  52.578 -25.779  1.00  0.00     0.135 C 
HETATM   14  O2  UNL     1       1.461  52.596 -26.534  1.00  0.00    -0.297 OA
HETATM   15  C21 UNL     1       0.314  53.668 -24.752  1.00  0.00     0.080 C 
HETATM   16  C22 UNL     1       0.108  53.049 -23.379  1.00  0.00     0.017 C 
HETATM   17  C23 UNL     1      -1.116  52.104 -23.302  1.00  0.00    -0.031 C 
HETATM   18  C24 UNL     1      -2.403  52.968 -23.445  1.00  0.00     0.016 C 
HETATM   19  C25 UNL     1      -1.234  51.381 -21.881  1.00  0.00     0.024 C 
HETATM   20  C26 UNL     1       0.022  51.384 -20.983  1.00  0.00     0.010 C 
HETATM   21  C27 UNL     1      -0.215  50.835 -19.549  1.00  0.00     0.011 C 
HETATM   22  C28 UNL     1      -1.480  49.957 -19.383  1.00  0.00    -0.029 C 
HETATM   23  C29 UNL     1      -2.713  50.857 -19.045  1.00  0.00     0.016 C 
ENDROOT
BRANCH   1  24
HETATM   24  C6  UNL     1      -1.573  49.184 -16.782  1.00  0.00    -0.011 C 
HETATM   25  C7  UNL     1      -2.384  50.467 -16.572  1.00  0.00     0.010 C 
BRANCH  24  26
HETATM   26  C5  UNL     1      -0.169  49.323 -16.122  1.00  0.00     0.040 C 
BRANCH  26  27
HETATM   27  C4  UNL     1       0.088  50.656 -15.395  1.00  0.00     0.142 C 
BRANCH  27  28
HETATM   28  C3  UNL     1       1.138  51.476 -16.103  1.00  0.00     0.018 C 
HETATM   29  C2  UNL     1       2.351  51.835 -15.636  1.00  0.00     0.010 C 
HETATM   30  C1  UNL     1       3.354  52.590 -16.452  1.00  0.00     0.055 C 
BRANCH  29  31
HETATM   31  C30 UNL     1       2.807  51.495 -14.271  1.00  0.00     0.171 C 
HETATM   32  O3  UNL     1       3.507  50.544 -13.978  1.00  0.00    -0.646 OA
BRANCH  31  33
HETATM   33  O4  UNL     1       2.430  52.416 -13.369  1.00  0.00    -0.773 OA
HETATM   34  H46 UNL     1       2.751  52.054 -12.519  1.00  0.00     0.167 HD
ENDBRANCH  31  33
ENDBRANCH  29  31
ENDBRANCH  27  28
BRANCH  27  35
HETATM   35  O1  UNL     1       0.519  50.376 -14.068  1.00  0.00    -0.392 OA
HETATM   36  H6  UNL     1       1.397  49.963 -14.125  1.00  0.00     0.210 HD
ENDBRANCH  27  35
ENDBRANCH  26  27
ENDBRANCH  24  26
ENDBRANCH   1  24
TORSDOF 7
ENDMDL
MODEL 6
REMARK minimizedAffinity -9.34269524
REMARK  7 active torsions:
REMARK  status: ('A' for Active; 'I' for Inactive)
REMARK    1  A    between atoms: C2_2  and  C30_32 
REMARK    2  A    between atoms: C3_3  and  C4_4 
REMARK    3  A    between atoms: C4_4  and  O1_5 
REMARK    4  A    between atoms: C4_4  and  C5_6 
REMARK    5  A    between atoms: C5_6  and  C6_7 
REMARK    6  A    between atoms: C6_7  and  C8_9 
REMARK    7  A    between atoms: C30_32  and  O4_34 
ROOT
HETATM    1  C8  UNL     1      -2.743  50.438 -22.541  1.00  0.00    -0.002 C 
HETATM    2  C9  UNL     1      -3.239  50.322 -21.063  1.00  0.00     0.007 C 
HETATM    3  C10 UNL     1      -4.532  49.480 -21.071  1.00  0.00     0.015 C 
HETATM    4  C11 UNL     1      -4.565  48.850 -22.473  1.00  0.00    -0.013 C 
HETATM    5  C12 UNL     1      -3.606  47.607 -22.412  1.00  0.00     0.021 C 
HETATM    6  C13 UNL     1      -5.895  48.308 -23.004  1.00  0.00    -0.070 C 
HETATM    7  C14 UNL     1      -6.695  47.564 -22.216  1.00  0.00    -0.022 C 
HETATM    8  C15 UNL     1      -7.775  46.671 -22.742  1.00  0.00     0.034 C 
HETATM    9  C16 UNL     1      -7.501  46.288 -24.213  1.00  0.00     0.013 C 
HETATM   10  C17 UNL     1      -8.441  45.148 -24.750  1.00  0.00     0.018 C 
HETATM   11  C18 UNL     1      -8.059  43.814 -24.056  1.00  0.00     0.023 C 
HETATM   12  C19 UNL     1      -9.946  45.356 -24.514  1.00  0.00     0.023 C 
HETATM   13  C20 UNL     1      -8.217  44.975 -26.260  1.00  0.00     0.135 C 
HETATM   14  O2  UNL     1      -8.132  43.869 -26.796  1.00  0.00    -0.297 OA
HETATM   15  C21 UNL     1      -8.173  46.225 -27.103  1.00  0.00     0.080 C 
HETATM   16  C22 UNL     1      -7.115  47.172 -26.558  1.00  0.00     0.017 C 
HETATM   17  C23 UNL     1      -7.353  47.584 -25.085  1.00  0.00    -0.031 C 
HETATM   18  C24 UNL     1      -8.624  48.481 -25.032  1.00  0.00     0.016 C 
HETATM   19  C25 UNL     1      -6.162  48.484 -24.509  1.00  0.00     0.024 C 
HETATM   20  C26 UNL     1      -4.831  48.473 -25.291  1.00  0.00     0.010 C 
HETATM   21  C27 UNL     1      -3.786  49.509 -24.789  1.00  0.00     0.011 C 
HETATM   22  C28 UNL     1      -4.022  50.034 -23.351  1.00  0.00    -0.029 C 
HETATM   23  C29 UNL     1      -4.967  51.279 -23.387  1.00  0.00     0.016 C 
ENDROOT
BRANCH   1  24
HETATM   24  C6  UNL     1      -2.030  51.800 -22.816  1.00  0.00    -0.011 C 
HETATM   25  C7  UNL     1      -2.869  52.722 -23.707  1.00  0.00     0.010 C 
BRANCH  24  26
HETATM   26  C5  UNL     1      -0.641  51.539 -23.472  1.00  0.00     0.040 C 
BRANCH  26  27
HETATM   27  C4  UNL     1      -0.184  52.598 -24.492  1.00  0.00     0.142 C 
BRANCH  27  28
HETATM   28  C3  UNL     1       0.418  51.959 -25.718  1.00  0.00     0.018 C 
HETATM   29  C2  UNL     1       0.480  52.473 -26.964  1.00  0.00     0.010 C 
HETATM   30  C1  UNL     1       1.171  51.786 -28.101  1.00  0.00     0.055 C 
BRANCH  29  31
HETATM   31  C30 UNL     1      -0.118  53.779 -27.313  1.00  0.00     0.171 C 
HETATM   32  O3  UNL     1       0.147  54.840 -26.780  1.00  0.00    -0.646 OA
BRANCH  31  33
HETATM   33  O4  UNL     1      -0.947  53.689 -28.367  1.00  0.00    -0.773 OA
HETATM   34  H46 UNL     1      -1.300  54.596 -28.462  1.00  0.00     0.167 HD
ENDBRANCH  31  33
ENDBRANCH  29  31
ENDBRANCH  27  28
BRANCH  27  35
HETATM   35  O1  UNL     1       0.780  53.441 -23.872  1.00  0.00    -0.392 OA
HETATM   36  H6  UNL     1       1.576  52.907 -23.711  1.00  0.00     0.210 HD
ENDBRANCH  27  35
ENDBRANCH  26  27
ENDBRANCH  24  26
ENDBRANCH   1  24
TORSDOF 7
ENDMDL
MODEL 7
REMARK minimizedAffinity -9.16958237
REMARK  7 active torsions:
REMARK  status: ('A' for Active; 'I' for Inactive)
REMARK    1  A    between atoms: C2_2  and  C30_32 
REMARK    2  A    between atoms: C3_3  and  C4_4 
REMARK    3  A    between atoms: C4_4  and  O1_5 
REMARK    4  A    between atoms: C4_4  and  C5_6 
REMARK    5  A    between atoms: C5_6  and  C6_7 
REMARK    6  A    between atoms: C6_7  and  C8_9 
REMARK    7  A    between atoms: C30_32  and  O4_34 
ROOT
HETATM    1  C8  UNL     1      -1.128  50.725 -22.954  1.00  0.00    -0.002 C 
HETATM    2  C9  UNL     1      -1.050  51.518 -21.609  1.00  0.00     0.007 C 
HETATM    3  C10 UNL     1      -2.295  51.146 -20.776  1.00  0.00     0.015 C 
HETATM    4  C11 UNL     1      -2.872  49.912 -21.489  1.00  0.00    -0.013 C 
HETATM    5  C12 UNL     1      -2.019  48.689 -20.995  1.00  0.00     0.021 C 
HETATM    6  C13 UNL     1      -4.328  49.523 -21.222  1.00  0.00    -0.070 C 
HETATM    7  C14 UNL     1      -4.817  49.522 -19.967  1.00  0.00    -0.022 C 
HETATM    8  C15 UNL     1      -6.057  48.785 -19.564  1.00  0.00     0.034 C 
HETATM    9  C16 UNL     1      -6.362  47.641 -20.556  1.00  0.00     0.013 C 
HETATM   10  C17 UNL     1      -7.488  46.663 -20.059  1.00  0.00     0.018 C 
HETATM   11  C18 UNL     1      -6.942  45.837 -18.864  1.00  0.00     0.023 C 
HETATM   12  C19 UNL     1      -8.788  47.329 -19.581  1.00  0.00     0.023 C 
HETATM   13  C20 UNL     1      -7.844  45.683 -21.187  1.00  0.00     0.135 C 
HETATM   14  O2  UNL     1      -8.015  44.480 -20.991  1.00  0.00    -0.297 OA
HETATM   15  C21 UNL     1      -8.052  46.258 -22.565  1.00  0.00     0.080 C 
HETATM   16  C22 UNL     1      -6.824  47.053 -22.979  1.00  0.00     0.017 C 
HETATM   17  C23 UNL     1      -6.482  48.214 -22.012  1.00  0.00    -0.031 C 
HETATM   18  C24 UNL     1      -7.600  49.290 -22.134  1.00  0.00     0.016 C 
HETATM   19  C25 UNL     1      -5.121  48.953 -22.411  1.00  0.00     0.024 C 
HETATM   20  C26 UNL     1      -4.173  48.209 -23.376  1.00  0.00     0.010 C 
HETATM   21  C27 UNL     1      -2.967  49.058 -23.869  1.00  0.00     0.011 C 
HETATM   22  C28 UNL     1      -2.632  50.291 -22.995  1.00  0.00    -0.029 C 
HETATM   23  C29 UNL     1      -3.463  51.526 -23.474  1.00  0.00     0.016 C 
ENDROOT
BRANCH   1  24
HETATM   24  C6  UNL     1      -0.500  51.519 -24.142  1.00  0.00    -0.011 C 
HETATM   25  C7  UNL     1      -0.044  52.921 -23.723  1.00  0.00     0.010 C 
BRANCH  24  26
HETATM   26  C5  UNL     1      -1.530  51.617 -25.307  1.00  0.00     0.040 C 
BRANCH  26  27
HETATM   27  C4  UNL     1      -1.198  50.775 -26.553  1.00  0.00     0.142 C 
BRANCH  27  28
HETATM   28  C3  UNL     1       0.279  50.806 -26.861  1.00  0.00     0.018 C 
HETATM   29  C2  UNL     1       1.001  51.854 -27.308  1.00  0.00     0.010 C 
HETATM   30  C1  UNL     1       2.484  51.802 -27.510  1.00  0.00     0.055 C 
BRANCH  29  31
HETATM   31  C30 UNL     1       0.389  53.163 -27.620  1.00  0.00     0.171 C 
HETATM   32  O3  UNL     1       0.377  54.130 -26.882  1.00  0.00    -0.646 OA
BRANCH  31  33
HETATM   33  O4  UNL     1      -0.096  53.206 -28.873  1.00  0.00    -0.773 OA
HETATM   34  H46 UNL     1      -0.504  54.094 -28.933  1.00  0.00     0.167 HD
ENDBRANCH  31  33
ENDBRANCH  29  31
ENDBRANCH  27  28
BRANCH  27  35
HETATM   35  O1  UNL     1      -1.926  51.292 -27.661  1.00  0.00    -0.392 OA
HETATM   36  H6  UNL     1      -1.565  52.172 -27.864  1.00  0.00     0.210 HD
ENDBRANCH  27  35
ENDBRANCH  26  27
ENDBRANCH  24  26
ENDBRANCH   1  24
TORSDOF 7
ENDMDL
MODEL 8
REMARK minimizedAffinity -9.14416981
REMARK  7 active torsions:
REMARK  status: ('A' for Active; 'I' for Inactive)
REMARK    1  A    between atoms: C2_2  and  C30_32 
REMARK    2  A    between atoms: C3_3  and  C4_4 
REMARK    3  A    between atoms: C4_4  and  O1_5 
REMARK    4  A    between atoms: C4_4  and  C5_6 
REMARK    5  A    between atoms: C5_6  and  C6_7 
REMARK    6  A    between atoms: C6_7  and  C8_9 
REMARK    7  A    between atoms: C30_32  and  O4_34 
ROOT
HETATM    1  C8  UNL     1      -1.436  51.298 -22.735  1.00  0.00    -0.002 C 
HETATM    2  C9  UNL     1      -1.525  50.536 -24.097  1.00  0.00     0.007 C 
HETATM    3  C10 UNL     1      -2.593  49.432 -23.943  1.00  0.00     0.015 C 
HETATM    4  C11 UNL     1      -3.327  49.795 -22.642  1.00  0.00    -0.013 C 
HETATM    5  C12 UNL     1      -4.359  50.915 -23.025  1.00  0.00     0.021 C 
HETATM    6  C13 UNL     1      -4.149  48.713 -21.937  1.00  0.00    -0.070 C 
HETATM    7  C14 UNL     1      -4.965  47.905 -22.640  1.00  0.00    -0.022 C 
HETATM    8  C15 UNL     1      -6.084  47.122 -22.027  1.00  0.00     0.034 C 
HETATM    9  C16 UNL     1      -6.525  47.753 -20.688  1.00  0.00     0.013 C 
HETATM   10  C17 UNL     1      -7.859  47.149 -20.119  1.00  0.00     0.018 C 
HETATM   11  C18 UNL     1      -9.039  47.599 -21.022  1.00  0.00     0.023 C 
HETATM   12  C19 UNL     1      -7.919  45.615 -20.042  1.00  0.00     0.023 C 
HETATM   13  C20 UNL     1      -8.107  47.705 -18.708  1.00  0.00     0.135 C 
HETATM   14  O2  UNL     1      -9.216  48.083 -18.329  1.00  0.00    -0.297 OA
HETATM   15  C21 UNL     1      -6.943  47.711 -17.751  1.00  0.00     0.080 C 
HETATM   16  C22 UNL     1      -5.774  48.459 -18.371  1.00  0.00     0.017 C 
HETATM   17  C23 UNL     1      -5.297  47.858 -19.716  1.00  0.00    -0.031 C 
HETATM   18  C24 UNL     1      -4.654  46.471 -19.425  1.00  0.00     0.016 C 
HETATM   19  C25 UNL     1      -4.147  48.736 -20.398  1.00  0.00     0.024 C 
HETATM   20  C26 UNL     1      -3.970  50.182 -19.887  1.00  0.00     0.010 C 
HETATM   21  C27 UNL     1      -2.720  50.912 -20.454  1.00  0.00     0.011 C 
HETATM   22  C28 UNL     1      -2.136  50.301 -21.751  1.00  0.00    -0.029 C 
HETATM   23  C29 UNL     1      -1.097  49.188 -21.395  1.00  0.00     0.016 C 
ENDROOT
BRANCH   1  24
HETATM   24  C6  UNL     1       0.009  51.814 -22.444  1.00  0.00    -0.011 C 
HETATM   25  C7  UNL     1       0.225  52.121 -20.958  1.00  0.00     0.010 C 
BRANCH  24  26
HETATM   26  C5  UNL     1       0.293  53.083 -23.301  1.00  0.00     0.040 C 
BRANCH  26  27
HETATM   27  C4  UNL     1      -0.019  52.949 -24.803  1.00  0.00     0.142 C 
BRANCH  27  28
HETATM   28  C3  UNL     1       1.179  52.450 -25.572  1.00  0.00     0.018 C 
HETATM   29  C2  UNL     1       1.209  52.008 -26.846  1.00  0.00     0.010 C 
HETATM   30  C1  UNL     1       2.470  51.604 -27.545  1.00  0.00     0.055 C 
BRANCH  29  31
HETATM   31  C30 UNL     1      -0.009  51.900 -27.676  1.00  0.00     0.171 C 
HETATM   32  O3  UNL     1      -0.905  51.093 -27.513  1.00  0.00    -0.646 OA
BRANCH  31  33
HETATM   33  O4  UNL     1      -0.073  52.868 -28.607  1.00  0.00    -0.773 OA
HETATM   34  H46 UNL     1      -0.888  52.658 -29.104  1.00  0.00     0.167 HD
ENDBRANCH  31  33
ENDBRANCH  29  31
ENDBRANCH  27  28
BRANCH  27  35
HETATM   35  O1  UNL     1      -0.410  54.222 -25.303  1.00  0.00    -0.392 OA
HETATM   36  H6  UNL     1       0.371  54.801 -25.273  1.00  0.00     0.210 HD
ENDBRANCH  27  35
ENDBRANCH  26  27
ENDBRANCH  24  26
ENDBRANCH   1  24
TORSDOF 7
ENDMDL
MODEL 9
REMARK minimizedAffinity -9.0568409
REMARK  7 active torsions:
REMARK  status: ('A' for Active; 'I' for Inactive)
REMARK    1  A    between atoms: C2_2  and  C30_32 
REMARK    2  A    between atoms: C3_3  and  C4_4 
REMARK    3  A    between atoms: C4_4  and  O1_5 
REMARK    4  A    between atoms: C4_4  and  C5_6 
REMARK    5  A    between atoms: C5_6  and  C6_7 
REMARK    6  A    between atoms: C6_7  and  C8_9 
REMARK    7  A    between atoms: C30_32  and  O4_34 
ROOT
HETATM    1  C8  UNL     1      -1.539  51.023 -16.657  1.00  0.00    -0.002 C 
HETATM    2  C9  UNL     1       0.017  50.875 -16.678  1.00  0.00     0.007 C 
HETATM    3  C10 UNL     1       0.457  50.790 -18.155  1.00  0.00     0.015 C 
HETATM    4  C11 UNL     1      -0.787  51.230 -18.946  1.00  0.00    -0.013 C 
HETATM    5  C12 UNL     1      -0.791  52.800 -18.906  1.00  0.00     0.021 C 
HETATM    6  C13 UNL     1      -0.881  50.863 -20.429  1.00  0.00    -0.070 C 
HETATM    7  C14 UNL     1       0.181  51.017 -21.242  1.00  0.00    -0.022 C 
HETATM    8  C15 UNL     1       0.078  51.082 -22.735  1.00  0.00     0.034 C 
HETATM    9  C16 UNL     1      -1.344  51.501 -23.168  1.00  0.00     0.013 C 
HETATM   10  C17 UNL     1      -1.457  51.846 -24.697  1.00  0.00     0.018 C 
HETATM   11  C18 UNL     1      -0.697  53.172 -24.970  1.00  0.00     0.023 C 
HETATM   12  C19 UNL     1      -0.882  50.798 -25.664  1.00  0.00     0.023 C 
HETATM   13  C20 UNL     1      -2.933  52.066 -25.060  1.00  0.00     0.135 C 
HETATM   14  O2  UNL     1      -3.309  52.989 -25.784  1.00  0.00    -0.297 OA
HETATM   15  C21 UNL     1      -3.930  51.055 -24.552  1.00  0.00     0.080 C 
HETATM   16  C22 UNL     1      -3.812  50.935 -23.041  1.00  0.00     0.017 C 
HETATM   17  C23 UNL     1      -2.401  50.513 -22.561  1.00  0.00    -0.031 C 
HETATM   18  C24 UNL     1      -2.159  49.042 -23.006  1.00  0.00     0.016 C 
HETATM   19  C25 UNL     1      -2.280  50.511 -20.967  1.00  0.00     0.024 C 
HETATM   20  C26 UNL     1      -3.362  51.279 -20.178  1.00  0.00     0.010 C 
HETATM   21  C27 UNL     1      -3.293  51.079 -18.637  1.00  0.00     0.011 C 
HETATM   22  C28 UNL     1      -1.934  50.566 -18.103  1.00  0.00    -0.029 C 
HETATM   23  C29 UNL     1      -1.908  49.003 -18.123  1.00  0.00     0.016 C 
ENDROOT
BRANCH   1  24
HETATM   24  C6  UNL     1      -2.178  50.337 -15.409  1.00  0.00    -0.011 C 
HETATM   25  C7  UNL     1      -2.620  48.900 -15.702  1.00  0.00     0.010 C 
BRANCH  24  26
HETATM   26  C5  UNL     1      -3.390  51.181 -14.912  1.00  0.00     0.040 C 
BRANCH  26  27
HETATM   27  C4  UNL     1      -3.102  52.107 -13.716  1.00  0.00     0.142 C 
BRANCH  27  28
HETATM   28  C3  UNL     1      -3.322  51.397 -12.403  1.00  0.00     0.018 C 
HETATM   29  C2  UNL     1      -3.380  51.947 -11.173  1.00  0.00     0.010 C 
HETATM   30  C1  UNL     1      -3.681  51.160  -9.936  1.00  0.00     0.055 C 
BRANCH  29  31
HETATM   31  C30 UNL     1      -3.168  53.391 -10.941  1.00  0.00     0.171 C 
HETATM   32  O3  UNL     1      -3.956  54.141 -10.395  1.00  0.00    -0.646 OA
BRANCH  31  33
HETATM   33  O4  UNL     1      -1.944  53.790 -11.328  1.00  0.00    -0.773 OA
HETATM   34  H46 UNL     1      -1.951  54.755 -11.163  1.00  0.00     0.167 HD
ENDBRANCH  31  33
ENDBRANCH  29  31
ENDBRANCH  27  28
BRANCH  27  35
HETATM   35  O1  UNL     1      -3.963  53.237 -13.796  1.00  0.00    -0.392 OA
HETATM   36  H6  UNL     1      -4.871  52.925 -13.643  1.00  0.00     0.210 HD
ENDBRANCH  27  35
ENDBRANCH  26  27
ENDBRANCH  24  26
ENDBRANCH   1  24
TORSDOF 7
ENDMDL
