MODEL 1
REMARK minimizedAffinity -7.80810976
REMARK CNNscore 0.885282397
REMARK CNNaffinity 7.59755516
REMARK  4 active torsions:
REMARK  status: ('A' for Active; 'I' for Inactive)
REMARK    1  A    between atoms: C4_4  and  C5_5 
REMARK    2  A    between atoms: C5_5  and  C6_6 
REMARK    3  A    between atoms: C6_6  and  C7_7 
REMARK    4  A    between atoms: C9_9  and  O1_10 
ROOT
HETATM    1  C7  UNL     1      -2.588  51.393 -10.812  1.00  0.00    -0.007 C 
HETATM    2  C8  UNL     1      -1.362  50.673 -11.375  1.00  0.00     0.038 C 
HETATM    3  C9  UNL     1      -0.016  51.108 -10.779  1.00  0.00     0.131 C 
HETATM    4  C10 UNL     1       0.210  52.674 -10.793  1.00  0.00     0.013 C 
HETATM    5  C11 UNL     1       0.370  53.098 -12.287  1.00  0.00     0.023 C 
HETATM    6  C12 UNL     1       1.525  53.148 -10.082  1.00  0.00    -0.067 C 
HETATM    7  C13 UNL     1       2.634  52.384  -9.991  1.00  0.00    -0.022 C 
HETATM    8  C14 UNL     1       3.945  52.797  -9.386  1.00  0.00     0.034 C 
HETATM    9  C15 UNL     1       3.908  54.151  -8.653  1.00  0.00     0.013 C 
HETATM   10  C16 UNL     1       5.310  54.627  -8.135  1.00  0.00     0.018 C 
HETATM   11  C17 UNL     1       5.772  53.681  -6.998  1.00  0.00     0.023 C 
HETATM   12  C18 UNL     1       6.438  54.651  -9.179  1.00  0.00     0.023 C 
HETATM   13  C19 UNL     1       5.189  56.041  -7.553  1.00  0.00     0.135 C 
HETATM   14  O2  UNL     1       5.791  56.390  -6.534  1.00  0.00    -0.297 OA
HETATM   15  C20 UNL     1       4.394  57.056  -8.337  1.00  0.00     0.080 C 
HETATM   16  C21 UNL     1       3.010  56.521  -8.661  1.00  0.00     0.017 C 
HETATM   17  C22 UNL     1       3.029  55.186  -9.449  1.00  0.00    -0.031 C 
HETATM   18  C23 UNL     1       3.535  55.455 -10.887  1.00  0.00     0.016 C 
HETATM   19  C24 UNL     1       1.563  54.568  -9.495  1.00  0.00     0.024 C 
HETATM   20  C25 UNL     1       0.514  55.494 -10.121  1.00  0.00     0.010 C 
HETATM   21  C26 UNL     1      -0.906  54.919 -10.166  1.00  0.00     0.011 C 
HETATM   22  C27 UNL     1      -1.043  53.365 -10.092  1.00  0.00    -0.027 C 
HETATM   23  C28 UNL     1      -1.144  52.967  -8.582  1.00  0.00     0.016 C 
HETATM   24  C29 UNL     1      -2.395  52.936 -10.807  1.00  0.00    -0.005 C 
HETATM   25  C30 UNL     1      -3.645  53.631 -10.228  1.00  0.00     0.011 C 
ENDROOT
BRANCH   1  26
HETATM   26  C6  UNL     1      -3.879  50.899 -11.518  1.00  0.00     0.009 C 
BRANCH  26  27
HETATM   27  C5  UNL     1      -4.502  49.619 -10.948  1.00  0.00     0.028 C 
BRANCH  27  28
HETATM   28  C4  UNL     1      -5.719  49.939 -10.118  1.00  0.00    -0.025 C 
HETATM   29  C2  UNL     1      -6.954  49.412 -10.231  1.00  0.00    -0.091 C 
HETATM   30  C1  UNL     1      -8.050  49.816  -9.279  1.00  0.00     0.042 C 
HETATM   31  C3  UNL     1      -7.374  48.405 -11.266  1.00  0.00     0.042 C 
ENDBRANCH  27  28
ENDBRANCH  26  27
ENDBRANCH   1  26
BRANCH   3  32
HETATM   32  O1  UNL     1       0.971  50.411 -11.555  1.00  0.00    -0.394 OA
HETATM   33  H16 UNL     1       0.835  49.459 -11.410  1.00  0.00     0.210 HD
ENDBRANCH   3  32
TORSDOF 4
ENDMDL
MODEL 2
REMARK minimizedAffinity -7.19217873
REMARK CNNscore 0.842094421
REMARK CNNaffinity 7.14447355
REMARK  4 active torsions:
REMARK  status: ('A' for Active; 'I' for Inactive)
REMARK    1  A    between atoms: C4_4  and  C5_5 
REMARK    2  A    between atoms: C5_5  and  C6_6 
REMARK    3  A    between atoms: C6_6  and  C7_7 
REMARK    4  A    between atoms: C9_9  and  O1_10 
ROOT
HETATM    1  C7  UNL     1       2.773  56.318  -7.572  1.00  0.00    -0.007 C 
HETATM    2  C8  UNL     1       1.523  56.203  -6.699  1.00  0.00     0.038 C 
HETATM    3  C9  UNL     1       0.629  54.990  -6.991  1.00  0.00     0.131 C 
HETATM    4  C10 UNL     1       0.249  54.831  -8.519  1.00  0.00     0.013 C 
HETATM    5  C11 UNL     1      -0.696  56.020  -8.879  1.00  0.00     0.023 C 
HETATM    6  C12 UNL     1      -0.563  53.534  -8.857  1.00  0.00    -0.067 C 
HETATM    7  C13 UNL     1      -1.376  52.918  -7.971  1.00  0.00    -0.022 C 
HETATM    8  C14 UNL     1      -2.232  51.716  -8.246  1.00  0.00     0.034 C 
HETATM    9  C15 UNL     1      -1.982  51.057  -9.615  1.00  0.00     0.013 C 
HETATM   10  C16 UNL     1      -2.968  49.880  -9.939  1.00  0.00     0.018 C 
HETATM   11  C17 UNL     1      -2.674  48.700  -8.977  1.00  0.00     0.023 C 
HETATM   12  C18 UNL     1      -4.465  50.202  -9.802  1.00  0.00     0.023 C 
HETATM   13  C19 UNL     1      -2.730  49.391 -11.373  1.00  0.00     0.135 C 
HETATM   14  O2  UNL     1      -2.764  48.196 -11.678  1.00  0.00    -0.297 OA
HETATM   15  C20 UNL     1      -2.567  50.434 -12.451  1.00  0.00     0.080 C 
HETATM   16  C21 UNL     1      -1.492  51.436 -12.072  1.00  0.00     0.017 C 
HETATM   17  C22 UNL     1      -1.756  52.151 -10.722  1.00  0.00    -0.031 C 
HETATM   18  C23 UNL     1      -2.951  53.121 -10.890  1.00  0.00     0.016 C 
HETATM   19  C24 UNL     1      -0.459  52.959 -10.278  1.00  0.00     0.024 C 
HETATM   20  C25 UNL     1       0.011  53.999 -11.302  1.00  0.00     0.010 C 
HETATM   21  C26 UNL     1       1.265  54.781 -10.895  1.00  0.00     0.011 C 
HETATM   22  C27 UNL     1       1.597  54.842  -9.370  1.00  0.00    -0.027 C 
HETATM   23  C28 UNL     1       2.498  53.609  -9.029  1.00  0.00     0.016 C 
HETATM   24  C29 UNL     1       2.435  56.161  -9.082  1.00  0.00    -0.005 C 
HETATM   25  C30 UNL     1       3.716  56.274  -9.933  1.00  0.00     0.011 C 
ENDROOT
BRANCH   1  26
HETATM   26  C6  UNL     1       3.571  57.600  -7.212  1.00  0.00     0.009 C 
BRANCH  26  27
HETATM   27  C5  UNL     1       4.301  57.574  -5.864  1.00  0.00     0.028 C 
BRANCH  27  28
HETATM   28  C4  UNL     1       5.623  56.862  -5.985  1.00  0.00    -0.025 C 
HETATM   29  C2  UNL     1       6.838  57.313  -5.616  1.00  0.00    -0.091 C 
HETATM   30  C1  UNL     1       8.059  56.443  -5.767  1.00  0.00     0.042 C 
HETATM   31  C3  UNL     1       7.116  58.673  -5.035  1.00  0.00     0.042 C 
ENDBRANCH  27  28
ENDBRANCH  26  27
ENDBRANCH   1  26
BRANCH   3  32
HETATM   32  O1  UNL     1      -0.529  55.179  -6.162  1.00  0.00    -0.394 OA
HETATM   33  H16 UNL     1      -0.230  55.158  -5.237  1.00  0.00     0.210 HD
ENDBRANCH   3  32
TORSDOF 4
ENDMDL
MODEL 3
REMARK minimizedAffinity -8.50936222
REMARK CNNscore 0.769052207
REMARK CNNaffinity 7.26339006
REMARK  4 active torsions:
REMARK  status: ('A' for Active; 'I' for Inactive)
REMARK    1  A    between atoms: C4_4  and  C5_5 
REMARK    2  A    between atoms: C5_5  and  C6_6 
REMARK    3  A    between atoms: C6_6  and  C7_7 
REMARK    4  A    between atoms: C9_9  and  O1_10 
ROOT
HETATM    1  C7  UNL     1       5.400  55.193  -9.056  1.00  0.00    -0.007 C 
HETATM    2  C8  UNL     1       5.310  53.676  -9.231  1.00  0.00     0.038 C 
HETATM    3  C9  UNL     1       4.036  53.172  -9.924  1.00  0.00     0.131 C 
HETATM    4  C10 UNL     1       2.700  53.733  -9.288  1.00  0.00     0.013 C 
HETATM    5  C11 UNL     1       2.568  53.095  -7.869  1.00  0.00     0.023 C 
HETATM    6  C12 UNL     1       1.394  53.326 -10.053  1.00  0.00    -0.067 C 
HETATM    7  C13 UNL     1       1.282  52.190 -10.774  1.00  0.00    -0.022 C 
HETATM    8  C14 UNL     1       0.046  51.705 -11.474  1.00  0.00     0.034 C 
HETATM    9  C15 UNL     1      -1.111  52.722 -11.496  1.00  0.00     0.013 C 
HETATM   10  C16 UNL     1      -2.436  52.157 -12.121  1.00  0.00     0.018 C 
HETATM   11  C17 UNL     1      -2.214  51.918 -13.636  1.00  0.00     0.023 C 
HETATM   12  C18 UNL     1      -2.943  50.831 -11.532  1.00  0.00     0.023 C 
HETATM   13  C19 UNL     1      -3.558  53.191 -11.965  1.00  0.00     0.135 C 
HETATM   14  O2  UNL     1      -4.391  53.400 -12.850  1.00  0.00    -0.297 OA
HETATM   15  C20 UNL     1      -3.696  53.879 -10.629  1.00  0.00     0.080 C 
HETATM   16  C21 UNL     1      -2.376  54.496 -10.202  1.00  0.00     0.017 C 
HETATM   17  C22 UNL     1      -1.212  53.475 -10.119  1.00  0.00    -0.031 C 
HETATM   18  C23 UNL     1      -1.449  52.535  -8.912  1.00  0.00     0.016 C 
HETATM   19  C24 UNL     1       0.168  54.247  -9.943  1.00  0.00     0.024 C 
HETATM   20  C25 UNL     1       0.223  55.157  -8.711  1.00  0.00     0.010 C 
HETATM   21  C26 UNL     1       1.543  55.916  -8.530  1.00  0.00     0.011 C 
HETATM   22  C27 UNL     1       2.803  55.323  -9.236  1.00  0.00    -0.027 C 
HETATM   23  C28 UNL     1       2.877  55.938 -10.673  1.00  0.00     0.016 C 
HETATM   24  C29 UNL     1       4.098  55.778  -8.437  1.00  0.00    -0.005 C 
HETATM   25  C30 UNL     1       4.219  57.307  -8.281  1.00  0.00     0.011 C 
ENDROOT
BRANCH   1  26
HETATM   26  C6  UNL     1       6.706  55.576  -8.310  1.00  0.00     0.009 C 
BRANCH  26  27
HETATM   27  C5  UNL     1       6.785  55.148  -6.840  1.00  0.00     0.028 C 
BRANCH  27  28
HETATM   28  C4  UNL     1       7.870  55.904  -6.119  1.00  0.00    -0.025 C 
HETATM   29  C2  UNL     1       7.772  57.101  -5.507  1.00  0.00    -0.091 C 
HETATM   30  C1  UNL     1       8.956  57.695  -4.788  1.00  0.00     0.042 C 
HETATM   31  C3  UNL     1       6.532  57.952  -5.464  1.00  0.00     0.042 C 
ENDBRANCH  27  28
ENDBRANCH  26  27
ENDBRANCH   1  26
BRANCH   3  32
HETATM   32  O1  UNL     1       4.116  51.740  -9.840  1.00  0.00    -0.394 OA
HETATM   33  H16 UNL     1       4.901  51.463 -10.343  1.00  0.00     0.210 HD
ENDBRANCH   3  32
TORSDOF 4
ENDMDL
MODEL 4
REMARK minimizedAffinity -6.9721489
REMARK CNNscore 0.637757599
REMARK CNNaffinity 6.75255346
REMARK  4 active torsions:
REMARK  status: ('A' for Active; 'I' for Inactive)
REMARK    1  A    between atoms: C4_4  and  C5_5 
REMARK    2  A    between atoms: C5_5  and  C6_6 
REMARK    3  A    between atoms: C6_6  and  C7_7 
REMARK    4  A    between atoms: C9_9  and  O1_10 
ROOT
HETATM    1  C7  UNL     1       5.981  57.046  -5.742  1.00  0.00    -0.007 C 
HETATM    2  C8  UNL     1       4.678  57.847  -5.692  1.00  0.00     0.038 C 
HETATM    3  C9  UNL     1       3.424  57.086  -6.144  1.00  0.00     0.131 C 
HETATM    4  C10 UNL     1       3.581  56.379  -7.551  1.00  0.00     0.013 C 
HETATM    5  C11 UNL     1       3.673  57.511  -8.623  1.00  0.00     0.023 C 
HETATM    6  C12 UNL     1       2.356  55.498  -7.978  1.00  0.00    -0.067 C 
HETATM    7  C13 UNL     1       1.092  55.740  -7.568  1.00  0.00    -0.022 C 
HETATM    8  C14 UNL     1      -0.134  54.982  -7.988  1.00  0.00     0.034 C 
HETATM    9  C15 UNL     1       0.155  53.713  -8.812  1.00  0.00     0.013 C 
HETATM   10  C16 UNL     1      -1.137  53.002  -9.349  1.00  0.00     0.018 C 
HETATM   11  C17 UNL     1      -1.919  52.411  -8.149  1.00  0.00     0.023 C 
HETATM   12  C18 UNL     1      -2.119  53.893 -10.125  1.00  0.00     0.023 C 
HETATM   13  C19 UNL     1      -0.738  51.842 -10.270  1.00  0.00     0.135 C 
HETATM   14  O2  UNL     1      -1.334  50.762 -10.269  1.00  0.00    -0.297 OA
HETATM   15  C20 UNL     1       0.349  52.095 -11.285  1.00  0.00     0.080 C 
HETATM   16  C21 UNL     1       1.590  52.661 -10.617  1.00  0.00     0.017 C 
HETATM   17  C22 UNL     1       1.328  53.970  -9.828  1.00  0.00    -0.031 C 
HETATM   18  C23 UNL     1       1.043  55.114 -10.831  1.00  0.00     0.016 C 
HETATM   19  C24 UNL     1       2.601  54.328  -8.943  1.00  0.00     0.024 C 
HETATM   20  C25 UNL     1       3.897  54.487  -9.746  1.00  0.00     0.010 C 
HETATM   21  C26 UNL     1       5.136  54.823  -8.908  1.00  0.00     0.011 C 
HETATM   22  C27 UNL     1       4.889  55.470  -7.509  1.00  0.00    -0.027 C 
HETATM   23  C28 UNL     1       4.746  54.310  -6.467  1.00  0.00     0.016 C 
HETATM   24  C29 UNL     1       6.163  56.333  -7.113  1.00  0.00    -0.005 C 
HETATM   25  C30 UNL     1       7.480  55.531  -7.129  1.00  0.00     0.011 C 
ENDROOT
BRANCH   1  26
HETATM   26  C6  UNL     1       7.178  57.930  -5.303  1.00  0.00     0.009 C 
BRANCH  26  27
HETATM   27  C5  UNL     1       6.941  58.806  -4.066  1.00  0.00     0.028 C 
BRANCH  27  28
HETATM   28  C4  UNL     1       7.441  60.208  -4.299  1.00  0.00    -0.025 C 
HETATM   29  C2  UNL     1       8.668  60.587  -4.708  1.00  0.00    -0.091 C 
HETATM   30  C1  UNL     1       8.986  62.042  -4.936  1.00  0.00     0.042 C 
HETATM   31  C3  UNL     1       9.817  59.654  -4.977  1.00  0.00     0.042 C 
ENDBRANCH  27  28
ENDBRANCH  26  27
ENDBRANCH   1  26
BRANCH   3  32
HETATM   32  O1  UNL     1       2.378  58.070  -6.147  1.00  0.00    -0.394 OA
HETATM   33  H16 UNL     1       2.268  58.379  -5.231  1.00  0.00     0.210 HD
ENDBRANCH   3  32
TORSDOF 4
ENDMDL
MODEL 5
REMARK minimizedAffinity -7.9482255
REMARK CNNscore 0.589109242
REMARK CNNaffinity 6.64079523
REMARK  4 active torsions:
REMARK  status: ('A' for Active; 'I' for Inactive)
REMARK    1  A    between atoms: C4_4  and  C5_5 
REMARK    2  A    between atoms: C5_5  and  C6_6 
REMARK    3  A    between atoms: C6_6  and  C7_7 
REMARK    4  A    between atoms: C9_9  and  O1_10 
ROOT
HETATM    1  C7  UNL     1       1.075  55.269  -9.680  1.00  0.00    -0.007 C 
HETATM    2  C8  UNL     1       0.670  55.889  -8.341  1.00  0.00     0.038 C 
HETATM    3  C9  UNL     1       1.805  56.570  -7.565  1.00  0.00     0.131 C 
HETATM    4  C10 UNL     1       3.088  55.661  -7.384  1.00  0.00     0.013 C 
HETATM    5  C11 UNL     1       2.691  54.500  -6.419  1.00  0.00     0.023 C 
HETATM    6  C12 UNL     1       4.302  56.378  -6.698  1.00  0.00    -0.067 C 
HETATM    7  C13 UNL     1       4.162  57.396  -5.822  1.00  0.00    -0.022 C 
HETATM    8  C14 UNL     1       5.272  58.081  -5.079  1.00  0.00     0.034 C 
HETATM    9  C15 UNL     1       6.686  57.675  -5.533  1.00  0.00     0.013 C 
HETATM   10  C16 UNL     1       7.833  58.305  -4.666  1.00  0.00     0.018 C 
HETATM   11  C17 UNL     1       7.865  59.834  -4.911  1.00  0.00     0.023 C 
HETATM   12  C18 UNL     1       7.714  58.100  -3.147  1.00  0.00     0.023 C 
HETATM   13  C19 UNL     1       9.184  57.727  -5.106  1.00  0.00     0.135 C 
HETATM   14  O2  UNL     1      10.204  58.417  -5.181  1.00  0.00    -0.297 OA
HETATM   15  C20 UNL     1       9.269  56.238  -5.335  1.00  0.00     0.080 C 
HETATM   16  C21 UNL     1       8.186  55.779  -6.295  1.00  0.00     0.017 C 
HETATM   17  C22 UNL     1       6.750  56.131  -5.826  1.00  0.00    -0.031 C 
HETATM   18  C23 UNL     1       6.389  55.251  -4.604  1.00  0.00     0.016 C 
HETATM   19  C24 UNL     1       5.718  55.868  -7.008  1.00  0.00     0.024 C 
HETATM   20  C25 UNL     1       5.725  54.429  -7.536  1.00  0.00     0.010 C 
HETATM   21  C26 UNL     1       4.743  54.160  -8.682  1.00  0.00     0.011 C 
HETATM   22  C27 UNL     1       3.533  55.137  -8.822  1.00  0.00    -0.027 C 
HETATM   23  C28 UNL     1       3.979  56.318  -9.747  1.00  0.00     0.016 C 
HETATM   24  C29 UNL     1       2.338  54.373  -9.538  1.00  0.00    -0.005 C 
HETATM   25  C30 UNL     1       2.724  53.770 -10.904  1.00  0.00     0.011 C 
ENDROOT
BRANCH   1  26
HETATM   26  C6  UNL     1      -0.143  54.579 -10.349  1.00  0.00     0.009 C 
BRANCH  26  27
HETATM   27  C5  UNL     1      -1.503  55.245 -10.107  1.00  0.00     0.028 C 
BRANCH  27  28
HETATM   28  C4  UNL     1      -2.624  54.372 -10.609  1.00  0.00    -0.025 C 
HETATM   29  C2  UNL     1      -3.019  53.179 -10.122  1.00  0.00    -0.091 C 
HETATM   30  C1  UNL     1      -4.199  52.459 -10.721  1.00  0.00     0.042 C 
HETATM   31  C3  UNL     1      -2.369  52.454  -8.976  1.00  0.00     0.042 C 
ENDBRANCH  27  28
ENDBRANCH  26  27
ENDBRANCH   1  26
BRANCH   3  32
HETATM   32  O1  UNL     1       1.219  56.936  -6.305  1.00  0.00    -0.394 OA
HETATM   33  H16 UNL     1       0.511  57.577  -6.490  1.00  0.00     0.210 HD
ENDBRANCH   3  32
TORSDOF 4
ENDMDL
MODEL 6
REMARK minimizedAffinity -7.12874508
REMARK CNNscore 0.585987091
REMARK CNNaffinity 6.59113932
REMARK  4 active torsions:
REMARK  status: ('A' for Active; 'I' for Inactive)
REMARK    1  A    between atoms: C4_4  and  C5_5 
REMARK    2  A    between atoms: C5_5  and  C6_6 
REMARK    3  A    between atoms: C6_6  and  C7_7 
REMARK    4  A    between atoms: C9_9  and  O1_10 
ROOT
HETATM    1  C7  UNL     1       1.553  55.426  -9.503  1.00  0.00    -0.007 C 
HETATM    2  C8  UNL     1       0.782  55.642  -8.199  1.00  0.00     0.038 C 
HETATM    3  C9  UNL     1       1.434  56.614  -7.207  1.00  0.00     0.131 C 
HETATM    4  C10 UNL     1       2.952  56.288  -6.900  1.00  0.00     0.013 C 
HETATM    5  C11 UNL     1       2.978  54.947  -6.101  1.00  0.00     0.023 C 
HETATM    6  C12 UNL     1       3.671  57.336  -5.982  1.00  0.00    -0.067 C 
HETATM    7  C13 UNL     1       3.022  58.082  -5.062  1.00  0.00    -0.022 C 
HETATM    8  C14 UNL     1       3.654  59.052  -4.106  1.00  0.00     0.034 C 
HETATM    9  C15 UNL     1       5.148  59.319  -4.366  1.00  0.00     0.013 C 
HETATM   10  C16 UNL     1       5.822  60.237  -3.286  1.00  0.00     0.018 C 
HETATM   11  C17 UNL     1       5.235  61.666  -3.405  1.00  0.00     0.023 C 
HETATM   12  C18 UNL     1       5.637  59.800  -1.825  1.00  0.00     0.023 C 
HETATM   13  C19 UNL     1       7.330  60.321  -3.555  1.00  0.00     0.135 C 
HETATM   14  O2  UNL     1       7.968  61.369  -3.419  1.00  0.00    -0.297 OA
HETATM   15  C20 UNL     1       8.057  59.040  -3.883  1.00  0.00     0.080 C 
HETATM   16  C21 UNL     1       7.378  58.315  -5.031  1.00  0.00     0.017 C 
HETATM   17  C22 UNL     1       5.886  57.988  -4.763  1.00  0.00    -0.031 C 
HETATM   18  C23 UNL     1       5.797  56.882  -3.684  1.00  0.00     0.016 C 
HETATM   19  C24 UNL     1       5.195  57.490  -6.108  1.00  0.00     0.024 C 
HETATM   20  C25 UNL     1       5.862  56.263  -6.737  1.00  0.00     0.010 C 
HETATM   21  C26 UNL     1       5.215  55.775  -8.039  1.00  0.00     0.011 C 
HETATM   22  C27 UNL     1       3.730  56.187  -8.288  1.00  0.00    -0.027 C 
HETATM   23  C28 UNL     1       3.736  57.560  -9.040  1.00  0.00     0.016 C 
HETATM   24  C29 UNL     1       3.052  55.108  -9.236  1.00  0.00    -0.005 C 
HETATM   25  C30 UNL     1       3.801  54.903 -10.569  1.00  0.00     0.011 C 
ENDROOT
BRANCH   1  26
HETATM   26  C6  UNL     1       0.818  54.397 -10.403  1.00  0.00     0.009 C 
BRANCH  26  27
HETATM   27  C5  UNL     1      -0.706  54.546 -10.478  1.00  0.00     0.028 C 
BRANCH  27  28
HETATM   28  C4  UNL     1      -1.389  53.256 -10.105  1.00  0.00    -0.025 C 
HETATM   29  C2  UNL     1      -2.708  52.983 -10.138  1.00  0.00    -0.091 C 
HETATM   30  C1  UNL     1      -3.219  51.613  -9.773  1.00  0.00     0.042 C 
HETATM   31  C3  UNL     1      -3.784  53.960 -10.526  1.00  0.00     0.042 C 
ENDBRANCH  27  28
ENDBRANCH  26  27
ENDBRANCH   1  26
BRANCH   3  32
HETATM   32  O1  UNL     1       0.616  56.538  -6.028  1.00  0.00    -0.394 OA
HETATM   33  H16 UNL     1      -0.271  56.855  -6.270  1.00  0.00     0.210 HD
ENDBRANCH   3  32
TORSDOF 4
ENDMDL
MODEL 7
REMARK minimizedAffinity -7.39999104
REMARK CNNscore 0.557598948
REMARK CNNaffinity 6.03227758
REMARK  4 active torsions:
REMARK  status: ('A' for Active; 'I' for Inactive)
REMARK    1  A    between atoms: C4_4  and  C5_5 
REMARK    2  A    between atoms: C5_5  and  C6_6 
REMARK    3  A    between atoms: C6_6  and  C7_7 
REMARK    4  A    between atoms: C9_9  and  O1_10 
ROOT
HETATM    1  C7  UNL     1     -10.200  45.818 -29.885  1.00  0.00    -0.007 C 
HETATM    2  C8  UNL     1     -10.710  44.381 -29.759  1.00  0.00     0.038 C 
HETATM    3  C9  UNL     1     -12.146  44.240 -29.236  1.00  0.00     0.131 C 
HETATM    4  C10 UNL     1     -12.419  45.040 -27.898  1.00  0.00     0.013 C 
HETATM    5  C11 UNL     1     -11.597  44.338 -26.771  1.00  0.00     0.023 C 
HETATM    6  C12 UNL     1     -13.909  45.006 -27.411  1.00  0.00    -0.067 C 
HETATM    7  C13 UNL     1     -14.752  43.986 -27.682  1.00  0.00    -0.022 C 
HETATM    8  C14 UNL     1     -16.166  43.856 -27.193  1.00  0.00     0.034 C 
HETATM    9  C15 UNL     1     -16.711  45.109 -26.483  1.00  0.00     0.013 C 
HETATM   10  C16 UNL     1     -18.142  44.915 -25.869  1.00  0.00     0.018 C 
HETATM   11  C17 UNL     1     -19.164  44.753 -27.023  1.00  0.00     0.023 C 
HETATM   12  C18 UNL     1     -18.317  43.698 -24.947  1.00  0.00     0.023 C 
HETATM   13  C19 UNL     1     -18.530  46.163 -25.067  1.00  0.00     0.135 C 
HETATM   14  O2  UNL     1     -19.673  46.628 -25.079  1.00  0.00    -0.297 OA
HETATM   15  C20 UNL     1     -17.490  46.755 -24.147  1.00  0.00     0.080 C 
HETATM   16  C21 UNL     1     -16.196  47.017 -24.896  1.00  0.00     0.017 C 
HETATM   17  C22 UNL     1     -15.603  45.753 -25.571  1.00  0.00    -0.031 C 
HETATM   18  C23 UNL     1     -15.068  44.800 -24.475  1.00  0.00     0.016 C 
HETATM   19  C24 UNL     1     -14.421  46.171 -26.551  1.00  0.00     0.024 C 
HETATM   20  C25 UNL     1     -13.286  46.943 -25.868  1.00  0.00     0.010 C 
HETATM   21  C26 UNL     1     -12.143  47.363 -26.799  1.00  0.00     0.011 C 
HETATM   22  C27 UNL     1     -11.977  46.554 -28.125  1.00  0.00    -0.027 C 
HETATM   23  C28 UNL     1     -12.855  47.248 -29.219  1.00  0.00     0.016 C 
HETATM   24  C29 UNL     1     -10.459  46.635 -28.587  1.00  0.00    -0.005 C 
HETATM   25  C30 UNL     1      -9.941  48.078 -28.750  1.00  0.00     0.011 C 
ENDROOT
BRANCH   1  26
HETATM   26  C6  UNL     1      -8.730  45.831 -30.382  1.00  0.00     0.009 C 
BRANCH  26  27
HETATM   27  C5  UNL     1      -7.705  45.177 -29.448  1.00  0.00     0.028 C 
BRANCH  27  28
HETATM   28  C4  UNL     1      -6.866  46.221 -28.758  1.00  0.00    -0.025 C 
HETATM   29  C2  UNL     1      -5.939  47.028 -29.309  1.00  0.00    -0.091 C 
HETATM   30  C1  UNL     1      -5.221  48.057 -28.474  1.00  0.00     0.042 C 
HETATM   31  C3  UNL     1      -5.525  47.008 -30.756  1.00  0.00     0.042 C 
ENDBRANCH  27  28
ENDBRANCH  26  27
ENDBRANCH   1  26
BRANCH   3  32
HETATM   32  O1  UNL     1     -12.338  42.826 -29.070  1.00  0.00    -0.394 OA
HETATM   33  H16 UNL     1     -12.262  42.417 -29.949  1.00  0.00     0.210 HD
ENDBRANCH   3  32
TORSDOF 4
ENDMDL
MODEL 8
REMARK minimizedAffinity -8.75071526
REMARK CNNscore 0.518569291
REMARK CNNaffinity 6.35013199
REMARK  4 active torsions:
REMARK  status: ('A' for Active; 'I' for Inactive)
REMARK    1  A    between atoms: C4_4  and  C5_5 
REMARK    2  A    between atoms: C5_5  and  C6_6 
REMARK    3  A    between atoms: C6_6  and  C7_7 
REMARK    4  A    between atoms: C9_9  and  O1_10 
ROOT
HETATM    1  C7  UNL     1      -6.268  47.940 -29.106  1.00  0.00    -0.007 C 
HETATM    2  C8  UNL     1      -5.350  47.911 -30.329  1.00  0.00     0.038 C 
HETATM    3  C9  UNL     1      -6.068  47.895 -31.686  1.00  0.00     0.131 C 
HETATM    4  C10 UNL     1      -7.180  46.776 -31.805  1.00  0.00     0.013 C 
HETATM    5  C11 UNL     1      -6.442  45.400 -31.817  1.00  0.00     0.023 C 
HETATM    6  C12 UNL     1      -8.007  46.818 -33.137  1.00  0.00    -0.067 C 
HETATM    7  C13 UNL     1      -7.513  47.298 -34.299  1.00  0.00    -0.022 C 
HETATM    8  C14 UNL     1      -8.222  47.307 -35.623  1.00  0.00     0.034 C 
HETATM    9  C15 UNL     1      -9.704  46.894 -35.553  1.00  0.00     0.013 C 
HETATM   10  C16 UNL     1     -10.397  46.789 -36.957  1.00  0.00     0.018 C 
HETATM   11  C17 UNL     1     -10.507  48.208 -37.570  1.00  0.00     0.023 C 
HETATM   12  C18 UNL     1      -9.679  45.911 -37.995  1.00  0.00     0.023 C 
HETATM   13  C19 UNL     1     -11.818  46.236 -36.788  1.00  0.00     0.135 C 
HETATM   14  O2  UNL     1     -12.773  46.659 -37.444  1.00  0.00    -0.297 OA
HETATM   15  C20 UNL     1     -12.005  45.056 -35.867  1.00  0.00     0.080 C 
HETATM   16  C21 UNL     1     -11.406  45.338 -34.501  1.00  0.00     0.017 C 
HETATM   17  C22 UNL     1      -9.899  45.701 -34.547  1.00  0.00    -0.031 C 
HETATM   18  C23 UNL     1      -9.087  44.436 -34.917  1.00  0.00     0.016 C 
HETATM   19  C24 UNL     1      -9.434  46.248 -33.127  1.00  0.00     0.024 C 
HETATM   20  C25 UNL     1      -9.670  45.269 -31.972  1.00  0.00     0.010 C 
HETATM   21  C26 UNL     1      -9.236  45.782 -30.594  1.00  0.00     0.011 C 
HETATM   22  C27 UNL     1      -8.173  46.926 -30.568  1.00  0.00    -0.027 C 
HETATM   23  C28 UNL     1      -8.940  48.290 -30.613  1.00  0.00     0.016 C 
HETATM   24  C29 UNL     1      -7.377  46.854 -29.195  1.00  0.00    -0.005 C 
HETATM   25  C30 UNL     1      -8.288  46.915 -27.952  1.00  0.00     0.011 C 
ENDROOT
BRANCH   1  26
HETATM   26  C6  UNL     1      -5.431  47.913 -27.799  1.00  0.00     0.009 C 
BRANCH  26  27
HETATM   27  C5  UNL     1      -4.033  48.537 -27.890  1.00  0.00     0.028 C 
BRANCH  27  28
HETATM   28  C4  UNL     1      -3.384  48.598 -26.531  1.00  0.00    -0.025 C 
HETATM   29  C2  UNL     1      -3.986  48.519 -25.328  1.00  0.00    -0.091 C 
HETATM   30  C1  UNL     1      -3.172  48.551 -24.060  1.00  0.00     0.042 C 
HETATM   31  C3  UNL     1      -5.469  48.393 -25.108  1.00  0.00     0.042 C 
ENDBRANCH  27  28
ENDBRANCH  26  27
ENDBRANCH   1  26
BRANCH   3  32
HETATM   32  O1  UNL     1      -5.021  47.723 -32.653  1.00  0.00    -0.394 OA
HETATM   33  H16 UNL     1      -4.439  48.500 -32.593  1.00  0.00     0.210 HD
ENDBRANCH   3  32
TORSDOF 4
ENDMDL
MODEL 9
REMARK minimizedAffinity -7.8979435
REMARK CNNscore 0.435951114
REMARK CNNaffinity 6.10858107
REMARK  4 active torsions:
REMARK  status: ('A' for Active; 'I' for Inactive)
REMARK    1  A    between atoms: C4_4  and  C5_5 
REMARK    2  A    between atoms: C5_5  and  C6_6 
REMARK    3  A    between atoms: C6_6  and  C7_7 
REMARK    4  A    between atoms: C9_9  and  O1_10 
ROOT
HETATM    1  C7  UNL     1      -6.123  47.045 -28.971  1.00  0.00    -0.007 C 
HETATM    2  C8  UNL     1      -7.241  46.111 -28.504  1.00  0.00     0.038 C 
HETATM    3  C9  UNL     1      -7.870  45.242 -29.602  1.00  0.00     0.131 C 
HETATM    4  C10 UNL     1      -8.332  46.060 -30.876  1.00  0.00     0.013 C 
HETATM    5  C11 UNL     1      -9.541  46.944 -30.435  1.00  0.00     0.023 C 
HETATM    6  C12 UNL     1      -8.868  45.178 -32.057  1.00  0.00    -0.067 C 
HETATM    7  C13 UNL     1      -9.449  43.973 -31.876  1.00  0.00    -0.022 C 
HETATM    8  C14 UNL     1     -10.043  43.109 -32.950  1.00  0.00     0.034 C 
HETATM    9  C15 UNL     1      -9.770  43.600 -34.385  1.00  0.00     0.013 C 
HETATM   10  C16 UNL     1     -10.500  42.758 -35.490  1.00  0.00     0.018 C 
HETATM   11  C17 UNL     1      -9.876  41.340 -35.533  1.00  0.00     0.023 C 
HETATM   12  C18 UNL     1     -12.014  42.572 -35.301  1.00  0.00     0.023 C 
HETATM   13  C19 UNL     1     -10.281  43.412 -36.860  1.00  0.00     0.135 C 
HETATM   14  O2  UNL     1     -10.079  42.751 -37.882  1.00  0.00    -0.297 OA
HETATM   15  C20 UNL     1     -10.441  44.909 -36.955  1.00  0.00     0.080 C 
HETATM   16  C21 UNL     1      -9.582  45.609 -35.918  1.00  0.00     0.017 C 
HETATM   17  C22 UNL     1      -9.882  45.167 -34.462  1.00  0.00    -0.031 C 
HETATM   18  C23 UNL     1     -11.269  45.713 -34.045  1.00  0.00     0.016 C 
HETATM   19  C24 UNL     1      -8.760  45.733 -33.486  1.00  0.00     0.024 C 
HETATM   20  C25 UNL     1      -8.616  47.259 -33.517  1.00  0.00     0.010 C 
HETATM   21  C26 UNL     1      -7.533  47.821 -32.589  1.00  0.00     0.011 C 
HETATM   22  C27 UNL     1      -7.096  46.926 -31.387  1.00  0.00    -0.027 C 
HETATM   23  C28 UNL     1      -5.922  46.013 -31.875  1.00  0.00     0.016 C 
HETATM   24  C29 UNL     1      -6.545  47.861 -30.227  1.00  0.00    -0.005 C 
HETATM   25  C30 UNL     1      -5.395  48.785 -30.675  1.00  0.00     0.011 C 
ENDROOT
BRANCH   1  26
HETATM   26  C6  UNL     1      -5.598  47.897 -27.786  1.00  0.00     0.009 C 
BRANCH  26  27
HETATM   27  C5  UNL     1      -4.160  48.414 -27.922  1.00  0.00     0.028 C 
BRANCH  27  28
HETATM   28  C4  UNL     1      -3.474  48.450 -26.581  1.00  0.00    -0.025 C 
HETATM   29  C2  UNL     1      -4.049  48.477 -25.363  1.00  0.00    -0.091 C 
HETATM   30  C1  UNL     1      -3.204  48.463 -24.115  1.00  0.00     0.042 C 
HETATM   31  C3  UNL     1      -5.531  48.521 -25.106  1.00  0.00     0.042 C 
ENDBRANCH  27  28
ENDBRANCH  26  27
ENDBRANCH   1  26
BRANCH   3  32
HETATM   32  O1  UNL     1      -8.968  44.575 -28.959  1.00  0.00    -0.394 OA
HETATM   33  H16 UNL     1      -8.595  44.011 -28.260  1.00  0.00     0.210 HD
ENDBRANCH   3  32
TORSDOF 4
ENDMDL
