MODEL 1
REMARK minimizedAffinity -9.29266357
REMARK CNNscore 0.741409779
REMARK CNNaffinity 6.75439978
REMARK  11 active torsions:
REMARK  status: ('A' for Active; 'I' for Inactive)
REMARK    1  A    between atoms: C19_21  and  O3_22 
REMARK    2  A    between atoms: C19_21  and  C20_23 
REMARK    3  A    between atoms: C20_23  and  C21_25 
REMARK    4  A    between atoms: C21_25  and  O5_26 
REMARK    5  A    between atoms: O5_26  and  C22_27 
REMARK    6  A    between atoms: C22_27  and  C23_29 
REMARK    7  A    between atoms: C23_29  and  C24_30 
REMARK    8  A    between atoms: C24_30  and  C25_31 
REMARK       I    between atoms: C25_31  and  N1_33 
REMARK    9  A    between atoms: N1_33  and  C26_34 
REMARK   10  A    between atoms: C26_34  and  C27_35 
REMARK   11  A    between atoms: C27_35  and  C28_36 
ROOT
HETATM    1  C20 UNL     1      -9.993  47.374 -27.737  1.00  0.00     0.185 C 
HETATM    2  O4  UNL     1      -9.809  46.472 -28.567  1.00  0.00    -0.292 OA
ENDROOT
BRANCH   1   3
HETATM    3  C19 UNL     1     -11.442  47.659 -27.250  1.00  0.00     0.128 C 
HETATM    4  C14 UNL     1     -12.165  46.500 -26.493  1.00  0.00     0.005 C 
HETATM    5  C13 UNL     1     -13.115  47.044 -25.396  1.00  0.00     0.091 C 
HETATM    6  C15 UNL     1     -11.152  45.549 -25.819  1.00  0.00     0.019 C 
HETATM    7  C16 UNL     1     -12.995  45.764 -27.593  1.00  0.00     0.002 C 
HETATM    8  C12 UNL     1     -13.928  45.929 -24.767  1.00  0.00     0.133 C 
HETATM    9  C11 UNL     1     -14.537  44.886 -25.707  1.00  0.00     0.072 C 
HETATM   10  O2  UNL     1     -14.011  45.847 -23.544  1.00  0.00    -0.297 OA
HETATM   11  C2  UNL     1     -15.973  44.322 -25.348  1.00  0.00    -0.009 C 
HETATM   12  C10 UNL     1     -14.448  45.415 -27.169  1.00  0.00     0.003 C 
HETATM   13  C1  UNL     1     -15.851  42.775 -25.233  1.00  0.00     0.021 C 
HETATM   14  C3  UNL     1     -16.612  44.763 -24.001  1.00  0.00     0.022 C 
HETATM   15  C7  UNL     1     -16.936  44.672 -26.491  1.00  0.00    -0.067 C 
HETATM   16  C4  UNL     1     -17.191  46.168 -24.023  1.00  0.00     0.084 C 
HETATM   17  C5  UNL     1     -18.215  46.278 -25.123  1.00  0.00     0.149 C 
HETATM   18  O1  UNL     1     -19.180  47.034 -25.058  1.00  0.00    -0.293 OA
HETATM   19  C6  UNL     1     -17.971  45.522 -26.373  1.00  0.00     0.053 C 
HETATM   20  C8  UNL     1     -16.560  44.127 -27.847  1.00  0.00     0.035 C 
HETATM   21  C9  UNL     1     -15.081  44.401 -28.149  1.00  0.00     0.010 C 
HETATM   22  C17 UNL     1     -13.010  46.701 -28.822  1.00  0.00     0.009 C 
HETATM   23  C18 UNL     1     -12.406  48.021 -28.372  1.00  0.00     0.047 C 
BRANCH   3  24
HETATM   24  O3  UNL     1     -11.336  48.811 -26.398  1.00  0.00    -0.381 OA
HETATM   25  H25 UNL     1     -10.413  48.831 -26.059  1.00  0.00     0.211 HD
ENDBRANCH   3  24
ENDBRANCH   1   3
BRANCH   1  26
HETATM   26  C21 UNL     1      -8.835  48.200 -27.185  1.00  0.00     0.260 C 
BRANCH  26  27
HETATM   27  O5  UNL     1      -7.627  47.441 -27.092  1.00  0.00    -0.314 OA
BRANCH  27  28
HETATM   28  C22 UNL     1      -6.677  47.763 -28.010  1.00  0.00     0.259 C 
HETATM   29  O6  UNL     1      -6.885  47.917 -29.206  1.00  0.00    -0.265 OA
BRANCH  28  30
HETATM   30  C23 UNL     1      -5.344  47.977 -27.352  1.00  0.00     0.120 C 
BRANCH  30  31
HETATM   31  C24 UNL     1      -4.395  48.646 -28.333  1.00  0.00     0.112 C 
BRANCH  31  32
HETATM   32  C25 UNL     1      -3.393  49.530 -27.626  1.00  0.00     0.218 C 
HETATM   33  O7  UNL     1      -2.661  49.139 -26.726  1.00  0.00    -0.274 OA
HETATM   34  N1  UNL     1      -3.398  50.826 -28.094  1.00  0.00    -0.361 N 
HETATM   35  H32 UNL     1      -4.012  51.084 -28.854  1.00  0.00     0.162 HD
BRANCH  34  36
HETATM   36  C26 UNL     1      -2.491  51.830 -27.565  1.00  0.00     0.127 C 
BRANCH  36  37
HETATM   37  C27 UNL     1      -2.682  52.066 -26.064  1.00  0.00     0.060 C 
BRANCH  37  38
HETATM   38  C28 UNL     1      -1.409  52.467 -25.390  1.00  0.00    -0.029 A 
HETATM   39  C29 UNL     1      -0.291  53.013 -25.991  1.00  0.00     0.096 A 
HETATM   40  N2  UNL     1       0.652  53.232 -25.024  1.00  0.00    -0.365 N 
HETATM   41  C30 UNL     1       0.179  52.836 -23.796  1.00  0.00     0.042 A 
HETATM   42  H38 UNL     1       1.568  53.628 -25.181  1.00  0.00     0.165 HD
HETATM   43  C31 UNL     1       0.792  52.869 -22.538  1.00  0.00     0.030 A 
HETATM   44  C35 UNL     1      -1.116  52.354 -23.992  1.00  0.00    -0.002 A 
HETATM   45  C32 UNL     1       0.057  52.395 -21.447  1.00  0.00     0.002 A 
HETATM   46  C33 UNL     1      -1.238  51.909 -21.611  1.00  0.00     0.001 A 
HETATM   47  C34 UNL     1      -1.837  51.883 -22.876  1.00  0.00     0.014 A 
ENDBRANCH  37  38
ENDBRANCH  36  37
ENDBRANCH  34  36
ENDBRANCH  31  32
ENDBRANCH  30  31
ENDBRANCH  28  30
ENDBRANCH  27  28
ENDBRANCH  26  27
ENDBRANCH   1  26
TORSDOF 11
ENDMDL
MODEL 2
REMARK minimizedAffinity -8.88091373
REMARK CNNscore 0.711279571
REMARK CNNaffinity 7.05049515
REMARK  11 active torsions:
REMARK  status: ('A' for Active; 'I' for Inactive)
REMARK    1  A    between atoms: C19_21  and  O3_22 
REMARK    2  A    between atoms: C19_21  and  C20_23 
REMARK    3  A    between atoms: C20_23  and  C21_25 
REMARK    4  A    between atoms: C21_25  and  O5_26 
REMARK    5  A    between atoms: O5_26  and  C22_27 
REMARK    6  A    between atoms: C22_27  and  C23_29 
REMARK    7  A    between atoms: C23_29  and  C24_30 
REMARK    8  A    between atoms: C24_30  and  C25_31 
REMARK       I    between atoms: C25_31  and  N1_33 
REMARK    9  A    between atoms: N1_33  and  C26_34 
REMARK   10  A    between atoms: C26_34  and  C27_35 
REMARK   11  A    between atoms: C27_35  and  C28_36 
ROOT
HETATM    1  C20 UNL     1      -0.211  51.871 -12.501  1.00  0.00     0.185 C 
HETATM    2  O4  UNL     1      -1.406  51.549 -12.420  1.00  0.00    -0.292 OA
ENDROOT
BRANCH   1   3
HETATM    3  C19 UNL     1       0.668  51.819 -11.221  1.00  0.00     0.128 C 
HETATM    4  C14 UNL     1       0.953  53.183 -10.514  1.00  0.00     0.005 C 
HETATM    5  C13 UNL     1       1.053  53.015  -8.976  1.00  0.00     0.091 C 
HETATM    6  C15 UNL     1      -0.157  54.214 -10.811  1.00  0.00     0.019 C 
HETATM    7  C16 UNL     1       2.332  53.646 -11.085  1.00  0.00     0.002 C 
HETATM    8  C12 UNL     1       1.479  54.307  -8.307  1.00  0.00     0.133 C 
HETATM    9  C11 UNL     1       2.618  55.095  -8.958  1.00  0.00     0.072 C 
HETATM   10  O2  UNL     1       0.864  54.720  -7.326  1.00  0.00    -0.297 OA
HETATM   11  C2  UNL     1       3.649  55.824  -8.002  1.00  0.00    -0.009 C 
HETATM   12  C10 UNL     1       3.317  54.187 -10.014  1.00  0.00     0.003 C 
HETATM   13  C1  UNL     1       3.647  57.334  -8.378  1.00  0.00     0.021 C 
HETATM   14  C3  UNL     1       3.364  55.803  -6.474  1.00  0.00     0.022 C 
HETATM   15  C7  UNL     1       5.047  55.240  -8.253  1.00  0.00    -0.067 C 
HETATM   16  C4  UNL     1       3.703  54.483  -5.800  1.00  0.00     0.084 C 
HETATM   17  C5  UNL     1       5.151  54.145  -6.044  1.00  0.00     0.149 C 
HETATM   18  O1  UNL     1       5.825  53.497  -5.248  1.00  0.00    -0.293 OA
HETATM   19  C6  UNL     1       5.738  54.521  -7.352  1.00  0.00     0.053 C 
HETATM   20  C8  UNL     1       5.564  55.375  -9.664  1.00  0.00     0.035 C 
HETATM   21  C9  UNL     1       4.496  54.938 -10.675  1.00  0.00     0.010 C 
HETATM   22  C17 UNL     1       2.941  52.415 -11.795  1.00  0.00     0.009 C 
HETATM   23  C18 UNL     1       2.054  51.230 -11.452  1.00  0.00     0.047 C 
BRANCH   3  24
HETATM   24  O3  UNL     1      -0.021  50.935 -10.323  1.00  0.00    -0.381 OA
HETATM   25  H25 UNL     1      -0.970  50.949 -10.580  1.00  0.00     0.211 HD
ENDBRANCH   3  24
ENDBRANCH   1   3
BRANCH   1  26
HETATM   26  C21 UNL     1       0.408  52.311 -13.825  1.00  0.00     0.260 C 
BRANCH  26  27
HETATM   27  O5  UNL     1       0.799  51.198 -14.634  1.00  0.00    -0.314 OA
BRANCH  27  28
HETATM   28  C22 UNL     1       1.432  51.526 -15.791  1.00  0.00     0.259 C 
HETATM   29  O6  UNL     1       2.590  51.914 -15.868  1.00  0.00    -0.265 OA
BRANCH  28  30
HETATM   30  C23 UNL     1       0.543  51.285 -16.977  1.00  0.00     0.120 C 
BRANCH  30  31
HETATM   31  C24 UNL     1       0.696  52.428 -17.967  1.00  0.00     0.112 C 
BRANCH  31  32
HETATM   32  C25 UNL     1      -0.210  52.256 -19.164  1.00  0.00     0.218 C 
HETATM   33  O7  UNL     1      -1.432  52.224 -19.090  1.00  0.00    -0.274 OA
HETATM   34  N1  UNL     1       0.483  52.128 -20.348  1.00  0.00    -0.361 N 
HETATM   35  H32 UNL     1       1.492  52.185 -20.348  1.00  0.00     0.162 HD
BRANCH  34  36
HETATM   36  C26 UNL     1      -0.203  51.979 -21.620  1.00  0.00     0.127 C 
BRANCH  36  37
HETATM   37  C27 UNL     1       0.631  52.479 -22.802  1.00  0.00     0.060 C 
BRANCH  37  38
HETATM   38  C28 UNL     1      -0.145  52.479 -24.080  1.00  0.00    -0.029 A 
HETATM   39  C29 UNL     1      -1.493  52.748 -24.229  1.00  0.00     0.096 A 
HETATM   40  N2  UNL     1      -1.807  52.640 -25.557  1.00  0.00    -0.365 N 
HETATM   41  C30 UNL     1      -0.693  52.300 -26.286  1.00  0.00     0.042 A 
HETATM   42  H38 UNL     1      -2.725  52.787 -25.953  1.00  0.00     0.165 HD
HETATM   43  C31 UNL     1      -0.545  52.082 -27.661  1.00  0.00     0.030 A 
HETATM   44  C35 UNL     1       0.369  52.196 -25.387  1.00  0.00    -0.002 A 
HETATM   45  C32 UNL     1       0.729  51.748 -28.130  1.00  0.00     0.002 A 
HETATM   46  C33 UNL     1       1.809  51.637 -27.257  1.00  0.00     0.001 A 
HETATM   47  C34 UNL     1       1.644  51.859 -25.885  1.00  0.00     0.014 A 
ENDBRANCH  37  38
ENDBRANCH  36  37
ENDBRANCH  34  36
ENDBRANCH  31  32
ENDBRANCH  30  31
ENDBRANCH  28  30
ENDBRANCH  27  28
ENDBRANCH  26  27
ENDBRANCH   1  26
TORSDOF 11
ENDMDL
MODEL 3
REMARK minimizedAffinity -9.90542126
REMARK CNNscore 0.657586634
REMARK CNNaffinity 6.76803064
REMARK  11 active torsions:
REMARK  status: ('A' for Active; 'I' for Inactive)
REMARK    1  A    between atoms: C19_21  and  O3_22 
REMARK    2  A    between atoms: C19_21  and  C20_23 
REMARK    3  A    between atoms: C20_23  and  C21_25 
REMARK    4  A    between atoms: C21_25  and  O5_26 
REMARK    5  A    between atoms: O5_26  and  C22_27 
REMARK    6  A    between atoms: C22_27  and  C23_29 
REMARK    7  A    between atoms: C23_29  and  C24_30 
REMARK    8  A    between atoms: C24_30  and  C25_31 
REMARK       I    between atoms: C25_31  and  N1_33 
REMARK    9  A    between atoms: N1_33  and  C26_34 
REMARK   10  A    between atoms: C26_34  and  C27_35 
REMARK   11  A    between atoms: C27_35  and  C28_36 
ROOT
HETATM    1  C20 UNL     1      -5.340  49.144 -22.697  1.00  0.00     0.185 C 
HETATM    2  O4  UNL     1      -5.116  49.115 -21.478  1.00  0.00    -0.292 OA
ENDROOT
BRANCH   1   3
HETATM    3  C19 UNL     1      -4.836  50.361 -23.523  1.00  0.00     0.128 C 
HETATM    4  C14 UNL     1      -3.504  50.164 -24.314  1.00  0.00     0.005 C 
HETATM    5  C13 UNL     1      -3.510  50.962 -25.643  1.00  0.00     0.091 C 
HETATM    6  C15 UNL     1      -3.264  48.676 -24.651  1.00  0.00     0.019 C 
HETATM    7  C16 UNL     1      -2.393  50.722 -23.368  1.00  0.00     0.002 C 
HETATM    8  C12 UNL     1      -2.162  50.892 -26.335  1.00  0.00     0.133 C 
HETATM    9  C11 UNL     1      -0.915  51.070 -25.465  1.00  0.00     0.072 C 
HETATM   10  O2  UNL     1      -2.102  50.623 -27.532  1.00  0.00    -0.297 OA
HETATM   11  C2  UNL     1       0.307  51.863 -26.087  1.00  0.00    -0.009 C 
HETATM   12  C10 UNL     1      -1.347  51.626 -24.075  1.00  0.00     0.003 C 
HETATM   13  C1  UNL     1       1.549  50.926 -26.028  1.00  0.00     0.021 C 
HETATM   14  C3  UNL     1       0.213  52.292 -27.578  1.00  0.00     0.022 C 
HETATM   15  C7  UNL     1       0.570  53.108 -25.228  1.00  0.00    -0.067 C 
HETATM   16  C4  UNL     1      -0.670  53.507 -27.816  1.00  0.00     0.084 C 
HETATM   17  C5  UNL     1      -0.173  54.666 -26.991  1.00  0.00     0.149 C 
HETATM   18  O1  UNL     1      -0.306  55.834 -27.342  1.00  0.00    -0.293 OA
HETATM   19  C6  UNL     1       0.393  54.370 -25.654  1.00  0.00     0.053 C 
HETATM   20  C8  UNL     1       0.892  52.841 -23.778  1.00  0.00     0.035 C 
HETATM   21  C9  UNL     1      -0.110  51.848 -23.176  1.00  0.00     0.010 C 
HETATM   22  C17 UNL     1      -3.126  51.520 -22.265  1.00  0.00     0.009 C 
HETATM   23  C18 UNL     1      -4.583  51.608 -22.686  1.00  0.00     0.047 C 
BRANCH   3  24
HETATM   24  O3  UNL     1      -5.905  50.672 -24.430  1.00  0.00    -0.381 OA
HETATM   25  H25 UNL     1      -6.425  49.847 -24.552  1.00  0.00     0.211 HD
ENDBRANCH   3  24
ENDBRANCH   1   3
BRANCH   1  26
HETATM   26  C21 UNL     1      -6.092  48.016 -23.397  1.00  0.00     0.260 C 
BRANCH  26  27
HETATM   27  O5  UNL     1      -7.364  48.442 -23.894  1.00  0.00    -0.314 OA
BRANCH  27  28
HETATM   28  C22 UNL     1      -8.112  47.462 -24.466  1.00  0.00     0.259 C 
HETATM   29  O6  UNL     1      -7.748  46.303 -24.614  1.00  0.00    -0.265 OA
BRANCH  28  30
HETATM   30  C23 UNL     1      -9.476  47.970 -24.832  1.00  0.00     0.120 C 
BRANCH  30  31
HETATM   31  C24 UNL     1     -10.461  46.813 -24.849  1.00  0.00     0.112 C 
BRANCH  31  32
HETATM   32  C25 UNL     1     -11.778  47.209 -25.477  1.00  0.00     0.218 C 
HETATM   33  O7  UNL     1     -11.896  48.121 -26.286  1.00  0.00    -0.274 OA
HETATM   34  N1  UNL     1     -12.835  46.444 -25.034  1.00  0.00    -0.361 N 
HETATM   35  H32 UNL     1     -12.671  45.691 -24.381  1.00  0.00     0.162 HD
BRANCH  34  36
HETATM   36  C26 UNL     1     -14.184  46.646 -25.534  1.00  0.00     0.127 C 
BRANCH  36  37
HETATM   37  C27 UNL     1     -14.496  45.779 -26.756  1.00  0.00     0.060 C 
BRANCH  37  38
HETATM   38  C28 UNL     1     -15.950  45.443 -26.851  1.00  0.00    -0.029 A 
HETATM   39  C29 UNL     1     -16.572  44.739 -27.865  1.00  0.00     0.096 A 
HETATM   40  N2  UNL     1     -17.906  44.652 -27.571  1.00  0.00    -0.365 N 
HETATM   41  C30 UNL     1     -18.177  45.290 -26.385  1.00  0.00     0.042 A 
HETATM   42  H38 UNL     1     -18.600  44.188 -28.140  1.00  0.00     0.165 HD
HETATM   43  C31 UNL     1     -19.389  45.456 -25.705  1.00  0.00     0.030 A 
HETATM   44  C35 UNL     1     -16.968  45.794 -25.905  1.00  0.00    -0.002 A 
HETATM   45  C32 UNL     1     -19.362  46.159 -24.496  1.00  0.00     0.002 A 
HETATM   46  C33 UNL     1     -18.171  46.673 -23.991  1.00  0.00     0.001 A 
HETATM   47  C34 UNL     1     -16.966  46.498 -24.683  1.00  0.00     0.014 A 
ENDBRANCH  37  38
ENDBRANCH  36  37
ENDBRANCH  34  36
ENDBRANCH  31  32
ENDBRANCH  30  31
ENDBRANCH  28  30
ENDBRANCH  27  28
ENDBRANCH  26  27
ENDBRANCH   1  26
TORSDOF 11
ENDMDL
MODEL 4
REMARK minimizedAffinity -8.47856522
REMARK CNNscore 0.577254593
REMARK CNNaffinity 7.60778093
REMARK  11 active torsions:
REMARK  status: ('A' for Active; 'I' for Inactive)
REMARK    1  A    between atoms: C19_21  and  O3_22 
REMARK    2  A    between atoms: C19_21  and  C20_23 
REMARK    3  A    between atoms: C20_23  and  C21_25 
REMARK    4  A    between atoms: C21_25  and  O5_26 
REMARK    5  A    between atoms: O5_26  and  C22_27 
REMARK    6  A    between atoms: C22_27  and  C23_29 
REMARK    7  A    between atoms: C23_29  and  C24_30 
REMARK    8  A    between atoms: C24_30  and  C25_31 
REMARK       I    between atoms: C25_31  and  N1_33 
REMARK    9  A    between atoms: N1_33  and  C26_34 
REMARK   10  A    between atoms: C26_34  and  C27_35 
REMARK   11  A    between atoms: C27_35  and  C28_36 
ROOT
HETATM    1  C20 UNL     1      -3.189  50.855 -27.117  1.00  0.00     0.185 C 
HETATM    2  O4  UNL     1      -2.976  51.741 -27.957  1.00  0.00    -0.292 OA
ENDROOT
BRANCH   1   3
HETATM    3  C19 UNL     1      -3.370  51.262 -25.627  1.00  0.00     0.128 C 
HETATM    4  C14 UNL     1      -2.243  50.820 -24.641  1.00  0.00     0.005 C 
HETATM    5  C13 UNL     1      -2.034  51.863 -23.513  1.00  0.00     0.091 C 
HETATM    6  C15 UNL     1      -0.896  50.631 -25.372  1.00  0.00     0.019 C 
HETATM    7  C16 UNL     1      -2.755  49.477 -24.029  1.00  0.00     0.002 C 
HETATM    8  C12 UNL     1      -1.049  51.363 -22.475  1.00  0.00     0.133 C 
HETATM    9  C11 UNL     1      -1.193  49.912 -22.010  1.00  0.00     0.072 C 
HETATM   10  O2  UNL     1      -0.134  52.092 -22.097  1.00  0.00    -0.297 OA
HETATM   11  C2  UNL     1      -0.910  49.597 -20.484  1.00  0.00    -0.009 C 
HETATM   12  C10 UNL     1      -2.570  49.364 -22.491  1.00  0.00     0.003 C 
HETATM   13  C1  UNL     1       0.209  48.516 -20.430  1.00  0.00     0.021 C 
HETATM   14  C3  UNL     1      -0.380  50.752 -19.589  1.00  0.00     0.022 C 
HETATM   15  C7  UNL     1      -2.192  49.031 -19.855  1.00  0.00    -0.067 C 
HETATM   16  C4  UNL     1      -1.449  51.746 -19.165  1.00  0.00     0.084 C 
HETATM   17  C5  UNL     1      -2.558  51.023 -18.445  1.00  0.00     0.149 C 
HETATM   18  O1  UNL     1      -3.234  51.551 -17.567  1.00  0.00    -0.293 OA
HETATM   19  C6  UNL     1      -2.907  49.659 -18.906  1.00  0.00     0.053 C 
HETATM   20  C8  UNL     1      -2.724  47.769 -20.488  1.00  0.00     0.035 C 
HETATM   21  C9  UNL     1      -2.766  47.907 -22.015  1.00  0.00     0.010 C 
HETATM   22  C17 UNL     1      -4.254  49.380 -24.393  1.00  0.00     0.009 C 
HETATM   23  C18 UNL     1      -4.644  50.719 -24.994  1.00  0.00     0.047 C 
BRANCH   3  24
HETATM   24  O3  UNL     1      -3.481  52.694 -25.636  1.00  0.00    -0.381 OA
HETATM   25  H25 UNL     1      -3.029  53.010 -26.450  1.00  0.00     0.211 HD
ENDBRANCH   3  24
ENDBRANCH   1   3
BRANCH   1  26
HETATM   26  C21 UNL     1      -3.279  49.384 -27.514  1.00  0.00     0.260 C 
BRANCH  26  27
HETATM   27  O5  UNL     1      -4.196  49.171 -28.591  1.00  0.00    -0.314 OA
BRANCH  27  28
HETATM   28  C22 UNL     1      -5.125  48.205 -28.368  1.00  0.00     0.259 C 
HETATM   29  O6  UNL     1      -5.580  47.913 -27.270  1.00  0.00    -0.265 OA
BRANCH  28  30
HETATM   30  C23 UNL     1      -5.576  47.585 -29.659  1.00  0.00     0.120 C 
BRANCH  30  31
HETATM   31  C24 UNL     1      -6.823  46.751 -29.413  1.00  0.00     0.112 C 
BRANCH  31  32
HETATM   32  C25 UNL     1      -7.022  45.711 -30.492  1.00  0.00     0.218 C 
HETATM   33  O7  UNL     1      -7.281  45.984 -31.657  1.00  0.00    -0.274 OA
HETATM   34  N1  UNL     1      -6.891  44.422 -30.024  1.00  0.00    -0.361 N 
HETATM   35  H32 UNL     1      -6.655  44.260 -29.055  1.00  0.00     0.162 HD
BRANCH  34  36
HETATM   36  C26 UNL     1      -7.019  43.275 -30.906  1.00  0.00     0.127 C 
BRANCH  36  37
HETATM   37  C27 UNL     1      -5.805  43.097 -31.823  1.00  0.00     0.060 C 
BRANCH  37  38
HETATM   38  C28 UNL     1      -6.197  42.655 -33.196  1.00  0.00    -0.029 A 
HETATM   39  C29 UNL     1      -7.375  42.948 -33.855  1.00  0.00     0.096 A 
HETATM   40  N2  UNL     1      -7.338  42.352 -35.087  1.00  0.00    -0.365 N 
HETATM   41  C30 UNL     1      -6.158  41.667 -35.251  1.00  0.00     0.042 A 
HETATM   42  H38 UNL     1      -8.070  42.402 -35.782  1.00  0.00     0.165 HD
HETATM   43  C31 UNL     1      -5.694  40.915 -36.336  1.00  0.00     0.030 A 
HETATM   44  C35 UNL     1      -5.417  41.842 -34.082  1.00  0.00    -0.002 A 
HETATM   45  C32 UNL     1      -4.431  40.324 -36.222  1.00  0.00     0.002 A 
HETATM   46  C33 UNL     1      -3.668  40.481 -35.067  1.00  0.00     0.001 A 
HETATM   47  C34 UNL     1      -4.147  41.237 -33.991  1.00  0.00     0.014 A 
ENDBRANCH  37  38
ENDBRANCH  36  37
ENDBRANCH  34  36
ENDBRANCH  31  32
ENDBRANCH  30  31
ENDBRANCH  28  30
ENDBRANCH  27  28
ENDBRANCH  26  27
ENDBRANCH   1  26
TORSDOF 11
ENDMDL
MODEL 5
REMARK minimizedAffinity -8.11576557
REMARK CNNscore 0.534834206
REMARK CNNaffinity 6.12804937
REMARK  11 active torsions:
REMARK  status: ('A' for Active; 'I' for Inactive)
REMARK    1  A    between atoms: C19_21  and  O3_22 
REMARK    2  A    between atoms: C19_21  and  C20_23 
REMARK    3  A    between atoms: C20_23  and  C21_25 
REMARK    4  A    between atoms: C21_25  and  O5_26 
REMARK    5  A    between atoms: O5_26  and  C22_27 
REMARK    6  A    between atoms: C22_27  and  C23_29 
REMARK    7  A    between atoms: C23_29  and  C24_30 
REMARK    8  A    between atoms: C24_30  and  C25_31 
REMARK       I    between atoms: C25_31  and  N1_33 
REMARK    9  A    between atoms: N1_33  and  C26_34 
REMARK   10  A    between atoms: C26_34  and  C27_35 
REMARK   11  A    between atoms: C27_35  and  C28_36 
ROOT
HETATM    1  C20 UNL     1     -13.147  46.316 -27.286  1.00  0.00     0.185 C 
HETATM    2  O4  UNL     1     -13.712  47.183 -26.604  1.00  0.00    -0.292 OA
ENDROOT
BRANCH   1   3
HETATM    3  C19 UNL     1     -11.632  46.477 -27.597  1.00  0.00     0.128 C 
HETATM    4  C14 UNL     1     -11.259  46.885 -29.058  1.00  0.00     0.005 C 
HETATM    5  C13 UNL     1      -9.997  47.785 -29.091  1.00  0.00     0.091 C 
HETATM    6  C15 UNL     1     -12.412  47.654 -29.740  1.00  0.00     0.019 C 
HETATM    7  C16 UNL     1     -10.963  45.535 -29.785  1.00  0.00     0.002 C 
HETATM    8  C12 UNL     1      -9.549  48.055 -30.514  1.00  0.00     0.133 C 
HETATM    9  C11 UNL     1      -9.539  46.872 -31.484  1.00  0.00     0.072 C 
HETATM   10  O2  UNL     1      -9.285  49.203 -30.866  1.00  0.00    -0.297 OA
HETATM   11  C2  UNL     1      -8.368  46.804 -32.549  1.00  0.00    -0.009 C 
HETATM   12  C10 UNL     1      -9.687  45.552 -30.670  1.00  0.00     0.003 C 
HETATM   13  C1  UNL     1      -9.022  46.745 -33.960  1.00  0.00     0.021 C 
HETATM   14  C3  UNL     1      -7.384  48.005 -32.625  1.00  0.00     0.022 C 
HETATM   15  C7  UNL     1      -7.562  45.518 -32.309  1.00  0.00    -0.067 C 
HETATM   16  C4  UNL     1      -6.346  48.025 -31.515  1.00  0.00     0.084 C 
HETATM   17  C5  UNL     1      -5.565  46.736 -31.525  1.00  0.00     0.149 C 
HETATM   18  O1  UNL     1      -4.396  46.666 -31.158  1.00  0.00    -0.293 OA
HETATM   19  C6  UNL     1      -6.286  45.494 -31.889  1.00  0.00     0.053 C 
HETATM   20  C8  UNL     1      -8.345  44.232 -32.412  1.00  0.00     0.035 C 
HETATM   21  C9  UNL     1      -9.651  44.329 -31.614  1.00  0.00     0.010 C 
HETATM   22  C17 UNL     1     -10.826  44.467 -28.675  1.00  0.00     0.009 C 
HETATM   23  C18 UNL     1     -10.818  45.213 -27.351  1.00  0.00     0.047 C 
BRANCH   3  24
HETATM   24  O3  UNL     1     -11.158  47.469 -26.673  1.00  0.00    -0.381 OA
HETATM   25  H25 UNL     1     -11.934  48.018 -26.421  1.00  0.00     0.211 HD
ENDBRANCH   3  24
ENDBRANCH   1   3
BRANCH   1  26
HETATM   26  C21 UNL     1     -13.902  45.102 -27.819  1.00  0.00     0.260 C 
BRANCH  26  27
HETATM   27  O5  UNL     1     -15.067  45.474 -28.561  1.00  0.00    -0.314 OA
BRANCH  27  28
HETATM   28  C22 UNL     1     -16.152  44.681 -28.357  1.00  0.00     0.259 C 
HETATM   29  O6  UNL     1     -16.648  43.947 -29.201  1.00  0.00    -0.265 OA
BRANCH  28  30
HETATM   30  C23 UNL     1     -16.624  44.770 -26.935  1.00  0.00     0.120 C 
BRANCH  30  31
HETATM   31  C24 UNL     1     -18.113  45.076 -26.913  1.00  0.00     0.112 C 
BRANCH  31  32
HETATM   32  C25 UNL     1     -18.521  45.773 -25.635  1.00  0.00     0.218 C 
HETATM   33  O7  UNL     1     -19.536  46.450 -25.527  1.00  0.00    -0.274 OA
HETATM   34  N1  UNL     1     -17.624  45.577 -24.607  1.00  0.00    -0.361 N 
HETATM   35  H32 UNL     1     -16.815  44.990 -24.752  1.00  0.00     0.162 HD
BRANCH  34  36
HETATM   36  C26 UNL     1     -17.845  46.141 -23.287  1.00  0.00     0.127 C 
BRANCH  36  37
HETATM   37  C27 UNL     1     -16.670  45.896 -22.337  1.00  0.00     0.060 C 
BRANCH  37  38
HETATM   38  C28 UNL     1     -16.872  46.553 -21.009  1.00  0.00    -0.029 A 
HETATM   39  C29 UNL     1     -18.039  46.582 -20.270  1.00  0.00     0.096 A 
HETATM   40  N2  UNL     1     -17.801  47.285 -19.120  1.00  0.00    -0.365 N 
HETATM   41  C30 UNL     1     -16.499  47.725 -19.089  1.00  0.00     0.042 A 
HETATM   42  H38 UNL     1     -18.479  47.461 -18.392  1.00  0.00     0.165 HD
HETATM   43  C31 UNL     1     -15.822  48.476 -18.121  1.00  0.00     0.030 A 
HETATM   44  C35 UNL     1     -15.888  47.277 -20.260  1.00  0.00    -0.002 A 
HETATM   45  C32 UNL     1     -14.477  48.777 -18.359  1.00  0.00     0.002 A 
HETATM   46  C33 UNL     1     -13.839  48.344 -19.519  1.00  0.00     0.001 A 
HETATM   47  C34 UNL     1     -14.531  47.593 -20.477  1.00  0.00     0.014 A 
ENDBRANCH  37  38
ENDBRANCH  36  37
ENDBRANCH  34  36
ENDBRANCH  31  32
ENDBRANCH  30  31
ENDBRANCH  28  30
ENDBRANCH  27  28
ENDBRANCH  26  27
ENDBRANCH   1  26
TORSDOF 11
ENDMDL
MODEL 6
REMARK minimizedAffinity -8.51165867
REMARK CNNscore 0.491480082
REMARK CNNaffinity 6.97761917
REMARK  11 active torsions:
REMARK  status: ('A' for Active; 'I' for Inactive)
REMARK    1  A    between atoms: C19_21  and  O3_22 
REMARK    2  A    between atoms: C19_21  and  C20_23 
REMARK    3  A    between atoms: C20_23  and  C21_25 
REMARK    4  A    between atoms: C21_25  and  O5_26 
REMARK    5  A    between atoms: O5_26  and  C22_27 
REMARK    6  A    between atoms: C22_27  and  C23_29 
REMARK    7  A    between atoms: C23_29  and  C24_30 
REMARK    8  A    between atoms: C24_30  and  C25_31 
REMARK       I    between atoms: C25_31  and  N1_33 
REMARK    9  A    between atoms: N1_33  and  C26_34 
REMARK   10  A    between atoms: C26_34  and  C27_35 
REMARK   11  A    between atoms: C27_35  and  C28_36 
ROOT
HETATM    1  C20 UNL     1      -5.499  49.247 -22.708  1.00  0.00     0.185 C 
HETATM    2  O4  UNL     1      -4.778  48.742 -21.835  1.00  0.00    -0.292 OA
ENDROOT
BRANCH   1   3
HETATM    3  C19 UNL     1      -4.958  50.456 -23.520  1.00  0.00     0.128 C 
HETATM    4  C14 UNL     1      -3.652  50.215 -24.344  1.00  0.00     0.005 C 
HETATM    5  C13 UNL     1      -3.649  51.040 -25.656  1.00  0.00     0.091 C 
HETATM    6  C15 UNL     1      -3.487  48.726 -24.716  1.00  0.00     0.019 C 
HETATM    7  C16 UNL     1      -2.498  50.704 -23.411  1.00  0.00     0.002 C 
HETATM    8  C12 UNL     1      -2.321  50.924 -26.378  1.00  0.00     0.133 C 
HETATM    9  C11 UNL     1      -1.050  51.027 -25.533  1.00  0.00     0.072 C 
HETATM   10  O2  UNL     1      -2.298  50.678 -27.582  1.00  0.00    -0.297 OA
HETATM   11  C2  UNL     1       0.195  51.777 -26.165  1.00  0.00    -0.009 C 
HETATM   12  C10 UNL     1      -1.426  51.573 -24.123  1.00  0.00     0.003 C 
HETATM   13  C1  UNL     1       1.393  50.784 -26.152  1.00  0.00     0.021 C 
HETATM   14  C3  UNL     1       0.089  52.241 -27.645  1.00  0.00     0.022 C 
HETATM   15  C7  UNL     1       0.532  52.991 -25.288  1.00  0.00    -0.067 C 
HETATM   16  C4  UNL     1      -0.742  53.499 -27.840  1.00  0.00     0.084 C 
HETATM   17  C5  UNL     1      -0.176  54.617 -27.003  1.00  0.00     0.149 C 
HETATM   18  O1  UNL     1      -0.262  55.797 -27.328  1.00  0.00    -0.293 OA
HETATM   19  C6  UNL     1       0.404  54.269 -25.685  1.00  0.00     0.053 C 
HETATM   20  C8  UNL     1       0.871  52.680 -23.850  1.00  0.00     0.035 C 
HETATM   21  C9  UNL     1      -0.162  51.721 -23.246  1.00  0.00     0.010 C 
HETATM   22  C17 UNL     1      -3.171  51.511 -22.277  1.00  0.00     0.009 C 
HETATM   23  C18 UNL     1      -4.631  51.673 -22.665  1.00  0.00     0.047 C 
BRANCH   3  24
HETATM   24  O3  UNL     1      -6.030  50.834 -24.398  1.00  0.00    -0.381 OA
HETATM   25  H25 UNL     1      -6.589  50.036 -24.525  1.00  0.00     0.211 HD
ENDBRANCH   3  24
ENDBRANCH   1   3
BRANCH   1  26
HETATM   26  C21 UNL     1      -6.896  48.706 -23.000  1.00  0.00     0.260 C 
BRANCH  26  27
HETATM   27  O5  UNL     1      -7.052  48.326 -24.369  1.00  0.00    -0.314 OA
BRANCH  27  28
HETATM   28  C22 UNL     1      -8.211  47.674 -24.653  1.00  0.00     0.259 C 
HETATM   29  O6  UNL     1      -8.543  46.600 -24.173  1.00  0.00    -0.265 OA
BRANCH  28  30
HETATM   30  C23 UNL     1      -9.067  48.482 -25.585  1.00  0.00     0.120 C 
BRANCH  30  31
HETATM   31  C24 UNL     1      -8.801  48.052 -27.019  1.00  0.00     0.112 C 
BRANCH  31  32
HETATM   32  C25 UNL     1      -9.707  46.917 -27.440  1.00  0.00     0.218 C 
HETATM   33  O7  UNL     1     -10.839  46.756 -27.003  1.00  0.00    -0.274 OA
HETATM   34  N1  UNL     1      -9.119  46.075 -28.359  1.00  0.00    -0.361 N 
HETATM   35  H32 UNL     1      -8.188  46.272 -28.698  1.00  0.00     0.162 HD
BRANCH  34  36
HETATM   36  C26 UNL     1      -9.831  44.936 -28.911  1.00  0.00     0.127 C 
BRANCH  36  37
HETATM   37  C27 UNL     1     -10.536  45.263 -30.230  1.00  0.00     0.060 C 
BRANCH  37  38
HETATM   38  C28 UNL     1      -9.992  44.466 -31.372  1.00  0.00    -0.029 A 
HETATM   39  C29 UNL     1      -9.501  43.175 -31.320  1.00  0.00     0.096 A 
HETATM   40  N2  UNL     1      -9.102  42.817 -32.580  1.00  0.00    -0.365 N 
HETATM   41  C30 UNL     1      -9.317  43.850 -33.461  1.00  0.00     0.042 A 
HETATM   42  H38 UNL     1      -8.705  41.924 -32.835  1.00  0.00     0.165 HD
HETATM   43  C31 UNL     1      -9.061  43.933 -34.834  1.00  0.00     0.030 A 
HETATM   44  C35 UNL     1      -9.880  44.899 -32.733  1.00  0.00    -0.002 A 
HETATM   45  C32 UNL     1      -9.392  45.127 -35.484  1.00  0.00     0.002 A 
HETATM   46  C33 UNL     1      -9.955  46.192 -34.784  1.00  0.00     0.001 A 
HETATM   47  C34 UNL     1     -10.206  46.092 -33.411  1.00  0.00     0.014 A 
ENDBRANCH  37  38
ENDBRANCH  36  37
ENDBRANCH  34  36
ENDBRANCH  31  32
ENDBRANCH  30  31
ENDBRANCH  28  30
ENDBRANCH  27  28
ENDBRANCH  26  27
ENDBRANCH   1  26
TORSDOF 11
ENDMDL
MODEL 7
REMARK minimizedAffinity -8.70405769
REMARK CNNscore 0.486384332
REMARK CNNaffinity 6.75070429
REMARK  11 active torsions:
REMARK  status: ('A' for Active; 'I' for Inactive)
REMARK    1  A    between atoms: C19_21  and  O3_22 
REMARK    2  A    between atoms: C19_21  and  C20_23 
REMARK    3  A    between atoms: C20_23  and  C21_25 
REMARK    4  A    between atoms: C21_25  and  O5_26 
REMARK    5  A    between atoms: O5_26  and  C22_27 
REMARK    6  A    between atoms: C22_27  and  C23_29 
REMARK    7  A    between atoms: C23_29  and  C24_30 
REMARK    8  A    between atoms: C24_30  and  C25_31 
REMARK       I    between atoms: C25_31  and  N1_33 
REMARK    9  A    between atoms: N1_33  and  C26_34 
REMARK   10  A    between atoms: C26_34  and  C27_35 
REMARK   11  A    between atoms: C27_35  and  C28_36 
ROOT
HETATM    1  C20 UNL     1      -5.501  49.259 -22.583  1.00  0.00     0.185 C 
HETATM    2  O4  UNL     1      -4.788  48.796 -21.680  1.00  0.00    -0.292 OA
ENDROOT
BRANCH   1   3
HETATM    3  C19 UNL     1      -4.970  50.457 -23.418  1.00  0.00     0.128 C 
HETATM    4  C14 UNL     1      -3.666  50.211 -24.241  1.00  0.00     0.005 C 
HETATM    5  C13 UNL     1      -3.672  51.013 -25.568  1.00  0.00     0.091 C 
HETATM    6  C15 UNL     1      -3.491  48.716 -24.587  1.00  0.00     0.019 C 
HETATM    7  C16 UNL     1      -2.512  50.723 -23.321  1.00  0.00     0.002 C 
HETATM    8  C12 UNL     1      -2.345  50.893 -26.292  1.00  0.00     0.133 C 
HETATM    9  C11 UNL     1      -1.072  51.020 -25.452  1.00  0.00     0.072 C 
HETATM   10  O2  UNL     1      -2.323  50.626 -27.491  1.00  0.00    -0.297 OA
HETATM   11  C2  UNL     1       0.166  51.766 -26.100  1.00  0.00    -0.009 C 
HETATM   12  C10 UNL     1      -1.448  51.587 -24.051  1.00  0.00     0.003 C 
HETATM   13  C1  UNL     1       1.371  50.782 -26.074  1.00  0.00     0.021 C 
HETATM   14  C3  UNL     1       0.053  52.204 -27.588  1.00  0.00     0.022 C 
HETATM   15  C7  UNL     1       0.497  52.998 -25.246  1.00  0.00    -0.067 C 
HETATM   16  C4  UNL     1      -0.787  53.452 -27.803  1.00  0.00     0.084 C 
HETATM   17  C5  UNL     1      -0.227  54.589 -26.987  1.00  0.00     0.149 C 
HETATM   18  O1  UNL     1      -0.322  55.763 -27.333  1.00  0.00    -0.293 OA
HETATM   19  C6  UNL     1       0.359  54.268 -25.665  1.00  0.00     0.053 C 
HETATM   20  C8  UNL     1       0.842  52.715 -23.804  1.00  0.00     0.035 C 
HETATM   21  C9  UNL     1      -0.182  51.759 -23.180  1.00  0.00     0.010 C 
HETATM   22  C17 UNL     1      -3.187  51.545 -22.199  1.00  0.00     0.009 C 
HETATM   23  C18 UNL     1      -4.649  51.691 -22.585  1.00  0.00     0.047 C 
BRANCH   3  24
HETATM   24  O3  UNL     1      -6.047  50.813 -24.299  1.00  0.00    -0.381 OA
HETATM   25  H25 UNL     1      -6.602  50.008 -24.411  1.00  0.00     0.211 HD
ENDBRANCH   3  24
ENDBRANCH   1   3
BRANCH   1  26
HETATM   26  C21 UNL     1      -6.877  48.675 -22.890  1.00  0.00     0.260 C 
BRANCH  26  27
HETATM   27  O5  UNL     1      -7.009  48.297 -24.263  1.00  0.00    -0.314 OA
BRANCH  27  28
HETATM   28  C22 UNL     1      -7.676  47.132 -24.473  1.00  0.00     0.259 C 
HETATM   29  O6  UNL     1      -7.592  46.140 -23.761  1.00  0.00    -0.265 OA
BRANCH  28  30
HETATM   30  C23 UNL     1      -8.590  47.242 -25.660  1.00  0.00     0.120 C 
BRANCH  30  31
HETATM   31  C24 UNL     1      -9.638  46.142 -25.597  1.00  0.00     0.112 C 
BRANCH  31  32
HETATM   32  C25 UNL     1      -9.929  45.569 -26.965  1.00  0.00     0.218 C 
HETATM   33  O7  UNL     1      -9.157  45.651 -27.912  1.00  0.00    -0.274 OA
HETATM   34  N1  UNL     1     -11.159  44.952 -27.037  1.00  0.00    -0.361 N 
HETATM   35  H32 UNL     1     -11.743  44.897 -26.214  1.00  0.00     0.162 HD
BRANCH  34  36
HETATM   36  C26 UNL     1     -11.619  44.313 -28.257  1.00  0.00     0.127 C 
BRANCH  36  37
HETATM   37  C27 UNL     1     -12.645  43.207 -27.994  1.00  0.00     0.060 C 
BRANCH  37  38
HETATM   38  C28 UNL     1     -14.048  43.680 -28.200  1.00  0.00    -0.029 A 
HETATM   39  C29 UNL     1     -14.459  44.981 -28.420  1.00  0.00     0.096 A 
HETATM   40  N2  UNL     1     -15.821  44.984 -28.556  1.00  0.00    -0.365 N 
HETATM   41  C30 UNL     1     -16.317  43.709 -28.423  1.00  0.00     0.042 A 
HETATM   42  H38 UNL     1     -16.389  45.801 -28.727  1.00  0.00     0.165 HD
HETATM   43  C31 UNL     1     -17.635  43.242 -28.484  1.00  0.00     0.030 A 
HETATM   44  C35 UNL     1     -15.228  42.866 -28.204  1.00  0.00    -0.002 A 
HETATM   45  C32 UNL     1     -17.845  41.869 -28.315  1.00  0.00     0.002 A 
HETATM   46  C33 UNL     1     -16.777  41.003 -28.094  1.00  0.00     0.001 A 
HETATM   47  C34 UNL     1     -15.464  41.486 -28.037  1.00  0.00     0.014 A 
ENDBRANCH  37  38
ENDBRANCH  36  37
ENDBRANCH  34  36
ENDBRANCH  31  32
ENDBRANCH  30  31
ENDBRANCH  28  30
ENDBRANCH  27  28
ENDBRANCH  26  27
ENDBRANCH   1  26
TORSDOF 11
ENDMDL
MODEL 8
REMARK minimizedAffinity -10.200388
REMARK CNNscore 0.450175971
REMARK CNNaffinity 7.2785573
REMARK  11 active torsions:
REMARK  status: ('A' for Active; 'I' for Inactive)
REMARK    1  A    between atoms: C19_21  and  O3_22 
REMARK    2  A    between atoms: C19_21  and  C20_23 
REMARK    3  A    between atoms: C20_23  and  C21_25 
REMARK    4  A    between atoms: C21_25  and  O5_26 
REMARK    5  A    between atoms: O5_26  and  C22_27 
REMARK    6  A    between atoms: C22_27  and  C23_29 
REMARK    7  A    between atoms: C23_29  and  C24_30 
REMARK    8  A    between atoms: C24_30  and  C25_31 
REMARK       I    between atoms: C25_31  and  N1_33 
REMARK    9  A    between atoms: N1_33  and  C26_34 
REMARK   10  A    between atoms: C26_34  and  C27_35 
REMARK   11  A    between atoms: C27_35  and  C28_36 
ROOT
HETATM    1  C20 UNL     1      -5.348  49.138 -22.684  1.00  0.00     0.185 C 
HETATM    2  O4  UNL     1      -4.690  48.772 -21.699  1.00  0.00    -0.292 OA
ENDROOT
BRANCH   1   3
HETATM    3  C19 UNL     1      -4.843  50.352 -23.514  1.00  0.00     0.128 C 
HETATM    4  C14 UNL     1      -3.508  50.152 -24.300  1.00  0.00     0.005 C 
HETATM    5  C13 UNL     1      -3.510  50.944 -25.633  1.00  0.00     0.091 C 
HETATM    6  C15 UNL     1      -3.265  48.663 -24.630  1.00  0.00     0.019 C 
HETATM    7  C16 UNL     1      -2.401  50.716 -23.353  1.00  0.00     0.002 C 
HETATM    8  C12 UNL     1      -2.160  50.872 -26.320  1.00  0.00     0.133 C 
HETATM    9  C11 UNL     1      -0.917  51.055 -25.448  1.00  0.00     0.072 C 
HETATM   10  O2  UNL     1      -2.096  50.598 -27.516  1.00  0.00    -0.297 OA
HETATM   11  C2  UNL     1       0.307  51.847 -26.069  1.00  0.00    -0.009 C 
HETATM   12  C10 UNL     1      -1.353  51.617 -24.062  1.00  0.00     0.003 C 
HETATM   13  C1  UNL     1       1.549  50.912 -26.003  1.00  0.00     0.021 C 
HETATM   14  C3  UNL     1       0.217  52.269 -27.563  1.00  0.00     0.022 C 
HETATM   15  C7  UNL     1       0.566  53.097 -25.216  1.00  0.00    -0.067 C 
HETATM   16  C4  UNL     1      -0.666  53.481 -27.809  1.00  0.00     0.084 C 
HETATM   17  C5  UNL     1      -0.173  54.645 -26.988  1.00  0.00     0.149 C 
HETATM   18  O1  UNL     1      -0.306  55.812 -27.346  1.00  0.00    -0.293 OA
HETATM   19  C6  UNL     1       0.389  54.356 -25.648  1.00  0.00     0.053 C 
HETATM   20  C8  UNL     1       0.883  52.837 -23.763  1.00  0.00     0.035 C 
HETATM   21  C9  UNL     1      -0.119  51.845 -23.159  1.00  0.00     0.010 C 
HETATM   22  C17 UNL     1      -3.138  51.518 -22.257  1.00  0.00     0.009 C 
HETATM   23  C18 UNL     1      -4.594  51.603 -22.683  1.00  0.00     0.047 C 
BRANCH   3  24
HETATM   24  O3  UNL     1      -5.909  50.657 -24.426  1.00  0.00    -0.381 OA
HETATM   25  H25 UNL     1      -6.428  49.831 -24.546  1.00  0.00     0.211 HD
ENDBRANCH   3  24
ENDBRANCH   1   3
BRANCH   1  26
HETATM   26  C21 UNL     1      -6.632  48.424 -23.096  1.00  0.00     0.260 C 
BRANCH  26  27
HETATM   27  O5  UNL     1      -6.471  47.677 -24.304  1.00  0.00    -0.314 OA
BRANCH  27  28
HETATM   28  C22 UNL     1      -7.429  47.894 -25.243  1.00  0.00     0.259 C 
HETATM   29  O6  UNL     1      -8.500  48.447 -25.033  1.00  0.00    -0.265 OA
BRANCH  28  30
HETATM   30  C23 UNL     1      -6.972  47.427 -26.595  1.00  0.00     0.120 C 
BRANCH  30  31
HETATM   31  C24 UNL     1      -5.645  48.086 -26.938  1.00  0.00     0.112 C 
BRANCH  31  32
HETATM   32  C25 UNL     1      -5.429  48.162 -28.432  1.00  0.00     0.218 C 
HETATM   33  O7  UNL     1      -4.331  48.057 -28.964  1.00  0.00    -0.274 OA
HETATM   34  N1  UNL     1      -6.597  48.374 -29.132  1.00  0.00    -0.361 N 
HETATM   35  H32 UNL     1      -7.476  48.431 -28.638  1.00  0.00     0.162 HD
BRANCH  34  36
HETATM   36  C26 UNL     1      -6.611  48.452 -30.583  1.00  0.00     0.127 C 
BRANCH  36  37
HETATM   37  C27 UNL     1      -6.893  47.101 -31.244  1.00  0.00     0.060 C 
BRANCH  37  38
HETATM   38  C28 UNL     1      -7.069  47.224 -32.724  1.00  0.00    -0.029 A 
HETATM   39  C29 UNL     1      -6.159  47.742 -33.625  1.00  0.00     0.096 A 
HETATM   40  N2  UNL     1      -6.707  47.673 -34.877  1.00  0.00    -0.365 N 
HETATM   41  C30 UNL     1      -7.966  47.123 -34.818  1.00  0.00     0.042 A 
HETATM   42  H38 UNL     1      -6.260  47.981 -35.729  1.00  0.00     0.165 HD
HETATM   43  C31 UNL     1      -8.888  46.866 -35.839  1.00  0.00     0.030 A 
HETATM   44  C35 UNL     1      -8.220  46.825 -33.479  1.00  0.00    -0.002 A 
HETATM   45  C32 UNL     1     -10.108  46.286 -35.478  1.00  0.00     0.002 A 
HETATM   46  C33 UNL     1     -10.391  45.977 -34.150  1.00  0.00     0.001 A 
HETATM   47  C34 UNL     1      -9.457  46.240 -33.141  1.00  0.00     0.014 A 
ENDBRANCH  37  38
ENDBRANCH  36  37
ENDBRANCH  34  36
ENDBRANCH  31  32
ENDBRANCH  30  31
ENDBRANCH  28  30
ENDBRANCH  27  28
ENDBRANCH  26  27
ENDBRANCH   1  26
TORSDOF 11
ENDMDL
MODEL 9
REMARK minimizedAffinity -10.1881571
REMARK CNNscore 0.429610223
REMARK CNNaffinity 7.61782074
REMARK  11 active torsions:
REMARK  status: ('A' for Active; 'I' for Inactive)
REMARK    1  A    between atoms: C19_21  and  O3_22 
REMARK    2  A    between atoms: C19_21  and  C20_23 
REMARK    3  A    between atoms: C20_23  and  C21_25 
REMARK    4  A    between atoms: C21_25  and  O5_26 
REMARK    5  A    between atoms: O5_26  and  C22_27 
REMARK    6  A    between atoms: C22_27  and  C23_29 
REMARK    7  A    between atoms: C23_29  and  C24_30 
REMARK    8  A    between atoms: C24_30  and  C25_31 
REMARK       I    between atoms: C25_31  and  N1_33 
REMARK    9  A    between atoms: N1_33  and  C26_34 
REMARK   10  A    between atoms: C26_34  and  C27_35 
REMARK   11  A    between atoms: C27_35  and  C28_36 
ROOT
HETATM    1  C20 UNL     1      -5.419  49.094 -22.787  1.00  0.00     0.185 C 
HETATM    2  O4  UNL     1      -5.359  47.976 -23.319  1.00  0.00    -0.292 OA
ENDROOT
BRANCH   1   3
HETATM    3  C19 UNL     1      -4.899  50.329 -23.576  1.00  0.00     0.128 C 
HETATM    4  C14 UNL     1      -3.613  50.116 -24.436  1.00  0.00     0.005 C 
HETATM    5  C13 UNL     1      -3.642  50.979 -25.724  1.00  0.00     0.091 C 
HETATM    6  C15 UNL     1      -3.453  48.638 -24.855  1.00  0.00     0.019 C 
HETATM    7  C16 UNL     1      -2.439  50.580 -23.516  1.00  0.00     0.002 C 
HETATM    8  C12 UNL     1      -2.330  50.887 -26.479  1.00  0.00     0.133 C 
HETATM    9  C11 UNL     1      -1.040  50.970 -25.659  1.00  0.00     0.072 C 
HETATM   10  O2  UNL     1      -2.334  50.677 -27.689  1.00  0.00    -0.297 OA
HETATM   11  C2  UNL     1       0.188  51.741 -26.298  1.00  0.00    -0.009 C 
HETATM   12  C10 UNL     1      -1.385  51.473 -24.226  1.00  0.00     0.003 C 
HETATM   13  C1  UNL     1       1.389  50.752 -26.341  1.00  0.00     0.021 C 
HETATM   14  C3  UNL     1       0.048  52.248 -27.761  1.00  0.00     0.022 C 
HETATM   15  C7  UNL     1       0.543  52.931 -25.393  1.00  0.00    -0.067 C 
HETATM   16  C4  UNL     1      -0.791  53.509 -27.900  1.00  0.00     0.084 C 
HETATM   17  C5  UNL     1      -0.208  54.604 -27.044  1.00  0.00     0.149 C 
HETATM   18  O1  UNL     1      -0.305  55.793 -27.332  1.00  0.00    -0.293 OA
HETATM   19  C6  UNL     1       0.402  54.219 -25.750  1.00  0.00     0.053 C 
HETATM   20  C8  UNL     1       0.915  52.579 -23.974  1.00  0.00     0.035 C 
HETATM   21  C9  UNL     1      -0.102  51.599 -23.375  1.00  0.00     0.010 C 
HETATM   22  C17 UNL     1      -3.087  51.351 -22.344  1.00  0.00     0.009 C 
HETATM   23  C18 UNL     1      -4.556  51.521 -22.693  1.00  0.00     0.047 C 
BRANCH   3  24
HETATM   24  O3  UNL     1      -5.992  50.729 -24.418  1.00  0.00    -0.381 OA
HETATM   25  H25 UNL     1      -6.553  49.932 -24.556  1.00  0.00     0.211 HD
ENDBRANCH   3  24
ENDBRANCH   1   3
BRANCH   1  26
HETATM   26  C21 UNL     1      -5.993  49.281 -21.385  1.00  0.00     0.260 C 
BRANCH  26  27
HETATM   27  O5  UNL     1      -4.987  49.631 -20.432  1.00  0.00    -0.314 OA
BRANCH  27  28
HETATM   28  C22 UNL     1      -4.368  48.576 -19.840  1.00  0.00     0.259 C 
HETATM   29  O6  UNL     1      -4.418  47.422 -20.242  1.00  0.00    -0.265 OA
BRANCH  28  30
HETATM   30  C23 UNL     1      -3.551  49.024 -18.662  1.00  0.00     0.120 C 
BRANCH  30  31
HETATM   31  C24 UNL     1      -2.885  47.818 -18.019  1.00  0.00     0.112 C 
BRANCH  31  32
HETATM   32  C25 UNL     1      -2.052  48.212 -16.821  1.00  0.00     0.218 C 
HETATM   33  O7  UNL     1      -2.490  48.263 -15.678  1.00  0.00    -0.274 OA
HETATM   34  N1  UNL     1      -0.750  48.520 -17.151  1.00  0.00    -0.361 N 
HETATM   35  H32 UNL     1      -0.442  48.439 -18.110  1.00  0.00     0.162 HD
BRANCH  34  36
HETATM   36  C26 UNL     1       0.222  48.899 -16.140  1.00  0.00     0.127 C 
BRANCH  36  37
HETATM   37  C27 UNL     1       0.020  50.330 -15.634  1.00  0.00     0.060 C 
BRANCH  37  38
HETATM   38  C28 UNL     1       0.751  51.332 -16.468  1.00  0.00    -0.029 A 
HETATM   39  C29 UNL     1       1.923  51.985 -16.138  1.00  0.00     0.096 A 
HETATM   40  N2  UNL     1       2.257  52.817 -17.172  1.00  0.00    -0.365 N 
HETATM   41  C30 UNL     1       1.323  52.729 -18.177  1.00  0.00     0.042 A 
HETATM   42  H38 UNL     1       3.070  53.415 -17.201  1.00  0.00     0.165 HD
HETATM   43  C31 UNL     1       1.255  53.392 -19.408  1.00  0.00     0.030 A 
HETATM   44  C35 UNL     1       0.366  51.799 -17.767  1.00  0.00    -0.002 A 
HETATM   45  C32 UNL     1       0.174  53.095 -20.245  1.00  0.00     0.002 A 
HETATM   46  C33 UNL     1      -0.796  52.172 -19.863  1.00  0.00     0.001 A 
HETATM   47  C34 UNL     1      -0.713  51.516 -18.629  1.00  0.00     0.014 A 
ENDBRANCH  37  38
ENDBRANCH  36  37
ENDBRANCH  34  36
ENDBRANCH  31  32
ENDBRANCH  30  31
ENDBRANCH  28  30
ENDBRANCH  27  28
ENDBRANCH  26  27
ENDBRANCH   1  26
TORSDOF 11
ENDMDL
