MODEL 1
REMARK minimizedAffinity -4.87539768
REMARK  7 active torsions:
REMARK  status: ('A' for Active; 'I' for Inactive)
REMARK    1  A    between atoms: S1_2  and  C2_4 
REMARK    2  A    between atoms: C2_4  and  C3_5 
REMARK    3  A    between atoms: C3_5  and  N1_6 
REMARK       I    between atoms: N1_6  and  C4_7 
REMARK       I    between atoms: C4_7  and  N2_9 
REMARK    4  A    between atoms: N2_9  and  C5_10 
REMARK    5  A    between atoms: N2_9  and  N3_13 
REMARK    6  A    between atoms: C5_10  and  C6_11 
REMARK    7  A    between atoms: N3_13  and  O3_15 
ROOT
HETATM    1  N1  UNL     1      -3.968   3.313  11.923  1.00  0.00    -0.341 N 
HETATM    2  C4  UNL     1      -3.190   2.213  11.574  1.00  0.00     0.338 C 
HETATM    3  O2  UNL     1      -3.691   1.092  11.541  1.00  0.00    -0.245 OA
HETATM    4  N2  UNL     1      -1.864   2.527  11.251  1.00  0.00    -0.222 N 
HETATM    5  H8  UNL     1      -3.486   3.994  12.493  1.00  0.00     0.164 HD
ENDROOT
BRANCH   1   6
HETATM    6  C3  UNL     1      -5.351   3.111  12.343  1.00  0.00     0.137 C 
BRANCH   6   7
HETATM    7  C2  UNL     1      -5.979   4.350  12.973  1.00  0.00     0.128 C 
BRANCH   7   8
HETATM    8  S1  UNL     1      -7.677   4.031  13.552  1.00  0.00     0.012 S 
HETATM    9  C1  UNL     1      -8.451   5.380  12.631  1.00  0.00     0.127 C 
HETATM   10  O1  UNL     1      -8.130   2.735  12.949  1.00  0.00    -0.258 OA
ENDBRANCH   7   8
ENDBRANCH   6   7
ENDBRANCH   1   6
BRANCH   4  11
HETATM   11  C5  UNL     1      -1.326   3.883  11.128  1.00  0.00     0.171 C 
BRANCH  11  12
HETATM   12  C6  UNL     1      -0.138   4.099  12.057  1.00  0.00     0.136 C 
HETATM   13 CL1  UNL     1       1.128   5.036  11.230  1.00  0.00    -0.129 Cl
ENDBRANCH  11  12
ENDBRANCH   4  11
BRANCH   4  14
HETATM   14  N3  UNL     1      -0.852   1.446  10.973  1.00  0.00    -0.204 N 
ATOM     15  H3  UNL     1      -0.112   1.205  11.632  1.00  0.00     0.216 HD
BRANCH  14  16
HETATM   16  O3  UNL     1      -0.985   0.875   9.889  1.00  0.00    -0.274 OA
ATOM     17  H3  UNL     1      -0.347   0.193   9.714  1.00  0.00     0.246 HD
ENDBRANCH  14  16
ENDBRANCH   4  14
TORSDOF 7
ENDMDL
MODEL 2
REMARK minimizedAffinity -4.86293888
REMARK  7 active torsions:
REMARK  status: ('A' for Active; 'I' for Inactive)
REMARK    1  A    between atoms: S1_2  and  C2_4 
REMARK    2  A    between atoms: C2_4  and  C3_5 
REMARK    3  A    between atoms: C3_5  and  N1_6 
REMARK       I    between atoms: N1_6  and  C4_7 
REMARK       I    between atoms: C4_7  and  N2_9 
REMARK    4  A    between atoms: N2_9  and  C5_10 
REMARK    5  A    between atoms: N2_9  and  N3_13 
REMARK    6  A    between atoms: C5_10  and  C6_11 
REMARK    7  A    between atoms: N3_13  and  O3_15 
ROOT
HETATM    1  N1  UNL     1      -1.172   4.560  11.816  1.00  0.00    -0.341 N 
HETATM    2  C4  UNL     1      -0.736   3.289  11.455  1.00  0.00     0.338 C 
HETATM    3  O2  UNL     1       0.466   3.054  11.365  1.00  0.00    -0.245 OA
HETATM    4  N2  UNL     1      -1.769   2.363  11.254  1.00  0.00    -0.222 N 
HETATM    5  H8  UNL     1      -2.000   4.867  11.325  1.00  0.00     0.164 HD
ENDROOT
BRANCH   1   6
HETATM    6  C3  UNL     1      -0.197   5.631  11.992  1.00  0.00     0.137 C 
BRANCH   6   7
HETATM    7  C2  UNL     1       0.113   6.384  10.703  1.00  0.00     0.128 C 
BRANCH   7   8
HETATM    8  S1  UNL     1      -0.043   8.188  10.916  1.00  0.00     0.012 S 
HETATM    9  C1  UNL     1       1.608   8.443  11.607  1.00  0.00     0.127 C 
HETATM   10  O1  UNL     1      -0.078   8.808   9.551  1.00  0.00    -0.258 OA
ENDBRANCH   7   8
ENDBRANCH   6   7
ENDBRANCH   1   6
BRANCH   4  11
HETATM   11  C5  UNL     1      -3.185   2.610  11.530  1.00  0.00     0.171 C 
BRANCH  11  12
HETATM   12  C6  UNL     1      -3.950   1.308  11.737  1.00  0.00     0.136 C 
HETATM   13 CL1  UNL     1      -5.656   1.517  11.282  1.00  0.00    -0.129 Cl
ENDBRANCH  11  12
ENDBRANCH   4  11
BRANCH   4  14
HETATM   14  N3  UNL     1      -1.484   0.978  10.737  1.00  0.00    -0.204 N 
ATOM     15  H3  UNL     1      -1.729   0.136  11.259  1.00  0.00     0.216 HD
BRANCH  14  16
HETATM   16  O3  UNL     1      -0.932   0.936   9.636  1.00  0.00    -0.274 OA
ATOM     17  H3  UNL     1      -0.752   0.062   9.309  1.00  0.00     0.246 HD
ENDBRANCH  14  16
ENDBRANCH   4  14
TORSDOF 7
ENDMDL
MODEL 3
REMARK minimizedAffinity -4.76976728
REMARK  7 active torsions:
REMARK  status: ('A' for Active; 'I' for Inactive)
REMARK    1  A    between atoms: S1_2  and  C2_4 
REMARK    2  A    between atoms: C2_4  and  C3_5 
REMARK    3  A    between atoms: C3_5  and  N1_6 
REMARK       I    between atoms: N1_6  and  C4_7 
REMARK       I    between atoms: C4_7  and  N2_9 
REMARK    4  A    between atoms: N2_9  and  C5_10 
REMARK    5  A    between atoms: N2_9  and  N3_13 
REMARK    6  A    between atoms: C5_10  and  C6_11 
REMARK    7  A    between atoms: N3_13  and  O3_15 
ROOT
HETATM    1  N1  UNL     1      -4.832   4.816  12.945  1.00  0.00    -0.341 N 
HETATM    2  C4  UNL     1      -6.062   4.200  12.735  1.00  0.00     0.338 C 
HETATM    3  O2  UNL     1      -6.132   3.189  12.041  1.00  0.00    -0.245 OA
HETATM    4  N2  UNL     1      -7.133   4.815  13.396  1.00  0.00    -0.222 N 
HETATM    5  H8  UNL     1      -4.873   5.825  12.953  1.00  0.00     0.164 HD
ENDROOT
BRANCH   1   6
HETATM    6  C3  UNL     1      -3.648   4.309  12.260  1.00  0.00     0.137 C 
BRANCH   6   7
HETATM    7  C2  UNL     1      -2.386   5.112  12.558  1.00  0.00     0.128 C 
BRANCH   7   8
HETATM    8  S1  UNL     1      -1.085   4.820  11.316  1.00  0.00     0.012 S 
HETATM    9  C1  UNL     1       0.290   4.757  12.488  1.00  0.00     0.127 C 
HETATM   10  O1  UNL     1      -1.286   3.443  10.758  1.00  0.00    -0.258 OA
ENDBRANCH   7   8
ENDBRANCH   6   7
ENDBRANCH   1   6
BRANCH   4  11
HETATM   11  C5  UNL     1      -7.010   5.915  14.354  1.00  0.00     0.171 C 
BRANCH  11  12
HETATM   12  C6  UNL     1      -7.525   5.517  15.732  1.00  0.00     0.136 C 
HETATM   13 CL1  UNL     1      -7.604   6.940  16.795  1.00  0.00    -0.129 Cl
ENDBRANCH  11  12
ENDBRANCH   4  11
BRANCH   4  14
HETATM   14  N3  UNL     1      -8.551   4.356  13.177  1.00  0.00    -0.204 N 
ATOM     15  H3  UNL     1      -9.332   5.008  13.099  1.00  0.00     0.216 HD
BRANCH  14  16
HETATM   16  O3  UNL     1      -8.698   3.135  13.101  1.00  0.00    -0.274 OA
ATOM     17  H3  UNL     1      -9.593   2.846  12.963  1.00  0.00     0.246 HD
ENDBRANCH  14  16
ENDBRANCH   4  14
TORSDOF 7
ENDMDL
MODEL 4
REMARK minimizedAffinity -4.76052856
REMARK  7 active torsions:
REMARK  status: ('A' for Active; 'I' for Inactive)
REMARK    1  A    between atoms: S1_2  and  C2_4 
REMARK    2  A    between atoms: C2_4  and  C3_5 
REMARK    3  A    between atoms: C3_5  and  N1_6 
REMARK       I    between atoms: N1_6  and  C4_7 
REMARK       I    between atoms: C4_7  and  N2_9 
REMARK    4  A    between atoms: N2_9  and  C5_10 
REMARK    5  A    between atoms: N2_9  and  N3_13 
REMARK    6  A    between atoms: C5_10  and  C6_11 
REMARK    7  A    between atoms: N3_13  and  O3_15 
ROOT
HETATM    1  N1  UNL     1      -6.931   4.750  13.250  1.00  0.00    -0.341 N 
HETATM    2  C4  UNL     1      -7.298   3.473  12.840  1.00  0.00     0.338 C 
HETATM    3  O2  UNL     1      -8.398   3.020  13.151  1.00  0.00    -0.245 OA
HETATM    4  N2  UNL     1      -6.339   2.823  12.054  1.00  0.00    -0.222 N 
HETATM    5  H8  UNL     1      -5.960   4.835  13.515  1.00  0.00     0.164 HD
ENDROOT
BRANCH   1   6
HETATM    6  C3  UNL     1      -7.818   5.507  14.128  1.00  0.00     0.137 C 
BRANCH   6   7
HETATM    7  C2  UNL     1      -7.428   5.422  15.600  1.00  0.00     0.128 C 
BRANCH   7   8
HETATM    8  S1  UNL     1      -7.681   7.008  16.462  1.00  0.00     0.012 S 
HETATM    9  C1  UNL     1      -6.810   8.027  15.249  1.00  0.00     0.127 C 
HETATM   10  O1  UNL     1      -9.141   7.341  16.387  1.00  0.00    -0.258 OA
ENDBRANCH   7   8
ENDBRANCH   6   7
ENDBRANCH   1   6
BRANCH   4  11
HETATM   11  C5  UNL     1      -5.108   3.436  11.551  1.00  0.00     0.171 C 
BRANCH  11  12
HETATM   12  C6  UNL     1      -3.979   3.345  12.570  1.00  0.00     0.136 C 
HETATM   13 CL1  UNL     1      -3.257   4.948  12.836  1.00  0.00    -0.129 Cl
ENDBRANCH  11  12
ENDBRANCH   4  11
BRANCH   4  14
HETATM   14  N3  UNL     1      -6.518   1.388  11.631  1.00  0.00    -0.204 N 
ATOM     15  H3  UNL     1      -7.331   0.835  11.901  1.00  0.00     0.216 HD
BRANCH  14  16
HETATM   16  O3  UNL     1      -5.608   0.933  10.935  1.00  0.00    -0.274 OA
ATOM     17  H3  UNL     1      -5.721   0.028  10.668  1.00  0.00     0.246 HD
ENDBRANCH  14  16
ENDBRANCH   4  14
TORSDOF 7
ENDMDL
MODEL 5
REMARK minimizedAffinity -4.7556386
REMARK  7 active torsions:
REMARK  status: ('A' for Active; 'I' for Inactive)
REMARK    1  A    between atoms: S1_2  and  C2_4 
REMARK    2  A    between atoms: C2_4  and  C3_5 
REMARK    3  A    between atoms: C3_5  and  N1_6 
REMARK       I    between atoms: N1_6  and  C4_7 
REMARK       I    between atoms: C4_7  and  N2_9 
REMARK    4  A    between atoms: N2_9  and  C5_10 
REMARK    5  A    between atoms: N2_9  and  N3_13 
REMARK    6  A    between atoms: C5_10  and  C6_11 
REMARK    7  A    between atoms: N3_13  and  O3_15 
ROOT
HETATM    1  N1  UNL     1      -5.215  -9.868   9.131  1.00  0.00    -0.341 N 
HETATM    2  C4  UNL     1      -5.037  -9.543  10.472  1.00  0.00     0.338 C 
HETATM    3  O2  UNL     1      -4.047  -9.949  11.076  1.00  0.00    -0.245 OA
HETATM    4  N2  UNL     1      -6.040  -8.723  11.003  1.00  0.00    -0.222 N 
HETATM    5  H8  UNL     1      -6.174 -10.062   8.878  1.00  0.00     0.164 HD
ENDROOT
BRANCH   1   6
HETATM    6  C3  UNL     1      -4.272 -10.770   8.478  1.00  0.00     0.137 C 
BRANCH   6   7
HETATM    7  C2  UNL     1      -4.307 -10.683   6.956  1.00  0.00     0.128 C 
BRANCH   7   8
HETATM    8  S1  UNL     1      -2.799  -9.910   6.285  1.00  0.00     0.012 S 
HETATM    9  C1  UNL     1      -3.058 -10.437   4.574  1.00  0.00     0.127 C 
HETATM   10  O1  UNL     1      -2.981  -8.423   6.347  1.00  0.00    -0.258 OA
ENDBRANCH   7   8
ENDBRANCH   6   7
ENDBRANCH   1   6
BRANCH   4  11
HETATM   11  C5  UNL     1      -7.121  -8.109  10.230  1.00  0.00     0.171 C 
BRANCH  11  12
HETATM   12  C6  UNL     1      -8.423  -8.888  10.372  1.00  0.00     0.136 C 
HETATM   13 CL1  UNL     1      -9.544  -8.461   9.059  1.00  0.00    -0.129 Cl
ENDBRANCH  11  12
ENDBRANCH   4  11
BRANCH   4  14
HETATM   14  N3  UNL     1      -6.072  -8.379  12.469  1.00  0.00    -0.204 N 
ATOM     15  H3  UNL     1      -5.962  -9.082  13.200  1.00  0.00     0.216 HD
BRANCH  14  16
HETATM   16  O3  UNL     1      -6.243  -7.185  12.720  1.00  0.00    -0.274 OA
ATOM     17  H3  UNL     1      -6.264  -6.968  13.645  1.00  0.00     0.246 HD
ENDBRANCH  14  16
ENDBRANCH   4  14
TORSDOF 7
ENDMDL
MODEL 6
REMARK minimizedAffinity -4.74123478
REMARK  7 active torsions:
REMARK  status: ('A' for Active; 'I' for Inactive)
REMARK    1  A    between atoms: S1_2  and  C2_4 
REMARK    2  A    between atoms: C2_4  and  C3_5 
REMARK    3  A    between atoms: C3_5  and  N1_6 
REMARK       I    between atoms: N1_6  and  C4_7 
REMARK       I    between atoms: C4_7  and  N2_9 
REMARK    4  A    between atoms: N2_9  and  C5_10 
REMARK    5  A    between atoms: N2_9  and  N3_13 
REMARK    6  A    between atoms: C5_10  and  C6_11 
REMARK    7  A    between atoms: N3_13  and  O3_15 
ROOT
HETATM    1  N1  UNL     1      -6.604   4.330  13.125  1.00  0.00    -0.341 N 
HETATM    2  C4  UNL     1      -6.752   3.051  12.597  1.00  0.00     0.338 C 
HETATM    3  O2  UNL     1      -7.761   2.396  12.849  1.00  0.00    -0.245 OA
HETATM    4  N2  UNL     1      -5.697   2.645  11.771  1.00  0.00    -0.222 N 
HETATM    5  H8  UNL     1      -5.660   4.550  13.412  1.00  0.00     0.164 HD
ENDROOT
BRANCH   1   6
HETATM    6  C3  UNL     1      -7.605   4.846  14.052  1.00  0.00     0.137 C 
BRANCH   6   7
HETATM    7  C2  UNL     1      -8.565   5.844  13.412  1.00  0.00     0.128 C 
BRANCH   7   8
HETATM    8  S1  UNL     1      -9.153   7.084  14.611  1.00  0.00     0.012 S 
HETATM    9  C1  UNL     1     -10.896   7.002  14.134  1.00  0.00     0.127 C 
HETATM   10  O1  UNL     1      -9.017   6.495  15.983  1.00  0.00    -0.258 OA
ENDBRANCH   7   8
ENDBRANCH   6   7
ENDBRANCH   1   6
BRANCH   4  11
HETATM   11  C5  UNL     1      -4.586   3.497  11.344  1.00  0.00     0.171 C 
BRANCH  11  12
HETATM   12  C6  UNL     1      -3.247   2.780  11.476  1.00  0.00     0.136 C 
HETATM   13 CL1  UNL     1      -1.957   3.739  10.716  1.00  0.00    -0.129 Cl
ENDBRANCH  11  12
ENDBRANCH   4  11
BRANCH   4  14
HETATM   14  N3  UNL     1      -5.633   1.244  11.220  1.00  0.00    -0.204 N 
ATOM     15  H3  UNL     1      -4.751   0.758  11.058  1.00  0.00     0.216 HD
BRANCH  14  16
HETATM   16  O3  UNL     1      -6.726   0.729  10.978  1.00  0.00    -0.274 OA
ATOM     17  H3  UNL     1      -6.686  -0.154  10.630  1.00  0.00     0.246 HD
ENDBRANCH  14  16
ENDBRANCH   4  14
TORSDOF 7
ENDMDL
MODEL 7
REMARK minimizedAffinity -4.68618345
REMARK  7 active torsions:
REMARK  status: ('A' for Active; 'I' for Inactive)
REMARK    1  A    between atoms: S1_2  and  C2_4 
REMARK    2  A    between atoms: C2_4  and  C3_5 
REMARK    3  A    between atoms: C3_5  and  N1_6 
REMARK       I    between atoms: N1_6  and  C4_7 
REMARK       I    between atoms: C4_7  and  N2_9 
REMARK    4  A    between atoms: N2_9  and  C5_10 
REMARK    5  A    between atoms: N2_9  and  N3_13 
REMARK    6  A    between atoms: C5_10  and  C6_11 
REMARK    7  A    between atoms: N3_13  and  O3_15 
ROOT
HETATM    1  N1  UNL     1      -0.898   4.952  11.354  1.00  0.00    -0.341 N 
HETATM    2  C4  UNL     1      -0.738   3.573  11.265  1.00  0.00     0.338 C 
HETATM    3  O2  UNL     1       0.370   3.070  11.439  1.00  0.00    -0.245 OA
HETATM    4  N2  UNL     1      -1.922   2.873  11.004  1.00  0.00    -0.222 N 
HETATM    5  H8  UNL     1      -1.541   5.337  10.676  1.00  0.00     0.164 HD
ENDROOT
BRANCH   1   6
HETATM    6  C3  UNL     1       0.272   5.800  11.559  1.00  0.00     0.137 C 
BRANCH   6   7
HETATM    7  C2  UNL     1       0.462   6.845  10.465  1.00  0.00     0.128 C 
BRANCH   7   8
HETATM    8  S1  UNL     1       1.950   6.519   9.465  1.00  0.00     0.012 S 
HETATM    9  C1  UNL     1       3.035   7.656  10.358  1.00  0.00     0.127 C 
HETATM   10  O1  UNL     1       2.400   5.119   9.758  1.00  0.00    -0.258 OA
ENDBRANCH   7   8
ENDBRANCH   6   7
ENDBRANCH   1   6
BRANCH   4  11
HETATM   11  C5  UNL     1      -3.260   3.466  10.968  1.00  0.00     0.171 C 
BRANCH  11  12
HETATM   12  C6  UNL     1      -3.991   3.281  12.292  1.00  0.00     0.136 C 
HETATM   13 CL1  UNL     1      -5.735   3.553  12.077  1.00  0.00    -0.129 Cl
ENDBRANCH  11  12
ENDBRANCH   4  11
BRANCH   4  14
HETATM   14  N3  UNL     1      -1.911   1.388  10.751  1.00  0.00    -0.204 N 
ATOM     15  H3  UNL     1      -2.508   0.740  11.264  1.00  0.00     0.216 HD
BRANCH  14  16
HETATM   16  O3  UNL     1      -1.126   1.015   9.877  1.00  0.00    -0.274 OA
ATOM     17  H3  UNL     1      -1.118   0.078   9.718  1.00  0.00     0.246 HD
ENDBRANCH  14  16
ENDBRANCH   4  14
TORSDOF 7
ENDMDL
MODEL 8
REMARK minimizedAffinity -4.65696573
REMARK  7 active torsions:
REMARK  status: ('A' for Active; 'I' for Inactive)
REMARK    1  A    between atoms: S1_2  and  C2_4 
REMARK    2  A    between atoms: C2_4  and  C3_5 
REMARK    3  A    between atoms: C3_5  and  N1_6 
REMARK       I    between atoms: N1_6  and  C4_7 
REMARK       I    between atoms: C4_7  and  N2_9 
REMARK    4  A    between atoms: N2_9  and  C5_10 
REMARK    5  A    between atoms: N2_9  and  N3_13 
REMARK    6  A    between atoms: C5_10  and  C6_11 
REMARK    7  A    between atoms: N3_13  and  O3_15 
ROOT
HETATM    1  N1  UNL     1       0.320   6.176  11.077  1.00  0.00    -0.341 N 
HETATM    2  C4  UNL     1       1.454   5.585  10.529  1.00  0.00     0.338 C 
HETATM    3  O2  UNL     1       1.805   4.468  10.900  1.00  0.00    -0.245 OA
HETATM    4  N2  UNL     1       2.083   6.355   9.542  1.00  0.00    -0.222 N 
HETATM    5  H8  UNL     1       0.408   7.171  11.230  1.00  0.00     0.164 HD
ENDROOT
BRANCH   1   6
HETATM    6  C3  UNL     1      -0.389   5.504  12.160  1.00  0.00     0.137 C 
BRANCH   6   7
HETATM    7  C2  UNL     1      -1.605   4.713  11.688  1.00  0.00     0.128 C 
BRANCH   7   8
HETATM    8  S1  UNL     1      -3.117   5.191  12.586  1.00  0.00     0.012 S 
HETATM    9  C1  UNL     1      -4.156   3.862  11.934  1.00  0.00     0.127 C 
HETATM   10  O1  UNL     1      -2.885   4.929  14.044  1.00  0.00    -0.258 OA
ENDBRANCH   7   8
ENDBRANCH   6   7
ENDBRANCH   1   6
BRANCH   4  11
HETATM   11  C5  UNL     1       1.560   7.605   8.989  1.00  0.00     0.171 C 
BRANCH  11  12
HETATM   12  C6  UNL     1       2.331   8.033   7.746  1.00  0.00     0.136 C 
HETATM   13 CL1  UNL     1       1.706   7.187   6.312  1.00  0.00    -0.129 Cl
ENDBRANCH  11  12
ENDBRANCH   4  11
BRANCH   4  14
HETATM   14  N3  UNL     1       3.393   5.924   8.935  1.00  0.00    -0.204 N 
ATOM     15  H3  UNL     1       4.230   6.507   8.966  1.00  0.00     0.216 HD
BRANCH  14  16
HETATM   16  O3  UNL     1       3.378   4.816   8.397  1.00  0.00    -0.274 OA
ATOM     17  H3  UNL     1       4.205   4.544   8.014  1.00  0.00     0.246 HD
ENDBRANCH  14  16
ENDBRANCH   4  14
TORSDOF 7
ENDMDL
MODEL 9
REMARK minimizedAffinity -4.61684322
REMARK  7 active torsions:
REMARK  status: ('A' for Active; 'I' for Inactive)
REMARK    1  A    between atoms: S1_2  and  C2_4 
REMARK    2  A    between atoms: C2_4  and  C3_5 
REMARK    3  A    between atoms: C3_5  and  N1_6 
REMARK       I    between atoms: N1_6  and  C4_7 
REMARK       I    between atoms: C4_7  and  N2_9 
REMARK    4  A    between atoms: N2_9  and  C5_10 
REMARK    5  A    between atoms: N2_9  and  N3_13 
REMARK    6  A    between atoms: C5_10  and  C6_11 
REMARK    7  A    between atoms: N3_13  and  O3_15 
ROOT
HETATM    1  N1  UNL     1      -6.738   4.758  12.909  1.00  0.00    -0.341 N 
HETATM    2  C4  UNL     1      -7.206   3.461  12.725  1.00  0.00     0.338 C 
HETATM    3  O2  UNL     1      -8.283   3.122  13.209  1.00  0.00    -0.245 OA
HETATM    4  N2  UNL     1      -6.371   2.656  11.941  1.00  0.00    -0.222 N 
HETATM    5  H8  UNL     1      -5.740   4.819  13.057  1.00  0.00     0.164 HD
ENDROOT
BRANCH   1   6
HETATM    6  C3  UNL     1      -7.485   5.678  13.760  1.00  0.00     0.137 C 
BRANCH   6   7
HETATM    7  C2  UNL     1      -6.631   6.335  14.839  1.00  0.00     0.128 C 
BRANCH   7   8
HETATM    8  S1  UNL     1      -4.893   6.506  14.319  1.00  0.00     0.012 S 
HETATM    9  C1  UNL     1      -5.039   8.205  13.716  1.00  0.00     0.127 C 
HETATM   10  O1  UNL     1      -4.044   6.522  15.555  1.00  0.00    -0.258 OA
ENDBRANCH   7   8
ENDBRANCH   6   7
ENDBRANCH   1   6
BRANCH   4  11
HETATM   11  C5  UNL     1      -5.179   3.120  11.230  1.00  0.00     0.171 C 
BRANCH  11  12
HETATM   12  C6  UNL     1      -3.918   2.926  12.064  1.00  0.00     0.136 C 
HETATM   13 CL1  UNL     1      -3.129   1.390  11.640  1.00  0.00    -0.129 Cl
ENDBRANCH  11  12
ENDBRANCH   4  11
BRANCH   4  14
HETATM   14  N3  UNL     1      -6.661   1.190  11.745  1.00  0.00    -0.204 N 
ATOM     15  H3  UNL     1      -7.089   0.614  12.470  1.00  0.00     0.216 HD
BRANCH  14  16
HETATM   16  O3  UNL     1      -6.341   0.739  10.644  1.00  0.00    -0.274 OA
ATOM     17  H3  UNL     1      -6.524  -0.186  10.521  1.00  0.00     0.246 HD
ENDBRANCH  14  16
ENDBRANCH   4  14
TORSDOF 7
ENDMDL
