MODEL 1
REMARK minimizedAffinity -8.45520782
REMARK  11 active torsions:
REMARK  status: ('A' for Active; 'I' for Inactive)
REMARK    1  A    between atoms: C2_2  and  O1_3 
REMARK    2  A    between atoms: O1_3  and  C3_4 
REMARK    3  A    between atoms: C3_4  and  C4_6 
REMARK    4  A    between atoms: C4_6  and  O3_7 
REMARK    5  A    between atoms: O3_7  and  C5_8 
REMARK       I    between atoms: N1_11  and  C8_12 
REMARK    6  A    between atoms: C8_12  and  C9_14 
REMARK    7  A    between atoms: C9_14  and  N2_16 
REMARK       I    between atoms: N2_16  and  C11_17 
REMARK    8  A    between atoms: C11_17  and  C12_19 
REMARK    9  A    between atoms: C15_22  and  C16_23 
REMARK   10  A    between atoms: C16_23  and  N3_24 
REMARK   11  A    between atoms: N4_25  and  O6_27 
ROOT
HETATM    1  N2  UNL     1      -3.483   7.562  14.677  1.00  0.00    -0.344 N 
HETATM    2  C11 UNL     1      -4.681   7.629  14.005  1.00  0.00     0.252 C 
HETATM    3  O5  UNL     1      -5.244   8.690  13.752  1.00  0.00    -0.268 OA
HETATM    4  H17 UNL     1      -2.942   6.703  14.686  1.00  0.00     0.163 HD
ENDROOT
BRANCH   1   5
HETATM    5  C9  UNL     1      -2.740   8.763  15.061  1.00  0.00     0.173 C 
HETATM    6  C10 UNL     1      -1.868   8.479  16.278  1.00  0.00     0.042 C 
BRANCH   5   7
HETATM    7  C8  UNL     1      -1.883   9.169  13.839  1.00  0.00     0.242 C 
HETATM    8  N1  UNL     1      -1.255   8.183  13.087  1.00  0.00    -0.350 N 
HETATM    9  C7  UNL     1      -1.143   6.774  13.475  1.00  0.00     0.128 C 
HETATM   10  C19 UNL     1      -0.485   8.608  11.917  1.00  0.00     0.128 C 
HETATM   11  C6  UNL     1       0.205   6.198  13.070  1.00  0.00     0.052 C 
HETATM   12  C5  UNL     1       0.420   6.271  11.555  1.00  0.00     0.125 C 
HETATM   13  C20 UNL     1      -0.287   7.474  10.917  1.00  0.00     0.052 C 
HETATM   14  O4  UNL     1      -1.788  10.368  13.535  1.00  0.00    -0.271 OA
BRANCH  12  15
HETATM   15  O3  UNL     1       1.835   6.356  11.338  1.00  0.00    -0.376 OA
BRANCH  15  16
HETATM   16  C4  UNL     1       2.389   5.237  10.656  1.00  0.00     0.279 C 
BRANCH  16  17
HETATM   17  C3  UNL     1       3.446   5.560   9.597  1.00  0.00     0.282 C 
HETATM   18  O2  UNL     1       4.644   5.700   9.806  1.00  0.00    -0.263 OA
BRANCH  17  19
HETATM   19  O1  UNL     1       2.847   5.652   8.372  1.00  0.00    -0.320 OA
BRANCH  19  20
HETATM   20  C2  UNL     1       2.364   6.954   8.011  1.00  0.00     0.174 C 
HETATM   21  C1  UNL     1       1.861   6.954   6.580  1.00  0.00     0.034 C 
ENDBRANCH  19  20
ENDBRANCH  17  19
ENDBRANCH  16  17
ENDBRANCH  15  16
ENDBRANCH  12  15
ENDBRANCH   5   7
ENDBRANCH   1   5
BRANCH   2  22
HETATM   22  C12 UNL     1      -5.263   6.335  13.547  1.00  0.00     0.032 A 
HETATM   23  C13 UNL     1      -6.634   6.059  13.628  1.00  0.00     0.018 A 
HETATM   24  C14 UNL     1      -7.130   4.823  13.194  1.00  0.00     0.016 A 
HETATM   25  C15 UNL     1      -6.261   3.858  12.670  1.00  0.00     0.004 A 
HETATM   26  C17 UNL     1      -4.894   4.144  12.567  1.00  0.00     0.016 A 
HETATM   27  C18 UNL     1      -4.398   5.376  13.002  1.00  0.00     0.018 A 
BRANCH  25  28
HETATM   28  C16 UNL     1      -6.785   2.534  12.209  1.00  0.00     0.108 C 
HETATM   29  N4  UNL     1      -6.088   1.850  11.345  1.00  0.00    -0.258 N 
ATOM     30  H4  UNL     1      -5.206   2.160  10.938  1.00  0.00     0.195 HD
BRANCH  28  31
HETATM   31  N3  UNL     1      -7.978   2.066  12.714  1.00  0.00    -0.287 NA
HETATM   32  H20 UNL     1      -8.089   1.092  12.439  1.00  0.00     0.125 HD
HETATM   33  H21 UNL     1      -8.092   2.186  13.714  1.00  0.00     0.125 HD
ENDBRANCH  28  31
BRANCH  29  34
HETATM   34  O6  UNL     1      -6.716   0.627  11.049  1.00  0.00    -0.289 OA
HETATM   35  H22 UNL     1      -6.136   0.269  10.351  1.00  0.00     0.244 HD
ENDBRANCH  29  34
ENDBRANCH  25  28
ENDBRANCH   2  22
TORSDOF 11
ENDMDL
MODEL 2
REMARK minimizedAffinity -8.20912838
REMARK  11 active torsions:
REMARK  status: ('A' for Active; 'I' for Inactive)
REMARK    1  A    between atoms: C2_2  and  O1_3 
REMARK    2  A    between atoms: O1_3  and  C3_4 
REMARK    3  A    between atoms: C3_4  and  C4_6 
REMARK    4  A    between atoms: C4_6  and  O3_7 
REMARK    5  A    between atoms: O3_7  and  C5_8 
REMARK       I    between atoms: N1_11  and  C8_12 
REMARK    6  A    between atoms: C8_12  and  C9_14 
REMARK    7  A    between atoms: C9_14  and  N2_16 
REMARK       I    between atoms: N2_16  and  C11_17 
REMARK    8  A    between atoms: C11_17  and  C12_19 
REMARK    9  A    between atoms: C15_22  and  C16_23 
REMARK   10  A    between atoms: C16_23  and  N3_24 
REMARK   11  A    between atoms: N4_25  and  O6_27 
ROOT
HETATM    1  N2  UNL     1      -2.893   7.309  14.792  1.00  0.00    -0.344 N 
HETATM    2  C11 UNL     1      -3.894   7.416  13.856  1.00  0.00     0.252 C 
HETATM    3  O5  UNL     1      -4.239   8.488  13.370  1.00  0.00    -0.268 OA
HETATM    4  H17 UNL     1      -2.488   6.405  15.017  1.00  0.00     0.163 HD
ENDROOT
BRANCH   1   5
HETATM    5  C9  UNL     1      -2.095   8.462  15.212  1.00  0.00     0.173 C 
HETATM    6  C10 UNL     1      -2.581   8.980  16.560  1.00  0.00     0.042 C 
BRANCH   5   7
HETATM    7  C8  UNL     1      -0.625   7.986  15.289  1.00  0.00     0.242 C 
HETATM    8  N1  UNL     1       0.113   7.858  14.118  1.00  0.00    -0.350 N 
HETATM    9  C7  UNL     1      -0.442   7.922  12.764  1.00  0.00     0.128 C 
HETATM   10  C19 UNL     1       1.511   7.441  14.239  1.00  0.00     0.128 C 
HETATM   11  C6  UNL     1       0.249   6.932  11.839  1.00  0.00     0.052 C 
HETATM   12  C5  UNL     1       1.752   7.212  11.729  1.00  0.00     0.125 C 
HETATM   13  C20 UNL     1       2.332   7.821  13.012  1.00  0.00     0.052 C 
HETATM   14  O4  UNL     1      -0.121   7.747  16.397  1.00  0.00    -0.271 OA
BRANCH  12  15
HETATM   15  O3  UNL     1       2.389   5.960  11.441  1.00  0.00    -0.376 OA
BRANCH  15  16
HETATM   16  C4  UNL     1       3.533   6.068  10.601  1.00  0.00     0.279 C 
BRANCH  16  17
HETATM   17  C3  UNL     1       3.536   5.164   9.365  1.00  0.00     0.282 C 
HETATM   18  O2  UNL     1       4.267   4.199   9.191  1.00  0.00    -0.263 OA
BRANCH  17  19
HETATM   19  O1  UNL     1       2.579   5.592   8.489  1.00  0.00    -0.320 OA
BRANCH  19  20
HETATM   20  C2  UNL     1       2.663   6.972   8.100  1.00  0.00     0.174 C 
HETATM   21  C1  UNL     1       1.750   7.246   6.921  1.00  0.00     0.034 C 
ENDBRANCH  19  20
ENDBRANCH  17  19
ENDBRANCH  16  17
ENDBRANCH  15  16
ENDBRANCH  12  15
ENDBRANCH   5   7
ENDBRANCH   1   5
BRANCH   2  22
HETATM   22  C12 UNL     1      -4.532   6.143  13.413  1.00  0.00     0.032 A 
HETATM   23  C13 UNL     1      -3.795   5.084  12.869  1.00  0.00     0.018 A 
HETATM   24  C14 UNL     1      -4.443   3.913  12.458  1.00  0.00     0.016 A 
HETATM   25  C15 UNL     1      -5.831   3.790  12.593  1.00  0.00     0.004 A 
HETATM   26  C17 UNL     1      -6.565   4.839  13.159  1.00  0.00     0.016 A 
HETATM   27  C18 UNL     1      -5.919   6.009  13.568  1.00  0.00     0.018 A 
BRANCH  25  28
HETATM   28  C16 UNL     1      -6.530   2.542  12.151  1.00  0.00     0.108 C 
HETATM   29  N4  UNL     1      -5.954   1.782  11.262  1.00  0.00    -0.258 N 
ATOM     30  H4  UNL     1      -5.054   1.983  10.824  1.00  0.00     0.195 HD
BRANCH  28  31
HETATM   31  N3  UNL     1      -7.753   2.222  12.697  1.00  0.00    -0.287 NA
HETATM   32  H20 UNL     1      -7.993   1.270  12.426  1.00  0.00     0.125 HD
HETATM   33  H21 UNL     1      -7.817   2.350  13.701  1.00  0.00     0.125 HD
ENDBRANCH  28  31
BRANCH  29  34
HETATM   34  O6  UNL     1      -6.737   0.647  10.988  1.00  0.00    -0.289 OA
HETATM   35  H22 UNL     1      -6.230   0.223  10.270  1.00  0.00     0.244 HD
ENDBRANCH  29  34
ENDBRANCH  25  28
ENDBRANCH   2  22
TORSDOF 11
ENDMDL
MODEL 3
REMARK minimizedAffinity -8.13957977
REMARK  11 active torsions:
REMARK  status: ('A' for Active; 'I' for Inactive)
REMARK    1  A    between atoms: C2_2  and  O1_3 
REMARK    2  A    between atoms: O1_3  and  C3_4 
REMARK    3  A    between atoms: C3_4  and  C4_6 
REMARK    4  A    between atoms: C4_6  and  O3_7 
REMARK    5  A    between atoms: O3_7  and  C5_8 
REMARK       I    between atoms: N1_11  and  C8_12 
REMARK    6  A    between atoms: C8_12  and  C9_14 
REMARK    7  A    between atoms: C9_14  and  N2_16 
REMARK       I    between atoms: N2_16  and  C11_17 
REMARK    8  A    between atoms: C11_17  and  C12_19 
REMARK    9  A    between atoms: C15_22  and  C16_23 
REMARK   10  A    between atoms: C16_23  and  N3_24 
REMARK   11  A    between atoms: N4_25  and  O6_27 
ROOT
HETATM    1  N2  UNL     1      -7.090   5.304  13.924  1.00  0.00    -0.344 N 
HETATM    2  C11 UNL     1      -7.002   3.999  13.498  1.00  0.00     0.252 C 
HETATM    3  O5  UNL     1      -7.926   3.199  13.610  1.00  0.00    -0.268 OA
HETATM    4  H17 UNL     1      -6.402   5.991  13.632  1.00  0.00     0.163 HD
ENDROOT
BRANCH   1   5
HETATM    5  C9  UNL     1      -8.330   5.864  14.462  1.00  0.00     0.173 C 
HETATM    6  C10 UNL     1      -8.022   7.010  15.418  1.00  0.00     0.042 C 
BRANCH   5   7
HETATM    7  C8  UNL     1      -9.164   6.350  13.252  1.00  0.00     0.242 C 
HETATM    8  N1  UNL     1     -10.338   7.059  13.474  1.00  0.00    -0.350 N 
HETATM    9  C7  UNL     1     -10.997   7.209  14.774  1.00  0.00     0.128 C 
HETATM   10  C19 UNL     1     -11.077   7.533  12.302  1.00  0.00     0.128 C 
HETATM   11  C6  UNL     1     -12.511   7.169  14.632  1.00  0.00     0.052 C 
HETATM   12  C5  UNL     1     -13.024   8.297  13.729  1.00  0.00     0.125 C 
HETATM   13  C20 UNL     1     -12.014   8.686  12.641  1.00  0.00     0.052 C 
HETATM   14  O4  UNL     1      -8.759   6.118  12.103  1.00  0.00    -0.271 OA
BRANCH  12  15
HETATM   15  O3  UNL     1     -14.241   7.831  13.131  1.00  0.00    -0.376 OA
BRANCH  15  16
HETATM   16  C4  UNL     1     -15.009   8.850  12.501  1.00  0.00     0.279 C 
BRANCH  16  17
HETATM   17  C3  UNL     1     -15.983   8.375  11.420  1.00  0.00     0.282 C 
HETATM   18  O2  UNL     1     -16.412   9.057  10.499  1.00  0.00    -0.263 OA
BRANCH  17  19
HETATM   19  O1  UNL     1     -16.289   7.061  11.632  1.00  0.00    -0.320 OA
BRANCH  19  20
HETATM   20  C2  UNL     1     -17.478   6.813  12.398  1.00  0.00     0.174 C 
HETATM   21  C1  UNL     1     -17.180   5.870  13.547  1.00  0.00     0.034 C 
ENDBRANCH  19  20
ENDBRANCH  17  19
ENDBRANCH  16  17
ENDBRANCH  15  16
ENDBRANCH  12  15
ENDBRANCH   5   7
ENDBRANCH   1   5
BRANCH   2  22
HETATM   22  C12 UNL     1      -5.727   3.596  12.840  1.00  0.00     0.032 A 
HETATM   23  C13 UNL     1      -5.647   2.506  11.963  1.00  0.00     0.018 A 
HETATM   24  C14 UNL     1      -4.422   2.162  11.378  1.00  0.00     0.016 A 
HETATM   25  C15 UNL     1      -3.270   2.906  11.661  1.00  0.00     0.004 A 
HETATM   26  C17 UNL     1      -3.355   4.009  12.519  1.00  0.00     0.016 A 
HETATM   27  C18 UNL     1      -4.577   4.353  13.104  1.00  0.00     0.018 A 
BRANCH  25  28
HETATM   28  C16 UNL     1      -1.957   2.539  11.043  1.00  0.00     0.108 C 
HETATM   29  N4  UNL     1      -1.751   1.298  10.701  1.00  0.00    -0.258 N 
ATOM     30  H4  UNL     1      -2.420   0.540  10.839  1.00  0.00     0.195 HD
BRANCH  28  31
HETATM   31  N3  UNL     1      -1.008   3.516  10.841  1.00  0.00    -0.287 NA
HETATM   32  H20 UNL     1      -0.266   3.134  10.257  1.00  0.00     0.125 HD
HETATM   33  H21 UNL     1      -1.367   4.386  10.466  1.00  0.00     0.125 HD
ENDBRANCH  28  31
BRANCH  29  34
HETATM   34  O6  UNL     1      -0.482   1.143  10.115  1.00  0.00    -0.289 OA
HETATM   35  H22 UNL     1      -0.439   0.177   9.984  1.00  0.00     0.244 HD
ENDBRANCH  29  34
ENDBRANCH  25  28
ENDBRANCH   2  22
TORSDOF 11
ENDMDL
MODEL 4
REMARK minimizedAffinity -8.03868198
REMARK  11 active torsions:
REMARK  status: ('A' for Active; 'I' for Inactive)
REMARK    1  A    between atoms: C2_2  and  O1_3 
REMARK    2  A    between atoms: O1_3  and  C3_4 
REMARK    3  A    between atoms: C3_4  and  C4_6 
REMARK    4  A    between atoms: C4_6  and  O3_7 
REMARK    5  A    between atoms: O3_7  and  C5_8 
REMARK       I    between atoms: N1_11  and  C8_12 
REMARK    6  A    between atoms: C8_12  and  C9_14 
REMARK    7  A    between atoms: C9_14  and  N2_16 
REMARK       I    between atoms: N2_16  and  C11_17 
REMARK    8  A    between atoms: C11_17  and  C12_19 
REMARK    9  A    between atoms: C15_22  and  C16_23 
REMARK   10  A    between atoms: C16_23  and  N3_24 
REMARK   11  A    between atoms: N4_25  and  O6_27 
ROOT
HETATM    1  N2  UNL     1      -2.103   7.893  12.156  1.00  0.00    -0.344 N 
HETATM    2  C11 UNL     1      -2.116   6.773  12.954  1.00  0.00     0.252 C 
HETATM    3  O5  UNL     1      -1.153   6.426  13.630  1.00  0.00    -0.268 OA
HETATM    4  H17 UNL     1      -2.967   8.270  11.780  1.00  0.00     0.163 HD
ENDROOT
BRANCH   1   5
HETATM    5  C9  UNL     1      -0.964   8.812  12.125  1.00  0.00     0.173 C 
HETATM    6  C10 UNL     1      -0.076   8.596  13.344  1.00  0.00     0.042 C 
BRANCH   5   7
HETATM    7  C8  UNL     1      -0.196   8.529  10.812  1.00  0.00     0.242 C 
HETATM    8  N1  UNL     1       0.885   7.656  10.828  1.00  0.00    -0.350 N 
HETATM    9  C7  UNL     1       1.523   7.131  12.038  1.00  0.00     0.128 C 
HETATM   10  C19 UNL     1       1.560   7.387   9.557  1.00  0.00     0.128 C 
HETATM   11  C6  UNL     1       3.030   7.026  11.865  1.00  0.00     0.052 C 
HETATM   12  C5  UNL     1       3.403   6.089  10.710  1.00  0.00     0.125 C 
HETATM   13  C20 UNL     1       2.352   6.085   9.592  1.00  0.00     0.052 C 
HETATM   14  O4  UNL     1      -0.572   9.069   9.760  1.00  0.00    -0.271 OA
BRANCH  12  15
HETATM   15  O3  UNL     1       4.667   6.537  10.201  1.00  0.00    -0.376 OA
BRANCH  15  16
HETATM   16  C4  UNL     1       5.766   6.292  11.071  1.00  0.00     0.279 C 
BRANCH  16  17
HETATM   17  C3  UNL     1       6.581   7.523  11.476  1.00  0.00     0.282 C 
HETATM   18  O2  UNL     1       7.234   8.225  10.716  1.00  0.00    -0.263 OA
BRANCH  17  19
HETATM   19  O1  UNL     1       6.451   7.730  12.820  1.00  0.00    -0.320 OA
BRANCH  19  20
HETATM   20  C2  UNL     1       7.445   8.575  13.419  1.00  0.00     0.174 C 
HETATM   21  C1  UNL     1       8.415   7.750  14.243  1.00  0.00     0.034 C 
ENDBRANCH  19  20
ENDBRANCH  17  19
ENDBRANCH  16  17
ENDBRANCH  15  16
ENDBRANCH  12  15
ENDBRANCH   5   7
ENDBRANCH   1   5
BRANCH   2  22
HETATM   22  C12 UNL     1      -3.391   6.001  13.000  1.00  0.00     0.032 A 
HETATM   23  C13 UNL     1      -4.561   6.519  13.569  1.00  0.00     0.018 A 
HETATM   24  C14 UNL     1      -5.731   5.749  13.597  1.00  0.00     0.016 A 
HETATM   25  C15 UNL     1      -5.740   4.460  13.051  1.00  0.00     0.004 A 
HETATM   26  C17 UNL     1      -4.577   3.951  12.461  1.00  0.00     0.016 A 
HETATM   27  C18 UNL     1      -3.409   4.719  12.435  1.00  0.00     0.018 A 
BRANCH  25  28
HETATM   28  C16 UNL     1      -6.986   3.631  13.083  1.00  0.00     0.108 C 
HETATM   29  N4  UNL     1      -6.991   2.482  12.467  1.00  0.00    -0.258 N 
ATOM     30  H4  UNL     1      -6.202   2.103  11.941  1.00  0.00     0.195 HD
BRANCH  28  31
HETATM   31  N3  UNL     1      -8.089   4.093  13.767  1.00  0.00    -0.287 NA
HETATM   32  H20 UNL     1      -8.769   3.338  13.838  1.00  0.00     0.125 HD
HETATM   33  H21 UNL     1      -7.887   4.499  14.674  1.00  0.00     0.125 HD
ENDBRANCH  28  31
BRANCH  29  34
HETATM   34  O6  UNL     1      -8.228   1.832  12.625  1.00  0.00    -0.289 OA
HETATM   35  H22 UNL     1      -8.113   1.044  12.062  1.00  0.00     0.244 HD
ENDBRANCH  29  34
ENDBRANCH  25  28
ENDBRANCH   2  22
TORSDOF 11
ENDMDL
MODEL 5
REMARK minimizedAffinity -7.99619675
REMARK  11 active torsions:
REMARK  status: ('A' for Active; 'I' for Inactive)
REMARK    1  A    between atoms: C2_2  and  O1_3 
REMARK    2  A    between atoms: O1_3  and  C3_4 
REMARK    3  A    between atoms: C3_4  and  C4_6 
REMARK    4  A    between atoms: C4_6  and  O3_7 
REMARK    5  A    between atoms: O3_7  and  C5_8 
REMARK       I    between atoms: N1_11  and  C8_12 
REMARK    6  A    between atoms: C8_12  and  C9_14 
REMARK    7  A    between atoms: C9_14  and  N2_16 
REMARK       I    between atoms: N2_16  and  C11_17 
REMARK    8  A    between atoms: C11_17  and  C12_19 
REMARK    9  A    between atoms: C15_22  and  C16_23 
REMARK   10  A    between atoms: C16_23  and  N3_24 
REMARK   11  A    between atoms: N4_25  and  O6_27 
ROOT
HETATM    1  N2  UNL     1      -2.402   5.583  12.424  1.00  0.00    -0.344 N 
HETATM    2  C11 UNL     1      -3.287   4.549  12.621  1.00  0.00     0.252 C 
HETATM    3  O5  UNL     1      -2.956   3.369  12.563  1.00  0.00    -0.268 OA
HETATM    4  H17 UNL     1      -2.650   6.533  12.683  1.00  0.00     0.163 HD
ENDROOT
BRANCH   1   5
HETATM    5  C9  UNL     1      -0.971   5.353  12.219  1.00  0.00     0.173 C 
HETATM    6  C10 UNL     1      -0.753   4.172  11.282  1.00  0.00     0.042 C 
BRANCH   5   7
HETATM    7  C8  UNL     1      -0.388   6.657  11.626  1.00  0.00     0.242 C 
HETATM    8  N1  UNL     1       0.766   6.599  10.854  1.00  0.00    -0.350 N 
HETATM    9  C7  UNL     1       1.632   5.424  10.724  1.00  0.00     0.128 C 
HETATM   10  C19 UNL     1       1.263   7.851  10.280  1.00  0.00     0.128 C 
HETATM   11  C6  UNL     1       3.097   5.824  10.659  1.00  0.00     0.052 C 
HETATM   12  C5  UNL     1       3.383   6.736   9.461  1.00  0.00     0.125 C 
HETATM   13  C20 UNL     1       2.180   7.612   9.087  1.00  0.00     0.052 C 
HETATM   14  O4  UNL     1      -0.973   7.732  11.830  1.00  0.00    -0.271 OA
BRANCH  12  15
HETATM   15  O3  UNL     1       4.502   7.558   9.819  1.00  0.00    -0.376 OA
BRANCH  15  16
HETATM   16  C4  UNL     1       5.070   7.250  11.087  1.00  0.00     0.279 C 
BRANCH  16  17
HETATM   17  C3  UNL     1       6.508   6.723  11.061  1.00  0.00     0.282 C 
HETATM   18  O2  UNL     1       6.857   5.628  10.643  1.00  0.00    -0.263 OA
BRANCH  17  19
HETATM   19  O1  UNL     1       7.348   7.677  11.562  1.00  0.00    -0.320 OA
BRANCH  19  20
HETATM   20  C2  UNL     1       6.931   8.292  12.790  1.00  0.00     0.174 C 
HETATM   21  C1  UNL     1       7.630   7.646  13.970  1.00  0.00     0.034 C 
ENDBRANCH  19  20
ENDBRANCH  17  19
ENDBRANCH  16  17
ENDBRANCH  15  16
ENDBRANCH  12  15
ENDBRANCH   5   7
ENDBRANCH   1   5
BRANCH   2  22
HETATM   22  C12 UNL     1      -4.690   4.926  12.959  1.00  0.00     0.032 A 
HETATM   23  C13 UNL     1      -5.789   4.146  12.576  1.00  0.00     0.018 A 
HETATM   24  C14 UNL     1      -7.088   4.549  12.910  1.00  0.00     0.016 A 
HETATM   25  C15 UNL     1      -7.297   5.730  13.633  1.00  0.00     0.004 A 
HETATM   26  C17 UNL     1      -6.197   6.496  14.036  1.00  0.00     0.016 A 
HETATM   27  C18 UNL     1      -4.900   6.096  13.702  1.00  0.00     0.018 A 
BRANCH  25  28
HETATM   28  C16 UNL     1      -8.684   6.168  13.987  1.00  0.00     0.108 C 
HETATM   29  N4  UNL     1      -9.003   6.282  15.246  1.00  0.00    -0.258 N 
ATOM     30  H4  UNL     1      -8.375   6.076  16.023  1.00  0.00     0.195 HD
BRANCH  28  31
HETATM   31  N3  UNL     1      -9.582   6.450  12.981  1.00  0.00    -0.287 NA
HETATM   32  H20 UNL     1     -10.399   6.900  13.390  1.00  0.00     0.125 HD
HETATM   33  H21 UNL     1      -9.203   6.993  12.213  1.00  0.00     0.125 HD
ENDBRANCH  28  31
BRANCH  29  34
HETATM   34  O6  UNL     1     -10.329   6.728  15.389  1.00  0.00    -0.289 OA
HETATM   35  H22 UNL     1     -10.448   6.693  16.357  1.00  0.00     0.244 HD
ENDBRANCH  29  34
ENDBRANCH  25  28
ENDBRANCH   2  22
TORSDOF 11
ENDMDL
MODEL 6
REMARK minimizedAffinity -7.95622635
REMARK  11 active torsions:
REMARK  status: ('A' for Active; 'I' for Inactive)
REMARK    1  A    between atoms: C2_2  and  O1_3 
REMARK    2  A    between atoms: O1_3  and  C3_4 
REMARK    3  A    between atoms: C3_4  and  C4_6 
REMARK    4  A    between atoms: C4_6  and  O3_7 
REMARK    5  A    between atoms: O3_7  and  C5_8 
REMARK       I    between atoms: N1_11  and  C8_12 
REMARK    6  A    between atoms: C8_12  and  C9_14 
REMARK    7  A    between atoms: C9_14  and  N2_16 
REMARK       I    between atoms: N2_16  and  C11_17 
REMARK    8  A    between atoms: C11_17  and  C12_19 
REMARK    9  A    between atoms: C15_22  and  C16_23 
REMARK   10  A    between atoms: C16_23  and  N3_24 
REMARK   11  A    between atoms: N4_25  and  O6_27 
ROOT
HETATM    1  N2  UNL     1      -2.676   7.016  14.549  1.00  0.00    -0.344 N 
HETATM    2  C11 UNL     1      -3.776   7.152  13.736  1.00  0.00     0.252 C 
HETATM    3  O5  UNL     1      -4.199   8.242  13.365  1.00  0.00    -0.268 OA
HETATM    4  H17 UNL     1      -2.227   6.113  14.665  1.00  0.00     0.163 HD
ENDROOT
BRANCH   1   5
HETATM    5  C9  UNL     1      -1.867   8.164  14.961  1.00  0.00     0.173 C 
HETATM    6  C10 UNL     1      -2.047   8.431  16.450  1.00  0.00     0.042 C 
BRANCH   5   7
HETATM    7  C8  UNL     1      -0.397   7.819  14.624  1.00  0.00     0.242 C 
HETATM    8  N1  UNL     1       0.112   8.150  13.374  1.00  0.00    -0.350 N 
HETATM    9  C7  UNL     1      -0.688   8.609  12.235  1.00  0.00     0.128 C 
HETATM   10  C19 UNL     1       1.519   7.841  13.110  1.00  0.00     0.128 C 
HETATM   11  C6  UNL     1      -0.157   8.044  10.927  1.00  0.00     0.052 C 
HETATM   12  C5  UNL     1       1.291   8.475  10.669  1.00  0.00     0.125 C 
HETATM   13  C20 UNL     1       2.085   8.675  11.967  1.00  0.00     0.052 C 
HETATM   14  O4  UNL     1       0.311   7.273  15.484  1.00  0.00    -0.271 OA
BRANCH  12  15
HETATM   15  O3  UNL     1       1.896   7.450   9.871  1.00  0.00    -0.376 OA
BRANCH  15  16
HETATM   16  C4  UNL     1       2.134   6.231  10.567  1.00  0.00     0.279 C 
BRANCH  16  17
HETATM   17  C3  UNL     1       3.229   5.335   9.983  1.00  0.00     0.282 C 
HETATM   18  O2  UNL     1       3.093   4.163   9.661  1.00  0.00    -0.263 OA
BRANCH  17  19
HETATM   19  O1  UNL     1       4.384   6.055   9.858  1.00  0.00    -0.320 OA
BRANCH  19  20
HETATM   20  C2  UNL     1       4.989   6.480  11.088  1.00  0.00     0.174 C 
HETATM   21  C1  UNL     1       6.431   6.016  11.156  1.00  0.00     0.034 C 
ENDBRANCH  19  20
ENDBRANCH  17  19
ENDBRANCH  16  17
ENDBRANCH  15  16
ENDBRANCH  12  15
ENDBRANCH   5   7
ENDBRANCH   1   5
BRANCH   2  22
HETATM   22  C12 UNL     1      -4.427   5.892  13.275  1.00  0.00     0.032 A 
HETATM   23  C13 UNL     1      -3.702   4.844  12.693  1.00  0.00     0.018 A 
HETATM   24  C14 UNL     1      -4.362   3.684  12.267  1.00  0.00     0.016 A 
HETATM   25  C15 UNL     1      -5.748   3.561  12.426  1.00  0.00     0.004 A 
HETATM   26  C17 UNL     1      -6.468   4.599  13.030  1.00  0.00     0.016 A 
HETATM   27  C18 UNL     1      -5.810   5.757  13.453  1.00  0.00     0.018 A 
BRANCH  25  28
HETATM   28  C16 UNL     1      -6.458   2.326  11.968  1.00  0.00     0.108 C 
HETATM   29  N4  UNL     1      -5.928   1.616  11.011  1.00  0.00    -0.258 N 
ATOM     30  H4  UNL     1      -5.060   1.849  10.530  1.00  0.00     0.195 HD
BRANCH  28  31
HETATM   31  N3  UNL     1      -7.642   1.963  12.571  1.00  0.00    -0.287 NA
HETATM   32  H20 UNL     1      -7.887   1.022  12.270  1.00  0.00     0.125 HD
HETATM   33  H21 UNL     1      -7.646   2.044  13.582  1.00  0.00     0.125 HD
ENDBRANCH  28  31
BRANCH  29  34
HETATM   34  O6  UNL     1      -6.714   0.484  10.732  1.00  0.00    -0.289 OA
HETATM   35  H22 UNL     1      -6.247   0.101   9.965  1.00  0.00     0.244 HD
ENDBRANCH  29  34
ENDBRANCH  25  28
ENDBRANCH   2  22
TORSDOF 11
ENDMDL
MODEL 7
REMARK minimizedAffinity -7.92164326
REMARK  11 active torsions:
REMARK  status: ('A' for Active; 'I' for Inactive)
REMARK    1  A    between atoms: C2_2  and  O1_3 
REMARK    2  A    between atoms: O1_3  and  C3_4 
REMARK    3  A    between atoms: C3_4  and  C4_6 
REMARK    4  A    between atoms: C4_6  and  O3_7 
REMARK    5  A    between atoms: O3_7  and  C5_8 
REMARK       I    between atoms: N1_11  and  C8_12 
REMARK    6  A    between atoms: C8_12  and  C9_14 
REMARK    7  A    between atoms: C9_14  and  N2_16 
REMARK       I    between atoms: N2_16  and  C11_17 
REMARK    8  A    between atoms: C11_17  and  C12_19 
REMARK    9  A    between atoms: C15_22  and  C16_23 
REMARK   10  A    between atoms: C16_23  and  N3_24 
REMARK   11  A    between atoms: N4_25  and  O6_27 
ROOT
HETATM    1  N2  UNL     1      -4.618   4.965  13.161  1.00  0.00    -0.344 N 
HETATM    2  C11 UNL     1      -5.810   4.315  12.945  1.00  0.00     0.252 C 
HETATM    3  O5  UNL     1      -5.875   3.165  12.523  1.00  0.00    -0.268 OA
HETATM    4  H17 UNL     1      -4.586   5.823  13.702  1.00  0.00     0.163 HD
ENDROOT
BRANCH   1   5
HETATM    5  C9  UNL     1      -3.327   4.297  12.989  1.00  0.00     0.173 C 
HETATM    6  C10 UNL     1      -3.041   4.068  11.510  1.00  0.00     0.042 C 
BRANCH   5   7
HETATM    7  C8  UNL     1      -2.259   5.213  13.633  1.00  0.00     0.242 C 
HETATM    8  N1  UNL     1      -1.218   5.702  12.852  1.00  0.00    -0.350 N 
HETATM    9  C7  UNL     1      -0.901   5.247  11.496  1.00  0.00     0.128 C 
HETATM   10  C19 UNL     1      -0.251   6.596  13.491  1.00  0.00     0.128 C 
HETATM   11  C6  UNL     1       0.602   5.200  11.269  1.00  0.00     0.052 C 
HETATM   12  C5  UNL     1       1.246   6.580  11.450  1.00  0.00     0.125 C 
HETATM   13  C20 UNL     1       0.504   7.446  12.476  1.00  0.00     0.052 C 
HETATM   14  O4  UNL     1      -2.362   5.516  14.832  1.00  0.00    -0.271 OA
BRANCH  12  15
HETATM   15  O3  UNL     1       2.597   6.357  11.873  1.00  0.00    -0.376 OA
BRANCH  15  16
HETATM   16  C4  UNL     1       3.554   7.200  11.241  1.00  0.00     0.279 C 
BRANCH  16  17
HETATM   17  C3  UNL     1       3.695   7.025   9.726  1.00  0.00     0.282 C 
HETATM   18  O2  UNL     1       3.792   5.955   9.140  1.00  0.00    -0.263 OA
BRANCH  17  19
HETATM   19  O1  UNL     1       3.677   8.252   9.125  1.00  0.00    -0.320 OA
BRANCH  19  20
HETATM   20  C2  UNL     1       2.868   8.354   7.943  1.00  0.00     0.174 C 
HETATM   21  C1  UNL     1       1.396   8.322   8.305  1.00  0.00     0.034 C 
ENDBRANCH  19  20
ENDBRANCH  17  19
ENDBRANCH  16  17
ENDBRANCH  15  16
ENDBRANCH  12  15
ENDBRANCH   5   7
ENDBRANCH   1   5
BRANCH   2  22
HETATM   22  C12 UNL     1      -7.051   5.065  13.293  1.00  0.00     0.032 A 
HETATM   23  C13 UNL     1      -8.118   5.208  12.396  1.00  0.00     0.018 A 
HETATM   24  C14 UNL     1      -9.258   5.931  12.767  1.00  0.00     0.016 A 
HETATM   25  C15 UNL     1      -9.343   6.511  14.039  1.00  0.00     0.004 A 
HETATM   26  C17 UNL     1      -8.288   6.347  14.944  1.00  0.00     0.016 A 
HETATM   27  C18 UNL     1      -7.148   5.627  14.574  1.00  0.00     0.018 A 
BRANCH  25  28
HETATM   28  C16 UNL     1     -10.558   7.289  14.440  1.00  0.00     0.108 C 
HETATM   29  N4  UNL     1     -11.593   6.643  14.900  1.00  0.00    -0.258 N 
ATOM     30  H4  UNL     1     -11.647   5.629  14.995  1.00  0.00     0.195 HD
BRANCH  28  31
HETATM   31  N3  UNL     1     -10.550   8.661  14.324  1.00  0.00    -0.287 NA
HETATM   32  H20 UNL     1     -11.369   9.033  14.802  1.00  0.00     0.125 HD
HETATM   33  H21 UNL     1      -9.697   9.110  14.641  1.00  0.00     0.125 HD
ENDBRANCH  28  31
BRANCH  29  34
HETATM   34  O6  UNL     1     -12.625   7.532  15.249  1.00  0.00    -0.289 OA
HETATM   35  H22 UNL     1     -13.341   6.919  15.497  1.00  0.00     0.244 HD
ENDBRANCH  29  34
ENDBRANCH  25  28
ENDBRANCH   2  22
TORSDOF 11
ENDMDL
MODEL 8
REMARK minimizedAffinity -7.88667059
REMARK  11 active torsions:
REMARK  status: ('A' for Active; 'I' for Inactive)
REMARK    1  A    between atoms: C2_2  and  O1_3 
REMARK    2  A    between atoms: O1_3  and  C3_4 
REMARK    3  A    between atoms: C3_4  and  C4_6 
REMARK    4  A    between atoms: C4_6  and  O3_7 
REMARK    5  A    between atoms: O3_7  and  C5_8 
REMARK       I    between atoms: N1_11  and  C8_12 
REMARK    6  A    between atoms: C8_12  and  C9_14 
REMARK    7  A    between atoms: C9_14  and  N2_16 
REMARK       I    between atoms: N2_16  and  C11_17 
REMARK    8  A    between atoms: C11_17  and  C12_19 
REMARK    9  A    between atoms: C15_22  and  C16_23 
REMARK   10  A    between atoms: C16_23  and  N3_24 
REMARK   11  A    between atoms: N4_25  and  O6_27 
ROOT
HETATM    1  N2  UNL     1      -4.259   3.822  12.894  1.00  0.00    -0.344 N 
HETATM    2  C11 UNL     1      -5.465   3.936  12.244  1.00  0.00     0.252 C 
HETATM    3  O5  UNL     1      -5.722   3.333  11.207  1.00  0.00    -0.268 OA
HETATM    4  H17 UNL     1      -4.151   4.158  13.846  1.00  0.00     0.163 HD
ENDROOT
BRANCH   1   5
HETATM    5  C9  UNL     1      -3.219   2.896  12.446  1.00  0.00     0.173 C 
HETATM    6  C10 UNL     1      -3.846   1.673  11.788  1.00  0.00     0.042 C 
BRANCH   5   7
HETATM    7  C8  UNL     1      -2.325   3.674  11.450  1.00  0.00     0.242 C 
HETATM    8  N1  UNL     1      -1.253   4.416  11.932  1.00  0.00    -0.350 N 
HETATM    9  C7  UNL     1      -1.008   4.718  13.345  1.00  0.00     0.128 C 
HETATM   10  C19 UNL     1      -0.411   5.106  10.954  1.00  0.00     0.128 C 
HETATM   11  C6  UNL     1      -0.455   6.125  13.518  1.00  0.00     0.052 C 
HETATM   12  C5  UNL     1       0.873   6.307  12.775  1.00  0.00     0.125 C 
HETATM   13  C20 UNL     1       0.967   5.438  11.515  1.00  0.00     0.052 C 
HETATM   14  O4  UNL     1      -2.567   3.606  10.236  1.00  0.00    -0.271 OA
BRANCH  12  15
HETATM   15  O3  UNL     1       0.971   7.695  12.429  1.00  0.00    -0.376 OA
BRANCH  15  16
HETATM   16  C4  UNL     1       1.963   7.984  11.451  1.00  0.00     0.279 C 
BRANCH  16  17
HETATM   17  C3  UNL     1       1.447   8.205  10.027  1.00  0.00     0.282 C 
HETATM   18  O2  UNL     1       0.402   8.766   9.727  1.00  0.00    -0.263 OA
BRANCH  17  19
HETATM   19  O1  UNL     1       2.347   7.693   9.135  1.00  0.00    -0.320 OA
BRANCH  19  20
HETATM   20  C2  UNL     1       2.319   8.271   7.821  1.00  0.00     0.174 C 
HETATM   21  C1  UNL     1       1.909   7.233   6.795  1.00  0.00     0.034 C 
ENDBRANCH  19  20
ENDBRANCH  17  19
ENDBRANCH  16  17
ENDBRANCH  15  16
ENDBRANCH  12  15
ENDBRANCH   5   7
ENDBRANCH   1   5
BRANCH   2  22
HETATM   22  C12 UNL     1      -6.490   4.808  12.886  1.00  0.00     0.032 A 
HETATM   23  C13 UNL     1      -6.173   5.708  13.912  1.00  0.00     0.018 A 
HETATM   24  C14 UNL     1      -7.174   6.499  14.489  1.00  0.00     0.016 A 
HETATM   25  C15 UNL     1      -8.498   6.400  14.041  1.00  0.00     0.004 A 
HETATM   26  C17 UNL     1      -8.810   5.518  13.000  1.00  0.00     0.016 A 
HETATM   27  C18 UNL     1      -7.811   4.727  12.424  1.00  0.00     0.018 A 
BRANCH  25  28
HETATM   28  C16 UNL     1      -9.573   7.239  14.658  1.00  0.00     0.108 C 
HETATM   29  N4  UNL     1     -10.741   6.702  14.874  1.00  0.00    -0.258 N 
ATOM     30  H4  UNL     1     -10.990   5.742  14.634  1.00  0.00     0.195 HD
BRANCH  28  31
HETATM   31  N3  UNL     1      -9.302   8.547  14.993  1.00  0.00    -0.287 NA
HETATM   32  H20 UNL     1     -10.070   8.906  15.557  1.00  0.00     0.125 HD
HETATM   33  H21 UNL     1      -8.407   8.693  15.447  1.00  0.00     0.125 HD
ENDBRANCH  28  31
BRANCH  29  34
HETATM   34  O6  UNL     1     -11.613   7.624  15.480  1.00  0.00    -0.289 OA
HETATM   35  H22 UNL     1     -12.448   7.119  15.509  1.00  0.00     0.244 HD
ENDBRANCH  29  34
ENDBRANCH  25  28
ENDBRANCH   2  22
TORSDOF 11
ENDMDL
MODEL 9
REMARK minimizedAffinity -7.85223913
REMARK  11 active torsions:
REMARK  status: ('A' for Active; 'I' for Inactive)
REMARK    1  A    between atoms: C2_2  and  O1_3 
REMARK    2  A    between atoms: O1_3  and  C3_4 
REMARK    3  A    between atoms: C3_4  and  C4_6 
REMARK    4  A    between atoms: C4_6  and  O3_7 
REMARK    5  A    between atoms: O3_7  and  C5_8 
REMARK       I    between atoms: N1_11  and  C8_12 
REMARK    6  A    between atoms: C8_12  and  C9_14 
REMARK    7  A    between atoms: C9_14  and  N2_16 
REMARK       I    between atoms: N2_16  and  C11_17 
REMARK    8  A    between atoms: C11_17  and  C12_19 
REMARK    9  A    between atoms: C15_22  and  C16_23 
REMARK   10  A    between atoms: C16_23  and  N3_24 
REMARK   11  A    between atoms: N4_25  and  O6_27 
ROOT
HETATM    1  N2  UNL     1      -1.086   6.240  11.722  1.00  0.00    -0.344 N 
HETATM    2  C11 UNL     1      -1.253   4.892  11.507  1.00  0.00     0.252 C 
HETATM    3  O5  UNL     1      -0.325   4.145  11.214  1.00  0.00    -0.268 OA
HETATM    4  H17 UNL     1      -1.818   6.788  12.164  1.00  0.00     0.163 HD
ENDROOT
BRANCH   1   5
HETATM    5  C9  UNL     1       0.234   6.872  11.708  1.00  0.00     0.173 C 
HETATM    6  C10 UNL     1       0.639   7.223  10.282  1.00  0.00     0.042 C 
BRANCH   5   7
HETATM    7  C8  UNL     1       0.134   8.138  12.592  1.00  0.00     0.242 C 
HETATM    8  N1  UNL     1       1.053   8.329  13.617  1.00  0.00    -0.350 N 
HETATM    9  C7  UNL     1       1.999   7.318  14.097  1.00  0.00     0.128 C 
HETATM   10  C19 UNL     1       0.946   9.558  14.405  1.00  0.00     0.128 C 
HETATM   11  C6  UNL     1       2.169   7.396  15.606  1.00  0.00     0.052 C 
HETATM   12  C5  UNL     1       2.702   8.764  16.046  1.00  0.00     0.125 C 
HETATM   13  C20 UNL     1       2.249   9.898  15.118  1.00  0.00     0.052 C 
HETATM   14  O4  UNL     1      -0.752   8.974  12.357  1.00  0.00    -0.271 OA
BRANCH  12  15
HETATM   15  O3  UNL     1       2.222   8.990  17.378  1.00  0.00    -0.376 OA
BRANCH  15  16
HETATM   16  C4  UNL     1       2.209  10.358  17.769  1.00  0.00     0.279 C 
BRANCH  16  17
HETATM   17  C3  UNL     1       2.752  10.654  19.169  1.00  0.00     0.282 C 
HETATM   18  O2  UNL     1       3.368  11.659  19.496  1.00  0.00    -0.263 OA
BRANCH  17  19
HETATM   19  O1  UNL     1       2.425   9.626  20.008  1.00  0.00    -0.320 OA
BRANCH  19  20
HETATM   20  C2  UNL     1       2.418   9.943  21.408  1.00  0.00     0.174 C 
HETATM   21  C1  UNL     1       2.377   8.674  22.238  1.00  0.00     0.034 C 
ENDBRANCH  19  20
ENDBRANCH  17  19
ENDBRANCH  16  17
ENDBRANCH  15  16
ENDBRANCH  12  15
ENDBRANCH   5   7
ENDBRANCH   1   5
BRANCH   2  22
HETATM   22  C12 UNL     1      -2.631   4.352  11.689  1.00  0.00     0.032 A 
HETATM   23  C13 UNL     1      -3.211   3.456  10.782  1.00  0.00     0.018 A 
HETATM   24  C14 UNL     1      -4.513   2.986  10.993  1.00  0.00     0.016 A 
HETATM   25  C15 UNL     1      -5.242   3.403  12.114  1.00  0.00     0.004 A 
HETATM   26  C17 UNL     1      -4.652   4.280  13.033  1.00  0.00     0.016 A 
HETATM   27  C18 UNL     1      -3.353   4.751  12.822  1.00  0.00     0.018 A 
BRANCH  25  28
HETATM   28  C16 UNL     1      -6.635   2.907  12.342  1.00  0.00     0.108 C 
HETATM   29  N4  UNL     1      -7.524   3.733  12.819  1.00  0.00    -0.258 N 
ATOM     30  H4  UNL     1      -7.337   4.704  13.070  1.00  0.00     0.195 HD
BRANCH  28  31
HETATM   31  N3  UNL     1      -6.948   1.602  12.033  1.00  0.00    -0.287 NA
HETATM   32  H20 UNL     1      -7.959   1.489  12.076  1.00  0.00     0.125 HD
HETATM   33  H21 UNL     1      -6.574   1.272  11.150  1.00  0.00     0.125 HD
ENDBRANCH  28  31
BRANCH  29  34
HETATM   34  O6  UNL     1      -8.777   3.106  12.942  1.00  0.00    -0.289 OA
HETATM   35  H22 UNL     1      -9.308   3.803  13.371  1.00  0.00     0.244 HD
ENDBRANCH  29  34
ENDBRANCH  25  28
ENDBRANCH   2  22
TORSDOF 11
ENDMDL
