MODEL 1
REMARK minimizedAffinity -9.05630302
REMARK  11 active torsions:
REMARK  status: ('A' for Active; 'I' for Inactive)
REMARK    1  A    between atoms: C2_2  and  C3_3 
REMARK    2  A    between atoms: C2_2  and  C4_5 
REMARK    3  A    between atoms: C3_3  and  O1_4 
REMARK    4  A    between atoms: C13_14  and  C14_15 
REMARK    5  A    between atoms: C14_15  and  C16_17 
REMARK    6  A    between atoms: C16_17  and  C17_18 
REMARK    7  A    between atoms: C17_18  and  C18_20 
REMARK    8  A    between atoms: C27_29  and  C28_30 
REMARK    9  A    between atoms: C28_30  and  C29_31 
REMARK   10  A    between atoms: C29_31  and  C30_32 
REMARK   11  A    between atoms: C30_32  and  O4_34 
ROOT
HETATM    1  C4  UNL     1      -4.013   3.862  12.572  1.00  0.00     0.025 C 
HETATM    2  C5  UNL     1      -4.148   5.308  13.079  1.00  0.00     0.010 C 
HETATM    3  C6  UNL     1      -2.821   5.806  13.642  1.00  0.00     0.007 C 
HETATM    4  C7  UNL     1      -1.804   5.994  12.510  1.00  0.00     0.004 C 
HETATM    5  C8  UNL     1      -1.615   4.696  11.682  1.00  0.00    -0.027 A 
HETATM    6  C9  UNL     1      -0.174   4.204  11.461  1.00  0.00     0.011 C 
HETATM    7  C10 UNL     1       0.952   5.254  11.386  1.00  0.00     0.011 C 
HETATM    8  C11 UNL     1       0.514   6.677  11.742  1.00  0.00    -0.032 C 
HETATM    9  C12 UNL     1      -0.116   7.300  10.464  1.00  0.00     0.016 C 
HETATM   10  C13 UNL     1       1.648   7.602  12.286  1.00  0.00    -0.002 C 
HETATM   11  C22 UNL     1       0.887   8.655  13.129  1.00  0.00     0.006 C 
HETATM   12  C23 UNL     1      -0.525   8.090  13.383  1.00  0.00     0.011 C 
HETATM   13  C24 UNL     1      -0.456   6.606  12.971  1.00  0.00    -0.032 C 
HETATM   14  C25 UNL     1       0.100   5.827  14.203  1.00  0.00     0.016 C 
HETATM   15  C26 UNL     1      -2.550   4.566  10.492  1.00  0.00     0.022 A 
HETATM   16  C27 UNL     1      -2.773   3.643  11.666  1.00  0.00    -0.024 A 
ENDROOT
BRANCH  10  17
HETATM   17  C14 UNL     1       2.705   8.148  11.284  1.00  0.00    -0.007 C 
HETATM   18  C15 UNL     1       2.032   8.407   9.922  1.00  0.00     0.011 C 
BRANCH  17  19
HETATM   19  C16 UNL     1       3.932   7.242  11.049  1.00  0.00     0.087 C 
BRANCH  19  20
HETATM   20  C17 UNL     1       3.828   6.448   9.753  1.00  0.00     0.149 C 
HETATM   21  O2  UNL     1       4.408   5.375   9.605  1.00  0.00    -0.293 OA
BRANCH  20  22
HETATM   22  C18 UNL     1       2.957   7.032   8.684  1.00  0.00     0.052 C 
HETATM   23  C19 UNL     1       2.589   6.420   7.541  1.00  0.00    -0.084 C 
HETATM   24  C20 UNL     1       2.966   5.012   7.167  1.00  0.00     0.043 C 
HETATM   25  C21 UNL     1       1.739   7.138   6.527  1.00  0.00     0.043 C 
ENDBRANCH  20  22
ENDBRANCH  19  20
ENDBRANCH  17  19
ENDBRANCH  10  17
BRANCH  16  26
HETATM   26  C28 UNL     1      -2.459   2.161  11.411  1.00  0.00     0.021 C 
BRANCH  26  27
HETATM   27  C29 UNL     1      -0.977   1.816  11.556  1.00  0.00     0.111 C 
BRANCH  27  28
HETATM   28  C30 UNL     1      -0.554   0.787  10.544  1.00  0.00     0.139 C 
HETATM   29  O3  UNL     1      -0.837   0.746   9.360  1.00  0.00    -0.650 OA
BRANCH  28  30
HETATM   30  O4  UNL     1       0.205  -0.179  11.101  1.00  0.00    -0.776 OA
HETATM   31  H46 UNL     1       0.401  -0.788  10.357  1.00  0.00     0.167 HD
ENDBRANCH  28  30
ENDBRANCH  27  28
ENDBRANCH  26  27
ENDBRANCH  16  26
BRANCH   1  32
HETATM   32  C2  UNL     1      -5.367   3.373  12.039  1.00  0.00    -0.061 C 
HETATM   33  C1  UNL     1      -6.427   3.113  12.828  1.00  0.00     0.017 C 
BRANCH  32  34
HETATM   34  C3  UNL     1      -5.413   3.199  10.533  1.00  0.00     0.198 C 
BRANCH  34  35
HETATM   35  O1  UNL     1      -5.819   1.892  10.155  1.00  0.00    -0.397 OA
HETATM   36  H5  UNL     1      -6.702   1.758  10.540  1.00  0.00     0.209 HD
ENDBRANCH  34  35
ENDBRANCH  32  34
ENDBRANCH   1  32
TORSDOF 11
ENDMDL
MODEL 2
REMARK minimizedAffinity -8.58543015
REMARK  11 active torsions:
REMARK  status: ('A' for Active; 'I' for Inactive)
REMARK    1  A    between atoms: C2_2  and  C3_3 
REMARK    2  A    between atoms: C2_2  and  C4_5 
REMARK    3  A    between atoms: C3_3  and  O1_4 
REMARK    4  A    between atoms: C13_14  and  C14_15 
REMARK    5  A    between atoms: C14_15  and  C16_17 
REMARK    6  A    between atoms: C16_17  and  C17_18 
REMARK    7  A    between atoms: C17_18  and  C18_20 
REMARK    8  A    between atoms: C27_29  and  C28_30 
REMARK    9  A    between atoms: C28_30  and  C29_31 
REMARK   10  A    between atoms: C29_31  and  C30_32 
REMARK   11  A    between atoms: C30_32  and  O4_34 
ROOT
HETATM    1  C4  UNL     1      -2.572   3.860  11.536  1.00  0.00     0.025 C 
HETATM    2  C5  UNL     1      -1.169   4.377  11.901  1.00  0.00     0.010 C 
HETATM    3  C6  UNL     1      -1.154   5.901  11.950  1.00  0.00     0.007 C 
HETATM    4  C7  UNL     1      -1.964   6.399  13.154  1.00  0.00     0.004 C 
HETATM    5  C8  UNL     1      -3.414   5.848  13.142  1.00  0.00    -0.027 A 
HETATM    6  C9  UNL     1      -4.556   6.867  13.301  1.00  0.00     0.011 C 
HETATM    7  C10 UNL     1      -4.293   8.133  14.140  1.00  0.00     0.011 C 
HETATM    8  C11 UNL     1      -2.833   8.319  14.562  1.00  0.00    -0.032 C 
HETATM    9  C12 UNL     1      -2.607   7.459  15.838  1.00  0.00     0.016 C 
HETATM   10  C13 UNL     1      -2.405   9.796  14.829  1.00  0.00    -0.002 C 
HETATM   11  C22 UNL     1      -0.874   9.782  14.594  1.00  0.00     0.006 C 
HETATM   12  C23 UNL     1      -0.552   8.483  13.828  1.00  0.00     0.011 C 
HETATM   13  C24 UNL     1      -1.914   7.935  13.353  1.00  0.00    -0.032 C 
HETATM   14  C25 UNL     1      -2.246   8.666  12.015  1.00  0.00     0.016 C 
HETATM   15  C26 UNL     1      -3.594   4.531  13.875  1.00  0.00     0.022 A 
HETATM   16  C27 UNL     1      -3.703   4.518  12.369  1.00  0.00    -0.024 A 
ENDROOT
BRANCH  10  17
HETATM   17  C14 UNL     1      -2.900  10.488  16.132  1.00  0.00    -0.007 C 
HETATM   18  C15 UNL     1      -4.147  11.337  15.818  1.00  0.00     0.011 C 
BRANCH  17  19
HETATM   19  C16 UNL     1      -1.869  11.392  16.841  1.00  0.00     0.087 C 
BRANCH  19  20
HETATM   20  C17 UNL     1      -2.029  11.379  18.355  1.00  0.00     0.149 C 
HETATM   21  O2  UNL     1      -3.045  11.800  18.902  1.00  0.00    -0.293 OA
BRANCH  20  22
HETATM   22  C18 UNL     1      -0.892  10.796  19.138  1.00  0.00     0.052 C 
HETATM   23  C19 UNL     1       0.099  11.491  19.729  1.00  0.00    -0.084 C 
HETATM   24  C20 UNL     1       0.204  12.993  19.736  1.00  0.00     0.043 C 
HETATM   25  C21 UNL     1       1.209  10.777  20.454  1.00  0.00     0.043 C 
ENDBRANCH  20  22
ENDBRANCH  19  20
ENDBRANCH  17  19
ENDBRANCH  10  17
BRANCH  16  26
HETATM   26  C28 UNL     1      -5.109   4.245  11.810  1.00  0.00     0.021 C 
BRANCH  26  27
HETATM   27  C29 UNL     1      -6.045   3.574  12.814  1.00  0.00     0.111 C 
BRANCH  27  28
HETATM   28  C30 UNL     1      -7.439   4.131  12.718  1.00  0.00     0.139 C 
HETATM   29  O3  UNL     1      -7.806   5.120  12.107  1.00  0.00    -0.650 OA
BRANCH  28  30
HETATM   30  O4  UNL     1      -8.318   3.405  13.438  1.00  0.00    -0.776 OA
HETATM   31  H46 UNL     1      -9.173   3.870  13.310  1.00  0.00     0.167 HD
ENDBRANCH  28  30
ENDBRANCH  27  28
ENDBRANCH  26  27
ENDBRANCH  16  26
BRANCH   1  32
HETATM   32  C2  UNL     1      -2.556   2.327  11.463  1.00  0.00    -0.061 C 
HETATM   33  C1  UNL     1      -3.618   1.557  11.769  1.00  0.00     0.017 C 
BRANCH  32  34
HETATM   34  C3  UNL     1      -1.230   1.742  11.017  1.00  0.00     0.198 C 
BRANCH  34  35
HETATM   35  O1  UNL     1      -1.257   1.320   9.661  1.00  0.00    -0.397 OA
HETATM   36  H5  UNL     1      -1.476   2.108   9.134  1.00  0.00     0.209 HD
ENDBRANCH  34  35
ENDBRANCH  32  34
ENDBRANCH   1  32
TORSDOF 11
ENDMDL
MODEL 3
REMARK minimizedAffinity -8.54005432
REMARK  11 active torsions:
REMARK  status: ('A' for Active; 'I' for Inactive)
REMARK    1  A    between atoms: C2_2  and  C3_3 
REMARK    2  A    between atoms: C2_2  and  C4_5 
REMARK    3  A    between atoms: C3_3  and  O1_4 
REMARK    4  A    between atoms: C13_14  and  C14_15 
REMARK    5  A    between atoms: C14_15  and  C16_17 
REMARK    6  A    between atoms: C16_17  and  C17_18 
REMARK    7  A    between atoms: C17_18  and  C18_20 
REMARK    8  A    between atoms: C27_29  and  C28_30 
REMARK    9  A    between atoms: C28_30  and  C29_31 
REMARK   10  A    between atoms: C29_31  and  C30_32 
REMARK   11  A    between atoms: C30_32  and  O4_34 
ROOT
HETATM    1  C4  UNL     1       3.758   8.145  11.038  1.00  0.00     0.025 C 
HETATM    2  C5  UNL     1       3.348   8.845  12.345  1.00  0.00     0.010 C 
HETATM    3  C6  UNL     1       1.849   9.125  12.356  1.00  0.00     0.007 C 
HETATM    4  C7  UNL     1       1.066   7.812  12.477  1.00  0.00     0.004 C 
HETATM    5  C8  UNL     1       1.445   6.809  11.356  1.00  0.00    -0.027 A 
HETATM    6  C9  UNL     1       0.293   6.186  10.549  1.00  0.00     0.011 C 
HETATM    7  C10 UNL     1      -1.061   5.970  11.256  1.00  0.00     0.011 C 
HETATM    8  C11 UNL     1      -1.151   6.595  12.650  1.00  0.00    -0.032 C 
HETATM    9  C12 UNL     1      -0.501   5.596  13.649  1.00  0.00     0.016 C 
HETATM   10  C13 UNL     1      -2.595   6.958  13.120  1.00  0.00    -0.002 C 
HETATM   11  C22 UNL     1      -2.369   8.084  14.159  1.00  0.00     0.006 C 
HETATM   12  C23 UNL     1      -0.932   8.601  13.953  1.00  0.00     0.011 C 
HETATM   13  C24 UNL     1      -0.467   8.004  12.609  1.00  0.00    -0.032 C 
HETATM   14  C25 UNL     1      -0.992   8.959  11.492  1.00  0.00     0.016 C 
HETATM   15  C26 UNL     1       2.590   5.875  11.707  1.00  0.00     0.022 A 
HETATM   16  C27 UNL     1       2.846   6.945  10.672  1.00  0.00    -0.024 A 
ENDROOT
BRANCH  10  17
HETATM   17  C14 UNL     1      -3.550   5.804  13.544  1.00  0.00    -0.007 C 
HETATM   18  C15 UNL     1      -3.566   5.694  15.080  1.00  0.00     0.011 C 
BRANCH  17  19
HETATM   19  C16 UNL     1      -3.214   4.414  12.965  1.00  0.00     0.087 C 
BRANCH  19  20
HETATM   20  C17 UNL     1      -4.254   3.936  11.961  1.00  0.00     0.149 C 
HETATM   21  O2  UNL     1      -3.973   3.742  10.781  1.00  0.00    -0.293 OA
BRANCH  20  22
HETATM   22  C18 UNL     1      -5.630   3.686  12.498  1.00  0.00     0.052 C 
HETATM   23  C19 UNL     1      -6.403   2.615  12.226  1.00  0.00    -0.084 C 
HETATM   24  C20 UNL     1      -5.985   1.459  11.358  1.00  0.00     0.043 C 
HETATM   25  C21 UNL     1      -7.790   2.506  12.802  1.00  0.00     0.043 C 
ENDBRANCH  20  22
ENDBRANCH  19  20
ENDBRANCH  17  19
ENDBRANCH  10  17
BRANCH  16  26
HETATM   26  C28 UNL     1       3.051   6.440   9.235  1.00  0.00     0.021 C 
BRANCH  26  27
HETATM   27  C29 UNL     1       2.671   7.464   8.167  1.00  0.00     0.111 C 
BRANCH  27  28
HETATM   28  C30 UNL     1       2.135   6.793   6.932  1.00  0.00     0.139 C 
HETATM   29  O3  UNL     1       1.398   7.268   6.086  1.00  0.00    -0.650 OA
BRANCH  28  30
HETATM   30  O4  UNL     1       2.550   5.513   6.839  1.00  0.00    -0.776 OA
HETATM   31  H46 UNL     1       2.129   5.185   6.016  1.00  0.00     0.167 HD
ENDBRANCH  28  30
ENDBRANCH  27  28
ENDBRANCH  26  27
ENDBRANCH  16  26
BRANCH   1  32
HETATM   32  C2  UNL     1       5.274   7.900  11.037  1.00  0.00    -0.061 C 
HETATM   33  C1  UNL     1       5.829   6.679  11.163  1.00  0.00     0.017 C 
BRANCH  32  34
HETATM   34  C3  UNL     1       6.105   9.159  10.884  1.00  0.00     0.198 C 
BRANCH  34  35
HETATM   35  O1  UNL     1       5.640   9.984   9.826  1.00  0.00    -0.397 OA
HETATM   36  H5  UNL     1       4.718  10.209  10.039  1.00  0.00     0.209 HD
ENDBRANCH  34  35
ENDBRANCH  32  34
ENDBRANCH   1  32
TORSDOF 11
ENDMDL
MODEL 4
REMARK minimizedAffinity -8.45077991
REMARK  11 active torsions:
REMARK  status: ('A' for Active; 'I' for Inactive)
REMARK    1  A    between atoms: C2_2  and  C3_3 
REMARK    2  A    between atoms: C2_2  and  C4_5 
REMARK    3  A    between atoms: C3_3  and  O1_4 
REMARK    4  A    between atoms: C13_14  and  C14_15 
REMARK    5  A    between atoms: C14_15  and  C16_17 
REMARK    6  A    between atoms: C16_17  and  C17_18 
REMARK    7  A    between atoms: C17_18  and  C18_20 
REMARK    8  A    between atoms: C27_29  and  C28_30 
REMARK    9  A    between atoms: C28_30  and  C29_31 
REMARK   10  A    between atoms: C29_31  and  C30_32 
REMARK   11  A    between atoms: C30_32  and  O4_34 
ROOT
HETATM    1  C4  UNL     1      -4.065   3.882  12.507  1.00  0.00     0.025 C 
HETATM    2  C5  UNL     1      -4.111   5.370  12.896  1.00  0.00     0.010 C 
HETATM    3  C6  UNL     1      -2.768   5.818  13.463  1.00  0.00     0.007 C 
HETATM    4  C7  UNL     1      -1.709   5.846  12.355  1.00  0.00     0.004 C 
HETATM    5  C8  UNL     1      -1.590   4.476  11.637  1.00  0.00    -0.027 A 
HETATM    6  C9  UNL     1      -0.181   3.870  11.504  1.00  0.00     0.011 C 
HETATM    7  C10 UNL     1       1.019   4.831  11.386  1.00  0.00     0.011 C 
HETATM    8  C11 UNL     1       0.672   6.304  11.616  1.00  0.00    -0.032 C 
HETATM    9  C12 UNL     1       0.125   6.866  10.273  1.00  0.00     0.016 C 
HETATM   10  C13 UNL     1       1.853   7.190  12.125  1.00  0.00    -0.002 C 
HETATM   11  C22 UNL     1       1.145   8.357  12.858  1.00  0.00     0.006 C 
HETATM   12  C23 UNL     1      -0.310   7.912  13.106  1.00  0.00     0.011 C 
HETATM   13  C24 UNL     1      -0.334   6.398  12.813  1.00  0.00    -0.032 C 
HETATM   14  C25 UNL     1       0.129   5.683  14.120  1.00  0.00     0.016 C 
HETATM   15  C26 UNL     1      -2.497   4.316  10.430  1.00  0.00     0.022 A 
HETATM   16  C27 UNL     1      -2.818   3.507  11.664  1.00  0.00    -0.024 A 
ENDROOT
BRANCH  10  17
HETATM   17  C14 UNL     1       2.975   7.580  11.120  1.00  0.00    -0.007 C 
HETATM   18  C15 UNL     1       2.336   8.046   9.798  1.00  0.00     0.011 C 
BRANCH  17  19
HETATM   19  C16 UNL     1       3.997   6.470  10.795  1.00  0.00     0.087 C 
BRANCH  19  20
HETATM   20  C17 UNL     1       5.418   6.857  11.183  1.00  0.00     0.149 C 
HETATM   21  O2  UNL     1       6.369   6.659  10.431  1.00  0.00    -0.293 OA
BRANCH  20  22
HETATM   22  C18 UNL     1       5.586   7.519  12.516  1.00  0.00     0.052 C 
HETATM   23  C19 UNL     1       5.797   8.834  12.725  1.00  0.00    -0.084 C 
HETATM   24  C20 UNL     1       5.857   9.873  11.638  1.00  0.00     0.043 C 
HETATM   25  C21 UNL     1       5.991   9.366  14.120  1.00  0.00     0.043 C 
ENDBRANCH  20  22
ENDBRANCH  19  20
ENDBRANCH  17  19
ENDBRANCH  10  17
BRANCH  16  26
HETATM   26  C28 UNL     1      -2.603   1.991  11.535  1.00  0.00     0.021 C 
BRANCH  26  27
HETATM   27  C29 UNL     1      -1.150   1.560  11.731  1.00  0.00     0.111 C 
BRANCH  27  28
HETATM   28  C30 UNL     1      -0.660   0.741  10.569  1.00  0.00     0.139 C 
HETATM   29  O3  UNL     1      -0.934   0.883   9.390  1.00  0.00    -0.650 OA
BRANCH  28  30
HETATM   30  O4  UNL     1       0.152  -0.257  10.969  1.00  0.00    -0.776 OA
HETATM   31  H46 UNL     1       0.388  -0.721  10.137  1.00  0.00     0.167 HD
ENDBRANCH  28  30
ENDBRANCH  27  28
ENDBRANCH  26  27
ENDBRANCH  16  26
BRANCH   1  32
HETATM   32  C2  UNL     1      -5.434   3.446  11.967  1.00  0.00    -0.061 C 
HETATM   33  C1  UNL     1      -6.556   3.431  12.712  1.00  0.00     0.017 C 
BRANCH  32  34
HETATM   34  C3  UNL     1      -5.420   3.024  10.511  1.00  0.00     0.198 C 
BRANCH  34  35
HETATM   35  O1  UNL     1      -5.818   1.672  10.339  1.00  0.00    -0.397 OA
HETATM   36  H5  UNL     1      -6.717   1.603  10.704  1.00  0.00     0.209 HD
ENDBRANCH  34  35
ENDBRANCH  32  34
ENDBRANCH   1  32
TORSDOF 11
ENDMDL
MODEL 5
REMARK minimizedAffinity -8.4410429
REMARK  11 active torsions:
REMARK  status: ('A' for Active; 'I' for Inactive)
REMARK    1  A    between atoms: C2_2  and  C3_3 
REMARK    2  A    between atoms: C2_2  and  C4_5 
REMARK    3  A    between atoms: C3_3  and  O1_4 
REMARK    4  A    between atoms: C13_14  and  C14_15 
REMARK    5  A    between atoms: C14_15  and  C16_17 
REMARK    6  A    between atoms: C16_17  and  C17_18 
REMARK    7  A    between atoms: C17_18  and  C18_20 
REMARK    8  A    between atoms: C27_29  and  C28_30 
REMARK    9  A    between atoms: C28_30  and  C29_31 
REMARK   10  A    between atoms: C29_31  and  C30_32 
REMARK   11  A    between atoms: C30_32  and  O4_34 
ROOT
HETATM    1  C4  UNL     1      -0.144   6.981  12.007  1.00  0.00     0.025 C 
HETATM    2  C5  UNL     1      -0.365   8.235  12.870  1.00  0.00     0.010 C 
HETATM    3  C6  UNL     1      -1.846   8.593  12.926  1.00  0.00     0.007 C 
HETATM    4  C7  UNL     1      -2.614   7.546  13.741  1.00  0.00     0.004 C 
HETATM    5  C8  UNL     1      -2.399   6.112  13.187  1.00  0.00    -0.027 A 
HETATM    6  C9  UNL     1      -3.656   5.268  12.911  1.00  0.00     0.011 C 
HETATM    7  C10 UNL     1      -4.900   5.502  13.792  1.00  0.00     0.011 C 
HETATM    8  C11 UNL     1      -4.793   6.708  14.729  1.00  0.00    -0.032 C 
HETATM    9  C12 UNL     1      -4.018   6.244  15.994  1.00  0.00     0.016 C 
HETATM   10  C13 UNL     1      -6.156   7.348  15.140  1.00  0.00    -0.002 C 
HETATM   11  C22 UNL     1      -5.782   8.809  15.493  1.00  0.00     0.006 C 
HETATM   12  C23 UNL     1      -4.383   9.068  14.899  1.00  0.00     0.011 C 
HETATM   13  C24 UNL     1      -4.112   7.884  13.949  1.00  0.00    -0.032 C 
HETATM   14  C25 UNL     1      -4.780   8.245  12.586  1.00  0.00     0.016 C 
HETATM   15  C26 UNL     1      -1.223   5.371  13.797  1.00  0.00     0.022 A 
HETATM   16  C27 UNL     1      -1.106   5.816  12.359  1.00  0.00    -0.024 A 
ENDROOT
BRANCH  10  17
HETATM   17  C14 UNL     1      -7.051   6.594  16.167  1.00  0.00    -0.007 C 
HETATM   18  C15 UNL     1      -7.443   5.221  15.589  1.00  0.00     0.011 C 
BRANCH  17  19
HETATM   19  C16 UNL     1      -8.343   7.324  16.590  1.00  0.00     0.087 C 
BRANCH  19  20
HETATM   20  C17 UNL     1      -9.101   7.898  15.400  1.00  0.00     0.149 C 
HETATM   21  O2  UNL     1      -9.618   7.174  14.553  1.00  0.00    -0.293 OA
BRANCH  20  22
HETATM   22  C18 UNL     1      -9.209   9.391  15.338  1.00  0.00     0.052 C 
HETATM   23  C19 UNL     1     -10.229  10.089  14.802  1.00  0.00    -0.084 C 
HETATM   24  C20 UNL     1     -11.466   9.472  14.206  1.00  0.00     0.043 C 
HETATM   25  C21 UNL     1     -10.194  11.594  14.767  1.00  0.00     0.043 C 
ENDBRANCH  20  22
ENDBRANCH  19  20
ENDBRANCH  17  19
ENDBRANCH  10  17
BRANCH  16  26
HETATM   26  C28 UNL     1      -1.104   4.688  11.315  1.00  0.00     0.021 C 
BRANCH  26  27
HETATM   27  C29 UNL     1      -0.482   3.387  11.822  1.00  0.00     0.111 C 
BRANCH  27  28
HETATM   28  C30 UNL     1      -0.930   2.210  10.999  1.00  0.00     0.139 C 
HETATM   29  O3  UNL     1      -0.533   1.061  11.067  1.00  0.00    -0.650 OA
BRANCH  28  30
HETATM   30  O4  UNL     1      -1.863   2.561  10.091  1.00  0.00    -0.776 OA
HETATM   31  H46 UNL     1      -2.058   1.726   9.615  1.00  0.00     0.167 HD
ENDBRANCH  28  30
ENDBRANCH  27  28
ENDBRANCH  26  27
ENDBRANCH  16  26
BRANCH   1  32
HETATM   32  C2  UNL     1       1.356   6.657  11.940  1.00  0.00    -0.061 C 
HETATM   33  C1  UNL     1       1.931   6.010  10.909  1.00  0.00     0.017 C 
BRANCH  32  34
HETATM   34  C3  UNL     1       2.144   7.126  13.147  1.00  0.00     0.198 C 
BRANCH  34  35
HETATM   35  O1  UNL     1       1.981   6.265  14.264  1.00  0.00    -0.397 OA
HETATM   36  H5  UNL     1       2.287   5.387  13.979  1.00  0.00     0.209 HD
ENDBRANCH  34  35
ENDBRANCH  32  34
ENDBRANCH   1  32
TORSDOF 11
ENDMDL
MODEL 6
REMARK minimizedAffinity -8.43482685
REMARK  11 active torsions:
REMARK  status: ('A' for Active; 'I' for Inactive)
REMARK    1  A    between atoms: C2_2  and  C3_3 
REMARK    2  A    between atoms: C2_2  and  C4_5 
REMARK    3  A    between atoms: C3_3  and  O1_4 
REMARK    4  A    between atoms: C13_14  and  C14_15 
REMARK    5  A    between atoms: C14_15  and  C16_17 
REMARK    6  A    between atoms: C16_17  and  C17_18 
REMARK    7  A    between atoms: C17_18  and  C18_20 
REMARK    8  A    between atoms: C27_29  and  C28_30 
REMARK    9  A    between atoms: C28_30  and  C29_31 
REMARK   10  A    between atoms: C29_31  and  C30_32 
REMARK   11  A    between atoms: C30_32  and  O4_34 
ROOT
HETATM    1  C4  UNL     1       1.467   8.072  13.376  1.00  0.00     0.025 C 
HETATM    2  C5  UNL     1       0.759   9.114  14.259  1.00  0.00     0.010 C 
HETATM    3  C6  UNL     1      -0.672   9.339  13.783  1.00  0.00     0.007 C 
HETATM    4  C7  UNL     1      -1.525   8.098  14.067  1.00  0.00     0.004 C 
HETATM    5  C8  UNL     1      -0.914   6.820  13.434  1.00  0.00    -0.027 A 
HETATM    6  C9  UNL     1      -1.840   5.951  12.566  1.00  0.00     0.011 C 
HETATM    7  C10 UNL     1      -3.342   5.912  12.913  1.00  0.00     0.011 C 
HETATM    8  C11 UNL     1      -3.768   6.919  13.985  1.00  0.00    -0.032 C 
HETATM    9  C12 UNL     1      -3.460   6.280  15.368  1.00  0.00     0.016 C 
HETATM   10  C13 UNL     1      -5.264   7.359  13.920  1.00  0.00    -0.002 C 
HETATM   11  C22 UNL     1      -5.266   8.749  14.604  1.00  0.00     0.006 C 
HETATM   12  C23 UNL     1      -3.801   9.226  14.652  1.00  0.00     0.011 C 
HETATM   13  C24 UNL     1      -3.026   8.272  13.719  1.00  0.00    -0.032 C 
HETATM   14  C25 UNL     1      -3.184   8.838  12.273  1.00  0.00     0.016 C 
HETATM   15  C26 UNL     1       0.047   6.067  14.338  1.00  0.00     0.022 A 
HETATM   16  C27 UNL     1       0.624   6.791  13.145  1.00  0.00    -0.024 A 
ENDROOT
BRANCH  10  17
HETATM   17  C14 UNL     1      -6.355   6.354  14.389  1.00  0.00    -0.007 C 
HETATM   18  C15 UNL     1      -6.493   6.429  15.921  1.00  0.00     0.011 C 
BRANCH  17  19
HETATM   19  C16 UNL     1      -6.117   4.880  13.999  1.00  0.00     0.087 C 
BRANCH  19  20
HETATM   20  C17 UNL     1      -7.061   4.410  12.900  1.00  0.00     0.149 C 
HETATM   21  O2  UNL     1      -7.877   5.167  12.381  1.00  0.00    -0.293 OA
BRANCH  20  22
HETATM   22  C18 UNL     1      -6.918   2.983  12.467  1.00  0.00     0.052 C 
HETATM   23  C19 UNL     1      -6.001   2.507  11.601  1.00  0.00    -0.084 C 
HETATM   24  C20 UNL     1      -4.928   3.339  10.951  1.00  0.00     0.043 C 
HETATM   25  C21 UNL     1      -5.992   1.051  11.218  1.00  0.00     0.043 C 
ENDBRANCH  20  22
ENDBRANCH  19  20
ENDBRANCH  17  19
ENDBRANCH  10  17
BRANCH  16  26
HETATM   26  C28 UNL     1       1.178   5.890  12.030  1.00  0.00     0.021 C 
BRANCH  26  27
HETATM   27  C29 UNL     1       1.388   6.618  10.703  1.00  0.00     0.111 C 
BRANCH  27  28
HETATM   28  C30 UNL     1       2.388   5.901   9.838  1.00  0.00     0.139 C 
HETATM   29  O3  UNL     1       2.377   5.787   8.626  1.00  0.00    -0.650 OA
BRANCH  28  30
HETATM   30  O4  UNL     1       3.364   5.330  10.572  1.00  0.00    -0.776 OA
HETATM   31  H46 UNL     1       3.935   4.888   9.908  1.00  0.00     0.167 HD
ENDBRANCH  28  30
ENDBRANCH  27  28
ENDBRANCH  26  27
ENDBRANCH  16  26
BRANCH   1  32
HETATM   32  C2  UNL     1       2.913   7.884  13.855  1.00  0.00    -0.061 C 
HETATM   33  C1  UNL     1       3.966   7.795  13.020  1.00  0.00     0.017 C 
BRANCH  32  34
HETATM   34  C3  UNL     1       3.060   7.803  15.362  1.00  0.00     0.198 C 
BRANCH  34  35
HETATM   35  O1  UNL     1       3.141   6.462  15.822  1.00  0.00    -0.397 OA
HETATM   36  H5  UNL     1       3.915   6.068  15.383  1.00  0.00     0.209 HD
ENDBRANCH  34  35
ENDBRANCH  32  34
ENDBRANCH   1  32
TORSDOF 11
ENDMDL
MODEL 7
REMARK minimizedAffinity -8.43417358
REMARK  11 active torsions:
REMARK  status: ('A' for Active; 'I' for Inactive)
REMARK    1  A    between atoms: C2_2  and  C3_3 
REMARK    2  A    between atoms: C2_2  and  C4_5 
REMARK    3  A    between atoms: C3_3  and  O1_4 
REMARK    4  A    between atoms: C13_14  and  C14_15 
REMARK    5  A    between atoms: C14_15  and  C16_17 
REMARK    6  A    between atoms: C16_17  and  C17_18 
REMARK    7  A    between atoms: C17_18  and  C18_20 
REMARK    8  A    between atoms: C27_29  and  C28_30 
REMARK    9  A    between atoms: C28_30  and  C29_31 
REMARK   10  A    between atoms: C29_31  and  C30_32 
REMARK   11  A    between atoms: C30_32  and  O4_34 
ROOT
HETATM    1  C4  UNL     1       1.038   6.538  11.679  1.00  0.00     0.025 C 
HETATM    2  C5  UNL     1      -0.054   5.667  11.035  1.00  0.00     0.010 C 
HETATM    3  C6  UNL     1      -1.074   5.225  12.078  1.00  0.00     0.007 C 
HETATM    4  C7  UNL     1      -1.906   6.424  12.547  1.00  0.00     0.004 C 
HETATM    5  C8  UNL     1      -1.011   7.573  13.082  1.00  0.00    -0.027 A 
HETATM    6  C9  UNL     1      -1.355   8.147  14.468  1.00  0.00     0.011 C 
HETATM    7  C10 UNL     1      -2.831   8.139  14.916  1.00  0.00     0.011 C 
HETATM    8  C11 UNL     1      -3.769   7.368  13.984  1.00  0.00    -0.032 C 
HETATM    9  C12 UNL     1      -4.155   8.324  12.820  1.00  0.00     0.016 C 
HETATM   10  C13 UNL     1      -5.057   6.802  14.662  1.00  0.00    -0.002 C 
HETATM   11  C22 UNL     1      -5.451   5.607  13.760  1.00  0.00     0.006 C 
HETATM   12  C23 UNL     1      -4.218   5.274  12.895  1.00  0.00     0.011 C 
HETATM   13  C24 UNL     1      -3.048   6.054  13.528  1.00  0.00    -0.032 C 
HETATM   14  C25 UNL     1      -2.498   5.167  14.689  1.00  0.00     0.016 C 
HETATM   15  C26 UNL     1      -0.590   8.585  12.032  1.00  0.00     0.022 A 
HETATM   16  C27 UNL     1       0.470   7.662  12.585  1.00  0.00    -0.024 A 
ENDROOT
BRANCH  10  17
HETATM   17  C14 UNL     1      -6.196   7.795  15.035  1.00  0.00    -0.007 C 
HETATM   18  C15 UNL     1      -5.584   9.160  15.404  1.00  0.00     0.011 C 
BRANCH  17  19
HETATM   19  C16 UNL     1      -7.115   7.352  16.192  1.00  0.00     0.087 C 
BRANCH  19  20
HETATM   20  C17 UNL     1      -8.160   6.337  15.748  1.00  0.00     0.149 C 
HETATM   21  O2  UNL     1      -8.025   5.134  15.962  1.00  0.00    -0.293 OA
BRANCH  20  22
HETATM   22  C18 UNL     1      -9.374   6.888  15.065  1.00  0.00     0.052 C 
HETATM   23  C19 UNL     1      -9.707   6.703  13.773  1.00  0.00    -0.084 C 
HETATM   24  C20 UNL     1      -8.923   5.862  12.801  1.00  0.00     0.043 C 
HETATM   25  C21 UNL     1     -10.939   7.350  13.198  1.00  0.00     0.043 C 
ENDBRANCH  20  22
ENDBRANCH  19  20
ENDBRANCH  17  19
ENDBRANCH  10  17
BRANCH  16  26
HETATM   26  C28 UNL     1       1.536   8.332  13.466  1.00  0.00     0.021 C 
BRANCH  26  27
HETATM   27  C29 UNL     1       2.310   7.349  14.344  1.00  0.00     0.111 C 
BRANCH  27  28
HETATM   28  C30 UNL     1       2.328   7.796  15.780  1.00  0.00     0.139 C 
HETATM   29  O3  UNL     1       3.022   8.663  16.281  1.00  0.00    -0.650 OA
BRANCH  28  30
HETATM   30  O4  UNL     1       1.464   7.087  16.534  1.00  0.00    -0.776 OA
HETATM   31  H46 UNL     1       1.579   7.454  17.437  1.00  0.00     0.167 HD
ENDBRANCH  28  30
ENDBRANCH  27  28
ENDBRANCH  26  27
ENDBRANCH  16  26
BRANCH   1  32
HETATM   32  C2  UNL     1       2.068   6.947  10.617  1.00  0.00    -0.061 C 
HETATM   33  C1  UNL     1       1.818   7.846   9.647  1.00  0.00     0.017 C 
BRANCH  32  34
HETATM   34  C3  UNL     1       3.405   6.243  10.749  1.00  0.00     0.198 C 
BRANCH  34  35
HETATM   35  O1  UNL     1       4.402   6.827   9.924  1.00  0.00    -0.397 OA
HETATM   36  H5  UNL     1       4.479   7.756  10.203  1.00  0.00     0.209 HD
ENDBRANCH  34  35
ENDBRANCH  32  34
ENDBRANCH   1  32
TORSDOF 11
ENDMDL
MODEL 8
REMARK minimizedAffinity -8.38526058
REMARK  11 active torsions:
REMARK  status: ('A' for Active; 'I' for Inactive)
REMARK    1  A    between atoms: C2_2  and  C3_3 
REMARK    2  A    between atoms: C2_2  and  C4_5 
REMARK    3  A    between atoms: C3_3  and  O1_4 
REMARK    4  A    between atoms: C13_14  and  C14_15 
REMARK    5  A    between atoms: C14_15  and  C16_17 
REMARK    6  A    between atoms: C16_17  and  C17_18 
REMARK    7  A    between atoms: C17_18  and  C18_20 
REMARK    8  A    between atoms: C27_29  and  C28_30 
REMARK    9  A    between atoms: C28_30  and  C29_31 
REMARK   10  A    between atoms: C29_31  and  C30_32 
REMARK   11  A    between atoms: C30_32  and  O4_34 
ROOT
HETATM    1  C4  UNL     1      -2.523   4.082  12.404  1.00  0.00     0.025 C 
HETATM    2  C5  UNL     1      -3.668   3.927  11.389  1.00  0.00     0.010 C 
HETATM    3  C6  UNL     1      -5.005   3.778  12.107  1.00  0.00     0.007 C 
HETATM    4  C7  UNL     1      -5.396   5.100  12.778  1.00  0.00     0.004 C 
HETATM    5  C8  UNL     1      -4.290   5.606  13.742  1.00  0.00    -0.027 A 
HETATM    6  C9  UNL     1      -4.719   5.982  15.171  1.00  0.00     0.011 C 
HETATM    7  C10 UNL     1      -6.143   6.533  15.385  1.00  0.00     0.011 C 
HETATM    8  C11 UNL     1      -7.042   6.456  14.149  1.00  0.00    -0.032 C 
HETATM    9  C12 UNL     1      -6.724   7.696  13.267  1.00  0.00     0.016 C 
HETATM   10  C13 UNL     1      -8.573   6.390  14.447  1.00  0.00    -0.002 C 
HETATM   11  C22 UNL     1      -9.161   5.697  13.193  1.00  0.00     0.006 C 
HETATM   12  C23 UNL     1      -7.980   5.038  12.452  1.00  0.00     0.011 C 
HETATM   13  C24 UNL     1      -6.797   5.080  13.441  1.00  0.00    -0.032 C 
HETATM   14  C25 UNL     1      -6.943   3.830  14.363  1.00  0.00     0.016 C 
HETATM   15  C26 UNL     1      -3.262   6.519  13.098  1.00  0.00     0.022 A 
HETATM   16  C27 UNL     1      -2.817   5.134  13.506  1.00  0.00    -0.024 A 
ENDROOT
BRANCH  10  17
HETATM   17  C14 UNL     1      -9.292   7.685  14.925  1.00  0.00    -0.007 C 
HETATM   18  C15 UNL     1      -8.897   7.979  16.385  1.00  0.00     0.011 C 
BRANCH  17  19
HETATM   19  C16 UNL     1     -10.833   7.663  14.839  1.00  0.00     0.087 C 
BRANCH  19  20
HETATM   20  C17 UNL     1     -11.380   8.757  13.932  1.00  0.00     0.149 C 
HETATM   21  O2  UNL     1     -10.830   9.852  13.836  1.00  0.00    -0.293 OA
BRANCH  20  22
HETATM   22  C18 UNL     1     -12.605   8.414  13.142  1.00  0.00     0.052 C 
HETATM   23  C19 UNL     1     -13.416   7.360  13.358  1.00  0.00    -0.084 C 
HETATM   24  C20 UNL     1     -13.243   6.364  14.474  1.00  0.00     0.043 C 
HETATM   25  C21 UNL     1     -14.598   7.105  12.460  1.00  0.00     0.043 C 
ENDBRANCH  20  22
ENDBRANCH  19  20
ENDBRANCH  17  19
ENDBRANCH  10  17
BRANCH  16  26
HETATM   26  C28 UNL     1      -1.831   5.076  14.683  1.00  0.00     0.021 C 
BRANCH  26  27
HETATM   27  C29 UNL     1      -0.692   6.089  14.576  1.00  0.00     0.111 C 
BRANCH  27  28
HETATM   28  C30 UNL     1      -0.684   7.029  15.750  1.00  0.00     0.139 C 
HETATM   29  O3  UNL     1      -1.550   7.823  16.075  1.00  0.00    -0.650 OA
BRANCH  28  30
HETATM   30  O4  UNL     1       0.459   6.934  16.459  1.00  0.00    -0.776 OA
HETATM   31  H46 UNL     1       0.352   7.596  17.176  1.00  0.00     0.167 HD
ENDBRANCH  28  30
ENDBRANCH  27  28
ENDBRANCH  26  27
ENDBRANCH  16  26
BRANCH   1  32
HETATM   32  C2  UNL     1      -1.185   4.200  11.661  1.00  0.00    -0.061 C 
HETATM   33  C1  UNL     1      -0.778   5.323  11.038  1.00  0.00     0.017 C 
BRANCH  32  34
HETATM   34  C3  UNL     1      -0.351   2.934  11.681  1.00  0.00     0.198 C 
BRANCH  34  35
HETATM   35  O1  UNL     1      -0.635   2.086  10.578  1.00  0.00    -0.397 OA
HETATM   36  H5  UNL     1      -0.444   2.606   9.778  1.00  0.00     0.209 HD
ENDBRANCH  34  35
ENDBRANCH  32  34
ENDBRANCH   1  32
TORSDOF 11
ENDMDL
MODEL 9
REMARK minimizedAffinity -8.3707428
REMARK  11 active torsions:
REMARK  status: ('A' for Active; 'I' for Inactive)
REMARK    1  A    between atoms: C2_2  and  C3_3 
REMARK    2  A    between atoms: C2_2  and  C4_5 
REMARK    3  A    between atoms: C3_3  and  O1_4 
REMARK    4  A    between atoms: C13_14  and  C14_15 
REMARK    5  A    between atoms: C14_15  and  C16_17 
REMARK    6  A    between atoms: C16_17  and  C17_18 
REMARK    7  A    between atoms: C17_18  and  C18_20 
REMARK    8  A    between atoms: C27_29  and  C28_30 
REMARK    9  A    between atoms: C28_30  and  C29_31 
REMARK   10  A    between atoms: C29_31  and  C30_32 
REMARK   11  A    between atoms: C30_32  and  O4_34 
ROOT
HETATM    1  C4  UNL     1      -5.455   6.896  15.503  1.00  0.00     0.025 C 
HETATM    2  C5  UNL     1      -4.625   8.121  15.925  1.00  0.00     0.010 C 
HETATM    3  C6  UNL     1      -3.135   7.803  15.877  1.00  0.00     0.007 C 
HETATM    4  C7  UNL     1      -2.676   7.635  14.424  1.00  0.00     0.004 C 
HETATM    5  C8  UNL     1      -3.508   6.559  13.677  1.00  0.00    -0.027 A 
HETATM    6  C9  UNL     1      -2.732   5.459  12.932  1.00  0.00     0.011 C 
HETATM    7  C10 UNL     1      -1.350   5.811  12.344  1.00  0.00     0.011 C 
HETATM    8  C11 UNL     1      -0.824   7.190  12.751  1.00  0.00    -0.032 C 
HETATM    9  C12 UNL     1      -1.467   8.232  11.793  1.00  0.00     0.016 C 
HETATM   10  C13 UNL     1       0.731   7.335  12.735  1.00  0.00    -0.002 C 
HETATM   11  C22 UNL     1       1.001   8.482  13.740  1.00  0.00     0.006 C 
HETATM   12  C23 UNL     1      -0.285   8.659  14.573  1.00  0.00     0.011 C 
HETATM   13  C24 UNL     1      -1.149   7.419  14.266  1.00  0.00    -0.032 C 
HETATM   14  C25 UNL     1      -0.660   6.288  15.224  1.00  0.00     0.016 C 
HETATM   15  C26 UNL     1      -4.741   7.095  12.970  1.00  0.00     0.022 A 
HETATM   16  C27 UNL     1      -4.949   6.235  14.194  1.00  0.00    -0.024 A 
ENDROOT
BRANCH  10  17
HETATM   17  C14 UNL     1       1.453   7.432  11.360  1.00  0.00    -0.007 C 
HETATM   18  C15 UNL     1       0.504   8.073  10.330  1.00  0.00     0.011 C 
BRANCH  17  19
HETATM   19  C16 UNL     1       1.964   6.098  10.779  1.00  0.00     0.087 C 
BRANCH  19  20
HETATM   20  C17 UNL     1       2.992   6.302   9.673  1.00  0.00     0.149 C 
HETATM   21  O2  UNL     1       4.189   6.430   9.920  1.00  0.00    -0.293 OA
BRANCH  20  22
HETATM   22  C18 UNL     1       2.467   6.306   8.270  1.00  0.00     0.052 C 
HETATM   23  C19 UNL     1       2.422   7.371   7.446  1.00  0.00    -0.084 C 
HETATM   24  C20 UNL     1       2.941   8.741   7.792  1.00  0.00     0.043 C 
HETATM   25  C21 UNL     1       1.829   7.248   6.067  1.00  0.00     0.043 C 
ENDBRANCH  20  22
ENDBRANCH  19  20
ENDBRANCH  17  19
ENDBRANCH  10  17
BRANCH  16  26
HETATM   26  C28 UNL     1      -5.565   4.851  13.933  1.00  0.00     0.021 C 
BRANCH  26  27
HETATM   27  C29 UNL     1      -6.680   4.866  12.889  1.00  0.00     0.111 C 
BRANCH  27  28
HETATM   28  C30 UNL     1      -7.397   3.545  12.836  1.00  0.00     0.139 C 
HETATM   29  O3  UNL     1      -6.983   2.490  12.390  1.00  0.00    -0.650 OA
BRANCH  28  30
HETATM   30  O4  UNL     1      -8.644   3.633  13.341  1.00  0.00    -0.776 OA
HETATM   31  H46 UNL     1      -9.009   2.727  13.238  1.00  0.00     0.167 HD
ENDBRANCH  28  30
ENDBRANCH  27  28
ENDBRANCH  26  27
ENDBRANCH  16  26
BRANCH   1  32
HETATM   32  C2  UNL     1      -6.950   7.231  15.588  1.00  0.00    -0.061 C 
HETATM   33  C1  UNL     1      -7.868   6.401  16.121  1.00  0.00     0.017 C 
BRANCH  32  34
HETATM   34  C3  UNL     1      -7.316   8.585  15.012  1.00  0.00     0.198 C 
BRANCH  34  35
HETATM   35  O1  UNL     1      -8.714   8.829  15.060  1.00  0.00    -0.397 OA
HETATM   36  H5  UNL     1      -8.968   8.779  15.997  1.00  0.00     0.209 HD
ENDBRANCH  34  35
ENDBRANCH  32  34
ENDBRANCH   1  32
TORSDOF 11
ENDMDL
