MODEL 1
REMARK minimizedAffinity -7.47769117
REMARK CNNscore 0.692137539
REMARK CNNaffinity 6.72450113
REMARK  11 active torsions:
REMARK  status: ('A' for Active; 'I' for Inactive)
REMARK    1  A    between atoms: C12_13  and  O2_14 
REMARK    2  A    between atoms: C19_21  and  O3_22 
REMARK    3  A    between atoms: C19_21  and  C20_23 
REMARK    4  A    between atoms: C20_23  and  C21_25 
REMARK    5  A    between atoms: C21_25  and  O5_26 
REMARK    6  A    between atoms: O5_26  and  C22_27 
REMARK    7  A    between atoms: C22_27  and  C23_29 
REMARK    8  A    between atoms: C23_29  and  C24_30 
REMARK    9  A    between atoms: C24_30  and  C25_31 
REMARK       I    between atoms: C25_31  and  N1_33 
REMARK   10  A    between atoms: N1_33  and  C26_34 
REMARK   11  A    between atoms: C26_34  and  C27_35 
ROOT
HETATM    1  C1  UNL     1      -3.412  50.366  -9.533  1.00  0.00     0.020 C 
HETATM    2  C2  UNL     1      -3.401  49.547 -10.856  1.00  0.00    -0.014 C 
HETATM    3  C3  UNL     1      -4.849  49.577 -11.431  1.00  0.00     0.022 C 
HETATM    4  C4  UNL     1      -5.849  48.742 -10.638  1.00  0.00     0.084 C 
HETATM    5  C5  UNL     1      -5.360  47.320 -10.570  1.00  0.00     0.149 C 
HETATM    6  O1  UNL     1      -6.121  46.357 -10.580  1.00  0.00    -0.293 OA
HETATM    7  C6  UNL     1      -3.904  47.100 -10.405  1.00  0.00     0.053 C 
HETATM    8  C7  UNL     1      -3.018  48.111 -10.478  1.00  0.00    -0.068 C 
HETATM    9  C8  UNL     1      -1.574  47.818 -10.144  1.00  0.00     0.035 C 
HETATM   10  C9  UNL     1      -0.579  48.814 -10.728  1.00  0.00     0.010 C 
HETATM   11  C10 UNL     1      -1.064  49.372 -12.072  1.00  0.00    -0.002 C 
HETATM   12  C11 UNL     1      -2.335  50.229 -11.833  1.00  0.00     0.031 C 
HETATM   13  C12 UNL     1      -2.855  50.753 -13.188  1.00  0.00     0.124 C 
HETATM   14  C13 UNL     1      -1.794  51.601 -13.896  1.00  0.00     0.045 C 
HETATM   15  C14 UNL     1      -0.368  51.006 -14.029  1.00  0.00     0.001 C 
HETATM   16  C15 UNL     1       0.599  52.216 -14.189  1.00  0.00     0.019 C 
HETATM   17  C16 UNL     1       0.058  50.197 -12.764  1.00  0.00     0.002 C 
HETATM   18  C17 UNL     1       1.201  49.280 -13.254  1.00  0.00     0.009 C 
HETATM   19  C18 UNL     1       1.180  49.294 -14.783  1.00  0.00     0.047 C 
HETATM   20  C19 UNL     1      -0.142  49.979 -15.189  1.00  0.00     0.128 C 
ENDROOT
BRANCH  20  21
HETATM   21  O3  UNL     1      -1.135  48.955 -15.154  1.00  0.00    -0.381 OA
HETATM   22  H27 UNL     1      -0.916  48.329 -15.883  1.00  0.00     0.211 HD
ENDBRANCH  20  21
BRANCH  20  23
HETATM   23  C20 UNL     1      -0.015  50.611 -16.605  1.00  0.00     0.185 C 
HETATM   24  O4  UNL     1       1.039  51.143 -16.977  1.00  0.00    -0.292 OA
BRANCH  23  25
HETATM   25  C21 UNL     1      -1.248  50.692 -17.516  1.00  0.00     0.260 C 
BRANCH  25  26
HETATM   26  O5  UNL     1      -1.474  51.797 -18.376  1.00  0.00    -0.314 OA
BRANCH  26  27
HETATM   27  C22 UNL     1      -0.909  51.694 -19.605  1.00  0.00     0.259 C 
HETATM   28  O6  UNL     1      -1.112  50.766 -20.381  1.00  0.00    -0.265 OA
BRANCH  27  29
HETATM   29  C23 UNL     1      -0.102  52.919 -19.970  1.00  0.00     0.120 C 
BRANCH  29  30
HETATM   30  C24 UNL     1       1.084  52.663 -20.891  1.00  0.00     0.112 C 
BRANCH  30  31
HETATM   31  C25 UNL     1       1.171  53.658 -22.030  1.00  0.00     0.218 C 
HETATM   32  O7  UNL     1       1.740  54.741 -21.943  1.00  0.00    -0.274 OA
HETATM   33  N1  UNL     1       0.520  53.236 -23.166  1.00  0.00    -0.357 N 
HETATM   34  H34 UNL     1       0.245  52.265 -23.238  1.00  0.00     0.162 HD
BRANCH  33  35
HETATM   35  C26 UNL     1       0.535  54.027 -24.376  1.00  0.00     0.162 C 
BRANCH  35  36
HETATM   36  C27 UNL     1       0.539  53.161 -25.601  1.00  0.00    -0.025 A 
HETATM   37  C28 UNL     1       1.048  51.859 -25.582  1.00  0.00     0.011 A 
HETATM   38  C29 UNL     1       1.032  51.096 -26.746  1.00  0.00     0.018 A 
HETATM   39  C30 UNL     1       0.511  51.665 -27.897  1.00  0.00     0.087 A 
HETATM   40  N2  UNL     1       0.023  52.920 -27.958  1.00  0.00    -0.375 N 
HETATM   41  C31 UNL     1       0.050  53.642 -26.814  1.00  0.00     0.096 A 
ATOM     42  H2  UNL     1      -0.350  53.307 -28.825  1.00  0.00     0.164 HD
ENDBRANCH  35  36
ENDBRANCH  33  35
ENDBRANCH  30  31
ENDBRANCH  29  30
ENDBRANCH  27  29
ENDBRANCH  26  27
ENDBRANCH  25  26
ENDBRANCH  23  25
ENDBRANCH  20  23
BRANCH  13  43
HETATM   43  O2  UNL     1      -3.308  49.719 -14.051  1.00  0.00    -0.395 OA
HETATM   44  H16 UNL     1      -2.516  49.246 -14.386  1.00  0.00     0.210 HD
ENDBRANCH  13  43
TORSDOF 11
ENDMDL
MODEL 2
REMARK minimizedAffinity -6.82785416
REMARK CNNscore 0.652393818
REMARK CNNaffinity 6.14237356
REMARK  11 active torsions:
REMARK  status: ('A' for Active; 'I' for Inactive)
REMARK    1  A    between atoms: C12_13  and  O2_14 
REMARK    2  A    between atoms: C19_21  and  O3_22 
REMARK    3  A    between atoms: C19_21  and  C20_23 
REMARK    4  A    between atoms: C20_23  and  C21_25 
REMARK    5  A    between atoms: C21_25  and  O5_26 
REMARK    6  A    between atoms: O5_26  and  C22_27 
REMARK    7  A    between atoms: C22_27  and  C23_29 
REMARK    8  A    between atoms: C23_29  and  C24_30 
REMARK    9  A    between atoms: C24_30  and  C25_31 
REMARK       I    between atoms: C25_31  and  N1_33 
REMARK   10  A    between atoms: N1_33  and  C26_34 
REMARK   11  A    between atoms: C26_34  and  C27_35 
ROOT
HETATM    1  C1  UNL     1      -2.913  48.552 -25.390  1.00  0.00     0.020 C 
HETATM    2  C2  UNL     1      -3.515  49.380 -24.217  1.00  0.00    -0.014 C 
HETATM    3  C3  UNL     1      -4.315  50.560 -24.847  1.00  0.00     0.022 C 
HETATM    4  C4  UNL     1      -3.439  51.636 -25.479  1.00  0.00     0.084 C 
HETATM    5  C5  UNL     1      -2.485  52.167 -24.443  1.00  0.00     0.149 C 
HETATM    6  O1  UNL     1      -2.127  53.341 -24.412  1.00  0.00    -0.293 OA
HETATM    7  C6  UNL     1      -1.905  51.200 -23.482  1.00  0.00     0.053 C 
HETATM    8  C7  UNL     1      -2.328  49.924 -23.412  1.00  0.00    -0.068 C 
HETATM    9  C8  UNL     1      -1.576  48.972 -22.513  1.00  0.00     0.035 C 
HETATM   10  C9  UNL     1      -2.375  47.746 -22.084  1.00  0.00     0.010 C 
HETATM   11  C10 UNL     1      -3.869  48.067 -21.955  1.00  0.00    -0.002 C 
HETATM   12  C11 UNL     1      -4.439  48.396 -23.360  1.00  0.00     0.031 C 
HETATM   13  C12 UNL     1      -5.931  48.766 -23.229  1.00  0.00     0.124 C 
HETATM   14  C13 UNL     1      -6.733  47.616 -22.611  1.00  0.00     0.045 C 
HETATM   15  C14 UNL     1      -6.190  46.981 -21.305  1.00  0.00     0.001 C 
HETATM   16  C15 UNL     1      -6.776  45.539 -21.242  1.00  0.00     0.019 C 
HETATM   17  C16 UNL     1      -4.632  46.882 -21.295  1.00  0.00     0.002 C 
HETATM   18  C17 UNL     1      -4.260  46.745 -19.801  1.00  0.00     0.009 C 
HETATM   19  C18 UNL     1      -5.496  47.115 -18.982  1.00  0.00     0.047 C 
HETATM   20  C19 UNL     1      -6.498  47.746 -19.973  1.00  0.00     0.128 C 
ENDROOT
BRANCH  20  21
HETATM   21  O3  UNL     1      -6.122  49.117 -20.083  1.00  0.00    -0.381 OA
HETATM   22  H27 UNL     1      -6.308  49.528 -19.207  1.00  0.00     0.211 HD
ENDBRANCH  20  21
BRANCH  20  23
HETATM   23  C20 UNL     1      -7.954  47.587 -19.451  1.00  0.00     0.185 C 
HETATM   24  O4  UNL     1      -8.208  46.882 -18.465  1.00  0.00    -0.292 OA
BRANCH  23  25
HETATM   25  C21 UNL     1      -9.117  48.209 -20.236  1.00  0.00     0.260 C 
BRANCH  25  26
HETATM   26  O5  UNL     1     -10.467  48.041 -19.836  1.00  0.00    -0.314 OA
BRANCH  26  27
HETATM   27  C22 UNL     1     -11.080  46.935 -20.326  1.00  0.00     0.259 C 
HETATM   28  O6  UNL     1     -10.611  46.221 -21.208  1.00  0.00    -0.265 OA
BRANCH  27  29
HETATM   29  C23 UNL     1     -12.347  46.599 -19.573  1.00  0.00     0.120 C 
BRANCH  29  30
HETATM   30  C24 UNL     1     -13.470  46.018 -20.423  1.00  0.00     0.112 C 
BRANCH  30  31
HETATM   31  C25 UNL     1     -13.860  46.918 -21.579  1.00  0.00     0.218 C 
HETATM   32  O7  UNL     1     -14.175  48.095 -21.447  1.00  0.00    -0.274 OA
HETATM   33  N1  UNL     1     -13.855  46.268 -22.792  1.00  0.00    -0.357 N 
HETATM   34  H34 UNL     1     -13.402  45.366 -22.860  1.00  0.00     0.162 HD
BRANCH  33  35
HETATM   35  C26 UNL     1     -14.151  46.972 -24.020  1.00  0.00     0.162 C 
BRANCH  35  36
HETATM   36  C27 UNL     1     -15.415  46.470 -24.652  1.00  0.00    -0.025 A 
HETATM   37  C28 UNL     1     -15.401  45.523 -25.679  1.00  0.00     0.011 A 
HETATM   38  C29 UNL     1     -16.601  45.090 -26.236  1.00  0.00     0.018 A 
HETATM   39  C30 UNL     1     -17.782  45.627 -25.748  1.00  0.00     0.087 A 
HETATM   40  N2  UNL     1     -17.836  46.551 -24.767  1.00  0.00    -0.375 N 
HETATM   41  C31 UNL     1     -16.656  46.956 -24.243  1.00  0.00     0.096 A 
ATOM     42  H2  UNL     1     -18.724  46.927 -24.436  1.00  0.00     0.164 HD
ENDBRANCH  35  36
ENDBRANCH  33  35
ENDBRANCH  30  31
ENDBRANCH  29  30
ENDBRANCH  27  29
ENDBRANCH  26  27
ENDBRANCH  25  26
ENDBRANCH  23  25
ENDBRANCH  20  23
BRANCH  13  43
HETATM   43  O2  UNL     1      -6.148  49.962 -22.493  1.00  0.00    -0.395 OA
HETATM   44  H16 UNL     1      -5.976  49.762 -21.548  1.00  0.00     0.210 HD
ENDBRANCH  13  43
TORSDOF 11
ENDMDL
MODEL 3
REMARK minimizedAffinity -7.37034893
REMARK CNNscore 0.638076246
REMARK CNNaffinity 6.76479149
REMARK  11 active torsions:
REMARK  status: ('A' for Active; 'I' for Inactive)
REMARK    1  A    between atoms: C12_13  and  O2_14 
REMARK    2  A    between atoms: C19_21  and  O3_22 
REMARK    3  A    between atoms: C19_21  and  C20_23 
REMARK    4  A    between atoms: C20_23  and  C21_25 
REMARK    5  A    between atoms: C21_25  and  O5_26 
REMARK    6  A    between atoms: O5_26  and  C22_27 
REMARK    7  A    between atoms: C22_27  and  C23_29 
REMARK    8  A    between atoms: C23_29  and  C24_30 
REMARK    9  A    between atoms: C24_30  and  C25_31 
REMARK       I    between atoms: C25_31  and  N1_33 
REMARK   10  A    between atoms: N1_33  and  C26_34 
REMARK   11  A    between atoms: C26_34  and  C27_35 
ROOT
HETATM    1  C1  UNL     1      -3.511  44.029 -17.353  1.00  0.00     0.020 C 
HETATM    2  C2  UNL     1      -4.301  45.327 -17.691  1.00  0.00    -0.014 C 
HETATM    3  C3  UNL     1      -4.788  45.936 -16.341  1.00  0.00     0.022 C 
HETATM    4  C4  UNL     1      -5.902  45.142 -15.668  1.00  0.00     0.084 C 
HETATM    5  C5  UNL     1      -7.064  45.021 -16.618  1.00  0.00     0.149 C 
HETATM    6  O1  UNL     1      -8.232  45.019 -16.239  1.00  0.00    -0.293 OA
HETATM    7  C6  UNL     1      -6.760  44.815 -18.053  1.00  0.00     0.053 C 
HETATM    8  C7  UNL     1      -5.506  44.898 -18.536  1.00  0.00    -0.068 C 
HETATM    9  C8  UNL     1      -5.272  44.522 -19.980  1.00  0.00     0.035 C 
HETATM   10  C9  UNL     1      -4.004  45.112 -20.586  1.00  0.00     0.010 C 
HETATM   11  C10 UNL     1      -3.676  46.483 -19.981  1.00  0.00    -0.002 C 
HETATM   12  C11 UNL     1      -3.310  46.299 -18.484  1.00  0.00     0.031 C 
HETATM   13  C12 UNL     1      -3.026  47.681 -17.858  1.00  0.00     0.124 C 
HETATM   14  C13 UNL     1      -1.876  48.389 -18.581  1.00  0.00     0.045 C 
HETATM   15  C14 UNL     1      -1.941  48.471 -20.128  1.00  0.00     0.001 C 
HETATM   16  C15 UNL     1      -0.473  48.645 -20.620  1.00  0.00     0.019 C 
HETATM   17  C16 UNL     1      -2.526  47.173 -20.768  1.00  0.00     0.002 C 
HETATM   18  C17 UNL     1      -2.998  47.610 -22.173  1.00  0.00     0.009 C 
HETATM   19  C18 UNL     1      -3.023  49.138 -22.197  1.00  0.00     0.047 C 
HETATM   20  C19 UNL     1      -2.848  49.595 -20.733  1.00  0.00     0.128 C 
ENDROOT
BRANCH  20  21
HETATM   21  O3  UNL     1      -4.153  49.552 -20.157  1.00  0.00    -0.381 OA
HETATM   22  H27 UNL     1      -4.677  50.257 -20.603  1.00  0.00     0.211 HD
ENDBRANCH  20  21
BRANCH  20  23
HETATM   23  C20 UNL     1      -2.240  51.026 -20.678  1.00  0.00     0.185 C 
HETATM   24  O4  UNL     1      -1.939  51.552 -19.598  1.00  0.00    -0.292 OA
BRANCH  23  25
HETATM   25  C21 UNL     1      -2.124  51.853 -21.965  1.00  0.00     0.260 C 
BRANCH  25  26
HETATM   26  O5  UNL     1      -3.261  52.407 -22.606  1.00  0.00    -0.314 OA
BRANCH  26  27
HETATM   27  C22 UNL     1      -3.129  52.607 -23.941  1.00  0.00     0.259 C 
HETATM   28  O6  UNL     1      -2.136  53.099 -24.469  1.00  0.00    -0.265 OA
BRANCH  27  29
HETATM   29  C23 UNL     1      -4.287  52.035 -24.725  1.00  0.00     0.120 C 
BRANCH  29  30
HETATM   30  C24 UNL     1      -4.145  50.569 -25.112  1.00  0.00     0.112 C 
BRANCH  30  31
HETATM   31  C25 UNL     1      -3.391  50.373 -26.413  1.00  0.00     0.218 C 
HETATM   32  O7  UNL     1      -3.706  49.548 -27.262  1.00  0.00    -0.274 OA
HETATM   33  N1  UNL     1      -2.296  51.197 -26.529  1.00  0.00    -0.357 N 
HETATM   34  H34 UNL     1      -2.205  51.981 -25.896  1.00  0.00     0.162 HD
BRANCH  33  35
HETATM   35  C26 UNL     1      -1.479  51.193 -27.723  1.00  0.00     0.162 C 
BRANCH  35  36
HETATM   36  C27 UNL     1      -0.025  51.369 -27.396  1.00  0.00    -0.025 A 
HETATM   37  C28 UNL     1       0.921  51.667 -28.381  1.00  0.00     0.011 A 
HETATM   38  C29 UNL     1       2.259  51.818 -28.028  1.00  0.00     0.018 A 
HETATM   39  C30 UNL     1       2.609  51.660 -26.697  1.00  0.00     0.087 A 
HETATM   40  N2  UNL     1       1.727  51.361 -25.720  1.00  0.00    -0.375 N 
HETATM   41  C31 UNL     1       0.433  51.218 -26.089  1.00  0.00     0.096 A 
ATOM     42  H2  UNL     1       2.022  51.249 -24.751  1.00  0.00     0.164 HD
ENDBRANCH  35  36
ENDBRANCH  33  35
ENDBRANCH  30  31
ENDBRANCH  29  30
ENDBRANCH  27  29
ENDBRANCH  26  27
ENDBRANCH  25  26
ENDBRANCH  23  25
ENDBRANCH  20  23
BRANCH  13  43
HETATM   43  O2  UNL     1      -4.170  48.523 -17.819  1.00  0.00    -0.395 OA
HETATM   44  H16 UNL     1      -4.345  48.825 -18.736  1.00  0.00     0.210 HD
ENDBRANCH  13  43
TORSDOF 11
ENDMDL
MODEL 4
REMARK minimizedAffinity -8.58960056
REMARK CNNscore 0.637530565
REMARK CNNaffinity 7.03615427
REMARK  11 active torsions:
REMARK  status: ('A' for Active; 'I' for Inactive)
REMARK    1  A    between atoms: C12_13  and  O2_14 
REMARK    2  A    between atoms: C19_21  and  O3_22 
REMARK    3  A    between atoms: C19_21  and  C20_23 
REMARK    4  A    between atoms: C20_23  and  C21_25 
REMARK    5  A    between atoms: C21_25  and  O5_26 
REMARK    6  A    between atoms: O5_26  and  C22_27 
REMARK    7  A    between atoms: C22_27  and  C23_29 
REMARK    8  A    between atoms: C23_29  and  C24_30 
REMARK    9  A    between atoms: C24_30  and  C25_31 
REMARK       I    between atoms: C25_31  and  N1_33 
REMARK   10  A    between atoms: N1_33  and  C26_34 
REMARK   11  A    between atoms: C26_34  and  C27_35 
ROOT
HETATM    1  C1  UNL     1      -9.011  42.283 -34.083  1.00  0.00     0.020 C 
HETATM    2  C2  UNL     1      -8.893  42.851 -32.638  1.00  0.00    -0.014 C 
HETATM    3  C3  UNL     1      -8.197  41.760 -31.768  1.00  0.00     0.022 C 
HETATM    4  C4  UNL     1      -9.072  40.545 -31.481  1.00  0.00     0.084 C 
HETATM    5  C5  UNL     1     -10.340  40.999 -30.806  1.00  0.00     0.149 C 
HETATM    6  O1  UNL     1     -10.909  40.331 -29.948  1.00  0.00    -0.293 OA
HETATM    7  C6  UNL     1     -10.949  42.267 -31.271  1.00  0.00     0.053 C 
HETATM    8  C7  UNL     1     -10.325  43.082 -32.141  1.00  0.00    -0.068 C 
HETATM    9  C8  UNL     1     -11.086  44.272 -32.675  1.00  0.00     0.035 C 
HETATM   10  C9  UNL     1     -10.204  45.394 -33.211  1.00  0.00     0.010 C 
HETATM   11  C10 UNL     1      -8.879  45.483 -32.443  1.00  0.00    -0.002 C 
HETATM   12  C11 UNL     1      -8.046  44.205 -32.723  1.00  0.00     0.031 C 
HETATM   13  C12 UNL     1      -6.733  44.267 -31.915  1.00  0.00     0.124 C 
HETATM   14  C13 UNL     1      -5.911  45.503 -32.293  1.00  0.00     0.045 C 
HETATM   15  C14 UNL     1      -6.636  46.874 -32.302  1.00  0.00     0.001 C 
HETATM   16  C15 UNL     1      -5.823  47.794 -33.261  1.00  0.00     0.019 C 
HETATM   17  C16 UNL     1      -8.098  46.769 -32.838  1.00  0.00     0.002 C 
HETATM   18  C17 UNL     1      -8.802  48.035 -32.299  1.00  0.00     0.009 C 
HETATM   19  C18 UNL     1      -7.906  48.636 -31.216  1.00  0.00     0.047 C 
HETATM   20  C19 UNL     1      -6.824  47.576 -30.914  1.00  0.00     0.128 C 
ENDROOT
BRANCH  20  21
HETATM   21  O3  UNL     1      -7.413  46.680 -29.973  1.00  0.00    -0.381 OA
HETATM   22  H27 UNL     1      -7.535  47.192 -29.140  1.00  0.00     0.211 HD
ENDBRANCH  20  21
BRANCH  20  23
HETATM   23  C20 UNL     1      -5.544  48.252 -30.345  1.00  0.00     0.185 C 
HETATM   24  O4  UNL     1      -4.715  48.785 -31.094  1.00  0.00    -0.292 OA
BRANCH  23  25
HETATM   25  C21 UNL     1      -5.233  48.151 -28.846  1.00  0.00     0.260 C 
BRANCH  25  26
HETATM   26  O5  UNL     1      -3.909  47.992 -28.364  1.00  0.00    -0.314 OA
BRANCH  26  27
HETATM   27  C22 UNL     1      -3.435  49.029 -27.629  1.00  0.00     0.259 C 
HETATM   28  O6  UNL     1      -3.221  50.151 -28.080  1.00  0.00    -0.265 OA
BRANCH  27  29
HETATM   29  C23 UNL     1      -3.324  48.690 -26.161  1.00  0.00     0.120 C 
BRANCH  29  30
HETATM   30  C24 UNL     1      -3.970  49.694 -25.214  1.00  0.00     0.112 C 
BRANCH  30  31
HETATM   31  C25 UNL     1      -3.051  50.847 -24.861  1.00  0.00     0.218 C 
HETATM   32  O7  UNL     1      -3.445  51.908 -24.392  1.00  0.00    -0.274 OA
HETATM   33  N1  UNL     1      -1.731  50.592 -25.151  1.00  0.00    -0.357 N 
HETATM   34  H34 UNL     1      -1.450  49.641 -25.349  1.00  0.00     0.162 HD
BRANCH  33  35
HETATM   35  C26 UNL     1      -0.696  51.553 -24.839  1.00  0.00     0.162 C 
BRANCH  35  36
HETATM   36  C27 UNL     1       0.301  51.671 -25.953  1.00  0.00    -0.025 A 
HETATM   37  C28 UNL     1      -0.086  51.642 -27.295  1.00  0.00     0.011 A 
HETATM   38  C29 UNL     1       0.879  51.753 -28.293  1.00  0.00     0.018 A 
HETATM   39  C30 UNL     1       2.204  51.884 -27.913  1.00  0.00     0.087 A 
HETATM   40  N2  UNL     1       2.618  51.904 -26.629  1.00  0.00    -0.375 N 
HETATM   41  C31 UNL     1       1.662  51.794 -25.678  1.00  0.00     0.096 A 
ATOM     42  H2  UNL     1       3.604  51.998 -26.387  1.00  0.00     0.164 HD
ENDBRANCH  35  36
ENDBRANCH  33  35
ENDBRANCH  30  31
ENDBRANCH  29  30
ENDBRANCH  27  29
ENDBRANCH  26  27
ENDBRANCH  25  26
ENDBRANCH  23  25
ENDBRANCH  20  23
BRANCH  13  43
HETATM   43  O2  UNL     1      -6.939  44.228 -30.510  1.00  0.00    -0.395 OA
HETATM   44  H16 UNL     1      -7.303  45.099 -30.241  1.00  0.00     0.210 HD
ENDBRANCH  13  43
TORSDOF 11
ENDMDL
MODEL 5
REMARK minimizedAffinity -9.7719183
REMARK CNNscore 0.601787865
REMARK CNNaffinity 7.45370674
REMARK  11 active torsions:
REMARK  status: ('A' for Active; 'I' for Inactive)
REMARK    1  A    between atoms: C12_13  and  O2_14 
REMARK    2  A    between atoms: C19_21  and  O3_22 
REMARK    3  A    between atoms: C19_21  and  C20_23 
REMARK    4  A    between atoms: C20_23  and  C21_25 
REMARK    5  A    between atoms: C21_25  and  O5_26 
REMARK    6  A    between atoms: O5_26  and  C22_27 
REMARK    7  A    between atoms: C22_27  and  C23_29 
REMARK    8  A    between atoms: C23_29  and  C24_30 
REMARK    9  A    between atoms: C24_30  and  C25_31 
REMARK       I    between atoms: C25_31  and  N1_33 
REMARK   10  A    between atoms: N1_33  and  C26_34 
REMARK   11  A    between atoms: C26_34  and  C27_35 
ROOT
HETATM    1  C1  UNL     1      -8.088  45.562 -25.500  1.00  0.00     0.020 C 
HETATM    2  C2  UNL     1      -8.134  47.114 -25.396  1.00  0.00    -0.014 C 
HETATM    3  C3  UNL     1      -9.290  47.478 -24.416  1.00  0.00     0.022 C 
HETATM    4  C4  UNL     1     -10.684  47.231 -24.983  1.00  0.00     0.084 C 
HETATM    5  C5  UNL     1     -10.841  48.009 -26.263  1.00  0.00     0.149 C 
HETATM    6  O1  UNL     1     -11.907  48.511 -26.606  1.00  0.00    -0.293 OA
HETATM    7  C6  UNL     1      -9.669  48.089 -27.166  1.00  0.00     0.053 C 
HETATM    8  C7  UNL     1      -8.455  47.637 -26.802  1.00  0.00    -0.068 C 
HETATM    9  C8  UNL     1      -7.359  47.619 -27.841  1.00  0.00     0.035 C 
HETATM   10  C9  UNL     1      -5.948  47.602 -27.267  1.00  0.00     0.010 C 
HETATM   11  C10 UNL     1      -5.872  48.363 -25.937  1.00  0.00    -0.002 C 
HETATM   12  C11 UNL     1      -6.704  47.602 -24.872  1.00  0.00     0.031 C 
HETATM   13  C12 UNL     1      -6.671  48.389 -23.545  1.00  0.00     0.124 C 
HETATM   14  C13 UNL     1      -5.235  48.562 -23.041  1.00  0.00     0.045 C 
HETATM   15  C14 UNL     1      -4.180  49.098 -24.043  1.00  0.00     0.001 C 
HETATM   16  C15 UNL     1      -2.795  48.610 -23.526  1.00  0.00     0.019 C 
HETATM   17  C16 UNL     1      -4.394  48.540 -25.486  1.00  0.00     0.002 C 
HETATM   18  C17 UNL     1      -3.647  49.534 -26.403  1.00  0.00     0.009 C 
HETATM   19  C18 UNL     1      -3.341  50.784 -25.577  1.00  0.00     0.047 C 
HETATM   20  C19 UNL     1      -4.155  50.647 -24.272  1.00  0.00     0.128 C 
ENDROOT
BRANCH  20  21
HETATM   21  O3  UNL     1      -5.461  51.132 -24.579  1.00  0.00    -0.381 OA
HETATM   22  H27 UNL     1      -5.368  52.099 -24.743  1.00  0.00     0.211 HD
ENDBRANCH  20  21
BRANCH  20  23
HETATM   23  C20 UNL     1      -3.490  51.465 -23.128  1.00  0.00     0.185 C 
HETATM   24  O4  UNL     1      -2.607  52.300 -23.367  1.00  0.00    -0.292 OA
BRANCH  23  25
HETATM   25  C21 UNL     1      -3.837  51.151 -21.667  1.00  0.00     0.260 C 
BRANCH  25  26
HETATM   26  O5  UNL     1      -2.903  50.546 -20.788  1.00  0.00    -0.314 OA
BRANCH  26  27
HETATM   27  C22 UNL     1      -2.457  51.343 -19.784  1.00  0.00     0.259 C 
HETATM   28  O6  UNL     1      -3.158  51.738 -18.856  1.00  0.00    -0.265 OA
BRANCH  27  29
HETATM   29  C23 UNL     1      -0.967  51.584 -19.859  1.00  0.00     0.120 C 
BRANCH  29  30
HETATM   30  C24 UNL     1      -0.281  51.008 -21.091  1.00  0.00     0.112 C 
BRANCH  30  31
HETATM   31  C25 UNL     1       0.538  52.037 -21.845  1.00  0.00     0.218 C 
HETATM   32  O7  UNL     1       1.408  52.726 -21.324  1.00  0.00    -0.274 OA
HETATM   33  N1  UNL     1       0.183  52.142 -23.170  1.00  0.00    -0.357 N 
HETATM   34  H34 UNL     1      -0.395  51.420 -23.578  1.00  0.00     0.162 HD
BRANCH  33  35
HETATM   35  C26 UNL     1       0.884  53.035 -24.065  1.00  0.00     0.162 C 
BRANCH  35  36
HETATM   36  C27 UNL     1       0.677  52.652 -25.500  1.00  0.00    -0.025 A 
HETATM   37  C28 UNL     1       1.605  51.872 -26.197  1.00  0.00     0.011 A 
HETATM   38  C29 UNL     1       1.368  51.544 -27.529  1.00  0.00     0.018 A 
HETATM   39  C30 UNL     1       0.210  52.016 -28.125  1.00  0.00     0.087 A 
HETATM   40  N2  UNL     1      -0.702  52.781 -27.490  1.00  0.00    -0.375 N 
HETATM   41  C31 UNL     1      -0.449  53.086 -26.197  1.00  0.00     0.096 A 
ATOM     42  H2  UNL     1      -1.542  53.113 -27.963  1.00  0.00     0.164 HD
ENDBRANCH  35  36
ENDBRANCH  33  35
ENDBRANCH  30  31
ENDBRANCH  29  30
ENDBRANCH  27  29
ENDBRANCH  26  27
ENDBRANCH  25  26
ENDBRANCH  23  25
ENDBRANCH  20  23
BRANCH  13  43
HETATM   43  O2  UNL     1      -7.315  49.654 -23.629  1.00  0.00    -0.395 OA
HETATM   44  H16 UNL     1      -6.732  50.246 -24.150  1.00  0.00     0.210 HD
ENDBRANCH  13  43
TORSDOF 11
ENDMDL
MODEL 6
REMARK minimizedAffinity -6.92767048
REMARK CNNscore 0.587832808
REMARK CNNaffinity 6.27046442
REMARK  11 active torsions:
REMARK  status: ('A' for Active; 'I' for Inactive)
REMARK    1  A    between atoms: C12_13  and  O2_14 
REMARK    2  A    between atoms: C19_21  and  O3_22 
REMARK    3  A    between atoms: C19_21  and  C20_23 
REMARK    4  A    between atoms: C20_23  and  C21_25 
REMARK    5  A    between atoms: C21_25  and  O5_26 
REMARK    6  A    between atoms: O5_26  and  C22_27 
REMARK    7  A    between atoms: C22_27  and  C23_29 
REMARK    8  A    between atoms: C23_29  and  C24_30 
REMARK    9  A    between atoms: C24_30  and  C25_31 
REMARK       I    between atoms: C25_31  and  N1_33 
REMARK   10  A    between atoms: N1_33  and  C26_34 
REMARK   11  A    between atoms: C26_34  and  C27_35 
ROOT
HETATM    1  C1  UNL     1     -13.532  43.455 -26.520  1.00  0.00     0.020 C 
HETATM    2  C2  UNL     1     -12.908  44.857 -26.260  1.00  0.00    -0.014 C 
HETATM    3  C3  UNL     1     -12.366  44.858 -24.798  1.00  0.00     0.022 C 
HETATM    4  C4  UNL     1     -13.457  44.877 -23.733  1.00  0.00     0.084 C 
HETATM    5  C5  UNL     1     -14.336  46.081 -23.948  1.00  0.00     0.149 C 
HETATM    6  O1  UNL     1     -14.847  46.702 -23.021  1.00  0.00    -0.293 OA
HETATM    7  C6  UNL     1     -14.648  46.463 -25.346  1.00  0.00     0.053 C 
HETATM    8  C7  UNL     1     -14.046  45.876 -26.397  1.00  0.00    -0.068 C 
HETATM    9  C8  UNL     1     -14.538  46.219 -27.783  1.00  0.00     0.035 C 
HETATM   10  C9  UNL     1     -13.528  45.952 -28.893  1.00  0.00     0.010 C 
HETATM   11  C10 UNL     1     -12.089  46.159 -28.406  1.00  0.00    -0.002 C 
HETATM   12  C11 UNL     1     -11.754  45.077 -27.346  1.00  0.00     0.031 C 
HETATM   13  C12 UNL     1     -10.324  45.310 -26.817  1.00  0.00     0.124 C 
HETATM   14  C13 UNL     1      -9.298  45.244 -27.952  1.00  0.00     0.045 C 
HETATM   15  C14 UNL     1      -9.576  46.089 -29.223  1.00  0.00     0.001 C 
HETATM   16  C15 UNL     1      -8.792  45.406 -30.383  1.00  0.00     0.019 C 
HETATM   17  C16 UNL     1     -11.091  46.115 -29.598  1.00  0.00     0.002 C 
HETATM   18  C17 UNL     1     -11.247  47.361 -30.500  1.00  0.00     0.009 C 
HETATM   19  C18 UNL     1      -9.980  48.203 -30.347  1.00  0.00     0.047 C 
HETATM   20  C19 UNL     1      -9.211  47.610 -29.147  1.00  0.00     0.128 C 
ENDROOT
BRANCH  20  21
HETATM   21  O3  UNL     1      -9.785  48.208 -27.986  1.00  0.00    -0.381 OA
HETATM   22  H27 UNL     1      -9.547  49.163 -28.018  1.00  0.00     0.211 HD
ENDBRANCH  20  21
BRANCH  20  23
HETATM   23  C20 UNL     1      -7.692  47.923 -29.266  1.00  0.00     0.185 C 
HETATM   24  O4  UNL     1      -7.230  48.485 -30.268  1.00  0.00    -0.292 OA
BRANCH  23  25
HETATM   25  C21 UNL     1      -6.724  47.420 -28.187  1.00  0.00     0.260 C 
BRANCH  25  26
HETATM   26  O5  UNL     1      -5.810  48.286 -27.535  1.00  0.00    -0.314 OA
BRANCH  26  27
HETATM   27  C22 UNL     1      -4.529  48.207 -27.973  1.00  0.00     0.259 C 
HETATM   28  O6  UNL     1      -4.210  48.084 -29.152  1.00  0.00    -0.265 OA
BRANCH  27  29
HETATM   29  C23 UNL     1      -3.527  48.420 -26.861  1.00  0.00     0.120 C 
BRANCH  29  30
HETATM   30  C24 UNL     1      -3.985  49.354 -25.748  1.00  0.00     0.112 C 
BRANCH  30  31
HETATM   31  C25 UNL     1      -4.445  48.612 -24.509  1.00  0.00     0.218 C 
HETATM   32  O7  UNL     1      -5.513  48.014 -24.433  1.00  0.00    -0.274 OA
HETATM   33  N1  UNL     1      -3.555  48.704 -23.464  1.00  0.00    -0.357 N 
HETATM   34  H34 UNL     1      -2.618  49.039 -23.650  1.00  0.00     0.162 HD
BRANCH  33  35
HETATM   35  C26 UNL     1      -3.794  48.020 -22.213  1.00  0.00     0.162 C 
BRANCH  35  36
HETATM   36  C27 UNL     1      -4.914  48.655 -21.443  1.00  0.00    -0.025 A 
HETATM   37  C28 UNL     1      -5.927  47.894 -20.853  1.00  0.00     0.011 A 
HETATM   38  C29 UNL     1      -6.947  48.530 -20.150  1.00  0.00     0.018 A 
HETATM   39  C30 UNL     1      -6.923  49.913 -20.066  1.00  0.00     0.087 A 
HETATM   40  N2  UNL     1      -5.970  50.682 -20.632  1.00  0.00    -0.375 N 
HETATM   41  C31 UNL     1      -4.991  50.040 -21.310  1.00  0.00     0.096 A 
ATOM     42  H2  UNL     1      -5.987  51.698 -20.553  1.00  0.00     0.164 HD
ENDBRANCH  35  36
ENDBRANCH  33  35
ENDBRANCH  30  31
ENDBRANCH  29  30
ENDBRANCH  27  29
ENDBRANCH  26  27
ENDBRANCH  25  26
ENDBRANCH  23  25
ENDBRANCH  20  23
BRANCH  13  43
HETATM   43  O2  UNL     1     -10.184  46.530 -26.102  1.00  0.00    -0.395 OA
HETATM   44  H16 UNL     1     -10.204  47.259 -26.757  1.00  0.00     0.210 HD
ENDBRANCH  13  43
TORSDOF 11
ENDMDL
MODEL 7
REMARK minimizedAffinity -7.78364372
REMARK CNNscore 0.580199003
REMARK CNNaffinity 6.8691926
REMARK  11 active torsions:
REMARK  status: ('A' for Active; 'I' for Inactive)
REMARK    1  A    between atoms: C12_13  and  O2_14 
REMARK    2  A    between atoms: C19_21  and  O3_22 
REMARK    3  A    between atoms: C19_21  and  C20_23 
REMARK    4  A    between atoms: C20_23  and  C21_25 
REMARK    5  A    between atoms: C21_25  and  O5_26 
REMARK    6  A    between atoms: O5_26  and  C22_27 
REMARK    7  A    between atoms: C22_27  and  C23_29 
REMARK    8  A    between atoms: C23_29  and  C24_30 
REMARK    9  A    between atoms: C24_30  and  C25_31 
REMARK       I    between atoms: C25_31  and  N1_33 
REMARK   10  A    between atoms: N1_33  and  C26_34 
REMARK   11  A    between atoms: C26_34  and  C27_35 
ROOT
HETATM    1  C1  UNL     1      -0.525  49.103 -20.453  1.00  0.00     0.020 C 
HETATM    2  C2  UNL     1      -1.430  49.678 -19.325  1.00  0.00    -0.014 C 
HETATM    3  C3  UNL     1      -2.715  48.797 -19.269  1.00  0.00     0.022 C 
HETATM    4  C4  UNL     1      -3.652  48.992 -20.456  1.00  0.00     0.084 C 
HETATM    5  C5  UNL     1      -4.038  50.444 -20.547  1.00  0.00     0.149 C 
HETATM    6  O1  UNL     1      -5.147  50.813 -20.923  1.00  0.00    -0.293 OA
HETATM    7  C6  UNL     1      -2.995  51.453 -20.244  1.00  0.00     0.053 C 
HETATM    8  C7  UNL     1      -1.794  51.108 -19.743  1.00  0.00    -0.068 C 
HETATM    9  C8  UNL     1      -0.742  52.183 -19.612  1.00  0.00     0.035 C 
HETATM   10  C9  UNL     1       0.355  51.870 -18.600  1.00  0.00     0.010 C 
HETATM   11  C10 UNL     1      -0.180  51.030 -17.434  1.00  0.00    -0.002 C 
HETATM   12  C11 UNL     1      -0.590  49.632 -17.965  1.00  0.00     0.031 C 
HETATM   13  C12 UNL     1      -1.174  48.799 -16.805  1.00  0.00     0.124 C 
HETATM   14  C13 UNL     1      -0.152  48.634 -15.675  1.00  0.00     0.045 C 
HETATM   15  C14 UNL     1       0.557  49.911 -15.155  1.00  0.00     0.001 C 
HETATM   16  C15 UNL     1       1.898  49.440 -14.519  1.00  0.00     0.019 C 
HETATM   17  C16 UNL     1       0.881  50.919 -16.301  1.00  0.00     0.002 C 
HETATM   18  C17 UNL     1       1.073  52.275 -15.585  1.00  0.00     0.009 C 
HETATM   19  C18 UNL     1       0.528  52.128 -14.165  1.00  0.00     0.047 C 
HETATM   20  C19 UNL     1      -0.243  50.791 -14.135  1.00  0.00     0.128 C 
ENDROOT
BRANCH  20  21
HETATM   21  O3  UNL     1      -1.545  51.084 -14.638  1.00  0.00    -0.381 OA
HETATM   22  H27 UNL     1      -1.978  51.664 -13.970  1.00  0.00     0.211 HD
ENDBRANCH  20  21
BRANCH  20  23
HETATM   23  C20 UNL     1      -0.298  50.225 -12.687  1.00  0.00     0.185 C 
HETATM   24  O4  UNL     1       0.135  49.096 -12.424  1.00  0.00    -0.292 OA
BRANCH  23  25
HETATM   25  C21 UNL     1      -1.010  51.021 -11.586  1.00  0.00     0.260 C 
BRANCH  25  26
HETATM   26  O5  UNL     1      -0.293  51.739 -10.595  1.00  0.00    -0.314 OA
BRANCH  26  27
HETATM   27  C22 UNL     1      -1.059  52.448  -9.729  1.00  0.00     0.259 C 
HETATM   28  O6  UNL     1      -1.646  51.959  -8.769  1.00  0.00    -0.265 OA
BRANCH  27  29
HETATM   29  C23 UNL     1      -1.006  53.934  -9.999  1.00  0.00     0.120 C 
BRANCH  29  30
HETATM   30  C24 UNL     1       0.112  54.383 -10.932  1.00  0.00     0.112 C 
BRANCH  30  31
HETATM   31  C25 UNL     1       1.215  55.134 -10.212  1.00  0.00     0.218 C 
HETATM   32  O7  UNL     1       1.080  55.636  -9.102  1.00  0.00    -0.274 OA
HETATM   33  N1  UNL     1       2.375  55.221 -10.946  1.00  0.00    -0.357 N 
HETATM   34  H34 UNL     1       2.485  54.626 -11.756  1.00  0.00     0.162 HD
BRANCH  33  35
HETATM   35  C26 UNL     1       3.556  55.857 -10.407  1.00  0.00     0.162 C 
BRANCH  35  36
HETATM   36  C27 UNL     1       4.579  54.847  -9.978  1.00  0.00    -0.025 A 
HETATM   37  C28 UNL     1       5.882  55.218  -9.632  1.00  0.00     0.011 A 
HETATM   38  C29 UNL     1       6.796  54.242  -9.243  1.00  0.00     0.018 A 
HETATM   39  C30 UNL     1       6.376  52.922  -9.219  1.00  0.00     0.087 A 
HETATM   40  N2  UNL     1       5.133  52.524  -9.557  1.00  0.00    -0.375 N 
HETATM   41  C31 UNL     1       4.264  53.491  -9.933  1.00  0.00     0.096 A 
ATOM     42  H2  UNL     1       4.861  51.542  -9.531  1.00  0.00     0.164 HD
ENDBRANCH  35  36
ENDBRANCH  33  35
ENDBRANCH  30  31
ENDBRANCH  29  30
ENDBRANCH  27  29
ENDBRANCH  26  27
ENDBRANCH  25  26
ENDBRANCH  23  25
ENDBRANCH  20  23
BRANCH  13  43
HETATM   43  O2  UNL     1      -2.388  49.328 -16.291  1.00  0.00    -0.395 OA
HETATM   44  H16 UNL     1      -2.164  50.134 -15.778  1.00  0.00     0.210 HD
ENDBRANCH  13  43
TORSDOF 11
ENDMDL
MODEL 8
REMARK minimizedAffinity -9.482234
REMARK CNNscore 0.483645797
REMARK CNNaffinity 6.74957657
REMARK  11 active torsions:
REMARK  status: ('A' for Active; 'I' for Inactive)
REMARK    1  A    between atoms: C12_13  and  O2_14 
REMARK    2  A    between atoms: C19_21  and  O3_22 
REMARK    3  A    between atoms: C19_21  and  C20_23 
REMARK    4  A    between atoms: C20_23  and  C21_25 
REMARK    5  A    between atoms: C21_25  and  O5_26 
REMARK    6  A    between atoms: O5_26  and  C22_27 
REMARK    7  A    between atoms: C22_27  and  C23_29 
REMARK    8  A    between atoms: C23_29  and  C24_30 
REMARK    9  A    between atoms: C24_30  and  C25_31 
REMARK       I    between atoms: C25_31  and  N1_33 
REMARK   10  A    between atoms: N1_33  and  C26_34 
REMARK   11  A    between atoms: C26_34  and  C27_35 
ROOT
HETATM    1  C1  UNL     1      -8.230  45.434 -25.551  1.00  0.00     0.020 C 
HETATM    2  C2  UNL     1      -8.279  46.985 -25.424  1.00  0.00    -0.014 C 
HETATM    3  C3  UNL     1      -9.431  47.331 -24.431  1.00  0.00     0.022 C 
HETATM    4  C4  UNL     1     -10.827  47.089 -24.994  1.00  0.00     0.084 C 
HETATM    5  C5  UNL     1     -10.994  47.886 -26.260  1.00  0.00     0.149 C 
HETATM    6  O1  UNL     1     -12.063  48.390 -26.590  1.00  0.00    -0.293 OA
HETATM    7  C6  UNL     1      -9.828  47.983 -27.169  1.00  0.00     0.053 C 
HETATM    8  C7  UNL     1      -8.610  47.528 -26.819  1.00  0.00    -0.068 C 
HETATM    9  C8  UNL     1      -7.521  47.529 -27.865  1.00  0.00     0.035 C 
HETATM   10  C9  UNL     1      -6.106  47.507 -27.300  1.00  0.00     0.010 C 
HETATM   11  C10 UNL     1      -6.024  48.248 -25.959  1.00  0.00    -0.002 C 
HETATM   12  C11 UNL     1      -6.848  47.469 -24.900  1.00  0.00     0.031 C 
HETATM   13  C12 UNL     1      -6.809  48.236 -23.562  1.00  0.00     0.124 C 
HETATM   14  C13 UNL     1      -5.370  48.404 -23.064  1.00  0.00     0.045 C 
HETATM   15  C14 UNL     1      -4.323  48.958 -24.065  1.00  0.00     0.001 C 
HETATM   16  C15 UNL     1      -2.933  48.466 -23.563  1.00  0.00     0.019 C 
HETATM   17  C16 UNL     1      -4.544  48.421 -25.514  1.00  0.00     0.002 C 
HETATM   18  C17 UNL     1      -3.805  49.431 -26.420  1.00  0.00     0.009 C 
HETATM   19  C18 UNL     1      -3.497  50.669 -25.578  1.00  0.00     0.047 C 
HETATM   20  C19 UNL     1      -4.302  50.511 -24.270  1.00  0.00     0.128 C 
ENDROOT
BRANCH  20  21
HETATM   21  O3  UNL     1      -5.611  50.997 -24.561  1.00  0.00    -0.381 OA
HETATM   22  H27 UNL     1      -5.521  51.966 -24.712  1.00  0.00     0.211 HD
ENDBRANCH  20  21
BRANCH  20  23
HETATM   23  C20 UNL     1      -3.632  51.313 -23.117  1.00  0.00     0.185 C 
HETATM   24  O4  UNL     1      -4.017  51.194 -21.947  1.00  0.00    -0.292 OA
BRANCH  23  25
HETATM   25  C21 UNL     1      -2.561  52.362 -23.443  1.00  0.00     0.260 C 
BRANCH  25  26
HETATM   26  O5  UNL     1      -1.208  52.007 -23.675  1.00  0.00    -0.314 OA
BRANCH  26  27
HETATM   27  C22 UNL     1      -0.457  52.961 -24.280  1.00  0.00     0.259 C 
HETATM   28  O6  UNL     1      -0.798  53.564 -25.293  1.00  0.00    -0.265 OA
BRANCH  27  29
HETATM   29  C23 UNL     1       0.789  53.295 -23.494  1.00  0.00     0.120 C 
BRANCH  29  30
HETATM   30  C24 UNL     1       1.029  52.431 -22.263  1.00  0.00     0.112 C 
BRANCH  30  31
HETATM   31  C25 UNL     1       0.938  53.213 -20.968  1.00  0.00     0.218 C 
HETATM   32  O7  UNL     1       1.252  54.393 -20.863  1.00  0.00    -0.274 OA
HETATM   33  N1  UNL     1       0.493  52.453 -19.910  1.00  0.00    -0.357 N 
HETATM   34  H34 UNL     1       0.069  51.555 -20.100  1.00  0.00     0.162 HD
BRANCH  33  35
HETATM   35  C26 UNL     1       0.292  53.035 -18.602  1.00  0.00     0.162 C 
BRANCH  35  36
HETATM   36  C27 UNL     1       0.619  52.061 -17.509  1.00  0.00    -0.025 A 
HETATM   37  C28 UNL     1       0.033  50.793 -17.451  1.00  0.00     0.011 A 
HETATM   38  C29 UNL     1       0.368  49.925 -16.415  1.00  0.00     0.018 A 
HETATM   39  C30 UNL     1       1.276  50.359 -15.463  1.00  0.00     0.087 A 
HETATM   40  N2  UNL     1       1.852  51.579 -15.478  1.00  0.00    -0.375 N 
HETATM   41  C31 UNL     1       1.510  52.403 -16.495  1.00  0.00     0.096 A 
ATOM     42  H2  UNL     1       2.514  51.865 -14.758  1.00  0.00     0.164 HD
ENDBRANCH  35  36
ENDBRANCH  33  35
ENDBRANCH  30  31
ENDBRANCH  29  30
ENDBRANCH  27  29
ENDBRANCH  26  27
ENDBRANCH  25  26
ENDBRANCH  23  25
ENDBRANCH  20  23
BRANCH  13  43
HETATM   43  O2  UNL     1      -7.456  49.499 -23.623  1.00  0.00    -0.395 OA
HETATM   44  H16 UNL     1      -6.878  50.102 -24.138  1.00  0.00     0.210 HD
ENDBRANCH  13  43
TORSDOF 11
ENDMDL
MODEL 9
REMARK minimizedAffinity -7.47370052
REMARK CNNscore 0.483133376
REMARK CNNaffinity 5.76822519
REMARK  11 active torsions:
REMARK  status: ('A' for Active; 'I' for Inactive)
REMARK    1  A    between atoms: C12_13  and  O2_14 
REMARK    2  A    between atoms: C19_21  and  O3_22 
REMARK    3  A    between atoms: C19_21  and  C20_23 
REMARK    4  A    between atoms: C20_23  and  C21_25 
REMARK    5  A    between atoms: C21_25  and  O5_26 
REMARK    6  A    between atoms: O5_26  and  C22_27 
REMARK    7  A    between atoms: C22_27  and  C23_29 
REMARK    8  A    between atoms: C23_29  and  C24_30 
REMARK    9  A    between atoms: C24_30  and  C25_31 
REMARK       I    between atoms: C25_31  and  N1_33 
REMARK   10  A    between atoms: N1_33  and  C26_34 
REMARK   11  A    between atoms: C26_34  and  C27_35 
ROOT
HETATM    1  C1  UNL     1      -1.242  50.622 -23.304  1.00  0.00     0.020 C 
HETATM    2  C2  UNL     1      -2.660  50.287 -23.854  1.00  0.00    -0.014 C 
HETATM    3  C3  UNL     1      -2.465  49.419 -25.134  1.00  0.00     0.022 C 
HETATM    4  C4  UNL     1      -1.918  50.191 -26.329  1.00  0.00     0.084 C 
HETATM    5  C5  UNL     1      -2.836  51.344 -26.634  1.00  0.00     0.149 C 
HETATM    6  O1  UNL     1      -3.046  51.740 -27.777  1.00  0.00    -0.293 OA
HETATM    7  C6  UNL     1      -3.436  52.067 -25.488  1.00  0.00     0.053 C 
HETATM    8  C7  UNL     1      -3.313  51.624 -24.223  1.00  0.00    -0.068 C 
HETATM    9  C8  UNL     1      -3.824  52.504 -23.107  1.00  0.00     0.035 C 
HETATM   10  C9  UNL     1      -4.129  51.763 -21.810  1.00  0.00     0.010 C 
HETATM   11  C10 UNL     1      -4.614  50.333 -22.080  1.00  0.00    -0.002 C 
HETATM   12  C11 UNL     1      -3.452  49.514 -22.699  1.00  0.00     0.031 C 
HETATM   13  C12 UNL     1      -3.949  48.088 -23.018  1.00  0.00     0.124 C 
HETATM   14  C13 UNL     1      -4.452  47.384 -21.754  1.00  0.00     0.045 C 
HETATM   15  C14 UNL     1      -5.460  48.148 -20.857  1.00  0.00     0.001 C 
HETATM   16  C15 UNL     1      -5.328  47.538 -19.430  1.00  0.00     0.019 C 
HETATM   17  C16 UNL     1      -5.143  49.674 -20.774  1.00  0.00     0.002 C 
HETATM   18  C17 UNL     1      -6.470  50.323 -20.322  1.00  0.00     0.009 C 
HETATM   19  C18 UNL     1      -7.577  49.282 -20.495  1.00  0.00     0.047 C 
HETATM   20  C19 UNL     1      -6.958  48.129 -21.314  1.00  0.00     0.128 C 
ENDROOT
BRANCH  20  21
HETATM   21  O3  UNL     1      -7.072  48.522 -22.681  1.00  0.00    -0.381 OA
HETATM   22  H27 UNL     1      -8.034  48.522 -22.892  1.00  0.00     0.211 HD
ENDBRANCH  20  21
BRANCH  20  23
HETATM   23  C20 UNL     1      -7.710  46.797 -21.033  1.00  0.00     0.185 C 
HETATM   24  O4  UNL     1      -7.472  45.776 -21.691  1.00  0.00    -0.292 OA
BRANCH  23  25
HETATM   25  C21 UNL     1      -8.853  46.770 -20.010  1.00  0.00     0.260 C 
BRANCH  25  26
HETATM   26  O5  UNL     1      -9.850  47.778 -19.973  1.00  0.00    -0.314 OA
BRANCH  26  27
HETATM   27  C22 UNL     1     -11.128  47.323 -19.945  1.00  0.00     0.259 C 
HETATM   28  O6  UNL     1     -11.912  47.526 -19.023  1.00  0.00    -0.265 OA
BRANCH  27  29
HETATM   29  C23 UNL     1     -11.526  46.650 -21.239  1.00  0.00     0.120 C 
BRANCH  29  30
HETATM   30  C24 UNL     1     -12.944  46.094 -21.270  1.00  0.00     0.112 C 
BRANCH  30  31
HETATM   31  C25 UNL     1     -13.945  47.066 -21.862  1.00  0.00     0.218 C 
HETATM   32  O7  UNL     1     -14.202  48.159 -21.370  1.00  0.00    -0.274 OA
HETATM   33  N1  UNL     1     -14.561  46.583 -22.993  1.00  0.00    -0.357 N 
HETATM   34  H34 UNL     1     -14.168  45.772 -23.453  1.00  0.00     0.162 HD
BRANCH  33  35
HETATM   35  C26 UNL     1     -15.511  47.386 -23.730  1.00  0.00     0.162 C 
BRANCH  35  36
HETATM   36  C27 UNL     1     -16.885  46.784 -23.696  1.00  0.00    -0.025 A 
HETATM   37  C28 UNL     1     -17.766  46.897 -24.775  1.00  0.00     0.011 A 
HETATM   38  C29 UNL     1     -19.032  46.322 -24.695  1.00  0.00     0.018 A 
HETATM   39  C30 UNL     1     -19.377  45.656 -23.530  1.00  0.00     0.087 A 
HETATM   40  N2  UNL     1     -18.560  45.537 -22.464  1.00  0.00    -0.375 N 
HETATM   41  C31 UNL     1     -17.336  46.105 -22.566  1.00  0.00     0.096 A 
ATOM     42  H2  UNL     1     -18.850  45.042 -21.621  1.00  0.00     0.164 HD
ENDBRANCH  35  36
ENDBRANCH  33  35
ENDBRANCH  30  31
ENDBRANCH  29  30
ENDBRANCH  27  29
ENDBRANCH  26  27
ENDBRANCH  25  26
ENDBRANCH  23  25
ENDBRANCH  20  23
BRANCH  13  43
HETATM   43  O2  UNL     1      -4.950  48.057 -24.025  1.00  0.00    -0.395 OA
HETATM   44  H16 UNL     1      -5.778  48.402 -23.628  1.00  0.00     0.210 HD
ENDBRANCH  13  43
TORSDOF 11
ENDMDL
