MODEL 1
REMARK minimizedAffinity -9.38532829
REMARK  10 active torsions:
REMARK  status: ('A' for Active; 'I' for Inactive)
REMARK    1  A    between atoms: C12_14  and  C13_15 
REMARK    2  A    between atoms: C13_15  and  C15_17 
REMARK    3  A    between atoms: C15_17  and  C16_18 
REMARK    4  A    between atoms: C16_18  and  C17_19 
REMARK    5  A    between atoms: C18_20  and  C20_22 
REMARK    6  A    between atoms: C20_22  and  O3_23 
REMARK    7  A    between atoms: C26_29  and  C27_30 
REMARK    8  A    between atoms: C27_30  and  C28_31 
REMARK    9  A    between atoms: C28_31  and  C29_32 
REMARK   10  A    between atoms: C29_32  and  O5_34 
ROOT
HETATM    1  C1  UNL     1      -2.867  51.206 -27.888  1.00  0.00     0.025 C 
HETATM    2  C2  UNL     1      -2.974  50.109 -27.128  1.00  0.00     0.015 C 
HETATM    3  C3  UNL     1      -3.852  48.985 -27.519  1.00  0.00     0.289 C 
HETATM    4  O1  UNL     1      -4.446  48.864 -28.574  1.00  0.00    -0.260 OA
HETATM    5  O2  UNL     1      -3.867  48.092 -26.496  1.00  0.00    -0.311 OA
HETATM    6  C4  UNL     1      -3.211  48.638 -25.335  1.00  0.00     0.142 C 
HETATM    7  C5  UNL     1      -4.284  49.032 -24.330  1.00  0.00     0.039 C 
HETATM    8  C6  UNL     1      -3.793  49.817 -23.105  1.00  0.00     0.006 C 
HETATM    9  C7  UNL     1      -2.783  50.934 -23.458  1.00  0.00    -0.027 A 
HETATM   10  C8  UNL     1      -2.213  51.687 -22.241  1.00  0.00     0.011 C 
HETATM   11  C9  UNL     1      -1.853  50.818 -21.025  1.00  0.00     0.011 C 
HETATM   12  C10 UNL     1      -3.003  49.870 -20.654  1.00  0.00    -0.032 C 
HETATM   13  C11 UNL     1      -4.241  50.715 -20.218  1.00  0.00     0.016 C 
HETATM   14  C12 UNL     1      -2.723  48.804 -19.542  1.00  0.00    -0.002 C 
HETATM   15  C21 UNL     1      -3.732  47.670 -19.908  1.00  0.00     0.006 C 
HETATM   16  C22 UNL     1      -4.239  47.929 -21.338  1.00  0.00     0.011 C 
HETATM   17  C23 UNL     1      -3.256  48.952 -21.921  1.00  0.00    -0.032 C 
HETATM   18  C24 UNL     1      -1.992  48.154 -22.376  1.00  0.00     0.016 C 
HETATM   19  C25 UNL     1      -3.170  51.874 -24.574  1.00  0.00     0.022 A 
HETATM   20  C26 UNL     1      -2.037  50.893 -24.830  1.00  0.00    -0.021 A 
HETATM   21  C31 UNL     1      -2.315  49.763 -25.833  1.00  0.00     0.063 C 
ENDROOT
BRANCH  14  22
HETATM   22  C13 UNL     1      -2.810  49.194 -18.032  1.00  0.00    -0.014 C 
HETATM   23  C14 UNL     1      -3.107  50.686 -17.837  1.00  0.00     0.010 C 
BRANCH  22  24
HETATM   24  C15 UNL     1      -1.490  48.817 -17.303  1.00  0.00     0.008 C 
BRANCH  24  25
HETATM   25  C16 UNL     1      -0.241  49.484 -17.894  1.00  0.00     0.028 C 
BRANCH  25  26
HETATM   26  C17 UNL     1       0.415  50.387 -16.884  1.00  0.00    -0.022 C 
HETATM   27  C18 UNL     1       0.802  51.669 -17.054  1.00  0.00    -0.064 C 
HETATM   28  C19 UNL     1       0.585  52.467 -18.313  1.00  0.00     0.045 C 
BRANCH  27  29
HETATM   29  C20 UNL     1       1.476  52.425 -15.940  1.00  0.00     0.197 C 
BRANCH  29  30
HETATM   30  O3  UNL     1       2.420  53.323 -16.503  1.00  0.00    -0.397 OA
HETATM   31  H29 UNL     1       2.846  53.780 -15.760  1.00  0.00     0.209 HD
ENDBRANCH  29  30
ENDBRANCH  27  29
ENDBRANCH  25  26
ENDBRANCH  24  25
ENDBRANCH  22  24
ENDBRANCH  14  22
BRANCH  20  32
HETATM   32  C27 UNL     1      -0.574  51.367 -24.869  1.00  0.00     0.021 C 
BRANCH  32  33
HETATM   33  C28 UNL     1       0.190  51.037 -26.150  1.00  0.00     0.112 C 
BRANCH  33  34
HETATM   34  C29 UNL     1       1.287  52.042 -26.408  1.00  0.00     0.258 C 
HETATM   35  O4  UNL     1       2.483  51.790 -26.454  1.00  0.00    -0.265 OA
BRANCH  34  36
HETATM   36  O5  UNL     1       0.740  53.283 -26.558  1.00  0.00    -0.326 OA
HETATM   37  C30 UNL     1       0.015  53.456 -27.776  1.00  0.00     0.213 C 
ENDBRANCH  34  36
ENDBRANCH  33  34
ENDBRANCH  32  33
ENDBRANCH  20  32
TORSDOF 10
ENDMDL
MODEL 2
REMARK minimizedAffinity -9.05520916
REMARK  10 active torsions:
REMARK  status: ('A' for Active; 'I' for Inactive)
REMARK    1  A    between atoms: C12_14  and  C13_15 
REMARK    2  A    between atoms: C13_15  and  C15_17 
REMARK    3  A    between atoms: C15_17  and  C16_18 
REMARK    4  A    between atoms: C16_18  and  C17_19 
REMARK    5  A    between atoms: C18_20  and  C20_22 
REMARK    6  A    between atoms: C20_22  and  O3_23 
REMARK    7  A    between atoms: C26_29  and  C27_30 
REMARK    8  A    between atoms: C27_30  and  C28_31 
REMARK    9  A    between atoms: C28_31  and  C29_32 
REMARK   10  A    between atoms: C29_32  and  O5_34 
ROOT
HETATM    1  C1  UNL     1      -3.184  51.157 -26.443  1.00  0.00     0.025 C 
HETATM    2  C2  UNL     1      -3.053  50.176 -25.541  1.00  0.00     0.015 C 
HETATM    3  C3  UNL     1      -4.023  49.063 -25.470  1.00  0.00     0.289 C 
HETATM    4  O1  UNL     1      -4.926  48.839 -26.254  1.00  0.00    -0.260 OA
HETATM    5  O2  UNL     1      -3.718  48.313 -24.379  1.00  0.00    -0.311 OA
HETATM    6  C4  UNL     1      -2.717  48.968 -23.576  1.00  0.00     0.142 C 
HETATM    7  C5  UNL     1      -3.404  49.549 -22.349  1.00  0.00     0.039 C 
HETATM    8  C6  UNL     1      -2.536  50.458 -21.468  1.00  0.00     0.006 C 
HETATM    9  C7  UNL     1      -1.681  51.461 -22.278  1.00  0.00    -0.027 A 
HETATM   10  C8  UNL     1      -0.739  52.332 -21.424  1.00  0.00     0.011 C 
HETATM   11  C9  UNL     1      -0.018  51.610 -20.275  1.00  0.00     0.011 C 
HETATM   12  C10 UNL     1      -0.998  50.785 -19.428  1.00  0.00    -0.032 C 
HETATM   13  C11 UNL     1      -2.020  51.748 -18.746  1.00  0.00     0.016 C 
HETATM   14  C12 UNL     1      -0.386  49.859 -18.323  1.00  0.00    -0.002 C 
HETATM   15  C21 UNL     1      -1.472  48.745 -18.185  1.00  0.00     0.006 C 
HETATM   16  C22 UNL     1      -2.410  48.844 -19.402  1.00  0.00     0.011 C 
HETATM   17  C23 UNL     1      -1.655  49.726 -20.405  1.00  0.00    -0.032 C 
HETATM   18  C24 UNL     1      -0.615  48.805 -21.120  1.00  0.00     0.016 C 
HETATM   19  C25 UNL     1      -2.395  52.267 -23.334  1.00  0.00     0.022 A 
HETATM   20  C26 UNL     1      -1.416  51.199 -23.794  1.00  0.00    -0.021 A 
HETATM   21  C31 UNL     1      -2.015  49.965 -24.487  1.00  0.00     0.063 C 
ENDROOT
BRANCH  14  22
HETATM   22  C13 UNL     1       0.022  50.447 -16.934  1.00  0.00    -0.014 C 
HETATM   23  C14 UNL     1      -1.196  50.731 -16.046  1.00  0.00     0.010 C 
BRANCH  22  24
HETATM   24  C15 UNL     1       0.853  51.747 -17.126  1.00  0.00     0.008 C 
BRANCH  24  25
HETATM   25  C16 UNL     1       1.248  52.432 -15.811  1.00  0.00     0.028 C 
BRANCH  25  26
HETATM   26  C17 UNL     1       2.180  51.564 -15.011  1.00  0.00    -0.022 C 
HETATM   27  C18 UNL     1       3.524  51.491 -15.107  1.00  0.00    -0.064 C 
HETATM   28  C19 UNL     1       4.362  52.338 -16.027  1.00  0.00     0.045 C 
BRANCH  27  29
HETATM   29  C20 UNL     1       4.308  50.539 -14.243  1.00  0.00     0.197 C 
BRANCH  29  30
HETATM   30  O3  UNL     1       3.706  50.486 -12.958  1.00  0.00    -0.397 OA
HETATM   31  H29 UNL     1       4.244  49.878 -12.425  1.00  0.00     0.209 HD
ENDBRANCH  29  30
ENDBRANCH  27  29
ENDBRANCH  25  26
ENDBRANCH  24  25
ENDBRANCH  22  24
ENDBRANCH  14  22
BRANCH  20  32
HETATM   32  C27 UNL     1      -0.038  51.580 -24.362  1.00  0.00     0.021 C 
BRANCH  32  33
HETATM   33  C28 UNL     1       0.295  50.991 -25.732  1.00  0.00     0.112 C 
BRANCH  33  34
HETATM   34  C29 UNL     1       1.567  51.583 -26.289  1.00  0.00     0.258 C 
HETATM   35  O4  UNL     1       2.649  51.015 -26.343  1.00  0.00    -0.265 OA
BRANCH  34  36
HETATM   36  O5  UNL     1       1.330  52.862 -26.701  1.00  0.00    -0.326 OA
HETATM   37  C30 UNL     1       0.279  52.979 -27.660  1.00  0.00     0.213 C 
ENDBRANCH  34  36
ENDBRANCH  33  34
ENDBRANCH  32  33
ENDBRANCH  20  32
TORSDOF 10
ENDMDL
MODEL 3
REMARK minimizedAffinity -8.72885323
REMARK  10 active torsions:
REMARK  status: ('A' for Active; 'I' for Inactive)
REMARK    1  A    between atoms: C12_14  and  C13_15 
REMARK    2  A    between atoms: C13_15  and  C15_17 
REMARK    3  A    between atoms: C15_17  and  C16_18 
REMARK    4  A    between atoms: C16_18  and  C17_19 
REMARK    5  A    between atoms: C18_20  and  C20_22 
REMARK    6  A    between atoms: C20_22  and  O3_23 
REMARK    7  A    between atoms: C26_29  and  C27_30 
REMARK    8  A    between atoms: C27_30  and  C28_31 
REMARK    9  A    between atoms: C28_31  and  C29_32 
REMARK   10  A    between atoms: C29_32  and  O5_34 
ROOT
HETATM    1  C1  UNL     1       0.306  53.876 -25.630  1.00  0.00     0.025 C 
HETATM    2  C2  UNL     1      -0.196  52.678 -25.959  1.00  0.00     0.015 C 
HETATM    3  C3  UNL     1      -0.384  52.286 -27.372  1.00  0.00     0.289 C 
HETATM    4  O1  UNL     1      -0.009  52.904 -28.351  1.00  0.00    -0.260 OA
HETATM    5  O2  UNL     1      -1.037  51.095 -27.391  1.00  0.00    -0.311 OA
HETATM    6  C4  UNL     1      -1.493  50.745 -26.070  1.00  0.00     0.142 C 
HETATM    7  C5  UNL     1      -2.995  50.986 -26.012  1.00  0.00     0.039 C 
HETATM    8  C6  UNL     1      -3.637  50.858 -24.623  1.00  0.00     0.006 C 
HETATM    9  C7  UNL     1      -2.818  51.545 -23.505  1.00  0.00    -0.027 A 
HETATM   10  C8  UNL     1      -3.397  51.366 -22.088  1.00  0.00     0.011 C 
HETATM   11  C9  UNL     1      -3.937  49.965 -21.759  1.00  0.00     0.011 C 
HETATM   12  C10 UNL     1      -4.882  49.456 -22.858  1.00  0.00    -0.032 C 
HETATM   13  C11 UNL     1      -6.134  50.387 -22.926  1.00  0.00     0.016 C 
HETATM   14  C12 UNL     1      -5.380  47.976 -22.746  1.00  0.00    -0.002 C 
HETATM   15  C21 UNL     1      -5.674  47.611 -24.236  1.00  0.00     0.006 C 
HETATM   16  C22 UNL     1      -5.010  48.679 -25.125  1.00  0.00     0.011 C 
HETATM   17  C23 UNL     1      -4.033  49.409 -24.194  1.00  0.00    -0.032 C 
HETATM   18  C24 UNL     1      -2.756  48.516 -24.092  1.00  0.00     0.016 C 
HETATM   19  C25 UNL     1      -2.377  52.966 -23.760  1.00  0.00     0.022 A 
HETATM   20  C26 UNL     1      -1.312  51.881 -23.747  1.00  0.00    -0.021 A 
HETATM   21  C31 UNL     1      -0.648  51.549 -25.092  1.00  0.00     0.063 C 
ENDROOT
BRANCH  14  22
HETATM   22  C13 UNL     1      -6.577  47.612 -21.812  1.00  0.00    -0.014 C 
HETATM   23  C14 UNL     1      -6.111  46.986 -20.492  1.00  0.00     0.010 C 
BRANCH  22  24
HETATM   24  C15 UNL     1      -7.552  46.645 -22.542  1.00  0.00     0.008 C 
BRANCH  24  25
HETATM   25  C16 UNL     1      -8.928  47.254 -22.837  1.00  0.00     0.028 C 
BRANCH  25  26
HETATM   26  C17 UNL     1      -8.887  48.102 -24.079  1.00  0.00    -0.022 C 
HETATM   27  C18 UNL     1      -9.579  47.921 -25.223  1.00  0.00    -0.064 C 
HETATM   28  C19 UNL     1     -10.594  46.831 -25.445  1.00  0.00     0.045 C 
BRANCH  27  29
HETATM   29  C20 UNL     1      -9.395  48.854 -26.391  1.00  0.00     0.197 C 
BRANCH  29  30
HETATM   30  O3  UNL     1      -9.790  50.160 -25.999  1.00  0.00    -0.397 OA
HETATM   31  H29 UNL     1      -9.674  50.730 -26.777  1.00  0.00     0.209 HD
ENDBRANCH  29  30
ENDBRANCH  27  29
ENDBRANCH  25  26
ENDBRANCH  24  25
ENDBRANCH  22  24
ENDBRANCH  14  22
BRANCH  20  32
HETATM   32  C27 UNL     1      -0.342  51.738 -22.562  1.00  0.00     0.021 C 
BRANCH  32  33
HETATM   33  C28 UNL     1       0.641  52.892 -22.373  1.00  0.00     0.112 C 
BRANCH  33  34
HETATM   34  C29 UNL     1       0.632  53.392 -20.949  1.00  0.00     0.258 C 
HETATM   35  O4  UNL     1       1.339  54.287 -20.508  1.00  0.00    -0.265 OA
BRANCH  34  36
HETATM   36  O5  UNL     1      -0.270  52.674 -20.220  1.00  0.00    -0.326 OA
HETATM   37  C30 UNL     1       0.075  52.535 -18.842  1.00  0.00     0.213 C 
ENDBRANCH  34  36
ENDBRANCH  33  34
ENDBRANCH  32  33
ENDBRANCH  20  32
TORSDOF 10
ENDMDL
MODEL 4
REMARK minimizedAffinity -8.68187809
REMARK  10 active torsions:
REMARK  status: ('A' for Active; 'I' for Inactive)
REMARK    1  A    between atoms: C12_14  and  C13_15 
REMARK    2  A    between atoms: C13_15  and  C15_17 
REMARK    3  A    between atoms: C15_17  and  C16_18 
REMARK    4  A    between atoms: C16_18  and  C17_19 
REMARK    5  A    between atoms: C18_20  and  C20_22 
REMARK    6  A    between atoms: C20_22  and  O3_23 
REMARK    7  A    between atoms: C26_29  and  C27_30 
REMARK    8  A    between atoms: C27_30  and  C28_31 
REMARK    9  A    between atoms: C28_31  and  C29_32 
REMARK   10  A    between atoms: C29_32  and  O5_34 
ROOT
HETATM    1  C1  UNL     1       0.349  53.568 -25.727  1.00  0.00     0.025 C 
HETATM    2  C2  UNL     1      -0.218  52.379 -25.968  1.00  0.00     0.015 C 
HETATM    3  C3  UNL     1      -0.457  51.907 -27.349  1.00  0.00     0.289 C 
HETATM    4  O1  UNL     1      -0.075  52.442 -28.373  1.00  0.00    -0.260 OA
HETATM    5  O2  UNL     1      -1.167  50.752 -27.277  1.00  0.00    -0.311 OA
HETATM    6  C4  UNL     1      -1.610  50.510 -25.928  1.00  0.00     0.142 C 
HETATM    7  C5  UNL     1      -3.096  50.828 -25.856  1.00  0.00     0.039 C 
HETATM    8  C6  UNL     1      -3.711  50.821 -24.450  1.00  0.00     0.006 C 
HETATM    9  C7  UNL     1      -2.835  51.537 -23.395  1.00  0.00    -0.027 A 
HETATM   10  C8  UNL     1      -3.390  51.478 -21.958  1.00  0.00     0.011 C 
HETATM   11  C9  UNL     1      -3.990  50.130 -21.528  1.00  0.00     0.011 C 
HETATM   12  C10 UNL     1      -4.983  49.599 -22.573  1.00  0.00    -0.032 C 
HETATM   13  C11 UNL     1      -6.189  50.585 -22.677  1.00  0.00     0.016 C 
HETATM   14  C12 UNL     1      -5.549  48.156 -22.355  1.00  0.00    -0.002 C 
HETATM   15  C21 UNL     1      -5.894  47.712 -23.812  1.00  0.00     0.006 C 
HETATM   16  C22 UNL     1      -5.200  48.686 -24.782  1.00  0.00     0.011 C 
HETATM   17  C23 UNL     1      -4.168  49.424 -23.920  1.00  0.00    -0.032 C 
HETATM   18  C24 UNL     1      -2.933  48.477 -23.785  1.00  0.00     0.016 C 
HETATM   19  C25 UNL     1      -2.331  52.915 -23.750  1.00  0.00     0.022 A 
HETATM   20  C26 UNL     1      -1.321  51.781 -23.688  1.00  0.00    -0.021 A 
HETATM   21  C31 UNL     1      -0.705  51.331 -25.021  1.00  0.00     0.063 C 
ENDROOT
BRANCH  14  22
HETATM   22  C13 UNL     1      -6.741  47.912 -21.376  1.00  0.00    -0.014 C 
HETATM   23  C14 UNL     1      -8.062  48.466 -21.924  1.00  0.00     0.010 C 
BRANCH  22  24
HETATM   24  C15 UNL     1      -6.435  48.546 -19.990  1.00  0.00     0.008 C 
BRANCH  24  25
HETATM   25  C16 UNL     1      -7.607  49.335 -19.394  1.00  0.00     0.028 C 
BRANCH  25  26
HETATM   26  C17 UNL     1      -8.191  48.618 -18.206  1.00  0.00    -0.022 C 
HETATM   27  C18 UNL     1      -9.448  48.149 -18.064  1.00  0.00    -0.064 C 
HETATM   28  C19 UNL     1     -10.509  48.213 -19.130  1.00  0.00     0.045 C 
BRANCH  27  29
HETATM   29  C20 UNL     1      -9.880  47.476 -16.788  1.00  0.00     0.197 C 
BRANCH  29  30
HETATM   30  O3  UNL     1     -10.286  48.472 -15.862  1.00  0.00    -0.397 OA
HETATM   31  H29 UNL     1     -10.542  48.007 -15.048  1.00  0.00     0.209 HD
ENDBRANCH  29  30
ENDBRANCH  27  29
ENDBRANCH  25  26
ENDBRANCH  24  25
ENDBRANCH  22  24
ENDBRANCH  14  22
BRANCH  20  32
HETATM   32  C27 UNL     1      -0.332  51.666 -22.515  1.00  0.00     0.021 C 
BRANCH  32  33
HETATM   33  C28 UNL     1       0.694  52.792 -22.406  1.00  0.00     0.112 C 
BRANCH  33  34
HETATM   34  C29 UNL     1       0.693  53.403 -21.026  1.00  0.00     0.258 C 
HETATM   35  O4  UNL     1       1.364  54.364 -20.676  1.00  0.00    -0.265 OA
BRANCH  34  36
HETATM   36  O5  UNL     1      -0.155  52.703 -20.219  1.00  0.00    -0.326 OA
HETATM   37  C30 UNL     1       0.343  52.489 -18.898  1.00  0.00     0.213 C 
ENDBRANCH  34  36
ENDBRANCH  33  34
ENDBRANCH  32  33
ENDBRANCH  20  32
TORSDOF 10
ENDMDL
MODEL 5
REMARK minimizedAffinity -8.66332626
REMARK  10 active torsions:
REMARK  status: ('A' for Active; 'I' for Inactive)
REMARK    1  A    between atoms: C12_14  and  C13_15 
REMARK    2  A    between atoms: C13_15  and  C15_17 
REMARK    3  A    between atoms: C15_17  and  C16_18 
REMARK    4  A    between atoms: C16_18  and  C17_19 
REMARK    5  A    between atoms: C18_20  and  C20_22 
REMARK    6  A    between atoms: C20_22  and  O3_23 
REMARK    7  A    between atoms: C26_29  and  C27_30 
REMARK    8  A    between atoms: C27_30  and  C28_31 
REMARK    9  A    between atoms: C28_31  and  C29_32 
REMARK   10  A    between atoms: C29_32  and  O5_34 
ROOT
HETATM    1  C1  UNL     1      -3.109  50.779 -26.561  1.00  0.00     0.025 C 
HETATM    2  C2  UNL     1      -3.014  49.893 -25.561  1.00  0.00     0.015 C 
HETATM    3  C3  UNL     1      -4.026  48.831 -25.376  1.00  0.00     0.289 C 
HETATM    4  O1  UNL     1      -4.939  48.561 -26.135  1.00  0.00    -0.260 OA
HETATM    5  O2  UNL     1      -3.749  48.189 -24.212  1.00  0.00    -0.311 OA
HETATM    6  C4  UNL     1      -2.722  48.886 -23.480  1.00  0.00     0.142 C 
HETATM    7  C5  UNL     1      -3.385  49.619 -22.322  1.00  0.00     0.039 C 
HETATM    8  C6  UNL     1      -2.481  50.581 -21.539  1.00  0.00     0.006 C 
HETATM    9  C7  UNL     1      -1.589  51.459 -22.447  1.00  0.00    -0.027 A 
HETATM   10  C8  UNL     1      -0.614  52.379 -21.687  1.00  0.00     0.011 C 
HETATM   11  C9  UNL     1       0.081  51.754 -20.466  1.00  0.00     0.011 C 
HETATM   12  C10 UNL     1      -0.929  51.060 -19.540  1.00  0.00    -0.032 C 
HETATM   13  C11 UNL     1      -1.912  52.128 -18.966  1.00  0.00     0.016 C 
HETATM   14  C12 UNL     1      -0.352  50.233 -18.342  1.00  0.00    -0.002 C 
HETATM   15  C21 UNL     1      -1.480  49.182 -18.092  1.00  0.00     0.006 C 
HETATM   16  C22 UNL     1      -2.415  49.188 -19.315  1.00  0.00     0.011 C 
HETATM   17  C23 UNL     1      -1.628  49.930 -20.403  1.00  0.00    -0.032 C 
HETATM   18  C24 UNL     1      -0.624  48.901 -21.015  1.00  0.00     0.016 C 
HETATM   19  C25 UNL     1      -2.273  52.177 -23.584  1.00  0.00     0.022 A 
HETATM   20  C26 UNL     1      -1.337  51.030 -23.927  1.00  0.00    -0.021 A 
HETATM   21  C31 UNL     1      -1.984  49.754 -24.488  1.00  0.00     0.063 C 
ENDROOT
BRANCH  14  22
HETATM   22  C13 UNL     1       0.080  50.947 -17.022  1.00  0.00    -0.014 C 
HETATM   23  C14 UNL     1       1.222  51.944 -17.252  1.00  0.00     0.010 C 
BRANCH  22  24
HETATM   24  C15 UNL     1       0.501  49.895 -15.957  1.00  0.00     0.008 C 
BRANCH  24  25
HETATM   25  C16 UNL     1       0.305  50.363 -14.509  1.00  0.00     0.028 C 
BRANCH  25  26
HETATM   26  C17 UNL     1      -1.139  50.695 -14.242  1.00  0.00    -0.022 C 
HETATM   27  C18 UNL     1      -1.629  51.582 -13.352  1.00  0.00    -0.064 C 
HETATM   28  C19 UNL     1      -0.784  52.470 -12.477  1.00  0.00     0.045 C 
BRANCH  27  29
HETATM   29  C20 UNL     1      -3.114  51.771 -13.190  1.00  0.00     0.197 C 
BRANCH  29  30
HETATM   30  O3  UNL     1      -3.440  53.118 -13.495  1.00  0.00    -0.397 OA
HETATM   31  H29 UNL     1      -4.398  53.208 -13.365  1.00  0.00     0.209 HD
ENDBRANCH  29  30
ENDBRANCH  27  29
ENDBRANCH  25  26
ENDBRANCH  24  25
ENDBRANCH  22  24
ENDBRANCH  14  22
BRANCH  20  32
HETATM   32  C27 UNL     1       0.054  51.296 -24.528  1.00  0.00     0.021 C 
BRANCH  32  33
HETATM   33  C28 UNL     1       0.067  52.112 -25.820  1.00  0.00     0.112 C 
BRANCH  33  34
HETATM   34  C29 UNL     1       0.274  53.581 -25.538  1.00  0.00     0.258 C 
HETATM   35  O4  UNL     1       0.970  54.039 -24.643  1.00  0.00    -0.265 OA
BRANCH  34  36
HETATM   36  O5  UNL     1      -0.455  54.321 -26.422  1.00  0.00    -0.326 OA
HETATM   37  C30 UNL     1      -0.309  53.912 -27.782  1.00  0.00     0.213 C 
ENDBRANCH  34  36
ENDBRANCH  33  34
ENDBRANCH  32  33
ENDBRANCH  20  32
TORSDOF 10
ENDMDL
MODEL 6
REMARK minimizedAffinity -8.40122986
REMARK  10 active torsions:
REMARK  status: ('A' for Active; 'I' for Inactive)
REMARK    1  A    between atoms: C12_14  and  C13_15 
REMARK    2  A    between atoms: C13_15  and  C15_17 
REMARK    3  A    between atoms: C15_17  and  C16_18 
REMARK    4  A    between atoms: C16_18  and  C17_19 
REMARK    5  A    between atoms: C18_20  and  C20_22 
REMARK    6  A    between atoms: C20_22  and  O3_23 
REMARK    7  A    between atoms: C26_29  and  C27_30 
REMARK    8  A    between atoms: C27_30  and  C28_31 
REMARK    9  A    between atoms: C28_31  and  C29_32 
REMARK   10  A    between atoms: C29_32  and  O5_34 
ROOT
HETATM    1  C1  UNL     1      -3.258  50.693 -27.702  1.00  0.00     0.025 C 
HETATM    2  C2  UNL     1      -3.040  51.428 -26.605  1.00  0.00     0.015 C 
HETATM    3  C3  UNL     1      -2.246  52.675 -26.660  1.00  0.00     0.289 C 
HETATM    4  O1  UNL     1      -1.831  53.225 -27.663  1.00  0.00    -0.260 OA
HETATM    5  O2  UNL     1      -2.075  53.117 -25.387  1.00  0.00    -0.311 OA
HETATM    6  C4  UNL     1      -2.531  52.130 -24.441  1.00  0.00     0.142 C 
HETATM    7  C5  UNL     1      -1.306  51.463 -23.830  1.00  0.00     0.039 C 
HETATM    8  C6  UNL     1      -1.587  50.244 -22.941  1.00  0.00     0.006 C 
HETATM    9  C7  UNL     1      -2.631  49.274 -23.544  1.00  0.00    -0.027 A 
HETATM   10  C8  UNL     1      -2.991  48.081 -22.637  1.00  0.00     0.011 C 
HETATM   11  C9  UNL     1      -3.158  48.402 -21.144  1.00  0.00     0.011 C 
HETATM   12  C10 UNL     1      -1.972  49.219 -20.610  1.00  0.00    -0.032 C 
HETATM   13  C11 UNL     1      -0.672  48.361 -20.715  1.00  0.00     0.016 C 
HETATM   14  C12 UNL     1      -2.080  49.766 -19.146  1.00  0.00    -0.002 C 
HETATM   15  C21 UNL     1      -1.153  51.022 -19.193  1.00  0.00     0.006 C 
HETATM   16  C22 UNL     1      -0.880  51.356 -20.672  1.00  0.00     0.011 C 
HETATM   17  C23 UNL     1      -1.935  50.561 -21.451  1.00  0.00    -0.032 C 
HETATM   18  C24 UNL     1      -3.263  51.381 -21.378  1.00  0.00     0.016 C 
HETATM   19  C25 UNL     1      -2.420  48.852 -24.977  1.00  0.00     0.022 A 
HETATM   20  C26 UNL     1      -3.588  49.775 -24.671  1.00  0.00    -0.021 A 
HETATM   21  C31 UNL     1      -3.485  51.216 -25.195  1.00  0.00     0.063 C 
ENDROOT
BRANCH  14  22
HETATM   22  C13 UNL     1      -1.747  48.844 -17.930  1.00  0.00    -0.014 C 
HETATM   23  C14 UNL     1      -2.817  48.924 -16.835  1.00  0.00     0.010 C 
BRANCH  22  24
HETATM   24  C15 UNL     1      -0.357  49.215 -17.341  1.00  0.00     0.008 C 
BRANCH  24  25
HETATM   25  C16 UNL     1      -0.423  50.184 -16.153  1.00  0.00     0.028 C 
BRANCH  25  26
HETATM   26  C17 UNL     1       0.958  50.581 -15.704  1.00  0.00    -0.022 C 
HETATM   27  C18 UNL     1       1.701  51.617 -16.145  1.00  0.00    -0.064 C 
HETATM   28  C19 UNL     1       1.239  52.629 -17.160  1.00  0.00     0.045 C 
BRANCH  27  29
HETATM   29  C20 UNL     1       3.087  51.856 -15.606  1.00  0.00     0.197 C 
BRANCH  29  30
HETATM   30  O3  UNL     1       3.507  53.157 -15.987  1.00  0.00    -0.397 OA
HETATM   31  H29 UNL     1       4.407  53.271 -15.639  1.00  0.00     0.209 HD
ENDBRANCH  29  30
ENDBRANCH  27  29
ENDBRANCH  25  26
ENDBRANCH  24  25
ENDBRANCH  22  24
ENDBRANCH  14  22
BRANCH  20  32
HETATM   32  C27 UNL     1      -5.034  49.250 -24.675  1.00  0.00     0.021 C 
BRANCH  32  33
HETATM   33  C28 UNL     1      -5.333  48.154 -25.697  1.00  0.00     0.112 C 
BRANCH  33  34
HETATM   34  C29 UNL     1      -6.771  47.703 -25.612  1.00  0.00     0.258 C 
HETATM   35  O4  UNL     1      -7.446  47.674 -24.592  1.00  0.00    -0.265 OA
BRANCH  34  36
HETATM   36  O5  UNL     1      -7.198  47.309 -26.847  1.00  0.00    -0.326 OA
HETATM   37  C30 UNL     1      -6.312  47.664 -27.909  1.00  0.00     0.213 C 
ENDBRANCH  34  36
ENDBRANCH  33  34
ENDBRANCH  32  33
ENDBRANCH  20  32
TORSDOF 10
ENDMDL
MODEL 7
REMARK minimizedAffinity -8.36695004
REMARK  10 active torsions:
REMARK  status: ('A' for Active; 'I' for Inactive)
REMARK    1  A    between atoms: C12_14  and  C13_15 
REMARK    2  A    between atoms: C13_15  and  C15_17 
REMARK    3  A    between atoms: C15_17  and  C16_18 
REMARK    4  A    between atoms: C16_18  and  C17_19 
REMARK    5  A    between atoms: C18_20  and  C20_22 
REMARK    6  A    between atoms: C20_22  and  O3_23 
REMARK    7  A    between atoms: C26_29  and  C27_30 
REMARK    8  A    between atoms: C27_30  and  C28_31 
REMARK    9  A    between atoms: C28_31  and  C29_32 
REMARK   10  A    between atoms: C29_32  and  O5_34 
ROOT
HETATM    1  C1  UNL     1       0.292  53.911 -25.495  1.00  0.00     0.025 C 
HETATM    2  C2  UNL     1      -0.235  52.745 -25.892  1.00  0.00     0.015 C 
HETATM    3  C3  UNL     1      -0.426  52.438 -27.326  1.00  0.00     0.289 C 
HETATM    4  O1  UNL     1      -0.034  53.101 -28.268  1.00  0.00    -0.260 OA
HETATM    5  O2  UNL     1      -1.105  51.264 -27.413  1.00  0.00    -0.311 OA
HETATM    6  C4  UNL     1      -1.575  50.851 -26.116  1.00  0.00     0.142 C 
HETATM    7  C5  UNL     1      -3.071  51.122 -26.049  1.00  0.00     0.039 C 
HETATM    8  C6  UNL     1      -3.721  50.931 -24.671  1.00  0.00     0.006 C 
HETATM    9  C7  UNL     1      -2.892  51.536 -23.514  1.00  0.00    -0.027 A 
HETATM   10  C8  UNL     1      -3.480  51.290 -22.111  1.00  0.00     0.011 C 
HETATM   11  C9  UNL     1      -4.053  49.886 -21.862  1.00  0.00     0.011 C 
HETATM   12  C10 UNL     1      -5.005  49.461 -22.990  1.00  0.00    -0.032 C 
HETATM   13  C11 UNL     1      -6.235  50.422 -23.010  1.00  0.00     0.016 C 
HETATM   14  C12 UNL     1      -5.536  47.988 -22.963  1.00  0.00    -0.002 C 
HETATM   15  C21 UNL     1      -5.832  47.714 -24.472  1.00  0.00     0.006 C 
HETATM   16  C22 UNL     1      -5.141  48.815 -25.298  1.00  0.00     0.011 C 
HETATM   17  C23 UNL     1      -4.152  49.469 -24.325  1.00  0.00    -0.032 C 
HETATM   18  C24 UNL     1      -2.895  48.543 -24.269  1.00  0.00     0.016 C 
HETATM   19  C25 UNL     1      -2.418  52.958 -23.687  1.00  0.00     0.022 A 
HETATM   20  C26 UNL     1      -1.378  51.850 -23.732  1.00  0.00    -0.021 A 
HETATM   21  C31 UNL     1      -0.716  51.579 -25.092  1.00  0.00     0.063 C 
ENDROOT
BRANCH  14  22
HETATM   22  C13 UNL     1      -6.745  47.599 -22.054  1.00  0.00    -0.014 C 
HETATM   23  C14 UNL     1      -7.680  48.786 -21.797  1.00  0.00     0.010 C 
BRANCH  22  24
HETATM   24  C15 UNL     1      -6.236  47.023 -20.703  1.00  0.00     0.008 C 
BRANCH  24  25
HETATM   25  C16 UNL     1      -5.094  46.009 -20.848  1.00  0.00     0.028 C 
BRANCH  25  26
HETATM   26  C17 UNL     1      -3.755  46.692 -20.774  1.00  0.00    -0.022 C 
HETATM   27  C18 UNL     1      -3.050  47.004 -19.667  1.00  0.00    -0.064 C 
HETATM   28  C19 UNL     1      -3.469  46.662 -18.262  1.00  0.00     0.045 C 
BRANCH  27  29
HETATM   29  C20 UNL     1      -1.729  47.721 -19.771  1.00  0.00     0.197 C 
BRANCH  29  30
HETATM   30  O3  UNL     1      -1.341  48.154 -18.476  1.00  0.00    -0.397 OA
HETATM   31  H29 UNL     1      -0.498  48.623 -18.582  1.00  0.00     0.209 HD
ENDBRANCH  29  30
ENDBRANCH  27  29
ENDBRANCH  25  26
ENDBRANCH  24  25
ENDBRANCH  22  24
ENDBRANCH  14  22
BRANCH  20  32
HETATM   32  C27 UNL     1      -0.416  51.619 -22.554  1.00  0.00     0.021 C 
BRANCH  32  33
HETATM   33  C28 UNL     1       0.678  52.671 -22.382  1.00  0.00     0.112 C 
BRANCH  33  34
HETATM   34  C29 UNL     1       0.571  53.360 -21.043  1.00  0.00     0.258 C 
HETATM   35  O4  UNL     1       1.224  54.333 -20.692  1.00  0.00    -0.265 OA
BRANCH  34  36
HETATM   36  O5  UNL     1      -0.350  52.713 -20.272  1.00  0.00    -0.326 OA
HETATM   37  C30 UNL     1       0.024  52.591 -18.899  1.00  0.00     0.213 C 
ENDBRANCH  34  36
ENDBRANCH  33  34
ENDBRANCH  32  33
ENDBRANCH  20  32
TORSDOF 10
ENDMDL
MODEL 8
REMARK minimizedAffinity -8.3232193
REMARK  10 active torsions:
REMARK  status: ('A' for Active; 'I' for Inactive)
REMARK    1  A    between atoms: C12_14  and  C13_15 
REMARK    2  A    between atoms: C13_15  and  C15_17 
REMARK    3  A    between atoms: C15_17  and  C16_18 
REMARK    4  A    between atoms: C16_18  and  C17_19 
REMARK    5  A    between atoms: C18_20  and  C20_22 
REMARK    6  A    between atoms: C20_22  and  O3_23 
REMARK    7  A    between atoms: C26_29  and  C27_30 
REMARK    8  A    between atoms: C27_30  and  C28_31 
REMARK    9  A    between atoms: C28_31  and  C29_32 
REMARK   10  A    between atoms: C29_32  and  O5_34 
ROOT
HETATM    1  C1  UNL     1       0.486  51.060 -16.803  1.00  0.00     0.025 C 
HETATM    2  C2  UNL     1      -0.817  51.009 -17.103  1.00  0.00     0.015 C 
HETATM    3  C3  UNL     1      -1.814  50.526 -16.122  1.00  0.00     0.289 C 
HETATM    4  O1  UNL     1      -1.608  50.259 -14.953  1.00  0.00    -0.260 OA
HETATM    5  O2  UNL     1      -3.015  50.450 -16.752  1.00  0.00    -0.311 OA
HETATM    6  C4  UNL     1      -2.860  50.656 -18.169  1.00  0.00     0.142 C 
HETATM    7  C5  UNL     1      -2.990  49.305 -18.858  1.00  0.00     0.039 C 
HETATM    8  C6  UNL     1      -2.658  49.287 -20.357  1.00  0.00     0.006 C 
HETATM    9  C7  UNL     1      -1.379  50.083 -20.710  1.00  0.00    -0.027 A 
HETATM   10  C8  UNL     1      -1.064  50.149 -22.217  1.00  0.00     0.011 C 
HETATM   11  C9  UNL     1      -2.270  50.372 -23.143  1.00  0.00     0.011 C 
HETATM   12  C10 UNL     1      -3.416  49.403 -22.815  1.00  0.00    -0.032 C 
HETATM   13  C11 UNL     1      -2.940  47.940 -23.085  1.00  0.00     0.016 C 
HETATM   14  C12 UNL     1      -4.775  49.620 -23.563  1.00  0.00    -0.002 C 
HETATM   15  C21 UNL     1      -5.805  49.011 -22.560  1.00  0.00     0.006 C 
HETATM   16  C22 UNL     1      -5.101  48.836 -21.202  1.00  0.00     0.011 C 
HETATM   17  C23 UNL     1      -3.828  49.685 -21.312  1.00  0.00    -0.032 C 
HETATM   18  C24 UNL     1      -4.250  51.166 -21.048  1.00  0.00     0.016 C 
HETATM   19  C25 UNL     1      -0.148  49.794 -19.887  1.00  0.00     0.022 A 
HETATM   20  C26 UNL     1      -0.827  51.141 -19.702  1.00  0.00    -0.021 A 
HETATM   21  C31 UNL     1      -1.535  51.380 -18.360  1.00  0.00     0.063 C 
ENDROOT
BRANCH  14  22
HETATM   22  C13 UNL     1      -4.979  49.072 -25.010  1.00  0.00    -0.014 C 
HETATM   23  C14 UNL     1      -6.116  48.046 -25.085  1.00  0.00     0.010 C 
BRANCH  22  24
HETATM   24  C15 UNL     1      -3.659  48.439 -25.535  1.00  0.00     0.008 C 
BRANCH  24  25
HETATM   25  C16 UNL     1      -3.279  48.880 -26.955  1.00  0.00     0.028 C 
BRANCH  25  26
HETATM   26  C17 UNL     1      -3.179  50.379 -27.045  1.00  0.00    -0.022 C 
HETATM   27  C18 UNL     1      -2.129  51.156 -26.708  1.00  0.00    -0.064 C 
HETATM   28  C19 UNL     1      -0.804  50.636 -26.218  1.00  0.00     0.045 C 
BRANCH  27  29
HETATM   29  C20 UNL     1      -2.208  52.655 -26.834  1.00  0.00     0.197 C 
BRANCH  29  30
HETATM   30  O3  UNL     1      -1.760  53.029 -28.128  1.00  0.00    -0.397 OA
HETATM   31  H29 UNL     1      -1.808  53.998 -28.169  1.00  0.00     0.209 HD
ENDBRANCH  29  30
ENDBRANCH  27  29
ENDBRANCH  25  26
ENDBRANCH  24  25
ENDBRANCH  22  24
ENDBRANCH  14  22
BRANCH  20  32
HETATM   32  C27 UNL     1      -0.205  52.426 -20.275  1.00  0.00     0.021 C 
BRANCH  32  33
HETATM   33  C28 UNL     1       0.877  52.217 -21.334  1.00  0.00     0.112 C 
BRANCH  33  34
HETATM   34  C29 UNL     1       0.994  53.418 -22.241  1.00  0.00     0.258 C 
HETATM   35  O4  UNL     1       1.668  54.414 -22.016  1.00  0.00    -0.265 OA
BRANCH  34  36
HETATM   36  O5  UNL     1       0.212  53.234 -23.343  1.00  0.00    -0.326 OA
HETATM   37  C30 UNL     1       0.838  53.608 -24.570  1.00  0.00     0.213 C 
ENDBRANCH  34  36
ENDBRANCH  33  34
ENDBRANCH  32  33
ENDBRANCH  20  32
TORSDOF 10
ENDMDL
MODEL 9
REMARK minimizedAffinity -8.29361439
REMARK  10 active torsions:
REMARK  status: ('A' for Active; 'I' for Inactive)
REMARK    1  A    between atoms: C12_14  and  C13_15 
REMARK    2  A    between atoms: C13_15  and  C15_17 
REMARK    3  A    between atoms: C15_17  and  C16_18 
REMARK    4  A    between atoms: C16_18  and  C17_19 
REMARK    5  A    between atoms: C18_20  and  C20_22 
REMARK    6  A    between atoms: C20_22  and  O3_23 
REMARK    7  A    between atoms: C26_29  and  C27_30 
REMARK    8  A    between atoms: C27_30  and  C28_31 
REMARK    9  A    between atoms: C28_31  and  C29_32 
REMARK   10  A    between atoms: C29_32  and  O5_34 
ROOT
HETATM    1  C1  UNL     1       0.437  51.083 -20.592  1.00  0.00     0.025 C 
HETATM    2  C2  UNL     1      -0.860  51.364 -20.417  1.00  0.00     0.015 C 
HETATM    3  C3  UNL     1      -1.397  51.722 -19.086  1.00  0.00     0.289 C 
HETATM    4  O1  UNL     1      -0.750  51.923 -18.075  1.00  0.00    -0.260 OA
HETATM    5  O2  UNL     1      -2.748  51.808 -19.191  1.00  0.00    -0.311 OA
HETATM    6  C4  UNL     1      -3.190  51.325 -20.474  1.00  0.00     0.142 C 
HETATM    7  C5  UNL     1      -3.806  49.948 -20.273  1.00  0.00     0.039 C 
HETATM    8  C6  UNL     1      -4.159  49.183 -21.556  1.00  0.00     0.006 C 
HETATM    9  C7  UNL     1      -3.054  49.256 -22.636  1.00  0.00    -0.027 A 
HETATM   10  C8  UNL     1      -3.413  48.563 -23.965  1.00  0.00     0.011 C 
HETATM   11  C9  UNL     1      -4.852  48.775 -24.462  1.00  0.00     0.011 C 
HETATM   12  C10 UNL     1      -5.876  48.500 -23.350  1.00  0.00    -0.032 C 
HETATM   13  C11 UNL     1      -5.789  46.997 -22.937  1.00  0.00     0.016 C 
HETATM   14  C12 UNL     1      -7.374  48.836 -23.657  1.00  0.00    -0.002 C 
HETATM   15  C21 UNL     1      -7.951  49.109 -22.232  1.00  0.00     0.006 C 
HETATM   16  C22 UNL     1      -6.765  49.294 -21.267  1.00  0.00     0.011 C 
HETATM   17  C23 UNL     1      -5.552  49.517 -22.180  1.00  0.00    -0.032 C 
HETATM   18  C24 UNL     1      -5.591  51.014 -22.624  1.00  0.00     0.016 C 
HETATM   19  C25 UNL     1      -1.647  48.936 -22.193  1.00  0.00     0.022 A 
HETATM   20  C26 UNL     1      -1.969  50.376 -22.554  1.00  0.00    -0.021 A 
HETATM   21  C31 UNL     1      -1.985  51.391 -21.400  1.00  0.00     0.063 C 
ENDROOT
BRANCH  14  22
HETATM   22  C13 UNL     1      -8.262  47.834 -24.461  1.00  0.00    -0.014 C 
HETATM   23  C14 UNL     1      -7.995  46.378 -24.064  1.00  0.00     0.010 C 
BRANCH  22  24
HETATM   24  C15 UNL     1      -8.030  48.018 -25.988  1.00  0.00     0.008 C 
BRANCH  24  25
HETATM   25  C16 UNL     1      -7.206  46.896 -26.632  1.00  0.00     0.028 C 
BRANCH  25  26
HETATM   26  C17 UNL     1      -6.843  47.242 -28.051  1.00  0.00    -0.022 C 
HETATM   27  C18 UNL     1      -5.718  47.844 -28.490  1.00  0.00    -0.064 C 
HETATM   28  C19 UNL     1      -4.562  48.239 -27.611  1.00  0.00     0.045 C 
BRANCH  27  29
HETATM   29  C20 UNL     1      -5.526  48.145 -29.953  1.00  0.00     0.197 C 
BRANCH  29  30
HETATM   30  O3  UNL     1      -4.797  49.356 -30.079  1.00  0.00    -0.397 OA
HETATM   31  H29 UNL     1      -4.705  49.527 -31.030  1.00  0.00     0.209 HD
ENDBRANCH  29  30
ENDBRANCH  27  29
ENDBRANCH  25  26
ENDBRANCH  24  25
ENDBRANCH  22  24
ENDBRANCH  14  22
BRANCH  20  32
HETATM   32  C27 UNL     1      -1.469  50.993 -23.872  1.00  0.00     0.021 C 
BRANCH  32  33
HETATM   33  C28 UNL     1      -1.714  52.492 -24.032  1.00  0.00     0.112 C 
BRANCH  33  34
HETATM   34  C29 UNL     1      -0.596  53.151 -24.803  1.00  0.00     0.258 C 
HETATM   35  O4  UNL     1       0.509  53.422 -24.355  1.00  0.00    -0.265 OA
BRANCH  34  36
HETATM   36  O5  UNL     1      -1.017  53.421 -26.072  1.00  0.00    -0.326 OA
HETATM   37  C30 UNL     1       0.015  53.340 -27.056  1.00  0.00     0.213 C 
ENDBRANCH  34  36
ENDBRANCH  33  34
ENDBRANCH  32  33
ENDBRANCH  20  32
TORSDOF 10
ENDMDL
