MODEL 1
REMARK minimizedAffinity -9.92574883
REMARK  3 active torsions:
REMARK  status: ('A' for Active; 'I' for Inactive)
REMARK    1  A    between atoms: C4_4  and  C5_5 
REMARK    2  A    between atoms: C5_5  and  C7_7 
REMARK    3  A    between atoms: C7_7  and  O1_10 
ROOT
HETATM    1  C1  UNL     1      -4.688  49.274 -18.079  1.00  0.00     0.010 C 
HETATM    2  C2  UNL     1      -5.431  48.800 -19.325  1.00  0.00    -0.009 C 
HETATM    3  C3  UNL     1      -6.268  47.550 -19.026  1.00  0.00     0.037 C 
HETATM    4  C4  UNL     1      -7.187  47.210 -20.211  1.00  0.00     0.129 C 
HETATM    5  O2  UNL     1      -6.555  47.583 -21.452  1.00  0.00    -0.380 OA
HETATM    6  C10 UNL     1      -5.142  47.466 -21.485  1.00  0.00     0.128 C 
HETATM    7  C11 UNL     1      -4.643  47.880 -22.884  1.00  0.00     0.042 C 
HETATM    8  C12 UNL     1      -3.390  48.740 -22.619  1.00  0.00    -0.030 C 
HETATM    9  C13 UNL     1      -2.209  47.750 -22.365  1.00  0.00     0.016 C 
HETATM   10  C14 UNL     1      -3.037  49.728 -23.760  1.00  0.00     0.004 C 
HETATM   11  C15 UNL     1      -2.519  49.044 -25.032  1.00  0.00     0.007 C 
HETATM   12  C16 UNL     1      -2.267  50.073 -26.126  1.00  0.00     0.007 C 
HETATM   13  C17 UNL     1      -1.074  50.953 -25.751  1.00  0.00     0.010 C 
HETATM   14  C18 UNL     1      -0.750  52.077 -26.788  1.00  0.00     0.018 C 
HETATM   15  C19 UNL     1      -1.984  52.850 -27.276  1.00  0.00     0.023 C 
HETATM   16  C20 UNL     1      -0.018  51.472 -28.002  1.00  0.00     0.023 C 
HETATM   17  C21 UNL     1       0.217  53.087 -26.151  1.00  0.00     0.135 C 
HETATM   18  O3  UNL     1       0.361  54.223 -26.623  1.00  0.00    -0.297 OA
HETATM   19  C22 UNL     1       1.055  52.613 -24.993  1.00  0.00     0.080 C 
HETATM   20  C23 UNL     1       0.199  52.056 -23.860  1.00  0.00     0.018 C 
HETATM   21  C24 UNL     1      -1.147  51.515 -24.328  1.00  0.00    -0.026 A 
HETATM   22  C25 UNL     1      -2.386  52.241 -23.868  1.00  0.00     0.021 A 
HETATM   23  C26 UNL     1      -2.101  50.866 -23.285  1.00  0.00    -0.027 A 
HETATM   24  C27 UNL     1      -1.644  50.835 -21.819  1.00  0.00     0.011 C 
HETATM   25  C28 UNL     1      -2.620  50.261 -20.773  1.00  0.00     0.011 C 
HETATM   26  C29 UNL     1      -3.847  49.552 -21.358  1.00  0.00    -0.030 C 
HETATM   27  C30 UNL     1      -4.926  50.640 -21.649  1.00  0.00     0.016 C 
HETATM   28  C31 UNL     1      -4.465  48.430 -20.471  1.00  0.00     0.027 C 
ENDROOT
BRANCH   4  29
HETATM   29  C5  UNL     1      -8.601  47.891 -20.240  1.00  0.00     0.044 C 
HETATM   30  C6  UNL     1      -9.388  47.257 -21.416  1.00  0.00     0.015 C 
BRANCH  29  31
HETATM   31  C7  UNL     1      -9.436  47.868 -18.907  1.00  0.00     0.056 C 
HETATM   32  C8  UNL     1      -9.047  49.014 -17.953  1.00  0.00     0.045 C 
HETATM   33  C9  UNL     1     -10.957  48.006 -19.140  1.00  0.00     0.045 C 
BRANCH  31  34
HETATM   34  O1  UNL     1      -9.272  46.613 -18.246  1.00  0.00    -0.390 OA
HETATM   35  H18 UNL     1      -8.465  46.635 -17.703  1.00  0.00     0.210 HD
ENDBRANCH  31  34
ENDBRANCH  29  31
ENDBRANCH   4  29
TORSDOF 3
ENDMDL
MODEL 2
REMARK minimizedAffinity -9.81476498
REMARK  3 active torsions:
REMARK  status: ('A' for Active; 'I' for Inactive)
REMARK    1  A    between atoms: C4_4  and  C5_5 
REMARK    2  A    between atoms: C5_5  and  C7_7 
REMARK    3  A    between atoms: C7_7  and  O1_10 
ROOT
HETATM    1  C1  UNL     1       0.360  51.685 -21.122  1.00  0.00     0.010 C 
HETATM    2  C2  UNL     1      -0.448  51.522 -22.406  1.00  0.00    -0.009 C 
HETATM    3  C3  UNL     1      -0.039  52.569 -23.450  1.00  0.00     0.037 C 
HETATM    4  C4  UNL     1      -0.684  52.265 -24.812  1.00  0.00     0.129 C 
HETATM    5  O2  UNL     1      -1.976  51.652 -24.624  1.00  0.00    -0.380 OA
HETATM    6  C10 UNL     1      -2.700  52.077 -23.480  1.00  0.00     0.128 C 
HETATM    7  C11 UNL     1      -4.055  51.342 -23.450  1.00  0.00     0.042 C 
HETATM    8  C12 UNL     1      -4.255  50.939 -21.975  1.00  0.00    -0.030 C 
HETATM    9  C13 UNL     1      -4.793  52.202 -21.231  1.00  0.00     0.016 C 
HETATM   10  C14 UNL     1      -5.207  49.734 -21.762  1.00  0.00     0.004 C 
HETATM   11  C15 UNL     1      -6.679  50.049 -22.062  1.00  0.00     0.007 C 
HETATM   12  C16 UNL     1      -7.535  48.800 -21.903  1.00  0.00     0.007 C 
HETATM   13  C17 UNL     1      -7.607  48.401 -20.429  1.00  0.00     0.010 C 
HETATM   14  C18 UNL     1      -8.430  47.101 -20.152  1.00  0.00     0.018 C 
HETATM   15  C19 UNL     1      -8.110  45.944 -21.109  1.00  0.00     0.023 C 
HETATM   16  C20 UNL     1      -9.938  47.413 -20.220  1.00  0.00     0.023 C 
HETATM   17  C21 UNL     1      -8.145  46.621 -18.720  1.00  0.00     0.135 C 
HETATM   18  O3  UNL     1      -8.395  45.458 -18.372  1.00  0.00    -0.297 OA
HETATM   19  C22 UNL     1      -7.644  47.639 -17.730  1.00  0.00     0.080 C 
HETATM   20  C23 UNL     1      -6.375  48.330 -18.218  1.00  0.00     0.018 C 
HETATM   21  C24 UNL     1      -6.242  48.352 -19.736  1.00  0.00    -0.026 A 
HETATM   22  C25 UNL     1      -5.116  47.558 -20.347  1.00  0.00     0.021 A 
HETATM   23  C26 UNL     1      -5.022  49.075 -20.374  1.00  0.00    -0.027 A 
HETATM   24  C27 UNL     1      -3.988  49.705 -19.429  1.00  0.00     0.011 C 
HETATM   25  C28 UNL     1      -2.740  50.355 -20.057  1.00  0.00     0.011 C 
HETATM   26  C29 UNL     1      -2.796  50.518 -21.580  1.00  0.00    -0.030 C 
HETATM   27  C30 UNL     1      -2.320  49.177 -22.217  1.00  0.00     0.016 C 
HETATM   28  C31 UNL     1      -1.963  51.698 -22.165  1.00  0.00     0.027 C 
ENDROOT
BRANCH   4  29
HETATM   29  C5  UNL     1       0.097  51.305 -25.778  1.00  0.00     0.044 C 
HETATM   30  C6  UNL     1      -0.957  50.421 -26.493  1.00  0.00     0.015 C 
BRANCH  29  31
HETATM   31  C7  UNL     1       1.086  51.970 -26.805  1.00  0.00     0.056 C 
HETATM   32  C8  UNL     1       2.540  51.500 -26.607  1.00  0.00     0.045 C 
HETATM   33  C9  UNL     1       0.734  51.660 -28.277  1.00  0.00     0.045 C 
BRANCH  31  34
HETATM   34  O1  UNL     1       1.020  53.394 -26.698  1.00  0.00    -0.390 OA
HETATM   35  H18 UNL     1       1.610  53.693 -25.984  1.00  0.00     0.210 HD
ENDBRANCH  31  34
ENDBRANCH  29  31
ENDBRANCH   4  29
TORSDOF 3
ENDMDL
MODEL 3
REMARK minimizedAffinity -9.77771378
REMARK  3 active torsions:
REMARK  status: ('A' for Active; 'I' for Inactive)
REMARK    1  A    between atoms: C4_4  and  C5_5 
REMARK    2  A    between atoms: C5_5  and  C7_7 
REMARK    3  A    between atoms: C7_7  and  O1_10 
ROOT
HETATM    1  C1  UNL     1      -7.602  49.212 -20.384  1.00  0.00     0.010 C 
HETATM    2  C2  UNL     1      -7.524  48.823 -21.858  1.00  0.00    -0.009 C 
HETATM    3  C3  UNL     1      -8.335  47.550 -22.135  1.00  0.00     0.037 C 
HETATM    4  C4  UNL     1      -8.445  47.290 -23.647  1.00  0.00     0.129 C 
HETATM    5  O2  UNL     1      -7.254  47.752 -24.317  1.00  0.00    -0.380 OA
HETATM    6  C10 UNL     1      -6.047  47.643 -23.578  1.00  0.00     0.128 C 
HETATM    7  C11 UNL     1      -4.885  48.157 -24.450  1.00  0.00     0.042 C 
HETATM    8  C12 UNL     1      -4.017  49.002 -23.496  1.00  0.00    -0.030 C 
HETATM    9  C13 UNL     1      -3.125  48.003 -22.692  1.00  0.00     0.016 C 
HETATM   10  C14 UNL     1      -3.141  50.069 -24.201  1.00  0.00     0.004 C 
HETATM   11  C15 UNL     1      -1.984  49.477 -25.017  1.00  0.00     0.007 C 
HETATM   12  C16 UNL     1      -1.220  50.581 -25.736  1.00  0.00     0.007 C 
HETATM   13  C17 UNL     1      -0.463  51.440 -24.721  1.00  0.00     0.010 C 
HETATM   14  C18 UNL     1       0.326  52.634 -25.348  1.00  0.00     0.018 C 
HETATM   15  C19 UNL     1      -0.472  53.433 -26.388  1.00  0.00     0.023 C 
HETATM   16  C20 UNL     1       1.627  52.119 -25.995  1.00  0.00     0.023 C 
HETATM   17  C21 UNL     1       0.745  53.602 -24.230  1.00  0.00     0.135 C 
HETATM   18  O3  UNL     1       1.075  54.769 -24.483  1.00  0.00    -0.297 OA
HETATM   19  C22 UNL     1       0.836  53.053 -22.831  1.00  0.00     0.080 C 
HETATM   20  C23 UNL     1      -0.476  52.414 -22.385  1.00  0.00     0.018 C 
HETATM   21  C24 UNL     1      -1.325  51.901 -23.542  1.00  0.00    -0.026 A 
HETATM   22  C25 UNL     1      -2.643  52.586 -23.796  1.00  0.00     0.021 A 
HETATM   23  C26 UNL     1      -2.664  51.175 -23.229  1.00  0.00    -0.027 A 
HETATM   24  C27 UNL     1      -3.080  51.045 -21.756  1.00  0.00     0.011 C 
HETATM   25  C28 UNL     1      -4.443  50.395 -21.448  1.00  0.00     0.011 C 
HETATM   26  C29 UNL     1      -5.122  49.722 -22.647  1.00  0.00    -0.030 C 
HETATM   27  C30 UNL     1      -5.911  50.823 -23.420  1.00  0.00     0.016 C 
HETATM   28  C31 UNL     1      -6.075  48.538 -22.307  1.00  0.00     0.027 C 
ENDROOT
BRANCH   4  29
HETATM   29  C5  UNL     1      -9.641  47.964 -24.408  1.00  0.00     0.044 C 
HETATM   30  C6  UNL     1      -9.032  48.814 -25.551  1.00  0.00     0.015 C 
BRANCH  29  31
HETATM   31  C7  UNL     1     -10.780  47.016 -24.934  1.00  0.00     0.056 C 
HETATM   32  C8  UNL     1     -11.250  47.396 -26.352  1.00  0.00     0.045 C 
HETATM   33  C9  UNL     1     -10.352  45.534 -25.011  1.00  0.00     0.045 C 
BRANCH  31  34
HETATM   34  O1  UNL     1     -11.891  47.037 -24.036  1.00  0.00    -0.390 OA
HETATM   35  H18 UNL     1     -12.465  47.793 -24.248  1.00  0.00     0.210 HD
ENDBRANCH  31  34
ENDBRANCH  29  31
ENDBRANCH   4  29
TORSDOF 3
ENDMDL
MODEL 4
REMARK minimizedAffinity -9.60305309
REMARK  3 active torsions:
REMARK  status: ('A' for Active; 'I' for Inactive)
REMARK    1  A    between atoms: C4_4  and  C5_5 
REMARK    2  A    between atoms: C5_5  and  C7_7 
REMARK    3  A    between atoms: C7_7  and  O1_10 
ROOT
HETATM    1  C1  UNL     1       0.635  51.786 -21.637  1.00  0.00     0.010 C 
HETATM    2  C2  UNL     1      -0.163  51.991 -22.922  1.00  0.00    -0.009 C 
HETATM    3  C3  UNL     1       0.207  53.320 -23.593  1.00  0.00     0.037 C 
HETATM    4  C4  UNL     1      -0.421  53.419 -24.993  1.00  0.00     0.129 C 
HETATM    5  O2  UNL     1      -1.688  52.730 -25.018  1.00  0.00    -0.380 OA
HETATM    6  C10 UNL     1      -2.432  52.761 -23.810  1.00  0.00     0.128 C 
HETATM    7  C11 UNL     1      -3.756  52.002 -24.024  1.00  0.00     0.042 C 
HETATM    8  C12 UNL     1      -3.945  51.163 -22.744  1.00  0.00    -0.030 C 
HETATM    9  C13 UNL     1      -4.535  52.120 -21.660  1.00  0.00     0.016 C 
HETATM   10  C14 UNL     1      -4.848  49.916 -22.920  1.00  0.00     0.004 C 
HETATM   11  C15 UNL     1      -6.330  50.252 -23.133  1.00  0.00     0.007 C 
HETATM   12  C16 UNL     1      -7.136  48.982 -23.372  1.00  0.00     0.007 C 
HETATM   13  C17 UNL     1      -7.197  48.152 -22.089  1.00  0.00     0.010 C 
HETATM   14  C18 UNL     1      -7.968  46.800 -22.232  1.00  0.00     0.018 C 
HETATM   15  C19 UNL     1      -7.599  46.001 -23.490  1.00  0.00     0.023 C 
HETATM   16  C20 UNL     1      -9.487  47.062 -22.224  1.00  0.00     0.023 C 
HETATM   17  C21 UNL     1      -7.668  45.919 -21.009  1.00  0.00     0.135 C 
HETATM   18  O3  UNL     1      -7.872  44.697 -21.033  1.00  0.00    -0.297 OA
HETATM   19  C22 UNL     1      -7.211  46.607 -19.749  1.00  0.00     0.080 C 
HETATM   20  C23 UNL     1      -5.969  47.460 -19.986  1.00  0.00     0.018 C 
HETATM   21  C24 UNL     1      -5.833  47.947 -21.424  1.00  0.00    -0.026 A 
HETATM   22  C25 UNL     1      -4.675  47.418 -22.230  1.00  0.00     0.021 A 
HETATM   23  C26 UNL     1      -4.641  48.874 -21.795  1.00  0.00    -0.027 A 
HETATM   24  C27 UNL     1      -3.636  49.226 -20.688  1.00  0.00     0.011 C 
HETATM   25  C28 UNL     1      -2.413  50.081 -21.071  1.00  0.00     0.011 C 
HETATM   26  C29 UNL     1      -2.471  50.697 -22.474  1.00  0.00    -0.030 C 
HETATM   27  C30 UNL     1      -1.940  49.630 -23.480  1.00  0.00     0.016 C 
HETATM   28  C31 UNL     1      -1.684  52.028 -22.661  1.00  0.00     0.027 C 
ENDROOT
BRANCH   4  29
HETATM   29  C5  UNL     1       0.400  52.827 -26.193  1.00  0.00     0.044 C 
HETATM   30  C6  UNL     1       1.505  51.925 -25.587  1.00  0.00     0.015 C 
BRANCH  29  31
HETATM   31  C7  UNL     1      -0.409  52.079 -27.315  1.00  0.00     0.056 C 
HETATM   32  C8  UNL     1       0.460  51.753 -28.546  1.00  0.00     0.045 C 
HETATM   33  C9  UNL     1      -1.000  50.732 -26.842  1.00  0.00     0.045 C 
BRANCH  31  34
HETATM   34  O1  UNL     1      -1.536  52.861 -27.713  1.00  0.00    -0.390 OA
HETATM   35  H18 UNL     1      -1.261  53.507 -28.387  1.00  0.00     0.210 HD
ENDBRANCH  31  34
ENDBRANCH  29  31
ENDBRANCH   4  29
TORSDOF 3
ENDMDL
MODEL 5
REMARK minimizedAffinity -9.56232834
REMARK  3 active torsions:
REMARK  status: ('A' for Active; 'I' for Inactive)
REMARK    1  A    between atoms: C4_4  and  C5_5 
REMARK    2  A    between atoms: C5_5  and  C7_7 
REMARK    3  A    between atoms: C7_7  and  O1_10 
ROOT
HETATM    1  C1  UNL     1       1.656  51.889 -16.686  1.00  0.00     0.010 C 
HETATM    2  C2  UNL     1       0.323  51.151 -16.609  1.00  0.00    -0.009 C 
HETATM    3  C3  UNL     1       0.273  50.231 -15.382  1.00  0.00     0.037 C 
HETATM    4  C4  UNL     1      -1.143  49.666 -15.179  1.00  0.00     0.129 C 
HETATM    5  O2  UNL     1      -1.794  49.488 -16.454  1.00  0.00    -0.380 OA
HETATM    6  C10 UNL     1      -0.946  49.135 -17.536  1.00  0.00     0.128 C 
HETATM    7  C11 UNL     1      -1.807  48.965 -18.803  1.00  0.00     0.042 C 
HETATM    8  C12 UNL     1      -0.998  49.645 -19.927  1.00  0.00    -0.030 C 
HETATM    9  C13 UNL     1       0.087  48.620 -20.385  1.00  0.00     0.016 C 
HETATM   10  C14 UNL     1      -1.848  50.117 -21.134  1.00  0.00     0.004 C 
HETATM   11  C15 UNL     1      -2.403  48.967 -21.985  1.00  0.00     0.007 C 
HETATM   12  C16 UNL     1      -3.285  49.509 -23.103  1.00  0.00     0.007 C 
HETATM   13  C17 UNL     1      -2.430  50.256 -24.127  1.00  0.00     0.010 C 
HETATM   14  C18 UNL     1      -3.241  50.893 -25.302  1.00  0.00     0.018 C 
HETATM   15  C19 UNL     1      -4.501  51.647 -24.854  1.00  0.00     0.023 C 
HETATM   16  C20 UNL     1      -3.636  49.801 -26.316  1.00  0.00     0.023 C 
HETATM   17  C21 UNL     1      -2.340  51.886 -26.054  1.00  0.00     0.135 C 
HETATM   18  O3  UNL     1      -2.822  52.756 -26.794  1.00  0.00    -0.297 OA
HETATM   19  C22 UNL     1      -0.850  51.701 -25.939  1.00  0.00     0.080 C 
HETATM   20  C23 UNL     1      -0.387  51.709 -24.486  1.00  0.00     0.018 C 
HETATM   21  C24 UNL     1      -1.467  51.270 -23.503  1.00  0.00    -0.026 A 
HETATM   22  C25 UNL     1      -1.985  52.301 -22.533  1.00  0.00     0.021 A 
HETATM   23  C26 UNL     1      -1.115  51.178 -21.990  1.00  0.00    -0.027 A 
HETATM   24  C27 UNL     1       0.306  51.570 -21.560  1.00  0.00     0.011 C 
HETATM   25  C28 UNL     1       0.633  51.553 -20.055  1.00  0.00     0.011 C 
HETATM   26  C29 UNL     1      -0.436  50.900 -19.171  1.00  0.00    -0.030 C 
HETATM   27  C30 UNL     1      -1.506  51.986 -18.844  1.00  0.00     0.016 C 
HETATM   28  C31 UNL     1       0.080  50.261 -17.847  1.00  0.00     0.027 C 
ENDROOT
BRANCH   4  29
HETATM   29  C5  UNL     1      -2.139  50.519 -14.316  1.00  0.00     0.044 C 
HETATM   30  C6  UNL     1      -3.233  51.052 -15.277  1.00  0.00     0.015 C 
BRANCH  29  31
HETATM   31  C7  UNL     1      -2.768  49.826 -13.052  1.00  0.00     0.056 C 
HETATM   32  C8  UNL     1      -1.725  49.034 -12.238  1.00  0.00     0.045 C 
HETATM   33  C9  UNL     1      -3.408  50.827 -12.065  1.00  0.00     0.045 C 
BRANCH  31  34
HETATM   34  O1  UNL     1      -3.833  48.958 -13.446  1.00  0.00    -0.390 OA
HETATM   35  H18 UNL     1      -3.468  48.092 -13.700  1.00  0.00     0.210 HD
ENDBRANCH  31  34
ENDBRANCH  29  31
ENDBRANCH   4  29
TORSDOF 3
ENDMDL
MODEL 6
REMARK minimizedAffinity -9.43502808
REMARK  3 active torsions:
REMARK  status: ('A' for Active; 'I' for Inactive)
REMARK    1  A    between atoms: C4_4  and  C5_5 
REMARK    2  A    between atoms: C5_5  and  C7_7 
REMARK    3  A    between atoms: C7_7  and  O1_10 
ROOT
HETATM    1  C1  UNL     1      -1.699  52.760 -24.344  1.00  0.00     0.010 C 
HETATM    2  C2  UNL     1      -1.178  52.205 -23.021  1.00  0.00    -0.009 C 
HETATM    3  C3  UNL     1       0.353  52.107 -23.029  1.00  0.00     0.037 C 
HETATM    4  C4  UNL     1       0.886  51.768 -21.627  1.00  0.00     0.129 C 
HETATM    5  O2  UNL     1      -0.057  50.932 -20.926  1.00  0.00    -0.380 OA
HETATM    6  C10 UNL     1      -0.802  50.032 -21.731  1.00  0.00     0.128 C 
HETATM    7  C11 UNL     1      -1.734  49.209 -20.820  1.00  0.00     0.042 C 
HETATM    8  C12 UNL     1      -3.077  49.151 -21.576  1.00  0.00    -0.030 C 
HETATM    9  C13 UNL     1      -2.943  48.025 -22.650  1.00  0.00     0.016 C 
HETATM   10  C14 UNL     1      -4.312  48.899 -20.674  1.00  0.00     0.004 C 
HETATM   11  C15 UNL     1      -4.373  47.480 -20.093  1.00  0.00     0.007 C 
HETATM   12  C16 UNL     1      -5.569  47.336 -19.162  1.00  0.00     0.007 C 
HETATM   13  C17 UNL     1      -6.868  47.388 -19.967  1.00  0.00     0.010 C 
HETATM   14  C18 UNL     1      -8.167  47.291 -19.103  1.00  0.00     0.018 C 
HETATM   15  C19 UNL     1      -8.156  48.187 -17.857  1.00  0.00     0.023 C 
HETATM   16  C20 UNL     1      -8.402  45.829 -18.676  1.00  0.00     0.023 C 
HETATM   17  C21 UNL     1      -9.375  47.696 -19.964  1.00  0.00     0.135 C 
HETATM   18  O3  UNL     1     -10.450  48.028 -19.445  1.00  0.00    -0.297 OA
HETATM   19  C22 UNL     1      -9.235  47.581 -21.459  1.00  0.00     0.080 C 
HETATM   20  C23 UNL     1      -8.042  48.375 -21.982  1.00  0.00     0.018 C 
HETATM   21  C24 UNL     1      -6.939  48.563 -20.947  1.00  0.00    -0.026 A 
HETATM   22  C25 UNL     1      -6.672  49.964 -20.461  1.00  0.00     0.021 A 
HETATM   23  C26 UNL     1      -5.637  49.307 -21.362  1.00  0.00    -0.027 A 
HETATM   24  C27 UNL     1      -5.548  49.848 -22.796  1.00  0.00     0.011 C 
HETATM   25  C28 UNL     1      -4.292  50.652 -23.185  1.00  0.00     0.011 C 
HETATM   26  C29 UNL     1      -3.154  50.606 -22.159  1.00  0.00    -0.030 C 
HETATM   27  C30 UNL     1      -3.433  51.711 -21.094  1.00  0.00     0.016 C 
HETATM   28  C31 UNL     1      -1.717  50.787 -22.734  1.00  0.00     0.027 C 
ENDROOT
BRANCH   4  29
HETATM   29  C5  UNL     1       1.180  52.969 -20.661  1.00  0.00     0.044 C 
HETATM   30  C6  UNL     1       1.049  54.269 -21.495  1.00  0.00     0.015 C 
BRANCH  29  31
HETATM   31  C7  UNL     1       0.336  53.045 -19.335  1.00  0.00     0.056 C 
HETATM   32  C8  UNL     1      -0.937  52.179 -19.400  1.00  0.00     0.045 C 
HETATM   33  C9  UNL     1       1.115  52.565 -18.090  1.00  0.00     0.045 C 
BRANCH  31  34
HETATM   34  O1  UNL     1      -0.016  54.401 -19.054  1.00  0.00    -0.390 OA
HETATM   35  H18 UNL     1      -0.824  54.634 -19.544  1.00  0.00     0.210 HD
ENDBRANCH  31  34
ENDBRANCH  29  31
ENDBRANCH   4  29
TORSDOF 3
ENDMDL
MODEL 7
REMARK minimizedAffinity -9.42617893
REMARK  3 active torsions:
REMARK  status: ('A' for Active; 'I' for Inactive)
REMARK    1  A    between atoms: C4_4  and  C5_5 
REMARK    2  A    between atoms: C5_5  and  C7_7 
REMARK    3  A    between atoms: C7_7  and  O1_10 
ROOT
HETATM    1  C1  UNL     1       0.627  51.841 -21.190  1.00  0.00     0.010 C 
HETATM    2  C2  UNL     1      -0.250  51.506 -22.393  1.00  0.00    -0.009 C 
HETATM    3  C3  UNL     1      -0.112  52.570 -23.489  1.00  0.00     0.037 C 
HETATM    4  C4  UNL     1      -0.811  52.119 -24.781  1.00  0.00     0.129 C 
HETATM    5  O2  UNL     1      -1.962  51.309 -24.466  1.00  0.00    -0.380 OA
HETATM    6  C10 UNL     1      -2.646  51.647 -23.269  1.00  0.00     0.128 C 
HETATM    7  C11 UNL     1      -3.852  50.701 -23.104  1.00  0.00     0.042 C 
HETATM    8  C12 UNL     1      -3.855  50.320 -21.610  1.00  0.00    -0.030 C 
HETATM    9  C13 UNL     1      -4.530  51.502 -20.844  1.00  0.00     0.016 C 
HETATM   10  C14 UNL     1      -4.572  48.983 -21.290  1.00  0.00     0.004 C 
HETATM   11  C15 UNL     1      -6.095  49.042 -21.462  1.00  0.00     0.007 C 
HETATM   12  C16 UNL     1      -6.715  47.675 -21.203  1.00  0.00     0.007 C 
HETATM   13  C17 UNL     1      -6.593  47.319 -19.721  1.00  0.00     0.010 C 
HETATM   14  C18 UNL     1      -7.161  45.911 -19.347  1.00  0.00     0.018 C 
HETATM   15  C19 UNL     1      -6.737  44.792 -20.308  1.00  0.00     0.023 C 
HETATM   16  C20 UNL     1      -8.700  45.969 -19.285  1.00  0.00     0.023 C 
HETATM   17  C21 UNL     1      -6.679  45.532 -17.938  1.00  0.00     0.135 C 
HETATM   18  O3  UNL     1      -6.701  44.356 -17.547  1.00  0.00    -0.297 OA
HETATM   19  C22 UNL     1      -6.271  46.651 -17.016  1.00  0.00     0.080 C 
HETATM   20  C23 UNL     1      -5.181  47.525 -17.629  1.00  0.00     0.018 C 
HETATM   21  C24 UNL     1      -5.184  47.518 -19.153  1.00  0.00    -0.026 A 
HETATM   22  C25 UNL     1      -3.999  46.899 -19.849  1.00  0.00     0.021 A 
HETATM   23  C26 UNL     1      -4.161  48.410 -19.912  1.00  0.00    -0.027 A 
HETATM   24  C27 UNL     1      -3.169  49.232 -19.076  1.00  0.00     0.011 C 
HETATM   25  C28 UNL     1      -2.105  50.056 -19.825  1.00  0.00     0.011 C 
HETATM   26  C29 UNL     1      -2.319  50.158 -21.340  1.00  0.00    -0.030 C 
HETATM   27  C30 UNL     1      -1.682  48.892 -21.992  1.00  0.00     0.016 C 
HETATM   28  C31 UNL     1      -1.746  51.438 -22.019  1.00  0.00     0.027 C 
ENDROOT
BRANCH   4  29
HETATM   29  C5  UNL     1       0.033  51.269 -25.796  1.00  0.00     0.044 C 
HETATM   30  C6  UNL     1      -0.961  50.366 -26.570  1.00  0.00     0.015 C 
BRANCH  29  31
HETATM   31  C7  UNL     1       0.983  52.054 -26.772  1.00  0.00     0.056 C 
HETATM   32  C8  UNL     1       2.457  51.627 -26.625  1.00  0.00     0.045 C 
HETATM   33  C9  UNL     1       0.627  51.851 -28.262  1.00  0.00     0.045 C 
BRANCH  31  34
HETATM   34  O1  UNL     1       0.864  53.460 -26.549  1.00  0.00    -0.390 OA
HETATM   35  H18 UNL     1       1.450  53.723 -25.818  1.00  0.00     0.210 HD
ENDBRANCH  31  34
ENDBRANCH  29  31
ENDBRANCH   4  29
TORSDOF 3
ENDMDL
MODEL 8
REMARK minimizedAffinity -9.22957325
REMARK  3 active torsions:
REMARK  status: ('A' for Active; 'I' for Inactive)
REMARK    1  A    between atoms: C4_4  and  C5_5 
REMARK    2  A    between atoms: C5_5  and  C7_7 
REMARK    3  A    between atoms: C7_7  and  O1_10 
ROOT
HETATM    1  C1  UNL     1      -0.116  51.290 -21.100  1.00  0.00     0.010 C 
HETATM    2  C2  UNL     1      -0.769  51.047 -22.458  1.00  0.00    -0.009 C 
HETATM    3  C3  UNL     1      -0.546  52.239 -23.398  1.00  0.00     0.037 C 
HETATM    4  C4  UNL     1      -1.002  51.902 -24.827  1.00  0.00     0.129 C 
HETATM    5  O2  UNL     1      -2.122  50.994 -24.790  1.00  0.00    -0.380 OA
HETATM    6  C10 UNL     1      -3.005  51.148 -23.691  1.00  0.00     0.128 C 
HETATM    7  C11 UNL     1      -4.145  50.119 -23.824  1.00  0.00     0.042 C 
HETATM    8  C12 UNL     1      -4.349  49.565 -22.399  1.00  0.00    -0.030 C 
HETATM    9  C13 UNL     1      -5.223  50.607 -21.631  1.00  0.00     0.016 C 
HETATM   10  C14 UNL     1      -5.001  48.160 -22.344  1.00  0.00     0.004 C 
HETATM   11  C15 UNL     1      -6.480  48.148 -22.753  1.00  0.00     0.007 C 
HETATM   12  C16 UNL     1      -7.024  46.726 -22.744  1.00  0.00     0.007 C 
HETATM   13  C17 UNL     1      -7.105  46.206 -21.308  1.00  0.00     0.010 C 
HETATM   14  C18 UNL     1      -7.614  44.733 -21.184  1.00  0.00     0.018 C 
HETATM   15  C19 UNL     1      -6.961  43.761 -22.177  1.00  0.00     0.023 C 
HETATM   16  C20 UNL     1      -9.143  44.692 -21.365  1.00  0.00     0.023 C 
HETATM   17  C21 UNL     1      -7.326  44.220 -19.764  1.00  0.00     0.135 C 
HETATM   18  O3  UNL     1      -7.317  43.008 -19.509  1.00  0.00    -0.297 OA
HETATM   19  C22 UNL     1      -7.152  45.246 -18.674  1.00  0.00     0.080 C 
HETATM   20  C23 UNL     1      -6.052  46.248 -19.006  1.00  0.00     0.018 C 
HETATM   21  C24 UNL     1      -5.820  46.420 -20.503  1.00  0.00    -0.026 A 
HETATM   22  C25 UNL     1      -4.498  45.959 -21.059  1.00  0.00     0.021 A 
HETATM   23  C26 UNL     1      -4.764  47.454 -20.987  1.00  0.00    -0.027 A 
HETATM   24  C27 UNL     1      -3.979  48.230 -19.918  1.00  0.00     0.011 C 
HETATM   25  C28 UNL     1      -2.880  49.198 -20.394  1.00  0.00     0.011 C 
HETATM   26  C29 UNL     1      -2.864  49.464 -21.904  1.00  0.00    -0.030 C 
HETATM   27  C30 UNL     1      -2.039  48.324 -22.575  1.00  0.00     0.016 C 
HETATM   28  C31 UNL     1      -2.295  50.847 -22.341  1.00  0.00     0.027 C 
ENDROOT
BRANCH   4  29
HETATM   29  C5  UNL     1       0.051  51.229 -25.776  1.00  0.00     0.044 C 
HETATM   30  C6  UNL     1      -0.713  50.197 -26.645  1.00  0.00     0.015 C 
BRANCH  29  31
HETATM   31  C7  UNL     1       0.937  52.185 -26.657  1.00  0.00     0.056 C 
HETATM   32  C8  UNL     1       2.419  51.764 -26.670  1.00  0.00     0.045 C 
HETATM   33  C9  UNL     1       0.495  52.231 -28.137  1.00  0.00     0.045 C 
BRANCH  31  34
HETATM   34  O1  UNL     1       0.820  53.530 -26.192  1.00  0.00    -0.390 OA
HETATM   35  H18 UNL     1       1.447  53.675 -25.461  1.00  0.00     0.210 HD
ENDBRANCH  31  34
ENDBRANCH  29  31
ENDBRANCH   4  29
TORSDOF 3
ENDMDL
MODEL 9
REMARK minimizedAffinity -9.22927094
REMARK  3 active torsions:
REMARK  status: ('A' for Active; 'I' for Inactive)
REMARK    1  A    between atoms: C4_4  and  C5_5 
REMARK    2  A    between atoms: C5_5  and  C7_7 
REMARK    3  A    between atoms: C7_7  and  O1_10 
ROOT
HETATM    1  C1  UNL     1      -3.334  49.212 -27.302  1.00  0.00     0.010 C 
HETATM    2  C2  UNL     1      -2.769  50.019 -26.135  1.00  0.00    -0.009 C 
HETATM    3  C3  UNL     1      -1.284  50.334 -26.352  1.00  0.00     0.037 C 
HETATM    4  C4  UNL     1      -0.777  51.333 -25.298  1.00  0.00     0.129 C 
HETATM    5  O2  UNL     1      -1.473  51.133 -24.050  1.00  0.00    -0.380 OA
HETATM    6  C10 UNL     1      -1.851  49.796 -23.761  1.00  0.00     0.128 C 
HETATM    7  C11 UNL     1      -2.557  49.767 -22.391  1.00  0.00     0.042 C 
HETATM    8  C12 UNL     1      -3.760  48.822 -22.585  1.00  0.00    -0.030 C 
HETATM    9  C13 UNL     1      -3.213  47.364 -22.464  1.00  0.00     0.016 C 
HETATM   10  C14 UNL     1      -4.924  49.052 -21.587  1.00  0.00     0.004 C 
HETATM   11  C15 UNL     1      -4.597  48.631 -20.149  1.00  0.00     0.007 C 
HETATM   12  C16 UNL     1      -5.760  48.957 -19.220  1.00  0.00     0.007 C 
HETATM   13  C17 UNL     1      -6.950  48.051 -19.536  1.00  0.00     0.010 C 
HETATM   14  C18 UNL     1      -8.220  48.328 -18.667  1.00  0.00     0.018 C 
HETATM   15  C19 UNL     1      -8.571  49.817 -18.533  1.00  0.00     0.023 C 
HETATM   16  C20 UNL     1      -8.034  47.722 -17.262  1.00  0.00     0.023 C 
HETATM   17  C21 UNL     1      -9.426  47.614 -19.297  1.00  0.00     0.135 C 
HETATM   18  O3  UNL     1     -10.587  47.940 -19.010  1.00  0.00    -0.297 OA
HETATM   19  C22 UNL     1      -9.148  46.441 -20.199  1.00  0.00     0.080 C 
HETATM   20  C23 UNL     1      -8.216  46.814 -21.347  1.00  0.00     0.018 C 
HETATM   21  C24 UNL     1      -7.299  47.989 -21.026  1.00  0.00    -0.026 A 
HETATM   22  C25 UNL     1      -7.504  49.263 -21.804  1.00  0.00     0.021 A 
HETATM   23  C26 UNL     1      -6.256  48.442 -22.087  1.00  0.00    -0.027 A 
HETATM   24  C27 UNL     1      -6.228  47.694 -23.428  1.00  0.00     0.011 C 
HETATM   25  C28 UNL     1      -5.249  48.190 -24.509  1.00  0.00     0.011 C 
HETATM   26  C29 UNL     1      -4.229  49.228 -24.026  1.00  0.00    -0.030 C 
HETATM   27  C30 UNL     1      -4.906  50.630 -24.110  1.00  0.00     0.016 C 
HETATM   28  C31 UNL     1      -2.875  49.255 -24.797  1.00  0.00     0.027 C 
ENDROOT
BRANCH   4  29
HETATM   29  C5  UNL     1      -0.932  52.861 -25.623  1.00  0.00     0.044 C 
HETATM   30  C6  UNL     1       0.026  53.627 -24.676  1.00  0.00     0.015 C 
BRANCH  29  31
HETATM   31  C7  UNL     1      -0.738  53.298 -27.121  1.00  0.00     0.056 C 
HETATM   32  C8  UNL     1      -0.108  54.699 -27.246  1.00  0.00     0.045 C 
HETATM   33  C9  UNL     1       0.180  52.345 -27.919  1.00  0.00     0.045 C 
BRANCH  31  34
HETATM   34  O1  UNL     1      -1.991  53.269 -27.807  1.00  0.00    -0.390 OA
HETATM   35  H18 UNL     1      -2.462  54.107 -27.657  1.00  0.00     0.210 HD
ENDBRANCH  31  34
ENDBRANCH  29  31
ENDBRANCH   4  29
TORSDOF 3
ENDMDL
