MODEL 1
REMARK minimizedAffinity -7.82278013
REMARK CNNscore 0.517177045
REMARK CNNaffinity 6.64543152
REMARK  13 active torsions:
REMARK  status: ('A' for Active; 'I' for Inactive)
REMARK    1  A    between atoms: C2_2  and  C3_3 
REMARK    2  A    between atoms: C2_2  and  C9_9 
REMARK    3  A    between atoms: C3_3  and  C4_4 
REMARK    4  A    between atoms: C4_4  and  C5_5 
REMARK    5  A    between atoms: C18_18  and  O1_19 
REMARK    6  A    between atoms: C19_20  and  C21_22 
REMARK    7  A    between atoms: C21_22  and  O3_24 
REMARK    8  A    between atoms: C30_33  and  O4_34 
REMARK    9  A    between atoms: O4_34  and  C31_35 
REMARK   10  A    between atoms: C32_37  and  C33_38 
REMARK   11  A    between atoms: C33_38  and  O6_39 
REMARK   12  A    between atoms: C34_40  and  O7_41 
REMARK   13  A    between atoms: C35_42  and  O8_43 
ROOT
HETATM    1  C9  UNL     1      -5.950  47.524 -26.557  1.00  0.00     0.047 C 
HETATM    2  C10 UNL     1      -6.439  47.691 -28.011  1.00  0.00     0.005 C 
HETATM    3  C11 UNL     1      -5.560  47.138 -29.121  1.00  0.00     0.006 C 
HETATM    4  C12 UNL     1      -6.215  47.344 -30.500  1.00  0.00     0.006 C 
HETATM    5  C13 UNL     1      -7.682  46.832 -30.579  1.00  0.00     0.003 C 
HETATM    6  C14 UNL     1      -8.298  46.819 -32.038  1.00  0.00    -0.035 C 
HETATM    7  C15 UNL     1      -8.244  48.216 -32.715  1.00  0.00     0.016 C 
HETATM    8  C16 UNL     1      -7.410  45.897 -32.937  1.00  0.00     0.012 C 
HETATM    9  C17 UNL     1      -8.173  45.293 -34.100  1.00  0.00     0.034 C 
HETATM   10  C18 UNL     1      -9.277  44.341 -33.645  1.00  0.00     0.137 C 
HETATM   11  C19 UNL     1     -10.015  44.773 -32.323  1.00  0.00     0.072 C 
HETATM   12  C20 UNL     1     -11.528  44.446 -32.479  1.00  0.00     0.030 C 
HETATM   13  C22 UNL     1      -9.801  46.316 -32.048  1.00  0.00     0.015 C 
HETATM   14  C23 UNL     1     -10.626  46.908 -30.879  1.00  0.00     0.007 C 
HETATM   15  C24 UNL     1      -9.984  46.804 -29.497  1.00  0.00     0.011 C 
HETATM   16  C25 UNL     1      -8.573  47.427 -29.412  1.00  0.00    -0.032 C 
HETATM   17  C26 UNL     1      -8.745  48.969 -29.544  1.00  0.00     0.016 C 
HETATM   18  C27 UNL     1      -7.855  47.057 -28.022  1.00  0.00    -0.030 C 
HETATM   19  C28 UNL     1      -7.820  45.509 -27.779  1.00  0.00     0.016 C 
HETATM   20  C29 UNL     1      -8.425  47.690 -26.727  1.00  0.00     0.043 C 
HETATM   21  C30 UNL     1      -7.256  47.686 -25.711  1.00  0.00     0.134 C 
ENDROOT
BRANCH  21  22
HETATM   22  O4  UNL     1      -7.418  46.559 -24.848  1.00  0.00    -0.353 OA
BRANCH  22  23
HETATM   23  C31 UNL     1      -8.176  46.839 -23.682  1.00  0.00     0.292 C 
HETATM   24  O5  UNL     1      -8.212  45.675 -22.840  1.00  0.00    -0.348 OA
HETATM   25  C32 UNL     1      -6.904  45.585 -22.206  1.00  0.00     0.179 C 
HETATM   26  C34 UNL     1      -6.326  47.010 -22.212  1.00  0.00     0.182 C 
HETATM   27  C35 UNL     1      -7.448  47.853 -22.811  1.00  0.00     0.204 C 
BRANCH  25  28
HETATM   28  C33 UNL     1      -7.016  44.942 -20.823  1.00  0.00     0.198 C 
BRANCH  28  29
HETATM   29  O6  UNL     1      -8.036  43.939 -20.829  1.00  0.00    -0.398 OA
HETATM   30  H52 UNL     1      -8.093  43.587 -19.922  1.00  0.00     0.209 HD
ENDBRANCH  28  29
ENDBRANCH  25  28
BRANCH  26  31
HETATM   31  O7  UNL     1      -5.942  47.504 -20.929  1.00  0.00    -0.390 OA
HETATM   32  H54 UNL     1      -6.622  48.164 -20.680  1.00  0.00     0.210 HD
ENDBRANCH  26  31
BRANCH  27  33
HETATM   33  O8  UNL     1      -8.283  48.333 -21.739  1.00  0.00    -0.388 OA
HETATM   34  H56 UNL     1      -8.846  47.581 -21.460  1.00  0.00     0.210 HD
ENDBRANCH  27  33
ENDBRANCH  22  23
ENDBRANCH  21  22
BRANCH   1  35
HETATM   35  C2  UNL     1      -4.827  48.467 -26.144  1.00  0.00    -0.082 C 
HETATM   36  C1  UNL     1      -4.833  49.143 -24.980  1.00  0.00     0.015 C 
BRANCH  35  37
HETATM   37  C3  UNL     1      -3.650  48.584 -27.095  1.00  0.00     0.037 C 
BRANCH  37  38
HETATM   38  C4  UNL     1      -2.406  49.202 -26.447  1.00  0.00     0.031 C 
BRANCH  38  39
HETATM   39  C5  UNL     1      -2.090  50.546 -27.056  1.00  0.00    -0.024 C 
HETATM   40  C6  UNL     1      -0.919  51.210 -27.034  1.00  0.00    -0.091 C 
HETATM   41  C7  UNL     1       0.355  50.710 -26.407  1.00  0.00     0.042 C 
HETATM   42  C8  UNL     1      -0.796  52.565 -27.680  1.00  0.00     0.042 C 
ENDBRANCH  38  39
ENDBRANCH  37  38
ENDBRANCH  35  37
ENDBRANCH   1  35
BRANCH  11  43
HETATM   43  C21 UNL     1      -9.458  43.892 -31.199  1.00  0.00     0.151 C 
HETATM   44  O2  UNL     1      -9.948  43.717 -30.093  1.00  0.00    -0.649 OA
BRANCH  43  45
HETATM   45  O3  UNL     1      -8.304  43.262 -31.494  1.00  0.00    -0.776 OA
HETATM   46  H33 UNL     1      -8.088  42.761 -30.681  1.00  0.00     0.167 HD
ENDBRANCH  43  45
ENDBRANCH  11  43
BRANCH  10  47
HETATM   47  O1  UNL     1     -10.185  44.219 -34.749  1.00  0.00    -0.394 OA
HETATM   48  H29 UNL     1      -9.684  43.856 -35.501  1.00  0.00     0.210 HD
ENDBRANCH  10  47
TORSDOF 13
ENDMDL
MODEL 2
REMARK minimizedAffinity -7.43125725
REMARK CNNscore 0.380038738
REMARK CNNaffinity 6.6607585
REMARK  13 active torsions:
REMARK  status: ('A' for Active; 'I' for Inactive)
REMARK    1  A    between atoms: C2_2  and  C3_3 
REMARK    2  A    between atoms: C2_2  and  C9_9 
REMARK    3  A    between atoms: C3_3  and  C4_4 
REMARK    4  A    between atoms: C4_4  and  C5_5 
REMARK    5  A    between atoms: C18_18  and  O1_19 
REMARK    6  A    between atoms: C19_20  and  C21_22 
REMARK    7  A    between atoms: C21_22  and  O3_24 
REMARK    8  A    between atoms: C30_33  and  O4_34 
REMARK    9  A    between atoms: O4_34  and  C31_35 
REMARK   10  A    between atoms: C32_37  and  C33_38 
REMARK   11  A    between atoms: C33_38  and  O6_39 
REMARK   12  A    between atoms: C34_40  and  O7_41 
REMARK   13  A    between atoms: C35_42  and  O8_43 
ROOT
HETATM    1  C9  UNL     1      -1.503  52.752  -9.887  1.00  0.00     0.047 C 
HETATM    2  C10 UNL     1      -1.128  53.700  -8.728  1.00  0.00     0.005 C 
HETATM    3  C11 UNL     1      -1.114  53.125  -7.320  1.00  0.00     0.006 C 
HETATM    4  C12 UNL     1      -0.674  54.186  -6.295  1.00  0.00     0.006 C 
HETATM    5  C13 UNL     1       0.656  54.903  -6.667  1.00  0.00     0.003 C 
HETATM    6  C14 UNL     1       1.250  55.826  -5.525  1.00  0.00    -0.035 C 
HETATM    7  C15 UNL     1       0.239  56.908  -5.055  1.00  0.00     0.016 C 
HETATM    8  C16 UNL     1       1.510  54.938  -4.263  1.00  0.00     0.012 C 
HETATM    9  C17 UNL     1       2.608  55.486  -3.373  1.00  0.00     0.034 C 
HETATM   10  C18 UNL     1       3.973  55.489  -4.060  1.00  0.00     0.137 C 
HETATM   11  C19 UNL     1       3.935  55.815  -5.599  1.00  0.00     0.072 C 
HETATM   12  C20 UNL     1       5.162  56.709  -5.939  1.00  0.00     0.030 C 
HETATM   13  C22 UNL     1       2.585  56.551  -5.976  1.00  0.00     0.015 C 
HETATM   14  C23 UNL     1       2.500  57.092  -7.423  1.00  0.00     0.007 C 
HETATM   15  C24 UNL     1       1.989  56.103  -8.470  1.00  0.00     0.011 C 
HETATM   16  C25 UNL     1       0.610  55.493  -8.137  1.00  0.00    -0.032 C 
HETATM   17  C26 UNL     1      -0.440  56.635  -8.270  1.00  0.00     0.016 C 
HETATM   18  C27 UNL     1       0.253  54.281  -9.131  1.00  0.00    -0.030 C 
HETATM   19  C28 UNL     1       1.380  53.191  -9.148  1.00  0.00     0.016 C 
HETATM   20  C29 UNL     1      -0.042  54.628 -10.612  1.00  0.00     0.043 C 
HETATM   21  C30 UNL     1      -0.913  53.465 -11.148  1.00  0.00     0.134 C 
ENDROOT
BRANCH  21  22
HETATM   22  O4  UNL     1      -0.065  52.564 -11.863  1.00  0.00    -0.353 OA
BRANCH  22  23
HETATM   23  C31 UNL     1      -0.688  51.970 -12.990  1.00  0.00     0.292 C 
HETATM   24  O5  UNL     1      -0.206  52.594 -14.192  1.00  0.00    -0.348 OA
HETATM   25  C32 UNL     1       1.137  52.076 -14.414  1.00  0.00     0.179 C 
HETATM   26  C34 UNL     1       1.199  50.720 -13.691  1.00  0.00     0.182 C 
HETATM   27  C35 UNL     1      -0.217  50.531 -13.154  1.00  0.00     0.204 C 
BRANCH  25  28
HETATM   28  C33 UNL     1       1.455  52.024 -15.909  1.00  0.00     0.198 C 
BRANCH  28  29
HETATM   29  O6  UNL     1       1.436  53.343 -16.461  1.00  0.00    -0.398 OA
HETATM   30  H52 UNL     1       1.608  53.253 -17.417  1.00  0.00     0.209 HD
ENDBRANCH  28  29
ENDBRANCH  25  28
BRANCH  26  31
HETATM   31  O7  UNL     1       1.586  49.621 -14.517  1.00  0.00    -0.390 OA
HETATM   32  H54 UNL     1       0.770  49.100 -14.670  1.00  0.00     0.210 HD
ENDBRANCH  26  31
BRANCH  27  33
HETATM   33  O8  UNL     1      -0.992  49.825 -14.144  1.00  0.00    -0.388 OA
HETATM   34  H56 UNL     1      -1.223  50.476 -14.839  1.00  0.00     0.210 HD
ENDBRANCH  27  33
ENDBRANCH  22  23
ENDBRANCH  21  22
BRANCH   1  35
HETATM   35  C2  UNL     1      -2.988  52.430  -9.999  1.00  0.00    -0.082 C 
HETATM   36  C1  UNL     1      -3.875  53.267 -10.570  1.00  0.00     0.015 C 
BRANCH  35  37
HETATM   37  C3  UNL     1      -3.435  51.079  -9.472  1.00  0.00     0.037 C 
BRANCH  37  38
HETATM   38  C4  UNL     1      -4.248  50.270 -10.490  1.00  0.00     0.031 C 
BRANCH  38  39
HETATM   39  C5  UNL     1      -5.716  50.289 -10.146  1.00  0.00    -0.024 C 
HETATM   40  C6  UNL     1      -6.659  49.392 -10.492  1.00  0.00    -0.091 C 
HETATM   41  C7  UNL     1      -6.418  48.137 -11.287  1.00  0.00     0.042 C 
HETATM   42  C8  UNL     1      -8.093  49.590 -10.076  1.00  0.00     0.042 C 
ENDBRANCH  38  39
ENDBRANCH  37  38
ENDBRANCH  35  37
ENDBRANCH   1  35
BRANCH  11  43
HETATM   43  C21 UNL     1       4.105  54.482  -6.337  1.00  0.00     0.151 C 
HETATM   44  O2  UNL     1       4.421  54.328  -7.507  1.00  0.00    -0.649 OA
BRANCH  43  45
HETATM   45  O3  UNL     1       3.870  53.388  -5.588  1.00  0.00    -0.776 OA
HETATM   46  H33 UNL     1       4.010  52.640  -6.203  1.00  0.00     0.167 HD
ENDBRANCH  43  45
ENDBRANCH  11  43
BRANCH  10  47
HETATM   47  O1  UNL     1       4.788  56.421  -3.335  1.00  0.00    -0.394 OA
HETATM   48  H29 UNL     1       4.847  56.105  -2.416  1.00  0.00     0.210 HD
ENDBRANCH  10  47
TORSDOF 13
ENDMDL
MODEL 3
REMARK minimizedAffinity -9.83151817
REMARK CNNscore 0.359775037
REMARK CNNaffinity 7.28891611
REMARK  13 active torsions:
REMARK  status: ('A' for Active; 'I' for Inactive)
REMARK    1  A    between atoms: C2_2  and  C3_3 
REMARK    2  A    between atoms: C2_2  and  C9_9 
REMARK    3  A    between atoms: C3_3  and  C4_4 
REMARK    4  A    between atoms: C4_4  and  C5_5 
REMARK    5  A    between atoms: C18_18  and  O1_19 
REMARK    6  A    between atoms: C19_20  and  C21_22 
REMARK    7  A    between atoms: C21_22  and  O3_24 
REMARK    8  A    between atoms: C30_33  and  O4_34 
REMARK    9  A    between atoms: O4_34  and  C31_35 
REMARK   10  A    between atoms: C32_37  and  C33_38 
REMARK   11  A    between atoms: C33_38  and  O6_39 
REMARK   12  A    between atoms: C34_40  and  O7_41 
REMARK   13  A    between atoms: C35_42  and  O8_43 
ROOT
HETATM    1  C9  UNL     1      -0.952  51.953 -20.813  1.00  0.00     0.047 C 
HETATM    2  C10 UNL     1      -0.408  51.502 -19.441  1.00  0.00     0.005 C 
HETATM    3  C11 UNL     1       0.225  52.559 -18.550  1.00  0.00     0.006 C 
HETATM    4  C12 UNL     1       0.669  51.953 -17.206  1.00  0.00     0.006 C 
HETATM    5  C13 UNL     1      -0.446  51.143 -16.484  1.00  0.00     0.003 C 
HETATM    6  C14 UNL     1      -0.093  50.708 -15.003  1.00  0.00    -0.035 C 
HETATM    7  C15 UNL     1       1.221  49.883 -14.927  1.00  0.00     0.016 C 
HETATM    8  C16 UNL     1       0.191  52.000 -14.167  1.00  0.00     0.012 C 
HETATM    9  C17 UNL     1      -0.084  51.818 -12.687  1.00  0.00     0.034 C 
HETATM   10  C18 UNL     1      -1.560  51.554 -12.393  1.00  0.00     0.137 C 
HETATM   11  C19 UNL     1      -2.300  50.679 -13.472  1.00  0.00     0.072 C 
HETATM   12  C20 UNL     1      -3.276  49.718 -12.735  1.00  0.00     0.030 C 
HETATM   13  C22 UNL     1      -1.255  49.862 -14.335  1.00  0.00     0.015 C 
HETATM   14  C23 UNL     1      -1.858  48.822 -15.309  1.00  0.00     0.007 C 
HETATM   15  C24 UNL     1      -2.242  49.353 -16.689  1.00  0.00     0.011 C 
HETATM   16  C25 UNL     1      -1.084  50.050 -17.437  1.00  0.00    -0.032 C 
HETATM   17  C26 UNL     1      -0.055  48.945 -17.819  1.00  0.00     0.016 C 
HETATM   18  C27 UNL     1      -1.612  50.807 -18.753  1.00  0.00    -0.030 C 
HETATM   19  C28 UNL     1      -2.773  51.807 -18.422  1.00  0.00     0.016 C 
HETATM   20  C29 UNL     1      -2.109  49.936 -19.934  1.00  0.00     0.043 C 
HETATM   21  C30 UNL     1      -1.960  50.820 -21.197  1.00  0.00     0.134 C 
ENDROOT
BRANCH  21  22
HETATM   22  O4  UNL     1      -3.237  51.387 -21.498  1.00  0.00    -0.353 OA
BRANCH  22  23
HETATM   23  C31 UNL     1      -3.591  51.296 -22.869  1.00  0.00     0.292 C 
HETATM   24  O5  UNL     1      -3.728  49.914 -23.241  1.00  0.00    -0.348 OA
HETATM   25  C32 UNL     1      -4.994  49.461 -22.679  1.00  0.00     0.179 C 
HETATM   26  C34 UNL     1      -5.861  50.720 -22.505  1.00  0.00     0.182 C 
HETATM   27  C35 UNL     1      -4.998  51.837 -23.086  1.00  0.00     0.204 C 
BRANCH  25  28
HETATM   28  C33 UNL     1      -5.613  48.370 -23.554  1.00  0.00     0.198 C 
BRANCH  28  29
HETATM   29  O6  UNL     1      -5.772  48.846 -24.893  1.00  0.00    -0.398 OA
HETATM   30  H52 UNL     1      -6.200  48.131 -25.400  1.00  0.00     0.209 HD
ENDBRANCH  28  29
ENDBRANCH  25  28
BRANCH  26  31
HETATM   31  O7  UNL     1      -7.132  50.664 -23.153  1.00  0.00    -0.390 OA
HETATM   32  H54 UNL     1      -7.063  51.253 -23.933  1.00  0.00     0.210 HD
ENDBRANCH  26  31
BRANCH  27  33
HETATM   33  O8  UNL     1      -5.307  51.972 -24.488  1.00  0.00    -0.388 OA
HETATM   34  H56 UNL     1      -4.858  51.233 -24.949  1.00  0.00     0.210 HD
ENDBRANCH  27  33
ENDBRANCH  22  23
ENDBRANCH  21  22
BRANCH   1  35
HETATM   35  C2  UNL     1       0.111  52.217 -21.872  1.00  0.00    -0.082 C 
HETATM   36  C1  UNL     1       1.386  52.523 -21.565  1.00  0.00     0.015 C 
BRANCH  35  37
HETATM   37  C3  UNL     1      -0.318  52.075 -23.321  1.00  0.00     0.037 C 
BRANCH  37  38
HETATM   38  C4  UNL     1       0.829  52.280 -24.316  1.00  0.00     0.031 C 
BRANCH  38  39
HETATM   39  C5  UNL     1       0.349  52.112 -25.736  1.00  0.00    -0.024 C 
HETATM   40  C6  UNL     1       1.081  51.825 -26.830  1.00  0.00    -0.091 C 
HETATM   41  C7  UNL     1       2.565  51.575 -26.844  1.00  0.00     0.042 C 
HETATM   42  C8  UNL     1       0.427  51.721 -28.182  1.00  0.00     0.042 C 
ENDBRANCH  38  39
ENDBRANCH  37  38
ENDBRANCH  35  37
ENDBRANCH   1  35
BRANCH  11  43
HETATM   43  C21 UNL     1      -3.139  51.641 -14.320  1.00  0.00     0.151 C 
HETATM   44  O2  UNL     1      -3.656  51.405 -15.401  1.00  0.00    -0.649 OA
BRANCH  43  45
HETATM   45  O3  UNL     1      -3.300  52.868 -13.788  1.00  0.00    -0.776 OA
HETATM   46  H33 UNL     1      -3.841  53.348 -14.449  1.00  0.00     0.167 HD
ENDBRANCH  43  45
ENDBRANCH  11  43
BRANCH  10  47
HETATM   47  O1  UNL     1      -1.610  50.954 -11.091  1.00  0.00    -0.394 OA
HETATM   48  H29 UNL     1      -1.225  51.589 -10.461  1.00  0.00     0.210 HD
ENDBRANCH  10  47
TORSDOF 13
ENDMDL
MODEL 4
REMARK minimizedAffinity -8.06957626
REMARK CNNscore 0.349557996
REMARK CNNaffinity 6.25515223
REMARK  13 active torsions:
REMARK  status: ('A' for Active; 'I' for Inactive)
REMARK    1  A    between atoms: C2_2  and  C3_3 
REMARK    2  A    between atoms: C2_2  and  C9_9 
REMARK    3  A    between atoms: C3_3  and  C4_4 
REMARK    4  A    between atoms: C4_4  and  C5_5 
REMARK    5  A    between atoms: C18_18  and  O1_19 
REMARK    6  A    between atoms: C19_20  and  C21_22 
REMARK    7  A    between atoms: C21_22  and  O3_24 
REMARK    8  A    between atoms: C30_33  and  O4_34 
REMARK    9  A    between atoms: O4_34  and  C31_35 
REMARK   10  A    between atoms: C32_37  and  C33_38 
REMARK   11  A    between atoms: C33_38  and  O6_39 
REMARK   12  A    between atoms: C34_40  and  O7_41 
REMARK   13  A    between atoms: C35_42  and  O8_43 
ROOT
HETATM    1  C9  UNL     1       5.681  67.887 -36.187  1.00  0.00     0.047 C 
HETATM    2  C10 UNL     1       4.837  68.860 -37.039  1.00  0.00     0.005 C 
HETATM    3  C11 UNL     1       5.404  69.300 -38.379  1.00  0.00     0.006 C 
HETATM    4  C12 UNL     1       4.420  70.226 -39.117  1.00  0.00     0.006 C 
HETATM    5  C13 UNL     1       2.980  69.647 -39.231  1.00  0.00     0.003 C 
HETATM    6  C14 UNL     1       2.012  70.466 -40.181  1.00  0.00    -0.035 C 
HETATM    7  C15 UNL     1       1.895  71.956 -39.760  1.00  0.00     0.016 C 
HETATM    8  C16 UNL     1       2.642  70.497 -41.613  1.00  0.00     0.012 C 
HETATM    9  C17 UNL     1       1.607  70.658 -42.709  1.00  0.00     0.034 C 
HETATM   10  C18 UNL     1       0.653  69.467 -42.795  1.00  0.00     0.137 C 
HETATM   11  C19 UNL     1       0.277  68.824 -41.409  1.00  0.00     0.072 C 
HETATM   12  C20 UNL     1      -1.226  68.426 -41.447  1.00  0.00     0.030 C 
HETATM   13  C22 UNL     1       0.556  69.844 -40.231  1.00  0.00     0.015 C 
HETATM   14  C23 UNL     1       0.057  69.404 -38.833  1.00  0.00     0.007 C 
HETATM   15  C24 UNL     1       1.030  68.550 -38.021  1.00  0.00     0.011 C 
HETATM   16  C25 UNL     1       2.417  69.199 -37.820  1.00  0.00    -0.032 C 
HETATM   17  C26 UNL     1       2.219  70.413 -36.865  1.00  0.00     0.016 C 
HETATM   18  C27 UNL     1       3.465  68.154 -37.193  1.00  0.00    -0.030 C 
HETATM   19  C28 UNL     1       3.558  66.842 -38.045  1.00  0.00     0.016 C 
HETATM   20  C29 UNL     1       3.244  67.708 -35.725  1.00  0.00     0.043 C 
HETATM   21  C30 UNL     1       4.633  67.251 -35.215  1.00  0.00     0.134 C 
ENDROOT
BRANCH  21  22
HETATM   22  O4  UNL     1       4.695  65.826 -35.301  1.00  0.00    -0.353 OA
BRANCH  22  23
HETATM   23  C31 UNL     1       5.584  65.236 -34.366  1.00  0.00     0.292 C 
HETATM   24  O5  UNL     1       5.087  65.439 -33.033  1.00  0.00    -0.348 OA
HETATM   25  C32 UNL     1       3.978  64.510 -32.863  1.00  0.00     0.179 C 
HETATM   26  C34 UNL     1       4.219  63.366 -33.863  1.00  0.00     0.182 C 
HETATM   27  C35 UNL     1       5.560  63.720 -34.500  1.00  0.00     0.204 C 
BRANCH  25  28
HETATM   28  C33 UNL     1       3.860  64.073 -31.402  1.00  0.00     0.198 C 
BRANCH  28  29
HETATM   29  O6  UNL     1       2.700  64.660 -30.806  1.00  0.00    -0.398 OA
HETATM   30  H52 UNL     1       2.689  64.382 -29.872  1.00  0.00     0.209 HD
ENDBRANCH  28  29
ENDBRANCH  25  28
BRANCH  26  31
HETATM   31  O7  UNL     1       4.254  62.063 -33.282  1.00  0.00    -0.390 OA
HETATM   32  H54 UNL     1       5.196  61.790 -33.289  1.00  0.00     0.210 HD
ENDBRANCH  26  31
BRANCH  27  33
HETATM   33  O8  UNL     1       6.610  63.099 -33.732  1.00  0.00    -0.388 OA
HETATM   34  H56 UNL     1       6.726  63.640 -32.923  1.00  0.00     0.210 HD
ENDBRANCH  27  33
ENDBRANCH  22  23
ENDBRANCH  21  22
BRANCH   1  35
HETATM   35  C2  UNL     1       6.874  68.520 -35.480  1.00  0.00    -0.082 C 
HETATM   36  C1  UNL     1       6.927  68.684 -34.145  1.00  0.00     0.015 C 
BRANCH  35  37
HETATM   37  C3  UNL     1       8.046  68.926 -36.353  1.00  0.00     0.037 C 
BRANCH  37  38
HETATM   38  C4  UNL     1       8.406  67.877 -37.412  1.00  0.00     0.031 C 
BRANCH  38  39
HETATM   39  C5  UNL     1       8.930  66.618 -36.768  1.00  0.00    -0.024 C 
HETATM   40  C6  UNL     1       8.368  65.394 -36.763  1.00  0.00    -0.091 C 
HETATM   41  C7  UNL     1       7.080  65.024 -37.448  1.00  0.00     0.042 C 
HETATM   42  C8  UNL     1       9.030  64.251 -36.039  1.00  0.00     0.042 C 
ENDBRANCH  38  39
ENDBRANCH  37  38
ENDBRANCH  35  37
ENDBRANCH   1  35
BRANCH  11  43
HETATM   43  C21 UNL     1       1.101  67.538 -41.281  1.00  0.00     0.151 C 
HETATM   44  O2  UNL     1       2.246  67.360 -41.668  1.00  0.00    -0.649 OA
BRANCH  43  45
HETATM   45  O3  UNL     1       0.463  66.516 -40.679  1.00  0.00    -0.776 OA
HETATM   46  H33 UNL     1       1.115  65.785 -40.689  1.00  0.00     0.167 HD
ENDBRANCH  43  45
ENDBRANCH  11  43
BRANCH  10  47
HETATM   47  O1  UNL     1      -0.506  69.929 -43.503  1.00  0.00    -0.394 OA
HETATM   48  H29 UNL     1      -0.214  70.221 -44.385  1.00  0.00     0.210 HD
ENDBRANCH  10  47
TORSDOF 13
ENDMDL
MODEL 5
REMARK minimizedAffinity -8.88257027
REMARK CNNscore 0.316291839
REMARK CNNaffinity 6.56407404
REMARK  13 active torsions:
REMARK  status: ('A' for Active; 'I' for Inactive)
REMARK    1  A    between atoms: C2_2  and  C3_3 
REMARK    2  A    between atoms: C2_2  and  C9_9 
REMARK    3  A    between atoms: C3_3  and  C4_4 
REMARK    4  A    between atoms: C4_4  and  C5_5 
REMARK    5  A    between atoms: C18_18  and  O1_19 
REMARK    6  A    between atoms: C19_20  and  C21_22 
REMARK    7  A    between atoms: C21_22  and  O3_24 
REMARK    8  A    between atoms: C30_33  and  O4_34 
REMARK    9  A    between atoms: O4_34  and  C31_35 
REMARK   10  A    between atoms: C32_37  and  C33_38 
REMARK   11  A    between atoms: C33_38  and  O6_39 
REMARK   12  A    between atoms: C34_40  and  O7_41 
REMARK   13  A    between atoms: C35_42  and  O8_43 
ROOT
HETATM    1  C9  UNL     1      -6.634  48.553 -21.919  1.00  0.00     0.047 C 
HETATM    2  C10 UNL     1      -5.184  49.071 -22.029  1.00  0.00     0.005 C 
HETATM    3  C11 UNL     1      -4.982  50.563 -22.245  1.00  0.00     0.006 C 
HETATM    4  C12 UNL     1      -3.483  50.916 -22.284  1.00  0.00     0.006 C 
HETATM    5  C13 UNL     1      -2.678  50.367 -21.071  1.00  0.00     0.003 C 
HETATM    6  C14 UNL     1      -1.193  50.908 -20.965  1.00  0.00    -0.035 C 
HETATM    7  C15 UNL     1      -0.369  50.627 -22.251  1.00  0.00     0.016 C 
HETATM    8  C16 UNL     1      -1.247  52.467 -20.849  1.00  0.00     0.012 C 
HETATM    9  C17 UNL     1      -0.045  53.047 -20.129  1.00  0.00     0.034 C 
HETATM   10  C18 UNL     1       0.028  52.612 -18.666  1.00  0.00     0.137 C 
HETATM   11  C19 UNL     1      -0.450  51.137 -18.393  1.00  0.00     0.072 C 
HETATM   12  C20 UNL     1       0.485  50.511 -17.321  1.00  0.00     0.030 C 
HETATM   13  C22 UNL     1      -0.418  50.288 -19.729  1.00  0.00     0.015 C 
HETATM   14  C23 UNL     1      -0.689  48.773 -19.565  1.00  0.00     0.007 C 
HETATM   15  C24 UNL     1      -2.158  48.356 -19.602  1.00  0.00     0.011 C 
HETATM   16  C25 UNL     1      -2.908  48.811 -20.873  1.00  0.00    -0.032 C 
HETATM   17  C26 UNL     1      -2.335  47.987 -22.063  1.00  0.00     0.016 C 
HETATM   18  C27 UNL     1      -4.492  48.573 -20.734  1.00  0.00    -0.030 C 
HETATM   19  C28 UNL     1      -5.071  49.252 -19.445  1.00  0.00     0.016 C 
HETATM   20  C29 UNL     1      -5.000  47.109 -20.723  1.00  0.00     0.043 C 
HETATM   21  C30 UNL     1      -6.475  47.176 -21.193  1.00  0.00     0.134 C 
ENDROOT
BRANCH  21  22
HETATM   22  O4  UNL     1      -7.314  47.138 -20.037  1.00  0.00    -0.353 OA
BRANCH  22  23
HETATM   23  C31 UNL     1      -8.169  48.263 -19.916  1.00  0.00     0.292 C 
HETATM   24  O5  UNL     1      -9.532  47.858 -20.124  1.00  0.00    -0.348 OA
HETATM   25  C32 UNL     1      -9.945  47.166 -18.910  1.00  0.00     0.179 C 
HETATM   26  C34 UNL     1      -9.037  47.694 -17.786  1.00  0.00     0.182 C 
HETATM   27  C35 UNL     1      -8.188  48.758 -18.476  1.00  0.00     0.204 C 
BRANCH  25  28
HETATM   28  C33 UNL     1     -11.444  47.350 -18.667  1.00  0.00     0.198 C 
BRANCH  28  29
HETATM   29  O6  UNL     1     -11.996  48.232 -19.648  1.00  0.00    -0.398 OA
HETATM   30  H52 UNL     1     -12.939  48.345 -19.430  1.00  0.00     0.209 HD
ENDBRANCH  28  29
ENDBRANCH  25  28
BRANCH  26  31
HETATM   31  O7  UNL     1      -9.732  48.239 -16.664  1.00  0.00    -0.390 OA
HETATM   32  H54 UNL     1      -9.621  49.211 -16.725  1.00  0.00     0.210 HD
ENDBRANCH  26  31
BRANCH  27  33
HETATM   33  O8  UNL     1      -8.860  50.028 -18.357  1.00  0.00    -0.388 OA
HETATM   34  H56 UNL     1      -9.589  50.025 -19.012  1.00  0.00     0.210 HD
ENDBRANCH  27  33
ENDBRANCH  22  23
ENDBRANCH  21  22
BRANCH   1  35
HETATM   35  C2  UNL     1      -7.389  48.469 -23.240  1.00  0.00    -0.082 C 
HETATM   36  C1  UNL     1      -8.300  49.386 -23.618  1.00  0.00     0.015 C 
BRANCH  35  37
HETATM   37  C3  UNL     1      -7.036  47.312 -24.155  1.00  0.00     0.037 C 
BRANCH  37  38
HETATM   38  C4  UNL     1      -6.432  47.759 -25.492  1.00  0.00     0.031 C 
BRANCH  38  39
HETATM   39  C5  UNL     1      -5.016  48.245 -25.309  1.00  0.00    -0.024 C 
HETATM   40  C6  UNL     1      -4.094  48.487 -26.261  1.00  0.00    -0.091 C 
HETATM   41  C7  UNL     1      -4.314  48.348 -27.743  1.00  0.00     0.042 C 
HETATM   42  C8  UNL     1      -2.710  48.948 -25.885  1.00  0.00     0.042 C 
ENDBRANCH  38  39
ENDBRANCH  37  38
ENDBRANCH  35  37
ENDBRANCH   1  35
BRANCH  11  43
HETATM   43  C21 UNL     1      -1.857  51.235 -17.791  1.00  0.00     0.151 C 
HETATM   44  O2  UNL     1      -2.803  51.866 -18.238  1.00  0.00    -0.649 OA
BRANCH  43  45
HETATM   45  O3  UNL     1      -2.031  50.543 -16.649  1.00  0.00    -0.776 OA
HETATM   46  H33 UNL     1      -2.962  50.719 -16.401  1.00  0.00     0.167 HD
ENDBRANCH  43  45
ENDBRANCH  11  43
BRANCH  10  47
HETATM   47  O1  UNL     1       1.386  52.819 -18.251  1.00  0.00    -0.394 OA
HETATM   48  H29 UNL     1       1.582  53.768 -18.355  1.00  0.00     0.210 HD
ENDBRANCH  10  47
TORSDOF 13
ENDMDL
MODEL 6
REMARK minimizedAffinity -9.11537838
REMARK CNNscore 0.293564856
REMARK CNNaffinity 5.98952055
REMARK  13 active torsions:
REMARK  status: ('A' for Active; 'I' for Inactive)
REMARK    1  A    between atoms: C2_2  and  C3_3 
REMARK    2  A    between atoms: C2_2  and  C9_9 
REMARK    3  A    between atoms: C3_3  and  C4_4 
REMARK    4  A    between atoms: C4_4  and  C5_5 
REMARK    5  A    between atoms: C18_18  and  O1_19 
REMARK    6  A    between atoms: C19_20  and  C21_22 
REMARK    7  A    between atoms: C21_22  and  O3_24 
REMARK    8  A    between atoms: C30_33  and  O4_34 
REMARK    9  A    between atoms: O4_34  and  C31_35 
REMARK   10  A    between atoms: C32_37  and  C33_38 
REMARK   11  A    between atoms: C33_38  and  O6_39 
REMARK   12  A    between atoms: C34_40  and  O7_41 
REMARK   13  A    between atoms: C35_42  and  O8_43 
ROOT
HETATM    1  C9  UNL     1       6.599  66.503 -36.987  1.00  0.00     0.047 C 
HETATM    2  C10 UNL     1       5.910  67.573 -37.861  1.00  0.00     0.005 C 
HETATM    3  C11 UNL     1       6.069  67.464 -39.369  1.00  0.00     0.006 C 
HETATM    4  C12 UNL     1       5.283  68.575 -40.089  1.00  0.00     0.006 C 
HETATM    5  C13 UNL     1       3.795  68.679 -39.645  1.00  0.00     0.003 C 
HETATM    6  C14 UNL     1       2.909  69.650 -40.528  1.00  0.00    -0.035 C 
HETATM    7  C15 UNL     1       3.490  71.089 -40.588  1.00  0.00     0.016 C 
HETATM    8  C16 UNL     1       2.942  69.137 -42.006  1.00  0.00     0.012 C 
HETATM    9  C17 UNL     1       1.711  69.533 -42.796  1.00  0.00     0.034 C 
HETATM   10  C18 UNL     1       0.435  68.891 -42.255  1.00  0.00     0.137 C 
HETATM   11  C19 UNL     1       0.384  68.746 -40.688  1.00  0.00     0.072 C 
HETATM   12  C20 UNL     1      -1.066  69.051 -40.216  1.00  0.00     0.030 C 
HETATM   13  C22 UNL     1       1.415  69.736 -40.007  1.00  0.00     0.015 C 
HETATM   14  C23 UNL     1       1.335  69.826 -38.464  1.00  0.00     0.007 C 
HETATM   15  C24 UNL     1       2.163  68.796 -37.697  1.00  0.00     0.011 C 
HETATM   16  C25 UNL     1       3.662  68.793 -38.070  1.00  0.00    -0.032 C 
HETATM   17  C26 UNL     1       4.270  70.123 -37.534  1.00  0.00     0.016 C 
HETATM   18  C27 UNL     1       4.420  67.529 -37.430  1.00  0.00    -0.030 C 
HETATM   19  C28 UNL     1       3.725  66.178 -37.815  1.00  0.00     0.016 C 
HETATM   20  C29 UNL     1       4.603  67.503 -35.892  1.00  0.00     0.043 C 
HETATM   21  C30 UNL     1       5.822  66.584 -35.632  1.00  0.00     0.134 C 
ENDROOT
BRANCH  21  22
HETATM   22  O4  UNL     1       5.337  65.288 -35.273  1.00  0.00    -0.353 OA
BRANCH  22  23
HETATM   23  C31 UNL     1       6.049  64.690 -34.202  1.00  0.00     0.292 C 
HETATM   24  O5  UNL     1       5.227  64.680 -33.023  1.00  0.00    -0.348 OA
HETATM   25  C32 UNL     1       4.241  63.625 -33.218  1.00  0.00     0.179 C 
HETATM   26  C34 UNL     1       4.861  62.639 -34.223  1.00  0.00     0.182 C 
HETATM   27  C35 UNL     1       6.256  63.206 -34.471  1.00  0.00     0.204 C 
BRANCH  25  28
HETATM   28  C33 UNL     1       3.838  63.008 -31.877  1.00  0.00     0.198 C 
BRANCH  28  29
HETATM   29  O6  UNL     1       2.734  62.118 -32.059  1.00  0.00    -0.398 OA
HETATM   30  H52 UNL     1       2.493  61.780 -31.176  1.00  0.00     0.209 HD
ENDBRANCH  28  29
ENDBRANCH  25  28
BRANCH  26  31
HETATM   31  O7  UNL     1       4.929  61.287 -33.770  1.00  0.00    -0.390 OA
HETATM   32  H54 UNL     1       5.873  61.119 -33.566  1.00  0.00     0.210 HD
ENDBRANCH  26  31
BRANCH  27  33
HETATM   33  O8  UNL     1       7.167  62.613 -33.523  1.00  0.00    -0.388 OA
HETATM   34  H56 UNL     1       7.015  63.063 -32.666  1.00  0.00     0.210 HD
ENDBRANCH  27  33
ENDBRANCH  22  23
ENDBRANCH  21  22
BRANCH   1  35
HETATM   35  C2  UNL     1       8.107  66.664 -36.845  1.00  0.00    -0.082 C 
HETATM   36  C1  UNL     1       8.942  65.616 -36.706  1.00  0.00     0.015 C 
BRANCH  35  37
HETATM   37  C3  UNL     1       8.652  68.078 -36.913  1.00  0.00     0.037 C 
BRANCH  37  38
HETATM   38  C4  UNL     1       9.668  68.283 -38.043  1.00  0.00     0.031 C 
BRANCH  38  39
HETATM   39  C5  UNL     1       9.334  69.510 -38.854  1.00  0.00    -0.024 C 
HETATM   40  C6  UNL     1       9.075  69.585 -40.174  1.00  0.00    -0.091 C 
HETATM   41  C7  UNL     1       9.035  68.416 -41.121  1.00  0.00     0.042 C 
HETATM   42  C8  UNL     1       8.784  70.912 -40.821  1.00  0.00     0.042 C 
ENDBRANCH  38  39
ENDBRANCH  37  38
ENDBRANCH  35  37
ENDBRANCH   1  35
BRANCH  11  43
HETATM   43  C21 UNL     1       0.683  67.276 -40.372  1.00  0.00     0.151 C 
HETATM   44  O2  UNL     1       0.323  66.651 -39.385  1.00  0.00    -0.649 OA
BRANCH  43  45
HETATM   45  O3  UNL     1       1.424  66.638 -41.297  1.00  0.00    -0.776 OA
HETATM   46  H33 UNL     1       1.527  65.732 -40.941  1.00  0.00     0.167 HD
ENDBRANCH  43  45
ENDBRANCH  11  43
BRANCH  10  47
HETATM   47  O1  UNL     1      -0.656  69.677 -42.755  1.00  0.00    -0.394 OA
HETATM   48  H29 UNL     1      -0.620  69.642 -43.728  1.00  0.00     0.210 HD
ENDBRANCH  10  47
TORSDOF 13
ENDMDL
MODEL 7
REMARK minimizedAffinity -8.89610863
REMARK CNNscore 0.273444355
REMARK CNNaffinity 5.8984704
REMARK  13 active torsions:
REMARK  status: ('A' for Active; 'I' for Inactive)
REMARK    1  A    between atoms: C2_2  and  C3_3 
REMARK    2  A    between atoms: C2_2  and  C9_9 
REMARK    3  A    between atoms: C3_3  and  C4_4 
REMARK    4  A    between atoms: C4_4  and  C5_5 
REMARK    5  A    between atoms: C18_18  and  O1_19 
REMARK    6  A    between atoms: C19_20  and  C21_22 
REMARK    7  A    between atoms: C21_22  and  O3_24 
REMARK    8  A    between atoms: C30_33  and  O4_34 
REMARK    9  A    between atoms: O4_34  and  C31_35 
REMARK   10  A    between atoms: C32_37  and  C33_38 
REMARK   11  A    between atoms: C33_38  and  O6_39 
REMARK   12  A    between atoms: C34_40  and  O7_41 
REMARK   13  A    between atoms: C35_42  and  O8_43 
ROOT
HETATM    1  C9  UNL     1       6.287  67.194 -36.926  1.00  0.00     0.047 C 
HETATM    2  C10 UNL     1       5.562  68.185 -37.862  1.00  0.00     0.005 C 
HETATM    3  C11 UNL     1       5.833  68.074 -39.354  1.00  0.00     0.006 C 
HETATM    4  C12 UNL     1       4.998  69.099 -40.144  1.00  0.00     0.006 C 
HETATM    5  C13 UNL     1       3.480  69.068 -39.801  1.00  0.00     0.003 C 
HETATM    6  C14 UNL     1       2.570  69.942 -40.758  1.00  0.00    -0.035 C 
HETATM    7  C15 UNL     1       3.018  71.428 -40.804  1.00  0.00     0.016 C 
HETATM    8  C16 UNL     1       2.751  69.418 -42.221  1.00  0.00     0.012 C 
HETATM    9  C17 UNL     1       1.545  69.688 -43.098  1.00  0.00     0.034 C 
HETATM   10  C18 UNL     1       0.300  68.935 -42.632  1.00  0.00     0.137 C 
HETATM   11  C19 UNL     1       0.157  68.804 -41.070  1.00  0.00     0.072 C 
HETATM   12  C20 UNL     1      -1.344  68.976 -40.701  1.00  0.00     0.030 C 
HETATM   13  C22 UNL     1       1.042  69.893 -40.339  1.00  0.00     0.015 C 
HETATM   14  C23 UNL     1       0.850  69.992 -38.806  1.00  0.00     0.007 C 
HETATM   15  C24 UNL     1       1.716  69.053 -37.969  1.00  0.00     0.011 C 
HETATM   16  C25 UNL     1       3.231  69.186 -38.241  1.00  0.00    -0.032 C 
HETATM   17  C26 UNL     1       3.675  70.573 -37.689  1.00  0.00     0.016 C 
HETATM   18  C27 UNL     1       4.058  68.006 -37.530  1.00  0.00    -0.030 C 
HETATM   19  C28 UNL     1       3.518  66.591 -37.938  1.00  0.00     0.016 C 
HETATM   20  C29 UNL     1       4.138  68.014 -35.983  1.00  0.00     0.043 C 
HETATM   21  C30 UNL     1       5.416  67.216 -35.627  1.00  0.00     0.134 C 
ENDROOT
BRANCH  21  22
HETATM   22  O4  UNL     1       5.030  65.885 -35.278  1.00  0.00    -0.353 OA
BRANCH  22  23
HETATM   23  C31 UNL     1       5.840  65.302 -34.270  1.00  0.00     0.292 C 
HETATM   24  O5  UNL     1       5.145  65.336 -33.013  1.00  0.00    -0.348 OA
HETATM   25  C32 UNL     1       4.129  64.293 -33.077  1.00  0.00     0.179 C 
HETATM   26  C34 UNL     1       4.627  63.272 -34.114  1.00  0.00     0.182 C 
HETATM   27  C35 UNL     1       5.997  63.808 -34.520  1.00  0.00     0.204 C 
BRANCH  25  28
HETATM   28  C33 UNL     1       3.858  63.718 -31.686  1.00  0.00     0.198 C 
BRANCH  28  29
HETATM   29  O6  UNL     1       3.033  64.613 -30.937  1.00  0.00    -0.398 OA
HETATM   30  H52 UNL     1       2.919  64.221 -30.051  1.00  0.00     0.209 HD
ENDBRANCH  28  29
ENDBRANCH  25  28
BRANCH  26  31
HETATM   31  O7  UNL     1       4.722  61.931 -33.633  1.00  0.00    -0.390 OA
HETATM   32  H54 UNL     1       5.679  61.752 -33.523  1.00  0.00     0.210 HD
ENDBRANCH  26  31
BRANCH  27  33
HETATM   33  O8  UNL     1       6.992  63.224 -33.655  1.00  0.00    -0.388 OA
HETATM   34  H56 UNL     1       6.936  63.699 -32.799  1.00  0.00     0.210 HD
ENDBRANCH  27  33
ENDBRANCH  22  23
ENDBRANCH  21  22
BRANCH   1  35
HETATM   35  C2  UNL     1       7.761  67.497 -36.686  1.00  0.00    -0.082 C 
HETATM   36  C1  UNL     1       8.721  66.555 -36.762  1.00  0.00     0.015 C 
BRANCH  35  37
HETATM   37  C3  UNL     1       8.122  68.942 -36.397  1.00  0.00     0.037 C 
BRANCH  37  38
HETATM   38  C4  UNL     1       7.571  69.447 -35.058  1.00  0.00     0.031 C 
BRANCH  38  39
HETATM   39  C5  UNL     1       8.616  70.233 -34.306  1.00  0.00    -0.024 C 
HETATM   40  C6  UNL     1       8.902  70.184 -32.991  1.00  0.00    -0.091 C 
HETATM   41  C7  UNL     1       8.235  69.282 -31.987  1.00  0.00     0.042 C 
HETATM   42  C8  UNL     1       9.972  71.069 -32.407  1.00  0.00     0.042 C 
ENDBRANCH  38  39
ENDBRANCH  37  38
ENDBRANCH  35  37
ENDBRANCH   1  35
BRANCH  11  43
HETATM   43  C21 UNL     1       0.568  67.372 -40.709  1.00  0.00     0.151 C 
HETATM   44  O2  UNL     1       0.199  66.725 -39.740  1.00  0.00    -0.649 OA
BRANCH  43  45
HETATM   45  O3  UNL     1       1.430  66.797 -41.570  1.00  0.00    -0.776 OA
HETATM   46  H33 UNL     1       1.592  65.908 -41.192  1.00  0.00     0.167 HD
ENDBRANCH  43  45
ENDBRANCH  11  43
BRANCH  10  47
HETATM   47  O1  UNL     1      -0.823  69.609 -43.217  1.00  0.00    -0.394 OA
HETATM   48  H29 UNL     1      -0.718  69.568 -44.185  1.00  0.00     0.210 HD
ENDBRANCH  10  47
TORSDOF 13
ENDMDL
MODEL 8
REMARK minimizedAffinity -8.10325432
REMARK CNNscore 0.235614061
REMARK CNNaffinity 6.24217415
REMARK  13 active torsions:
REMARK  status: ('A' for Active; 'I' for Inactive)
REMARK    1  A    between atoms: C2_2  and  C3_3 
REMARK    2  A    between atoms: C2_2  and  C9_9 
REMARK    3  A    between atoms: C3_3  and  C4_4 
REMARK    4  A    between atoms: C4_4  and  C5_5 
REMARK    5  A    between atoms: C18_18  and  O1_19 
REMARK    6  A    between atoms: C19_20  and  C21_22 
REMARK    7  A    between atoms: C21_22  and  O3_24 
REMARK    8  A    between atoms: C30_33  and  O4_34 
REMARK    9  A    between atoms: O4_34  and  C31_35 
REMARK   10  A    between atoms: C32_37  and  C33_38 
REMARK   11  A    between atoms: C33_38  and  O6_39 
REMARK   12  A    between atoms: C34_40  and  O7_41 
REMARK   13  A    between atoms: C35_42  and  O8_43 
ROOT
HETATM    1  C9  UNL     1      -6.894  47.626 -24.747  1.00  0.00     0.047 C 
HETATM    2  C10 UNL     1      -6.831  47.332 -23.233  1.00  0.00     0.005 C 
HETATM    3  C11 UNL     1      -6.773  48.518 -22.284  1.00  0.00     0.006 C 
HETATM    4  C12 UNL     1      -6.764  48.051 -20.816  1.00  0.00     0.006 C 
HETATM    5  C13 UNL     1      -7.907  47.055 -20.469  1.00  0.00     0.003 C 
HETATM    6  C14 UNL     1      -8.062  46.741 -18.924  1.00  0.00    -0.035 C 
HETATM    7  C15 UNL     1      -6.749  46.198 -18.297  1.00  0.00     0.016 C 
HETATM    8  C16 UNL     1      -8.342  48.087 -18.176  1.00  0.00     0.012 C 
HETATM    9  C17 UNL     1      -9.113  47.895 -16.885  1.00  0.00     0.034 C 
HETATM   10  C18 UNL     1     -10.521  47.349 -17.118  1.00  0.00     0.137 C 
HETATM   11  C19 UNL     1     -10.639  46.314 -18.297  1.00  0.00     0.072 C 
HETATM   12  C20 UNL     1     -11.634  45.198 -17.870  1.00  0.00     0.030 C 
HETATM   13  C22 UNL     1      -9.221  45.699 -18.639  1.00  0.00     0.015 C 
HETATM   14  C23 UNL     1      -9.225  44.532 -19.656  1.00  0.00     0.007 C 
HETATM   15  C24 UNL     1      -9.152  44.936 -21.127  1.00  0.00     0.011 C 
HETATM   16  C25 UNL     1      -7.940  45.830 -21.473  1.00  0.00    -0.032 C 
HETATM   17  C26 UNL     1      -6.667  44.943 -21.345  1.00  0.00     0.016 C 
HETATM   18  C27 UNL     1      -8.062  46.429 -22.959  1.00  0.00    -0.030 C 
HETATM   19  C28 UNL     1      -9.419  47.186 -23.172  1.00  0.00     0.016 C 
HETATM   20  C29 UNL     1      -7.921  45.443 -24.146  1.00  0.00     0.043 C 
HETATM   21  C30 UNL     1      -7.469  46.303 -25.352  1.00  0.00     0.134 C 
ENDROOT
BRANCH  21  22
HETATM   22  O4  UNL     1      -8.619  46.595 -26.149  1.00  0.00    -0.353 OA
BRANCH  22  23
HETATM   23  C31 UNL     1      -8.646  47.923 -26.646  1.00  0.00     0.292 C 
HETATM   24  O5  UNL     1      -8.963  47.907 -28.048  1.00  0.00    -0.348 OA
HETATM   25  C32 UNL     1     -10.391  47.633 -28.143  1.00  0.00     0.179 C 
HETATM   26  C34 UNL     1     -11.004  48.085 -26.807  1.00  0.00     0.182 C 
HETATM   27  C35 UNL     1      -9.822  48.684 -26.051  1.00  0.00     0.204 C 
BRANCH  25  28
HETATM   28  C33 UNL     1     -10.987  48.299 -29.384  1.00  0.00     0.198 C 
BRANCH  28  29
HETATM   29  O6  UNL     1      -9.973  49.018 -30.090  1.00  0.00    -0.398 OA
HETATM   30  H52 UNL     1     -10.407  49.451 -30.848  1.00  0.00     0.209 HD
ENDBRANCH  28  29
ENDBRANCH  25  28
BRANCH  26  31
HETATM   31  O7  UNL     1     -12.068  49.030 -26.929  1.00  0.00    -0.390 OA
HETATM   32  H54 UNL     1     -11.698  49.890 -26.642  1.00  0.00     0.210 HD
ENDBRANCH  26  31
BRANCH  27  33
HETATM   33  O8  UNL     1      -9.753  50.093 -26.351  1.00  0.00    -0.388 OA
HETATM   34  H56 UNL     1      -9.364  50.172 -27.246  1.00  0.00     0.210 HD
ENDBRANCH  27  33
ENDBRANCH  22  23
ENDBRANCH  21  22
BRANCH   1  35
HETATM   35  C2  UNL     1      -5.576  48.067 -25.372  1.00  0.00    -0.082 C 
HETATM   36  C1  UNL     1      -5.397  48.168 -26.702  1.00  0.00     0.015 C 
BRANCH  35  37
HETATM   37  C3  UNL     1      -4.460  48.443 -24.415  1.00  0.00     0.037 C 
BRANCH  37  38
HETATM   38  C4  UNL     1      -3.146  48.793 -25.123  1.00  0.00     0.031 C 
BRANCH  38  39
HETATM   39  C5  UNL     1      -2.501  50.004 -24.498  1.00  0.00    -0.024 C 
HETATM   40  C6  UNL     1      -1.502  50.760 -24.995  1.00  0.00    -0.091 C 
HETATM   41  C7  UNL     1      -0.835  50.555 -26.328  1.00  0.00     0.042 C 
HETATM   42  C8  UNL     1      -0.963  51.927 -24.211  1.00  0.00     0.042 C 
ENDBRANCH  38  39
ENDBRANCH  37  38
ENDBRANCH  35  37
ENDBRANCH   1  35
BRANCH  11  43
HETATM   43  C21 UNL     1     -11.256  47.065 -19.483  1.00  0.00     0.151 C 
HETATM   44  O2  UNL     1     -11.761  46.571 -20.480  1.00  0.00    -0.649 OA
BRANCH  43  45
HETATM   45  O3  UNL     1     -11.215  48.407 -19.384  1.00  0.00    -0.776 OA
HETATM   46  H33 UNL     1     -11.633  48.723 -20.212  1.00  0.00     0.167 HD
ENDBRANCH  43  45
ENDBRANCH  11  43
BRANCH  10  47
HETATM   47  O1  UNL     1     -10.948  46.788 -15.869  1.00  0.00    -0.394 OA
HETATM   48  H29 UNL     1     -10.944  47.505 -15.209  1.00  0.00     0.210 HD
ENDBRANCH  10  47
TORSDOF 13
ENDMDL
MODEL 9
REMARK minimizedAffinity -8.28458023
REMARK CNNscore 0.219616801
REMARK CNNaffinity 6.39672089
REMARK  13 active torsions:
REMARK  status: ('A' for Active; 'I' for Inactive)
REMARK    1  A    between atoms: C2_2  and  C3_3 
REMARK    2  A    between atoms: C2_2  and  C9_9 
REMARK    3  A    between atoms: C3_3  and  C4_4 
REMARK    4  A    between atoms: C4_4  and  C5_5 
REMARK    5  A    between atoms: C18_18  and  O1_19 
REMARK    6  A    between atoms: C19_20  and  C21_22 
REMARK    7  A    between atoms: C21_22  and  O3_24 
REMARK    8  A    between atoms: C30_33  and  O4_34 
REMARK    9  A    between atoms: O4_34  and  C31_35 
REMARK   10  A    between atoms: C32_37  and  C33_38 
REMARK   11  A    between atoms: C33_38  and  O6_39 
REMARK   12  A    between atoms: C34_40  and  O7_41 
REMARK   13  A    between atoms: C35_42  and  O8_43 
ROOT
HETATM    1  C9  UNL     1      -2.761  50.119 -20.456  1.00  0.00     0.047 C 
HETATM    2  C10 UNL     1      -3.542  48.900 -19.922  1.00  0.00     0.005 C 
HETATM    3  C11 UNL     1      -4.448  49.112 -18.719  1.00  0.00     0.006 C 
HETATM    4  C12 UNL     1      -5.186  47.813 -18.348  1.00  0.00     0.006 C 
HETATM    5  C13 UNL     1      -5.921  47.145 -19.546  1.00  0.00     0.003 C 
HETATM    6  C14 UNL     1      -6.874  45.944 -19.150  1.00  0.00    -0.035 C 
HETATM    7  C15 UNL     1      -6.125  44.830 -18.369  1.00  0.00     0.016 C 
HETATM    8  C16 UNL     1      -7.954  46.483 -18.154  1.00  0.00     0.012 C 
HETATM    9  C17 UNL     1      -9.240  45.683 -18.189  1.00  0.00     0.034 C 
HETATM   10  C18 UNL     1      -9.957  45.782 -19.535  1.00  0.00     0.137 C 
HETATM   11  C19 UNL     1      -9.003  45.844 -20.785  1.00  0.00     0.072 C 
HETATM   12  C20 UNL     1      -9.640  45.004 -21.928  1.00  0.00     0.030 C 
HETATM   13  C22 UNL     1      -7.568  45.289 -20.415  1.00  0.00     0.015 C 
HETATM   14  C23 UNL     1      -6.588  45.123 -21.602  1.00  0.00     0.007 C 
HETATM   15  C24 UNL     1      -5.768  46.360 -21.961  1.00  0.00     0.011 C 
HETATM   16  C25 UNL     1      -4.952  46.936 -20.783  1.00  0.00    -0.032 C 
HETATM   17  C26 UNL     1      -3.822  45.913 -20.464  1.00  0.00     0.016 C 
HETATM   18  C27 UNL     1      -4.326  48.370 -21.151  1.00  0.00    -0.030 C 
HETATM   19  C28 UNL     1      -5.424  49.375 -21.641  1.00  0.00     0.016 C 
HETATM   20  C29 UNL     1      -3.193  48.409 -22.208  1.00  0.00     0.043 C 
HETATM   21  C30 UNL     1      -2.400  49.708 -21.922  1.00  0.00     0.134 C 
ENDROOT
BRANCH  21  22
HETATM   22  O4  UNL     1      -2.847  50.715 -22.832  1.00  0.00    -0.353 OA
BRANCH  22  23
HETATM   23  C31 UNL     1      -1.791  51.432 -23.452  1.00  0.00     0.292 C 
HETATM   24  O5  UNL     1      -1.222  50.637 -24.506  1.00  0.00    -0.348 OA
HETATM   25  C32 UNL     1      -2.168  50.684 -25.612  1.00  0.00     0.179 C 
HETATM   26  C34 UNL     1      -2.981  51.977 -25.427  1.00  0.00     0.182 C 
HETATM   27  C35 UNL     1      -2.343  52.634 -24.207  1.00  0.00     0.204 C 
BRANCH  25  28
HETATM   28  C33 UNL     1      -1.439  50.568 -26.952  1.00  0.00     0.198 C 
BRANCH  28  29
HETATM   29  O6  UNL     1      -0.038  50.787 -26.768  1.00  0.00    -0.398 OA
HETATM   30  H52 UNL     1       0.375  50.739 -27.649  1.00  0.00     0.209 HD
ENDBRANCH  28  29
ENDBRANCH  25  28
BRANCH  26  31
HETATM   31  O7  UNL     1      -2.966  52.857 -26.551  1.00  0.00    -0.390 OA
HETATM   32  H54 UNL     1      -2.387  53.606 -26.298  1.00  0.00     0.210 HD
ENDBRANCH  26  31
BRANCH  27  33
HETATM   33  O8  UNL     1      -1.290  53.510 -24.657  1.00  0.00    -0.388 OA
HETATM   34  H56 UNL     1      -0.527  52.940 -24.888  1.00  0.00     0.210 HD
ENDBRANCH  27  33
ENDBRANCH  22  23
ENDBRANCH  21  22
BRANCH   1  35
HETATM   35  C2  UNL     1      -1.557  50.530 -19.616  1.00  0.00    -0.082 C 
HETATM   36  C1  UNL     1      -0.566  49.676 -19.297  1.00  0.00     0.015 C 
BRANCH  35  37
HETATM   37  C3  UNL     1      -1.492  51.982 -19.182  1.00  0.00     0.037 C 
BRANCH  37  38
HETATM   38  C4  UNL     1      -0.080  52.435 -18.790  1.00  0.00     0.031 C 
BRANCH  38  39
HETATM   39  C5  UNL     1       0.430  53.492 -19.737  1.00  0.00    -0.024 C 
HETATM   40  C6  UNL     1       0.998  53.316 -20.946  1.00  0.00    -0.091 C 
HETATM   41  C7  UNL     1       1.211  51.989 -21.624  1.00  0.00     0.042 C 
HETATM   42  C8  UNL     1       1.474  54.500 -21.747  1.00  0.00     0.042 C 
ENDBRANCH  38  39
ENDBRANCH  37  38
ENDBRANCH  35  37
ENDBRANCH   1  35
BRANCH  11  43
HETATM   43  C21 UNL     1      -8.968  47.307 -21.241  1.00  0.00     0.151 C 
HETATM   44  O2  UNL     1      -8.621  47.726 -22.336  1.00  0.00    -0.649 OA
BRANCH  43  45
HETATM   45  O3  UNL     1      -9.364  48.198 -20.312  1.00  0.00    -0.776 OA
HETATM   46  H33 UNL     1      -9.273  49.066 -20.756  1.00  0.00     0.167 HD
ENDBRANCH  43  45
ENDBRANCH  11  43
BRANCH  10  47
HETATM   47  O1  UNL     1     -10.852  44.664 -19.600  1.00  0.00    -0.394 OA
HETATM   48  H29 UNL     1     -11.474  44.742 -18.854  1.00  0.00     0.210 HD
ENDBRANCH  10  47
TORSDOF 13
ENDMDL
