MODEL 1
REMARK minimizedAffinity -9.39875793
REMARK CNNscore 0.813161254
REMARK CNNaffinity 7.40296698
REMARK  12 active torsions:
REMARK  status: ('A' for Active; 'I' for Inactive)
REMARK    1  A    between atoms: O1_2  and  C2_3 
REMARK    2  A    between atoms: C2_3  and  C3_4 
REMARK    3  A    between atoms: C3_4  and  C4_5 
REMARK    4  A    between atoms: C4_5  and  O2_6 
REMARK    5  A    between atoms: O2_6  and  C5_7 
REMARK    6  A    between atoms: C20_23  and  C21_24 
REMARK    7  A    between atoms: C21_24  and  O4_26 
REMARK    8  A    between atoms: C21_24  and  C23_27 
REMARK    9  A    between atoms: C23_27  and  O5_28 
REMARK   10  A    between atoms: C23_27  and  C24_29 
REMARK   11  A    between atoms: C29_36  and  O7_37 
REMARK   12  A    between atoms: C34_42  and  O8_43 
ROOT
HETATM    1  C5  UNL     1      -4.450   4.871  13.643  1.00  0.00     0.122 C 
HETATM    2  C6  UNL     1      -3.392   5.366  12.644  1.00  0.00     0.033 C 
HETATM    3  C7  UNL     1      -2.484   6.425  13.259  1.00  0.00     0.013 C 
HETATM    4  C8  UNL     1      -3.264   7.707  13.699  1.00  0.00    -0.026 C 
HETATM    5  C9  UNL     1      -3.227   8.732  12.535  1.00  0.00     0.016 C 
HETATM    6  C10 UNL     1      -4.764   7.359  13.938  1.00  0.00     0.071 C 
HETATM    7  C11 UNL     1      -4.931   5.983  14.590  1.00  0.00     0.045 C 
HETATM    8  C12 UNL     1      -5.522   8.419  14.708  1.00  0.00     0.154 C 
HETATM    9  O3  UNL     1      -6.747   8.519  14.645  1.00  0.00    -0.293 OA
HETATM   10  C13 UNL     1      -4.794   9.320  15.626  1.00  0.00     0.057 C 
HETATM   11  C14 UNL     1      -3.469   9.231  15.807  1.00  0.00    -0.037 C 
HETATM   12  C15 UNL     1      -2.585   8.273  15.011  1.00  0.00     0.026 C 
HETATM   13  C16 UNL     1      -1.160   8.836  14.730  1.00  0.00     0.011 C 
HETATM   14  C17 UNL     1      -0.511   9.607  15.891  1.00  0.00     0.014 C 
HETATM   15  C18 UNL     1      -1.462  10.685  16.457  1.00  0.00    -0.002 C 
HETATM   16  C19 UNL     1      -1.746  11.747  15.368  1.00  0.00     0.019 C 
HETATM   17  C20 UNL     1      -1.001  11.334  17.811  1.00  0.00     0.034 C 
HETATM   18  C32 UNL     1      -2.334  11.803  18.456  1.00  0.00     0.012 C 
HETATM   19  C33 UNL     1      -3.472  11.049  17.740  1.00  0.00     0.044 C 
HETATM   20  C34 UNL     1      -2.761   9.964  16.923  1.00  0.00     0.089 C 
ENDROOT
BRANCH  17  21
HETATM   21  C21 UNL     1       0.189  12.361  17.876  1.00  0.00     0.087 C 
HETATM   22  C22 UNL     1      -0.194  13.732  18.448  1.00  0.00     0.049 C 
BRANCH  21  23
HETATM   23  O4  UNL     1       0.651  12.588  16.533  1.00  0.00    -0.387 OA
HETATM   24  H34 UNL     1       0.881  11.726  16.147  1.00  0.00     0.210 HD
ENDBRANCH  21  23
BRANCH  21  25
HETATM   25  C23 UNL     1       1.387  11.731  18.694  1.00  0.00     0.181 C 
BRANCH  25  26
HETATM   26  O5  UNL     1       1.869  10.553  18.041  1.00  0.00    -0.390 OA
HETATM   27  H36 UNL     1       2.821  10.481  18.216  1.00  0.00     0.210 HD
ENDBRANCH  25  26
BRANCH  25  28
HETATM   28  C24 UNL     1       1.085  11.459  20.201  1.00  0.00     0.158 C 
HETATM   29  O6  UNL     1       1.233  10.058  20.520  1.00  0.00    -0.373 OA
HETATM   30  C25 UNL     1       2.473   9.850  21.234  1.00  0.00     0.185 C 
HETATM   31  C26 UNL     1       3.130  11.210  21.426  1.00  0.00     0.027 C 
HETATM   32  C29 UNL     1       2.171   9.139  22.572  1.00  0.00     0.383 C 
HETATM   33  C27 UNL     1       3.863  11.342  22.763  1.00  0.00     0.038 C 
HETATM   34  C30 UNL     1       1.972  12.176  21.230  1.00  0.00     0.020 C 
HETATM   35  C28 UNL     1       4.373   9.980  23.231  1.00  0.00     0.273 C 
HETATM   36  N1  UNL     1       3.271   9.069  23.515  1.00  0.00     0.114 N 
HETATM   37  H44 UNL     1       3.595   8.101  23.520  1.00  0.00     0.319 HD
HETATM   38  C31 UNL     1       2.394  13.599  20.905  1.00  0.00     0.013 C 
BRANCH  32  39
HETATM   39  O7  UNL     1       1.763   7.806  22.302  1.00  0.00    -0.366 OA
HETATM   40  H46 UNL     1       1.076   7.891  21.615  1.00  0.00     0.212 HD
ENDBRANCH  32  39
ENDBRANCH  25  28
ENDBRANCH  21  25
ENDBRANCH  17  21
BRANCH  20  41
HETATM   41  O8  UNL     1      -2.421   8.925  17.865  1.00  0.00    -0.384 OA
HETATM   42  H55 UNL     1      -3.259   8.545  18.184  1.00  0.00     0.211 HD
ENDBRANCH  20  41
BRANCH   1  43
HETATM   43  O2  UNL     1      -5.542   4.376  12.861  1.00  0.00    -0.386 OA
BRANCH  43  44
HETATM   44  C4  UNL     1      -6.817   4.603  13.454  1.00  0.00     0.170 C 
BRANCH  44  45
HETATM   45  C3  UNL     1      -7.868   4.717  12.356  1.00  0.00     0.052 C 
BRANCH  45  46
HETATM   46  C2  UNL     1      -8.812   5.895  12.588  1.00  0.00     0.169 C 
BRANCH  46  47
HETATM   47  O1  UNL     1      -8.906   6.209  13.980  1.00  0.00    -0.396 OA
HETATM   48  C1  UNL     1     -10.037   7.007  14.301  1.00  0.00     0.201 C 
ENDBRANCH  46  47
ENDBRANCH  45  46
ENDBRANCH  44  45
ENDBRANCH  43  44
ENDBRANCH   1  43
TORSDOF 12
ENDMDL
MODEL 2
REMARK minimizedAffinity -9.28950024
REMARK CNNscore 0.766623974
REMARK CNNaffinity 7.24025869
REMARK  12 active torsions:
REMARK  status: ('A' for Active; 'I' for Inactive)
REMARK    1  A    between atoms: O1_2  and  C2_3 
REMARK    2  A    between atoms: C2_3  and  C3_4 
REMARK    3  A    between atoms: C3_4  and  C4_5 
REMARK    4  A    between atoms: C4_5  and  O2_6 
REMARK    5  A    between atoms: O2_6  and  C5_7 
REMARK    6  A    between atoms: C20_23  and  C21_24 
REMARK    7  A    between atoms: C21_24  and  O4_26 
REMARK    8  A    between atoms: C21_24  and  C23_27 
REMARK    9  A    between atoms: C23_27  and  O5_28 
REMARK   10  A    between atoms: C23_27  and  C24_29 
REMARK   11  A    between atoms: C29_36  and  O7_37 
REMARK   12  A    between atoms: C34_42  and  O8_43 
ROOT
HETATM    1  C5  UNL     1      -9.944   7.268  13.953  1.00  0.00     0.122 C 
HETATM    2  C6  UNL     1      -9.548   7.528  15.415  1.00  0.00     0.033 C 
HETATM    3  C7  UNL     1      -8.038   7.668  15.577  1.00  0.00     0.013 C 
HETATM    4  C8  UNL     1      -7.265   6.372  15.167  1.00  0.00    -0.026 C 
HETATM    5  C9  UNL     1      -7.053   5.502  16.434  1.00  0.00     0.016 C 
HETATM    6  C10 UNL     1      -8.131   5.526  14.186  1.00  0.00     0.071 C 
HETATM    7  C11 UNL     1      -8.908   6.410  13.206  1.00  0.00     0.045 C 
HETATM    8  C12 UNL     1      -7.351   4.457  13.450  1.00  0.00     0.154 C 
HETATM    9  O3  UNL     1      -7.900   3.468  12.965  1.00  0.00    -0.293 OA
HETATM   10  C13 UNL     1      -5.900   4.628  13.230  1.00  0.00     0.057 C 
HETATM   11  C14 UNL     1      -5.238   5.710  13.663  1.00  0.00    -0.037 C 
HETATM   12  C15 UNL     1      -5.895   6.803  14.506  1.00  0.00     0.026 C 
HETATM   13  C16 UNL     1      -4.927   7.448  15.542  1.00  0.00     0.011 C 
HETATM   14  C17 UNL     1      -3.493   7.694  15.047  1.00  0.00     0.014 C 
HETATM   15  C18 UNL     1      -2.891   6.427  14.401  1.00  0.00    -0.002 C 
HETATM   16  C19 UNL     1      -2.771   5.311  15.465  1.00  0.00     0.019 C 
HETATM   17  C20 UNL     1      -1.544   6.652  13.624  1.00  0.00     0.034 C 
HETATM   18  C32 UNL     1      -1.536   5.502  12.580  1.00  0.00     0.012 C 
HETATM   19  C33 UNL     1      -2.982   4.976  12.476  1.00  0.00     0.044 C 
HETATM   20  C34 UNL     1      -3.825   6.014  13.224  1.00  0.00     0.089 C 
ENDROOT
BRANCH  17  21
HETATM   21  C21 UNL     1      -0.185   6.903  14.375  1.00  0.00     0.087 C 
HETATM   22  C22 UNL     1       0.964   5.996  13.918  1.00  0.00     0.049 C 
BRANCH  21  23
HETATM   23  O4  UNL     1      -0.396   6.632  15.771  1.00  0.00    -0.387 OA
HETATM   24  H34 UNL     1      -1.135   7.185  16.076  1.00  0.00     0.210 HD
ENDBRANCH  21  23
BRANCH  21  25
HETATM   25  C23 UNL     1       0.219   8.426  14.240  1.00  0.00     0.181 C 
BRANCH  25  26
HETATM   26  O5  UNL     1      -0.951   9.244  14.141  1.00  0.00    -0.390 OA
HETATM   27  H36 UNL     1      -0.753  10.101  14.553  1.00  0.00     0.210 HD
ENDBRANCH  25  26
BRANCH  25  28
HETATM   28  C24 UNL     1       1.228   8.740  13.092  1.00  0.00     0.158 C 
HETATM   29  O6  UNL     1       2.400   7.901  13.181  1.00  0.00    -0.373 OA
HETATM   30  C25 UNL     1       2.333   6.862  12.179  1.00  0.00     0.185 C 
HETATM   31  C26 UNL     1       1.064   7.085  11.366  1.00  0.00     0.027 C 
HETATM   32  C29 UNL     1       3.612   6.913  11.313  1.00  0.00     0.383 C 
HETATM   33  C27 UNL     1       1.229   6.738   9.885  1.00  0.00     0.038 C 
HETATM   34  C30 UNL     1       0.731   8.541  11.652  1.00  0.00     0.020 C 
HETATM   35  C28 UNL     1       2.277   5.641   9.704  1.00  0.00     0.273 C 
HETATM   36  N1  UNL     1       3.599   6.097  10.114  1.00  0.00     0.114 N 
HETATM   37  H44 UNL     1       4.216   5.304  10.290  1.00  0.00     0.319 HD
HETATM   38  C31 UNL     1      -0.711   8.920  11.362  1.00  0.00     0.013 C 
BRANCH  32  39
HETATM   39  O7  UNL     1       4.715   6.488  12.099  1.00  0.00    -0.366 OA
HETATM   40  H46 UNL     1       4.649   7.006  12.922  1.00  0.00     0.212 HD
ENDBRANCH  32  39
ENDBRANCH  25  28
ENDBRANCH  21  25
ENDBRANCH  17  21
BRANCH  20  41
HETATM   41  O8  UNL     1      -3.971   7.127  12.316  1.00  0.00    -0.384 OA
HETATM   42  H55 UNL     1      -4.502   6.812  11.563  1.00  0.00     0.211 HD
ENDBRANCH  20  41
BRANCH   1  43
HETATM   43  O2  UNL     1     -11.209   6.599  13.991  1.00  0.00    -0.386 OA
BRANCH  43  44
HETATM   44  C4  UNL     1     -12.204   7.300  14.732  1.00  0.00     0.170 C 
BRANCH  44  45
HETATM   45  C3  UNL     1     -13.153   7.996  13.765  1.00  0.00     0.052 C 
BRANCH  45  46
HETATM   46  C2  UNL     1     -13.868   7.002  12.851  1.00  0.00     0.169 C 
BRANCH  46  47
HETATM   47  O1  UNL     1     -14.851   7.660  12.048  1.00  0.00    -0.396 OA
HETATM   48  C1  UNL     1     -16.156   7.120  12.204  1.00  0.00     0.201 C 
ENDBRANCH  46  47
ENDBRANCH  45  46
ENDBRANCH  44  45
ENDBRANCH  43  44
ENDBRANCH   1  43
TORSDOF 12
ENDMDL
MODEL 3
REMARK minimizedAffinity -8.99887562
REMARK CNNscore 0.750581801
REMARK CNNaffinity 6.93239212
REMARK  12 active torsions:
REMARK  status: ('A' for Active; 'I' for Inactive)
REMARK    1  A    between atoms: O1_2  and  C2_3 
REMARK    2  A    between atoms: C2_3  and  C3_4 
REMARK    3  A    between atoms: C3_4  and  C4_5 
REMARK    4  A    between atoms: C4_5  and  O2_6 
REMARK    5  A    between atoms: O2_6  and  C5_7 
REMARK    6  A    between atoms: C20_23  and  C21_24 
REMARK    7  A    between atoms: C21_24  and  O4_26 
REMARK    8  A    between atoms: C21_24  and  C23_27 
REMARK    9  A    between atoms: C23_27  and  O5_28 
REMARK   10  A    between atoms: C23_27  and  C24_29 
REMARK   11  A    between atoms: C29_36  and  O7_37 
REMARK   12  A    between atoms: C34_42  and  O8_43 
ROOT
HETATM    1  C5  UNL     1     -10.594   7.490  14.063  1.00  0.00     0.122 C 
HETATM    2  C6  UNL     1     -10.292   8.026  15.471  1.00  0.00     0.033 C 
HETATM    3  C7  UNL     1      -8.854   8.518  15.594  1.00  0.00     0.013 C 
HETATM    4  C8  UNL     1      -7.806   7.382  15.354  1.00  0.00    -0.026 C 
HETATM    5  C9  UNL     1      -7.429   6.760  16.724  1.00  0.00     0.016 C 
HETATM    6  C10 UNL     1      -8.446   6.241  14.508  1.00  0.00     0.071 C 
HETATM    7  C11 UNL     1      -9.381   6.791  13.426  1.00  0.00     0.045 C 
HETATM    8  C12 UNL     1      -7.435   5.283  13.913  1.00  0.00     0.154 C 
HETATM    9  O3  UNL     1      -7.743   4.141  13.574  1.00  0.00    -0.293 OA
HETATM   10  C13 UNL     1      -6.054   5.740  13.655  1.00  0.00     0.057 C 
HETATM   11  C14 UNL     1      -5.656   6.990  13.929  1.00  0.00    -0.037 C 
HETATM   12  C15 UNL     1      -6.553   8.013  14.624  1.00  0.00     0.026 C 
HETATM   13  C16 UNL     1      -5.771   8.991  15.551  1.00  0.00     0.011 C 
HETATM   14  C17 UNL     1      -4.418   9.479  15.010  1.00  0.00     0.014 C 
HETATM   15  C18 UNL     1      -3.539   8.302  14.534  1.00  0.00    -0.002 C 
HETATM   16  C19 UNL     1      -3.195   7.394  15.738  1.00  0.00     0.019 C 
HETATM   17  C20 UNL     1      -2.262   8.713  13.717  1.00  0.00     0.034 C 
HETATM   18  C32 UNL     1      -1.981   7.463  12.839  1.00  0.00     0.012 C 
HETATM   19  C33 UNL     1      -3.272   6.621  12.825  1.00  0.00     0.044 C 
HETATM   20  C34 UNL     1      -4.337   7.538  13.436  1.00  0.00     0.089 C 
ENDROOT
BRANCH  17  21
HETATM   21  C21 UNL     1      -1.006   9.358  14.410  1.00  0.00     0.087 C 
HETATM   22  C22 UNL     1      -1.192   9.649  15.905  1.00  0.00     0.049 C 
BRANCH  21  23
HETATM   23  O4  UNL     1      -0.751  10.622  13.773  1.00  0.00    -0.387 OA
HETATM   24  H34 UNL     1      -0.649  10.461  12.819  1.00  0.00     0.210 HD
ENDBRANCH  21  23
BRANCH  21  25
HETATM   25  C23 UNL     1       0.259   8.439  14.173  1.00  0.00     0.181 C 
BRANCH  25  26
HETATM   26  O5  UNL     1       0.567   7.701  15.358  1.00  0.00    -0.390 OA
HETATM   27  H36 UNL     1       0.949   6.850  15.090  1.00  0.00     0.210 HD
ENDBRANCH  25  26
BRANCH  25  28
HETATM   28  C24 UNL     1       1.518   9.182  13.625  1.00  0.00     0.158 C 
HETATM   29  O6  UNL     1       2.675   8.931  14.453  1.00  0.00    -0.373 OA
HETATM   30  C25 UNL     1       3.548   7.985  13.796  1.00  0.00     0.185 C 
HETATM   31  C26 UNL     1       2.935   7.652  12.442  1.00  0.00     0.027 C 
HETATM   32  C29 UNL     1       4.960   8.602  13.676  1.00  0.00     0.383 C 
HETATM   33  C27 UNL     1       3.978   7.440  11.344  1.00  0.00     0.038 C 
HETATM   34  C30 UNL     1       1.982   8.814  12.208  1.00  0.00     0.020 C 
HETATM   35  C28 UNL     1       5.282   6.909  11.939  1.00  0.00     0.273 C 
HETATM   36  N1  UNL     1       5.895   7.884  12.831  1.00  0.00     0.114 N 
HETATM   37  H44 UNL     1       6.568   7.433  13.451  1.00  0.00     0.319 HD
HETATM   38  C31 UNL     1       0.901   8.537  11.177  1.00  0.00     0.013 C 
BRANCH  32  39
HETATM   39  O7  UNL     1       5.538   8.681  14.970  1.00  0.00    -0.366 OA
HETATM   40  H46 UNL     1       4.854   9.103  15.522  1.00  0.00     0.212 HD
ENDBRANCH  32  39
ENDBRANCH  25  28
ENDBRANCH  21  25
ENDBRANCH  17  21
BRANCH  20  41
HETATM   41  O8  UNL     1      -4.710   8.457  12.387  1.00  0.00    -0.384 OA
HETATM   42  H55 UNL     1      -5.144   7.933  11.690  1.00  0.00     0.211 HD
ENDBRANCH  20  41
BRANCH   1  43
HETATM   43  O2  UNL     1     -11.680   6.569  14.207  1.00  0.00    -0.386 OA
BRANCH  43  44
HETATM   44  C4  UNL     1     -12.825   6.909  13.429  1.00  0.00     0.170 C 
BRANCH  44  45
HETATM   45  C3  UNL     1     -13.482   8.151  14.018  1.00  0.00     0.052 C 
BRANCH  45  46
HETATM   46  C2  UNL     1     -14.290   8.920  12.975  1.00  0.00     0.169 C 
BRANCH  46  47
HETATM   47  O1  UNL     1     -14.868   8.029  12.017  1.00  0.00    -0.396 OA
HETATM   48  C1  UNL     1     -16.266   8.218  11.847  1.00  0.00     0.201 C 
ENDBRANCH  46  47
ENDBRANCH  45  46
ENDBRANCH  44  45
ENDBRANCH  43  44
ENDBRANCH   1  43
TORSDOF 12
ENDMDL
MODEL 4
REMARK minimizedAffinity -8.20407963
REMARK CNNscore 0.688320339
REMARK CNNaffinity 6.91750002
REMARK  12 active torsions:
REMARK  status: ('A' for Active; 'I' for Inactive)
REMARK    1  A    between atoms: O1_2  and  C2_3 
REMARK    2  A    between atoms: C2_3  and  C3_4 
REMARK    3  A    between atoms: C3_4  and  C4_5 
REMARK    4  A    between atoms: C4_5  and  O2_6 
REMARK    5  A    between atoms: O2_6  and  C5_7 
REMARK    6  A    between atoms: C20_23  and  C21_24 
REMARK    7  A    between atoms: C21_24  and  O4_26 
REMARK    8  A    between atoms: C21_24  and  C23_27 
REMARK    9  A    between atoms: C23_27  and  O5_28 
REMARK   10  A    between atoms: C23_27  and  C24_29 
REMARK   11  A    between atoms: C29_36  and  O7_37 
REMARK   12  A    between atoms: C34_42  and  O8_43 
ROOT
HETATM    1  C5  UNL     1     -11.004   7.661  13.484  1.00  0.00     0.122 C 
HETATM    2  C6  UNL     1     -10.841   7.804  15.005  1.00  0.00     0.033 C 
HETATM    3  C7  UNL     1      -9.398   8.108  15.394  1.00  0.00     0.013 C 
HETATM    4  C8  UNL     1      -8.409   6.969  14.981  1.00  0.00    -0.026 C 
HETATM    5  C9  UNL     1      -8.248   5.996  16.180  1.00  0.00     0.016 C 
HETATM    6  C10 UNL     1      -9.018   6.137  13.812  1.00  0.00     0.071 C 
HETATM    7  C11 UNL     1      -9.773   7.024  12.817  1.00  0.00     0.045 C 
HETATM    8  C12 UNL     1      -8.010   5.259  13.100  1.00  0.00     0.154 C 
HETATM    9  O3  UNL     1      -8.353   4.271  12.452  1.00  0.00    -0.293 OA
HETATM   10  C13 UNL     1      -6.580   5.628  13.108  1.00  0.00     0.057 C 
HETATM   11  C14 UNL     1      -6.133   6.728  13.729  1.00  0.00    -0.037 C 
HETATM   12  C15 UNL     1      -7.035   7.633  14.567  1.00  0.00     0.026 C 
HETATM   13  C16 UNL     1      -6.308   8.273  15.787  1.00  0.00     0.011 C 
HETATM   14  C17 UNL     1      -4.868   8.744  15.528  1.00  0.00     0.014 C 
HETATM   15  C18 UNL     1      -4.021   7.639  14.860  1.00  0.00    -0.002 C 
HETATM   16  C19 UNL     1      -3.890   6.434  15.822  1.00  0.00     0.019 C 
HETATM   17  C20 UNL     1      -2.627   8.110  14.308  1.00  0.00     0.034 C 
HETATM   18  C32 UNL     1      -2.328   7.091  13.174  1.00  0.00     0.012 C 
HETATM   19  C33 UNL     1      -3.663   6.408  12.816  1.00  0.00     0.044 C 
HETATM   20  C34 UNL     1      -4.729   7.248  13.528  1.00  0.00     0.089 C 
ENDROOT
BRANCH  17  21
HETATM   21  C21 UNL     1      -1.425   8.440  15.266  1.00  0.00     0.087 C 
HETATM   22  C22 UNL     1      -0.246   7.464  15.157  1.00  0.00     0.049 C 
BRANCH  21  23
HETATM   23  O4  UNL     1      -1.903   8.358  16.620  1.00  0.00    -0.387 OA
HETATM   24  H34 UNL     1      -2.665   8.956  16.705  1.00  0.00     0.210 HD
ENDBRANCH  21  23
BRANCH  21  25
HETATM   25  C23 UNL     1      -0.944   9.926  15.019  1.00  0.00     0.181 C 
BRANCH  25  26
HETATM   26  O5  UNL     1      -0.652  10.130  13.634  1.00  0.00    -0.390 OA
HETATM   27  H36 UNL     1      -0.855  11.054  13.417  1.00  0.00     0.210 HD
ENDBRANCH  25  26
BRANCH  25  28
HETATM   28  C24 UNL     1       0.239  10.394  15.923  1.00  0.00     0.158 C 
HETATM   29  O6  UNL     1       1.384   9.525  15.778  1.00  0.00    -0.373 OA
HETATM   30  C25 UNL     1       2.388  10.174  14.966  1.00  0.00     0.185 C 
HETATM   31  C26 UNL     1       1.872  11.563  14.613  1.00  0.00     0.027 C 
HETATM   32  C29 UNL     1       3.721  10.213  15.747  1.00  0.00     0.383 C 
HETATM   33  C27 UNL     1       2.976  12.621  14.565  1.00  0.00     0.038 C 
HETATM   34  C30 UNL     1       0.799  11.801  15.664  1.00  0.00     0.020 C 
HETATM   35  C28 UNL     1       4.309  11.988  14.168  1.00  0.00     0.273 C 
HETATM   36  N1  UNL     1       4.767  11.039  15.175  1.00  0.00     0.114 N 
HETATM   37  H44 UNL     1       5.463  10.405  14.783  1.00  0.00     0.319 HD
HETATM   38  C31 UNL     1      -0.201  12.886  15.301  1.00  0.00     0.013 C 
BRANCH  32  39
HETATM   39  O7  UNL     1       4.234   8.893  15.845  1.00  0.00    -0.366 OA
HETATM   40  H46 UNL     1       3.484   8.358  16.164  1.00  0.00     0.212 HD
ENDBRANCH  32  39
ENDBRANCH  25  28
ENDBRANCH  21  25
ENDBRANCH  17  21
BRANCH  20  41
HETATM   41  O8  UNL     1      -4.905   8.428  12.715  1.00  0.00    -0.384 OA
HETATM   42  H55 UNL     1      -5.285   8.136  11.868  1.00  0.00     0.211 HD
ENDBRANCH  20  41
BRANCH   1  43
HETATM   43  O2  UNL     1     -12.160   6.844  13.278  1.00  0.00    -0.386 OA
BRANCH  43  44
HETATM   44  C4  UNL     1     -13.293   7.566  12.802  1.00  0.00     0.170 C 
BRANCH  44  45
HETATM   45  C3  UNL     1     -14.559   6.784  13.124  1.00  0.00     0.052 C 
BRANCH  45  46
HETATM   46  C2  UNL     1     -15.750   7.256  12.291  1.00  0.00     0.169 C 
BRANCH  46  47
HETATM   47  O1  UNL     1     -15.702   8.670  12.085  1.00  0.00    -0.396 OA
HETATM   48  C1  UNL     1     -16.713   9.144  11.207  1.00  0.00     0.201 C 
ENDBRANCH  46  47
ENDBRANCH  45  46
ENDBRANCH  44  45
ENDBRANCH  43  44
ENDBRANCH   1  43
TORSDOF 12
ENDMDL
MODEL 5
REMARK minimizedAffinity -8.85494518
REMARK CNNscore 0.654547155
REMARK CNNaffinity 7.1552124
REMARK  12 active torsions:
REMARK  status: ('A' for Active; 'I' for Inactive)
REMARK    1  A    between atoms: O1_2  and  C2_3 
REMARK    2  A    between atoms: C2_3  and  C3_4 
REMARK    3  A    between atoms: C3_4  and  C4_5 
REMARK    4  A    between atoms: C4_5  and  O2_6 
REMARK    5  A    between atoms: O2_6  and  C5_7 
REMARK    6  A    between atoms: C20_23  and  C21_24 
REMARK    7  A    between atoms: C21_24  and  O4_26 
REMARK    8  A    between atoms: C21_24  and  C23_27 
REMARK    9  A    between atoms: C23_27  and  O5_28 
REMARK   10  A    between atoms: C23_27  and  C24_29 
REMARK   11  A    between atoms: C29_36  and  O7_37 
REMARK   12  A    between atoms: C34_42  and  O8_43 
ROOT
HETATM    1  C5  UNL     1     -10.453   7.467  13.961  1.00  0.00     0.122 C 
HETATM    2  C6  UNL     1     -10.161   7.930  15.397  1.00  0.00     0.033 C 
HETATM    3  C7  UNL     1      -8.705   8.348  15.572  1.00  0.00     0.013 C 
HETATM    4  C8  UNL     1      -7.705   7.175  15.307  1.00  0.00    -0.026 C 
HETATM    5  C9  UNL     1      -7.391   6.479  16.658  1.00  0.00     0.016 C 
HETATM    6  C10 UNL     1      -8.376   6.101  14.400  1.00  0.00     0.071 C 
HETATM    7  C11 UNL     1      -9.259   6.739  13.322  1.00  0.00     0.045 C 
HETATM    8  C12 UNL     1      -7.397   5.121  13.787  1.00  0.00     0.154 C 
HETATM    9  O3  UNL     1      -7.749   4.010  13.393  1.00  0.00    -0.293 OA
HETATM   10  C13 UNL     1      -5.991   5.522  13.580  1.00  0.00     0.057 C 
HETATM   11  C14 UNL     1      -5.542   6.740  13.915  1.00  0.00    -0.037 C 
HETATM   12  C15 UNL     1      -6.407   7.775  14.633  1.00  0.00     0.026 C 
HETATM   13  C16 UNL     1      -5.603   8.675  15.618  1.00  0.00     0.011 C 
HETATM   14  C17 UNL     1      -4.216   9.121  15.128  1.00  0.00     0.014 C 
HETATM   15  C18 UNL     1      -3.382   7.924  14.622  1.00  0.00    -0.002 C 
HETATM   16  C19 UNL     1      -3.109   6.952  15.794  1.00  0.00     0.019 C 
HETATM   17  C20 UNL     1      -2.067   8.308  13.852  1.00  0.00     0.034 C 
HETATM   18  C32 UNL     1      -1.823   7.083  12.928  1.00  0.00     0.012 C 
HETATM   19  C33 UNL     1      -3.151   6.304  12.850  1.00  0.00     0.044 C 
HETATM   20  C34 UNL     1      -4.187   7.245  13.475  1.00  0.00     0.089 C 
ENDROOT
BRANCH  17  21
HETATM   21  C21 UNL     1      -0.800   8.864  14.600  1.00  0.00     0.087 C 
HETATM   22  C22 UNL     1       0.365   9.236  13.673  1.00  0.00     0.049 C 
BRANCH  21  23
HETATM   23  O4  UNL     1      -0.316   7.832  15.477  1.00  0.00    -0.387 OA
HETATM   24  H34 UNL     1      -1.048   7.568  16.060  1.00  0.00     0.210 HD
ENDBRANCH  21  23
BRANCH  21  25
HETATM   25  C23 UNL     1      -1.215  10.097  15.498  1.00  0.00     0.181 C 
BRANCH  25  26
HETATM   26  O5  UNL     1      -0.500  11.269  15.096  1.00  0.00    -0.390 OA
HETATM   27  H36 UNL     1      -1.069  12.038  15.255  1.00  0.00     0.210 HD
ENDBRANCH  25  26
BRANCH  25  28
HETATM   28  C24 UNL     1      -1.097   9.861  17.036  1.00  0.00     0.158 C 
HETATM   29  O6  UNL     1       0.286   9.779  17.448  1.00  0.00    -0.373 OA
HETATM   30  C25 UNL     1       0.673  11.010  18.099  1.00  0.00     0.185 C 
HETATM   31  C26 UNL     1      -0.552  11.912  18.152  1.00  0.00     0.027 C 
HETATM   32  C29 UNL     1       1.234  10.683  19.502  1.00  0.00     0.383 C 
HETATM   33  C27 UNL     1      -0.629  12.751  19.429  1.00  0.00     0.038 C 
HETATM   34  C30 UNL     1      -1.700  10.934  17.955  1.00  0.00     0.020 C 
HETATM   35  C28 UNL     1       0.772  13.041  19.965  1.00  0.00     0.273 C 
HETATM   36  N1  UNL     1       1.447  11.818  20.380  1.00  0.00     0.114 N 
HETATM   37  H44 UNL     1       2.455  11.963  20.436  1.00  0.00     0.319 HD
HETATM   38  C31 UNL     1      -3.000  11.579  17.502  1.00  0.00     0.013 C 
BRANCH  32  39
HETATM   39  O7  UNL     1       2.483  10.025  19.355  1.00  0.00    -0.366 OA
HETATM   40  H46 UNL     1       2.317   9.316  18.706  1.00  0.00     0.212 HD
ENDBRANCH  32  39
ENDBRANCH  25  28
ENDBRANCH  21  25
ENDBRANCH  17  21
BRANCH  20  41
HETATM   41  O8  UNL     1      -4.491   8.223  12.458  1.00  0.00    -0.384 OA
HETATM   42  H55 UNL     1      -4.932   7.750  11.731  1.00  0.00     0.211 HD
ENDBRANCH  20  41
BRANCH   1  43
HETATM   43  O2  UNL     1     -11.584   6.594  14.041  1.00  0.00    -0.386 OA
BRANCH  43  44
HETATM   44  C4  UNL     1     -12.758   7.122  13.431  1.00  0.00     0.170 C 
BRANCH  44  45
HETATM   45  C3  UNL     1     -12.419   8.438  12.744  1.00  0.00     0.052 C 
BRANCH  45  46
HETATM   46  C2  UNL     1     -13.476   9.510  13.008  1.00  0.00     0.169 C 
BRANCH  46  47
HETATM   47  O1  UNL     1     -14.382   9.618  11.907  1.00  0.00    -0.396 OA
HETATM   48  C1  UNL     1     -15.593   8.904  12.103  1.00  0.00     0.201 C 
ENDBRANCH  46  47
ENDBRANCH  45  46
ENDBRANCH  44  45
ENDBRANCH  43  44
ENDBRANCH   1  43
TORSDOF 12
ENDMDL
MODEL 6
REMARK minimizedAffinity -7.84358263
REMARK CNNscore 0.550237954
REMARK CNNaffinity 6.56340551
REMARK  12 active torsions:
REMARK  status: ('A' for Active; 'I' for Inactive)
REMARK    1  A    between atoms: O1_2  and  C2_3 
REMARK    2  A    between atoms: C2_3  and  C3_4 
REMARK    3  A    between atoms: C3_4  and  C4_5 
REMARK    4  A    between atoms: C4_5  and  O2_6 
REMARK    5  A    between atoms: O2_6  and  C5_7 
REMARK    6  A    between atoms: C20_23  and  C21_24 
REMARK    7  A    between atoms: C21_24  and  O4_26 
REMARK    8  A    between atoms: C21_24  and  C23_27 
REMARK    9  A    between atoms: C23_27  and  O5_28 
REMARK   10  A    between atoms: C23_27  and  C24_29 
REMARK   11  A    between atoms: C29_36  and  O7_37 
REMARK   12  A    between atoms: C34_42  and  O8_43 
ROOT
HETATM    1  C5  UNL     1       3.839  11.606  21.799  1.00  0.00     0.122 C 
HETATM    2  C6  UNL     1       2.562  12.460  21.834  1.00  0.00     0.033 C 
HETATM    3  C7  UNL     1       1.565  12.033  20.762  1.00  0.00     0.013 C 
HETATM    4  C8  UNL     1       2.130  12.200  19.313  1.00  0.00    -0.026 C 
HETATM    5  C9  UNL     1       1.707  13.593  18.776  1.00  0.00     0.016 C 
HETATM    6  C10 UNL     1       3.687  12.190  19.347  1.00  0.00     0.071 C 
HETATM    7  C11 UNL     1       4.227  11.187  20.370  1.00  0.00     0.045 C 
HETATM    8  C12 UNL     1       4.325  11.977  17.990  1.00  0.00     0.154 C 
HETATM    9  O3  UNL     1       5.480  12.329  17.752  1.00  0.00    -0.293 OA
HETATM   10  C13 UNL     1       3.582  11.259  16.935  1.00  0.00     0.057 C 
HETATM   11  C14 UNL     1       2.347  10.780  17.135  1.00  0.00    -0.037 C 
HETATM   12  C15 UNL     1       1.561  11.023  18.423  1.00  0.00     0.026 C 
HETATM   13  C16 UNL     1       0.026  11.156  18.195  1.00  0.00     0.011 C 
HETATM   14  C17 UNL     1      -0.577  10.190  17.163  1.00  0.00     0.014 C 
HETATM   15  C18 UNL     1       0.212  10.212  15.836  1.00  0.00    -0.002 C 
HETATM   16  C19 UNL     1       0.104  11.615  15.194  1.00  0.00     0.019 C 
HETATM   17  C20 UNL     1      -0.155   9.068  14.824  1.00  0.00     0.034 C 
HETATM   18  C32 UNL     1       1.139   8.906  13.981  1.00  0.00     0.012 C 
HETATM   19  C33 UNL     1       2.281   9.572  14.774  1.00  0.00     0.044 C 
HETATM   20  C34 UNL     1       1.687   9.831  16.163  1.00  0.00     0.089 C 
ENDROOT
BRANCH  17  21
HETATM   21  C21 UNL     1      -1.503   9.079  14.013  1.00  0.00     0.087 C 
HETATM   22  C22 UNL     1      -1.327   8.908  12.498  1.00  0.00     0.049 C 
BRANCH  21  23
HETATM   23  O4  UNL     1      -2.129  10.358  14.213  1.00  0.00    -0.387 OA
HETATM   24  H34 UNL     1      -2.231  10.494  15.171  1.00  0.00     0.210 HD
ENDBRANCH  21  23
BRANCH  21  25
HETATM   25  C23 UNL     1      -2.476   7.975  14.590  1.00  0.00     0.181 C 
BRANCH  25  26
HETATM   26  O5  UNL     1      -1.783   6.735  14.750  1.00  0.00    -0.390 OA
HETATM   27  H36 UNL     1      -2.170   6.269  15.508  1.00  0.00     0.210 HD
ENDBRANCH  25  26
BRANCH  25  28
HETATM   28  C24 UNL     1      -3.803   7.784  13.790  1.00  0.00     0.158 C 
HETATM   29  O6  UNL     1      -3.975   6.408  13.383  1.00  0.00    -0.373 OA
HETATM   30  C25 UNL     1      -4.962   5.772  14.225  1.00  0.00     0.185 C 
HETATM   31  C26 UNL     1      -5.489   6.821  15.195  1.00  0.00     0.027 C 
HETATM   32  C29 UNL     1      -6.073   5.171  13.335  1.00  0.00     0.383 C 
HETATM   33  C27 UNL     1      -6.978   6.660  15.506  1.00  0.00     0.038 C 
HETATM   34  C30 UNL     1      -5.111   8.128  14.516  1.00  0.00     0.020 C 
HETATM   35  C28 UNL     1      -7.394   5.194  15.394  1.00  0.00     0.273 C 
HETATM   36  N1  UNL     1      -7.259   4.705  14.028  1.00  0.00     0.114 N 
HETATM   37  H44 UNL     1      -7.231   3.686  14.010  1.00  0.00     0.319 HD
HETATM   38  C31 UNL     1      -5.089   9.330  15.445  1.00  0.00     0.013 C 
BRANCH  32  39
HETATM   39  O7  UNL     1      -5.542   4.064  12.621  1.00  0.00    -0.366 OA
HETATM   40  H46 UNL     1      -4.712   4.396  12.230  1.00  0.00     0.212 HD
ENDBRANCH  32  39
ENDBRANCH  25  28
ENDBRANCH  21  25
ENDBRANCH  17  21
BRANCH  20  41
HETATM   41  O8  UNL     1       1.713   8.558  16.843  1.00  0.00    -0.384 OA
HETATM   42  H55 UNL     1       2.649   8.322  16.968  1.00  0.00     0.211 HD
ENDBRANCH  20  41
BRANCH   1  43
HETATM   43  O2  UNL     1       4.874  12.404  22.381  1.00  0.00    -0.386 OA
BRANCH  43  44
HETATM   44  C4  UNL     1       6.189  11.978  22.033  1.00  0.00     0.170 C 
BRANCH  44  45
HETATM   45  C3  UNL     1       7.121  12.207  23.216  1.00  0.00     0.052 C 
BRANCH  45  46
HETATM   46  C2  UNL     1       8.590  12.069  22.821  1.00  0.00     0.169 C 
BRANCH  46  47
HETATM   47  O1  UNL     1       9.202  13.353  22.672  1.00  0.00    -0.396 OA
HETATM   48  C1  UNL     1       9.569  13.647  21.331  1.00  0.00     0.201 C 
ENDBRANCH  46  47
ENDBRANCH  45  46
ENDBRANCH  44  45
ENDBRANCH  43  44
ENDBRANCH   1  43
TORSDOF 12
ENDMDL
MODEL 7
REMARK minimizedAffinity -8.20907021
REMARK CNNscore 0.513153911
REMARK CNNaffinity 6.48769808
REMARK  12 active torsions:
REMARK  status: ('A' for Active; 'I' for Inactive)
REMARK    1  A    between atoms: O1_2  and  C2_3 
REMARK    2  A    between atoms: C2_3  and  C3_4 
REMARK    3  A    between atoms: C3_4  and  C4_5 
REMARK    4  A    between atoms: C4_5  and  O2_6 
REMARK    5  A    between atoms: O2_6  and  C5_7 
REMARK    6  A    between atoms: C20_23  and  C21_24 
REMARK    7  A    between atoms: C21_24  and  O4_26 
REMARK    8  A    between atoms: C21_24  and  C23_27 
REMARK    9  A    between atoms: C23_27  and  O5_28 
REMARK   10  A    between atoms: C23_27  and  C24_29 
REMARK   11  A    between atoms: C29_36  and  O7_37 
REMARK   12  A    between atoms: C34_42  and  O8_43 
ROOT
HETATM    1  C5  UNL     1     -10.184   7.154  13.695  1.00  0.00     0.122 C 
HETATM    2  C6  UNL     1      -9.940   7.219  15.211  1.00  0.00     0.033 C 
HETATM    3  C7  UNL     1      -8.473   7.477  15.538  1.00  0.00     0.013 C 
HETATM    4  C8  UNL     1      -7.531   6.342  15.019  1.00  0.00    -0.026 C 
HETATM    5  C9  UNL     1      -7.328   5.309  16.159  1.00  0.00     0.016 C 
HETATM    6  C10 UNL     1      -8.216   5.580  13.845  1.00  0.00     0.071 C 
HETATM    7  C11 UNL     1      -9.003   6.528  12.935  1.00  0.00     0.045 C 
HETATM    8  C12 UNL     1      -7.265   4.721  13.039  1.00  0.00     0.154 C 
HETATM    9  O3  UNL     1      -7.660   3.771  12.363  1.00  0.00    -0.293 OA
HETATM   10  C13 UNL     1      -5.829   5.062  12.990  1.00  0.00     0.057 C 
HETATM   11  C14 UNL     1      -5.328   6.122  13.640  1.00  0.00    -0.037 C 
HETATM   12  C15 UNL     1      -6.167   7.001  14.566  1.00  0.00     0.026 C 
HETATM   13  C16 UNL     1      -5.364   7.567  15.776  1.00  0.00     0.011 C 
HETATM   14  C17 UNL     1      -3.930   8.024  15.465  1.00  0.00     0.014 C 
HETATM   15  C18 UNL     1      -3.142   6.938  14.701  1.00  0.00    -0.002 C 
HETATM   16  C19 UNL     1      -2.987   5.685  15.595  1.00  0.00     0.019 C 
HETATM   17  C20 UNL     1      -1.769   7.410  14.101  1.00  0.00     0.034 C 
HETATM   18  C32 UNL     1      -1.549   6.444  12.904  1.00  0.00     0.012 C 
HETATM   19  C33 UNL     1      -2.915   5.804  12.584  1.00  0.00     0.044 C 
HETATM   20  C34 UNL     1      -3.925   6.626  13.391  1.00  0.00     0.089 C 
ENDROOT
BRANCH  17  21
HETATM   21  C21 UNL     1      -0.512   7.671  15.009  1.00  0.00     0.087 C 
HETATM   22  C22 UNL     1       0.827   7.618  14.262  1.00  0.00     0.049 C 
BRANCH  21  23
HETATM   23  O4  UNL     1      -0.468   6.638  16.009  1.00  0.00    -0.387 OA
HETATM   24  H34 UNL     1      -1.317   6.642  16.482  1.00  0.00     0.210 HD
ENDBRANCH  21  23
BRANCH  21  25
HETATM   25  C23 UNL     1      -0.680   9.053  15.759  1.00  0.00     0.181 C 
BRANCH  25  26
HETATM   26  O5  UNL     1      -1.545   8.906  16.888  1.00  0.00    -0.390 OA
HETATM   27  H36 UNL     1      -1.257   9.531  17.571  1.00  0.00     0.210 HD
ENDBRANCH  25  26
BRANCH  25  28
HETATM   28  C24 UNL     1      -1.128  10.243  14.853  1.00  0.00     0.158 C 
HETATM   29  O6  UNL     1      -2.456  10.694  15.201  1.00  0.00    -0.373 OA
HETATM   30  C25 UNL     1      -2.370  11.930  15.946  1.00  0.00     0.185 C 
HETATM   31  C26 UNL     1      -0.900  12.317  16.033  1.00  0.00     0.027 C 
HETATM   32  C29 UNL     1      -3.229  13.004  15.241  1.00  0.00     0.383 C 
HETATM   33  C27 UNL     1      -0.670  13.828  15.963  1.00  0.00     0.038 C 
HETATM   34  C30 UNL     1      -0.273  11.518  14.902  1.00  0.00     0.020 C 
HETATM   35  C28 UNL     1      -1.873  14.581  16.530  1.00  0.00     0.273 C 
HETATM   36  N1  UNL     1      -3.066  14.362  15.721  1.00  0.00     0.114 N 
HETATM   37  H44 UNL     1      -3.907  14.592  16.250  1.00  0.00     0.319 HD
HETATM   38  C31 UNL     1       1.231  11.335  15.025  1.00  0.00     0.013 C 
BRANCH  32  39
HETATM   39  O7  UNL     1      -4.600  12.667  15.391  1.00  0.00    -0.366 OA
HETATM   40  H46 UNL     1      -4.657  11.730  15.127  1.00  0.00     0.212 HD
ENDBRANCH  32  39
ENDBRANCH  25  28
ENDBRANCH  21  25
ENDBRANCH  17  21
BRANCH  20  41
HETATM   41  O8  UNL     1      -4.119   7.848  12.646  1.00  0.00    -0.384 OA
HETATM   42  H55 UNL     1      -4.548   7.604  11.807  1.00  0.00     0.211 HD
ENDBRANCH  20  41
BRANCH   1  43
HETATM   43  O2  UNL     1     -11.366   6.369  13.511  1.00  0.00    -0.386 OA
BRANCH  43  44
HETATM   44  C4  UNL     1     -12.450   6.763  14.348  1.00  0.00     0.170 C 
BRANCH  44  45
HETATM   45  C3  UNL     1     -13.282   7.819  13.630  1.00  0.00     0.052 C 
BRANCH  45  46
HETATM   46  C2  UNL     1     -14.557   7.230  13.029  1.00  0.00     0.169 C 
BRANCH  46  47
HETATM   47  O1  UNL     1     -14.962   7.962  11.868  1.00  0.00    -0.396 OA
HETATM   48  C1  UNL     1     -16.371   8.088  11.748  1.00  0.00     0.201 C 
ENDBRANCH  46  47
ENDBRANCH  45  46
ENDBRANCH  44  45
ENDBRANCH  43  44
ENDBRANCH   1  43
TORSDOF 12
ENDMDL
MODEL 8
REMARK minimizedAffinity -8.62413216
REMARK CNNscore 0.487774104
REMARK CNNaffinity 6.61271667
REMARK  12 active torsions:
REMARK  status: ('A' for Active; 'I' for Inactive)
REMARK    1  A    between atoms: O1_2  and  C2_3 
REMARK    2  A    between atoms: C2_3  and  C3_4 
REMARK    3  A    between atoms: C3_4  and  C4_5 
REMARK    4  A    between atoms: C4_5  and  O2_6 
REMARK    5  A    between atoms: O2_6  and  C5_7 
REMARK    6  A    between atoms: C20_23  and  C21_24 
REMARK    7  A    between atoms: C21_24  and  O4_26 
REMARK    8  A    between atoms: C21_24  and  C23_27 
REMARK    9  A    between atoms: C23_27  and  O5_28 
REMARK   10  A    between atoms: C23_27  and  C24_29 
REMARK   11  A    between atoms: C29_36  and  O7_37 
REMARK   12  A    between atoms: C34_42  and  O8_43 
ROOT
HETATM    1  C5  UNL     1      -6.118   5.725  14.908  1.00  0.00     0.122 C 
HETATM    2  C6  UNL     1      -5.899   5.846  13.392  1.00  0.00     0.033 C 
HETATM    3  C7  UNL     1      -4.425   6.023  13.044  1.00  0.00     0.013 C 
HETATM    4  C8  UNL     1      -3.815   7.328  13.652  1.00  0.00    -0.026 C 
HETATM    5  C9  UNL     1      -3.925   8.462  12.598  1.00  0.00     0.016 C 
HETATM    6  C10 UNL     1      -4.654   7.782  14.883  1.00  0.00     0.071 C 
HETATM    7  C11 UNL     1      -5.133   6.589  15.715  1.00  0.00     0.045 C 
HETATM    8  C12 UNL     1      -3.954   8.804  15.755  1.00  0.00     0.154 C 
HETATM    9  O3  UNL     1      -4.577   9.555  16.505  1.00  0.00    -0.293 OA
HETATM   10  C13 UNL     1      -2.478   8.863  15.776  1.00  0.00     0.057 C 
HETATM   11  C14 UNL     1      -1.723   8.033  15.043  1.00  0.00    -0.037 C 
HETATM   12  C15 UNL     1      -2.313   7.033  14.050  1.00  0.00     0.026 C 
HETATM   13  C16 UNL     1      -1.415   6.802  12.798  1.00  0.00     0.011 C 
HETATM   14  C17 UNL     1       0.097   6.730  13.071  1.00  0.00     0.014 C 
HETATM   15  C18 UNL     1       0.578   7.927  13.919  1.00  0.00    -0.002 C 
HETATM   16  C19 UNL     1       0.367   9.239  13.127  1.00  0.00     0.019 C 
HETATM   17  C20 UNL     1       2.040   7.802  14.479  1.00  0.00     0.034 C 
HETATM   18  C32 UNL     1       2.016   8.696  15.748  1.00  0.00     0.012 C 
HETATM   19  C33 UNL     1       0.536   8.914  16.120  1.00  0.00     0.044 C 
HETATM   20  C34 UNL     1      -0.231   7.912  15.250  1.00  0.00     0.089 C 
ENDROOT
BRANCH  17  21
HETATM   21  C21 UNL     1       3.300   7.964  13.551  1.00  0.00     0.087 C 
HETATM   22  C22 UNL     1       3.419   9.341  12.886  1.00  0.00     0.049 C 
BRANCH  21  23
HETATM   23  O4  UNL     1       3.193   7.000  12.489  1.00  0.00    -0.387 OA
HETATM   24  H34 UNL     1       3.097   6.120  12.891  1.00  0.00     0.210 HD
ENDBRANCH  21  23
BRANCH  21  25
HETATM   25  C23 UNL     1       4.608   7.625  14.373  1.00  0.00     0.181 C 
BRANCH  25  26
HETATM   26  O5  UNL     1       4.266   7.062  15.643  1.00  0.00    -0.390 OA
HETATM   27  H36 UNL     1       4.964   6.435  15.891  1.00  0.00     0.210 HD
ENDBRANCH  25  26
BRANCH  25  28
HETATM   28  C24 UNL     1       5.612   8.810  14.530  1.00  0.00     0.158 C 
HETATM   29  O6  UNL     1       5.942   9.035  15.919  1.00  0.00    -0.373 OA
HETATM   30  C25 UNL     1       7.263   8.518  16.195  1.00  0.00     0.185 C 
HETATM   31  C26 UNL     1       7.830   7.976  14.889  1.00  0.00     0.027 C 
HETATM   32  C29 UNL     1       8.130   9.646  16.799  1.00  0.00     0.383 C 
HETATM   33  C27 UNL     1       9.337   8.203  14.747  1.00  0.00     0.038 C 
HETATM   34  C30 UNL     1       6.975   8.665  13.838  1.00  0.00     0.020 C 
HETATM   35  C28 UNL     1      10.007   8.231  16.120  1.00  0.00     0.273 C 
HETATM   36  N1  UNL     1       9.548   9.364  16.913  1.00  0.00     0.114 N 
HETATM   37  H44 UNL     1       9.741   9.214  17.903  1.00  0.00     0.319 HD
HETATM   38  C31 UNL     1       6.990   7.987  12.478  1.00  0.00     0.013 C 
BRANCH  32  39
HETATM   39  O7  UNL     1       7.654   9.941  18.104  1.00  0.00    -0.366 OA
HETATM   40  H46 UNL     1       6.691  10.053  17.998  1.00  0.00     0.212 HD
ENDBRANCH  32  39
ENDBRANCH  25  28
ENDBRANCH  21  25
ENDBRANCH  17  21
BRANCH  20  41
HETATM   41  O8  UNL     1      -0.069   6.630  15.895  1.00  0.00    -0.384 OA
HETATM   42  H55 UNL     1      -0.530   6.683  16.751  1.00  0.00     0.211 HD
ENDBRANCH  20  41
BRANCH   1  43
HETATM   43  O2  UNL     1      -7.464   6.142  15.156  1.00  0.00    -0.386 OA
BRANCH  43  44
HETATM   44  C4  UNL     1      -7.650   6.746  16.433  1.00  0.00     0.170 C 
BRANCH  44  45
HETATM   45  C3  UNL     1      -8.876   7.648  16.389  1.00  0.00     0.052 C 
BRANCH  45  46
HETATM   46  C2  UNL     1      -8.746   8.738  15.327  1.00  0.00     0.169 C 
BRANCH  46  47
HETATM   47  O1  UNL     1     -10.032   9.204  14.910  1.00  0.00    -0.396 OA
HETATM   48  C1  UNL     1     -10.766   8.239  14.171  1.00  0.00     0.201 C 
ENDBRANCH  46  47
ENDBRANCH  45  46
ENDBRANCH  44  45
ENDBRANCH  43  44
ENDBRANCH   1  43
TORSDOF 12
ENDMDL
MODEL 9
REMARK minimizedAffinity -8.21412182
REMARK CNNscore 0.483317435
REMARK CNNaffinity 6.92997599
REMARK  12 active torsions:
REMARK  status: ('A' for Active; 'I' for Inactive)
REMARK    1  A    between atoms: O1_2  and  C2_3 
REMARK    2  A    between atoms: C2_3  and  C3_4 
REMARK    3  A    between atoms: C3_4  and  C4_5 
REMARK    4  A    between atoms: C4_5  and  O2_6 
REMARK    5  A    between atoms: O2_6  and  C5_7 
REMARK    6  A    between atoms: C20_23  and  C21_24 
REMARK    7  A    between atoms: C21_24  and  O4_26 
REMARK    8  A    between atoms: C21_24  and  C23_27 
REMARK    9  A    between atoms: C23_27  and  O5_28 
REMARK   10  A    between atoms: C23_27  and  C24_29 
REMARK   11  A    between atoms: C29_36  and  O7_37 
REMARK   12  A    between atoms: C34_42  and  O8_43 
ROOT
HETATM    1  C5  UNL     1     -10.615   7.431  13.924  1.00  0.00     0.122 C 
HETATM    2  C6  UNL     1     -10.341   7.882  15.367  1.00  0.00     0.033 C 
HETATM    3  C7  UNL     1      -8.910   8.379  15.543  1.00  0.00     0.013 C 
HETATM    4  C8  UNL     1      -7.847   7.269  15.251  1.00  0.00    -0.026 C 
HETATM    5  C9  UNL     1      -7.485   6.567  16.587  1.00  0.00     0.016 C 
HETATM    6  C10 UNL     1      -8.462   6.177  14.326  1.00  0.00     0.071 C 
HETATM    7  C11 UNL     1      -9.385   6.783  13.266  1.00  0.00     0.045 C 
HETATM    8  C12 UNL     1      -7.432   5.266  13.690  1.00  0.00     0.154 C 
HETATM    9  O3  UNL     1      -7.724   4.144  13.277  1.00  0.00    -0.293 OA
HETATM   10  C13 UNL     1      -6.052   5.749  13.483  1.00  0.00     0.057 C 
HETATM   11  C14 UNL     1      -5.671   6.984  13.839  1.00  0.00    -0.037 C 
HETATM   12  C15 UNL     1      -6.589   7.955  14.581  1.00  0.00     0.026 C 
HETATM   13  C16 UNL     1      -5.831   8.880  15.579  1.00  0.00     0.011 C 
HETATM   14  C17 UNL     1      -4.475   9.413  15.091  1.00  0.00     0.014 C 
HETATM   15  C18 UNL     1      -3.577   8.275  14.558  1.00  0.00    -0.002 C 
HETATM   16  C19 UNL     1      -3.242   7.298  15.710  1.00  0.00     0.019 C 
HETATM   17  C20 UNL     1      -2.291   8.747  13.789  1.00  0.00     0.034 C 
HETATM   18  C32 UNL     1      -1.984   7.556  12.840  1.00  0.00     0.012 C 
HETATM   19  C33 UNL     1      -3.266   6.704  12.754  1.00  0.00     0.044 C 
HETATM   20  C34 UNL     1      -4.350   7.573  13.402  1.00  0.00     0.089 C 
ENDROOT
BRANCH  17  21
HETATM   21  C21 UNL     1      -1.053   9.359  14.540  1.00  0.00     0.087 C 
HETATM   22  C22 UNL     1       0.262   9.285  13.753  1.00  0.00     0.049 C 
BRANCH  21  23
HETATM   23  O4  UNL     1      -0.853   8.606  15.749  1.00  0.00    -0.387 OA
HETATM   24  H34 UNL     1      -1.683   8.625  16.255  1.00  0.00     0.210 HD
ENDBRANCH  21  23
BRANCH  21  25
HETATM   25  C23 UNL     1      -1.372  10.852  14.955  1.00  0.00     0.181 C 
BRANCH  25  26
HETATM   26  O5  UNL     1      -0.804  11.763  14.010  1.00  0.00    -0.390 OA
HETATM   27  H36 UNL     1      -1.378  12.543  13.963  1.00  0.00     0.210 HD
ENDBRANCH  25  26
BRANCH  25  28
HETATM   28  C24 UNL     1      -0.971  11.229  16.416  1.00  0.00     0.158 C 
HETATM   29  O6  UNL     1       0.105  10.393  16.896  1.00  0.00    -0.373 OA
HETATM   30  C25 UNL     1       1.343  11.139  16.883  1.00  0.00     0.185 C 
HETATM   31  C26 UNL     1       1.027  12.553  16.414  1.00  0.00     0.027 C 
HETATM   32  C29 UNL     1       1.968  11.104  18.296  1.00  0.00     0.383 C 
HETATM   33  C27 UNL     1       1.873  13.621  17.110  1.00  0.00     0.038 C 
HETATM   34  C30 UNL     1      -0.471  12.661  16.654  1.00  0.00     0.020 C 
HETATM   35  C28 UNL     1       3.230  13.050  17.516  1.00  0.00     0.273 C 
HETATM   36  N1  UNL     1       3.087  11.999  18.516  1.00  0.00     0.114 N 
HETATM   37  H44 UNL     1       3.926  11.420  18.554  1.00  0.00     0.319 HD
HETATM   38  C31 UNL     1      -1.151  13.770  15.867  1.00  0.00     0.013 C 
BRANCH  32  39
HETATM   39  O7  UNL     1       2.424   9.787  18.564  1.00  0.00    -0.366 OA
HETATM   40  H46 UNL     1       1.670   9.212  18.337  1.00  0.00     0.212 HD
ENDBRANCH  32  39
ENDBRANCH  25  28
ENDBRANCH  21  25
ENDBRANCH  17  21
BRANCH  20  41
HETATM   41  O8  UNL     1      -4.715   8.552  12.406  1.00  0.00    -0.384 OA
HETATM   42  H55 UNL     1      -5.133   8.068  11.672  1.00  0.00     0.211 HD
ENDBRANCH  20  41
BRANCH   1  43
HETATM   43  O2  UNL     1     -11.694   6.494  13.994  1.00  0.00    -0.386 OA
BRANCH  43  44
HETATM   44  C4  UNL     1     -12.982   7.104  14.015  1.00  0.00     0.170 C 
BRANCH  44  45
HETATM   45  C3  UNL     1     -14.036   6.044  14.307  1.00  0.00     0.052 C 
BRANCH  45  46
HETATM   46  C2  UNL     1     -15.278   6.641  14.967  1.00  0.00     0.169 C 
BRANCH  46  47
HETATM   47  O1  UNL     1     -15.725   5.824  16.052  1.00  0.00    -0.396 OA
HETATM   48  C1  UNL     1     -16.946   6.269  16.624  1.00  0.00     0.201 C 
ENDBRANCH  46  47
ENDBRANCH  45  46
ENDBRANCH  44  45
ENDBRANCH  43  44
ENDBRANCH   1  43
TORSDOF 12
ENDMDL
