MODEL 1
REMARK minimizedAffinity -8.27072048
REMARK CNNscore 0.831769228
REMARK CNNaffinity 7.05394411
REMARK  15 active torsions:
REMARK  status: ('A' for Active; 'I' for Inactive)
REMARK    1  A    between atoms: C2_2  and  C3_3 
REMARK    2  A    between atoms: C2_2  and  C35_44 
REMARK    3  A    between atoms: C3_3  and  C4_4 
REMARK    4  A    between atoms: C4_4  and  C5_5 
REMARK    5  A    between atoms: C5_5  and  C7_7 
REMARK    6  A    between atoms: C9_9  and  O1_10 
REMARK    7  A    between atoms: C10_11  and  C11_12 
REMARK    8  A    between atoms: C11_12  and  O3_14 
REMARK    9  A    between atoms: C22_25  and  O4_26 
REMARK   10  A    between atoms: O4_26  and  C23_27 
REMARK   11  A    between atoms: C24_29  and  C25_30 
REMARK   12  A    between atoms: C25_30  and  O6_31 
REMARK   13  A    between atoms: C26_32  and  O7_33 
REMARK   14  A    between atoms: C28_35  and  O8_36 
REMARK   15  A    between atoms: C29_37  and  O9_38 
ROOT
HETATM    1  C7  UNL     1      -1.748  51.214 -21.764  1.00  0.00     0.001 C 
HETATM    2  C8  UNL     1      -3.082  51.868 -22.193  1.00  0.00     0.039 C 
HETATM    3  C9  UNL     1      -4.213  51.012 -21.563  1.00  0.00     0.142 C 
HETATM    4  C10 UNL     1      -3.487  50.054 -20.564  1.00  0.00     0.102 C 
HETATM    5  C12 UNL     1      -4.104  48.735 -20.085  1.00  0.00    -0.054 C 
HETATM    6  C13 UNL     1      -3.311  47.671 -19.788  1.00  0.00    -0.067 C 
HETATM    7  C14 UNL     1      -1.781  47.740 -19.902  1.00  0.00     0.036 C 
HETATM    8  C15 UNL     1      -1.158  49.017 -20.491  1.00  0.00     0.015 C 
HETATM    9  C16 UNL     1      -2.157  49.767 -21.375  1.00  0.00    -0.016 C 
HETATM   10  C17 UNL     1      -2.402  48.879 -22.635  1.00  0.00     0.017 C 
HETATM   11  C18 UNL     1      -3.905  46.292 -19.408  1.00  0.00    -0.013 C 
HETATM   12  C19 UNL     1      -3.787  45.408 -20.685  1.00  0.00     0.021 C 
HETATM   13  C20 UNL     1      -3.148  45.641 -18.218  1.00  0.00     0.017 C 
HETATM   14  C21 UNL     1      -3.627  44.223 -17.917  1.00  0.00     0.037 C 
HETATM   15  C22 UNL     1      -5.141  43.986 -17.917  1.00  0.00     0.153 C 
HETATM   16  C30 UNL     1      -5.997  45.005 -18.678  1.00  0.00    -0.055 C 
HETATM   17  C31 UNL     1      -7.235  44.653 -19.119  1.00  0.00     0.017 C 
HETATM   18  C32 UNL     1      -5.390  46.394 -18.920  1.00  0.00     0.029 C 
HETATM   19  C33 UNL     1      -6.200  47.300 -19.859  1.00  0.00     0.014 C 
HETATM   20  C34 UNL     1      -5.602  48.699 -19.936  1.00  0.00     0.036 C 
ENDROOT
BRANCH  15  21
HETATM   21  O4  UNL     1      -5.318  42.725 -18.585  1.00  0.00    -0.349 OA
BRANCH  21  22
HETATM   22  C23 UNL     1      -4.760  41.586 -17.956  1.00  0.00     0.292 C 
HETATM   23  O5  UNL     1      -5.833  40.836 -17.370  1.00  0.00    -0.348 OA
HETATM   24  C24 UNL     1      -6.665  40.103 -18.303  1.00  0.00     0.179 C 
HETATM   25  C26 UNL     1      -6.331  40.193 -19.815  1.00  0.00     0.183 C 
HETATM   26  C28 UNL     1      -4.816  40.270 -20.097  1.00  0.00     0.183 C 
HETATM   27  C29 UNL     1      -3.976  40.647 -18.876  1.00  0.00     0.204 C 
BRANCH  24  28
HETATM   28  C25 UNL     1      -6.624  38.639 -17.832  1.00  0.00     0.198 C 
BRANCH  28  29
HETATM   29  O6  UNL     1      -7.745  37.922 -18.356  1.00  0.00    -0.398 OA
HETATM   30  H36 UNL     1      -8.494  38.545 -18.337  1.00  0.00     0.209 HD
ENDBRANCH  28  29
ENDBRANCH  24  28
BRANCH  25  31
HETATM   31  O7  UNL     1      -6.898  41.346 -20.463  1.00  0.00    -0.385 OA
HETATM   32  C27 UNL     1      -8.316  41.398 -20.492  1.00  0.00     0.202 C 
ENDBRANCH  25  31
BRANCH  26  33
HETATM   33  O8  UNL     1      -4.330  39.008 -20.595  1.00  0.00    -0.390 OA
HETATM   34  H42 UNL     1      -4.713  38.896 -21.481  1.00  0.00     0.210 HD
ENDBRANCH  26  33
BRANCH  27  35
HETATM   35  O9  UNL     1      -2.721  41.195 -19.300  1.00  0.00    -0.388 OA
HETATM   36  H44 UNL     1      -2.329  40.523 -19.889  1.00  0.00     0.210 HD
ENDBRANCH  27  35
ENDBRANCH  21  22
ENDBRANCH  15  21
BRANCH   4  37
HETATM   37  C11 UNL     1      -3.293  50.848 -19.240  1.00  0.00     0.156 C 
HETATM   38  O2  UNL     1      -2.938  52.007 -19.097  1.00  0.00    -0.649 OA
BRANCH  37  39
HETATM   39  O3  UNL     1      -3.489  50.114 -18.124  1.00  0.00    -0.775 OA
HETATM   40  H16 UNL     1      -3.254  50.736 -17.401  1.00  0.00     0.167 HD
ENDBRANCH  37  39
ENDBRANCH   4  37
BRANCH   3  41
HETATM   41  O1  UNL     1      -4.899  50.315 -22.603  1.00  0.00    -0.394 OA
HETATM   42  H15 UNL     1      -5.260  50.975 -23.220  1.00  0.00     0.210 HD
ENDBRANCH   3  41
BRANCH   1  43
HETATM   43  C5  UNL     1      -0.481  51.495 -22.614  1.00  0.00    -0.013 C 
HETATM   44  C6  UNL     1       0.602  52.153 -21.732  1.00  0.00     0.010 C 
BRANCH  43  45
HETATM   45  C4  UNL     1      -0.565  52.229 -23.972  1.00  0.00     0.009 C 
BRANCH  45  46
HETATM   46  C3  UNL     1       0.556  51.976 -24.987  1.00  0.00     0.034 C 
BRANCH  46  47
HETATM   47  C2  UNL     1       0.051  51.314 -26.261  1.00  0.00    -0.086 C 
HETATM   48  C1  UNL     1      -0.935  50.403 -26.194  1.00  0.00     0.014 C 
BRANCH  47  49
HETATM   49  C35 UNL     1       0.698  51.655 -27.600  1.00  0.00     0.005 C 
HETATM   50  C36 UNL     1       0.142  52.937 -28.212  1.00  0.00     0.014 C 
HETATM   51  C37 UNL     1       2.223  51.703 -27.509  1.00  0.00     0.014 C 
ENDBRANCH  47  49
ENDBRANCH  46  47
ENDBRANCH  45  46
ENDBRANCH  43  45
ENDBRANCH   1  43
TORSDOF 15
ENDMDL
MODEL 2
REMARK minimizedAffinity -9.78901386
REMARK CNNscore 0.496968359
REMARK CNNaffinity 7.65112305
REMARK  15 active torsions:
REMARK  status: ('A' for Active; 'I' for Inactive)
REMARK    1  A    between atoms: C2_2  and  C3_3 
REMARK    2  A    between atoms: C2_2  and  C35_44 
REMARK    3  A    between atoms: C3_3  and  C4_4 
REMARK    4  A    between atoms: C4_4  and  C5_5 
REMARK    5  A    between atoms: C5_5  and  C7_7 
REMARK    6  A    between atoms: C9_9  and  O1_10 
REMARK    7  A    between atoms: C10_11  and  C11_12 
REMARK    8  A    between atoms: C11_12  and  O3_14 
REMARK    9  A    between atoms: C22_25  and  O4_26 
REMARK   10  A    between atoms: O4_26  and  C23_27 
REMARK   11  A    between atoms: C24_29  and  C25_30 
REMARK   12  A    between atoms: C25_30  and  O6_31 
REMARK   13  A    between atoms: C26_32  and  O7_33 
REMARK   14  A    between atoms: C28_35  and  O8_36 
REMARK   15  A    between atoms: C29_37  and  O9_38 
ROOT
HETATM    1  C7  UNL     1      -3.857  49.988 -24.882  1.00  0.00     0.001 C 
HETATM    2  C8  UNL     1      -5.088  49.123 -24.523  1.00  0.00     0.039 C 
HETATM    3  C9  UNL     1      -5.170  49.101 -22.973  1.00  0.00     0.142 C 
HETATM    4  C10 UNL     1      -4.145  50.180 -22.497  1.00  0.00     0.102 C 
HETATM    5  C12 UNL     1      -3.535  50.180 -21.092  1.00  0.00    -0.054 C 
HETATM    6  C13 UNL     1      -2.273  50.644 -20.887  1.00  0.00    -0.067 C 
HETATM    7  C14 UNL     1      -1.415  51.197 -22.035  1.00  0.00     0.036 C 
HETATM    8  C15 UNL     1      -1.971  51.096 -23.466  1.00  0.00     0.015 C 
HETATM    9  C16 UNL     1      -3.009  49.978 -23.582  1.00  0.00    -0.016 C 
HETATM   10  C17 UNL     1      -2.243  48.630 -23.404  1.00  0.00     0.017 C 
HETATM   11  C18 UNL     1      -1.585  50.556 -19.503  1.00  0.00    -0.013 C 
HETATM   12  C19 UNL     1      -0.607  49.346 -19.586  1.00  0.00     0.021 C 
HETATM   13  C20 UNL     1      -0.816  51.859 -19.152  1.00  0.00     0.017 C 
HETATM   14  C21 UNL     1      -0.017  51.745 -17.856  1.00  0.00     0.037 C 
HETATM   15  C22 UNL     1      -0.714  51.074 -16.667  1.00  0.00     0.153 C 
HETATM   16  C30 UNL     1      -1.903  50.162 -16.991  1.00  0.00    -0.055 C 
HETATM   17  C31 UNL     1      -2.276  49.198 -16.106  1.00  0.00     0.017 C 
HETATM   18  C32 UNL     1      -2.613  50.380 -18.334  1.00  0.00     0.029 C 
HETATM   19  C33 UNL     1      -3.656  49.312 -18.697  1.00  0.00     0.014 C 
HETATM   20  C34 UNL     1      -4.406  49.676 -19.972  1.00  0.00     0.036 C 
ENDROOT
BRANCH  15  21
HETATM   21  O4  UNL     1       0.292  50.238 -16.072  1.00  0.00    -0.349 OA
BRANCH  21  22
HETATM   22  C23 UNL     1       0.110  49.890 -14.711  1.00  0.00     0.292 C 
HETATM   23  O5  UNL     1       1.205  49.052 -14.320  1.00  0.00    -0.348 OA
HETATM   24  C24 UNL     1       2.474  49.727 -14.137  1.00  0.00     0.179 C 
HETATM   25  C26 UNL     1       2.535  51.259 -14.375  1.00  0.00     0.183 C 
HETATM   26  C28 UNL     1       1.251  51.991 -13.934  1.00  0.00     0.183 C 
HETATM   27  C29 UNL     1       0.047  51.070 -13.737  1.00  0.00     0.204 C 
BRANCH  24  28
HETATM   28  C25 UNL     1       2.919  49.391 -12.703  1.00  0.00     0.198 C 
BRANCH  28  29
HETATM   29  O6  UNL     1       4.344  49.447 -12.603  1.00  0.00    -0.398 OA
HETATM   30  H36 UNL     1       4.686  49.091 -13.444  1.00  0.00     0.209 HD
ENDBRANCH  28  29
ENDBRANCH  24  28
BRANCH  25  31
HETATM   31  O7  UNL     1       2.724  51.620 -15.756  1.00  0.00    -0.385 OA
HETATM   32  C27 UNL     1       3.853  52.437 -16.027  1.00  0.00     0.202 C 
ENDBRANCH  25  31
BRANCH  26  33
HETATM   33  O8  UNL     1       1.472  52.699 -12.698  1.00  0.00    -0.390 OA
HETATM   34  H42 UNL     1       2.081  53.428 -12.904  1.00  0.00     0.210 HD
ENDBRANCH  26  33
BRANCH  27  35
HETATM   35  O9  UNL     1      -1.167  51.824 -13.847  1.00  0.00    -0.388 OA
HETATM   36  H44 UNL     1      -1.082  52.550 -13.200  1.00  0.00     0.210 HD
ENDBRANCH  27  35
ENDBRANCH  21  22
ENDBRANCH  15  21
BRANCH   4  37
HETATM   37  C11 UNL     1      -4.876  51.552 -22.558  1.00  0.00     0.156 C 
HETATM   38  O2  UNL     1      -5.296  52.144 -23.539  1.00  0.00    -0.649 OA
BRANCH  37  39
HETATM   39  O3  UNL     1      -4.987  52.170 -21.363  1.00  0.00    -0.775 OA
HETATM   40  H16 UNL     1      -5.393  53.035 -21.593  1.00  0.00     0.167 HD
ENDBRANCH  37  39
ENDBRANCH   4  37
BRANCH   3  41
HETATM   41  O1  UNL     1      -4.850  47.788 -22.512  1.00  0.00    -0.394 OA
HETATM   42  H15 UNL     1      -5.486  47.167 -22.908  1.00  0.00     0.210 HD
ENDBRANCH   3  41
BRANCH   1  43
HETATM   43  C5  UNL     1      -3.203  49.797 -26.276  1.00  0.00    -0.013 C 
HETATM   44  C6  UNL     1      -3.572  48.408 -26.839  1.00  0.00     0.010 C 
BRANCH  43  45
HETATM   45  C4  UNL     1      -1.699  50.071 -26.508  1.00  0.00     0.009 C 
BRANCH  45  46
HETATM   46  C3  UNL     1      -1.322  51.252 -27.410  1.00  0.00     0.034 C 
BRANCH  46  47
HETATM   47  C2  UNL     1       0.170  51.552 -27.387  1.00  0.00    -0.086 C 
HETATM   48  C1  UNL     1       0.809  51.839 -28.534  1.00  0.00     0.014 C 
BRANCH  47  49
HETATM   49  C35 UNL     1       0.938  51.481 -26.071  1.00  0.00     0.005 C 
HETATM   50  C36 UNL     1       2.419  51.180 -26.270  1.00  0.00     0.014 C 
HETATM   51  C37 UNL     1       0.738  52.735 -25.218  1.00  0.00     0.014 C 
ENDBRANCH  47  49
ENDBRANCH  46  47
ENDBRANCH  45  46
ENDBRANCH  43  45
ENDBRANCH   1  43
TORSDOF 15
ENDMDL
MODEL 3
REMARK minimizedAffinity -8.69551373
REMARK CNNscore 0.36719504
REMARK CNNaffinity 7.01241684
REMARK  15 active torsions:
REMARK  status: ('A' for Active; 'I' for Inactive)
REMARK    1  A    between atoms: C2_2  and  C3_3 
REMARK    2  A    between atoms: C2_2  and  C35_44 
REMARK    3  A    between atoms: C3_3  and  C4_4 
REMARK    4  A    between atoms: C4_4  and  C5_5 
REMARK    5  A    between atoms: C5_5  and  C7_7 
REMARK    6  A    between atoms: C9_9  and  O1_10 
REMARK    7  A    between atoms: C10_11  and  C11_12 
REMARK    8  A    between atoms: C11_12  and  O3_14 
REMARK    9  A    between atoms: C22_25  and  O4_26 
REMARK   10  A    between atoms: O4_26  and  C23_27 
REMARK   11  A    between atoms: C24_29  and  C25_30 
REMARK   12  A    between atoms: C25_30  and  O6_31 
REMARK   13  A    between atoms: C26_32  and  O7_33 
REMARK   14  A    between atoms: C28_35  and  O8_36 
REMARK   15  A    between atoms: C29_37  and  O9_38 
ROOT
HETATM    1  C7  UNL     1      -0.363  51.164 -20.551  1.00  0.00     0.001 C 
HETATM    2  C8  UNL     1      -0.786  51.967 -19.299  1.00  0.00     0.039 C 
HETATM    3  C9  UNL     1      -2.017  51.233 -18.704  1.00  0.00     0.142 C 
HETATM    4  C10 UNL     1      -2.093  49.876 -19.475  1.00  0.00     0.102 C 
HETATM    5  C12 UNL     1      -3.382  49.053 -19.579  1.00  0.00    -0.054 C 
HETATM    6  C13 UNL     1      -3.633  48.301 -20.684  1.00  0.00    -0.067 C 
HETATM    7  C14 UNL     1      -2.646  48.229 -21.859  1.00  0.00     0.036 C 
HETATM    8  C15 UNL     1      -1.407  49.139 -21.818  1.00  0.00     0.015 C 
HETATM    9  C16 UNL     1      -1.636  50.352 -20.915  1.00  0.00    -0.016 C 
HETATM   10  C17 UNL     1      -2.706  51.244 -21.619  1.00  0.00     0.017 C 
HETATM   11  C18 UNL     1      -4.972  47.547 -20.871  1.00  0.00    -0.013 C 
HETATM   12  C19 UNL     1      -5.815  48.408 -21.857  1.00  0.00     0.021 C 
HETATM   13  C20 UNL     1      -4.760  46.116 -21.435  1.00  0.00     0.017 C 
HETATM   14  C21 UNL     1      -6.071  45.405 -21.757  1.00  0.00     0.037 C 
HETATM   15  C22 UNL     1      -7.198  45.523 -20.723  1.00  0.00     0.153 C 
HETATM   16  C30 UNL     1      -7.111  46.698 -19.742  1.00  0.00    -0.055 C 
HETATM   17  C31 UNL     1      -8.236  47.148 -19.125  1.00  0.00     0.017 C 
HETATM   18  C32 UNL     1      -5.729  47.326 -19.516  1.00  0.00     0.029 C 
HETATM   19  C33 UNL     1      -5.732  48.621 -18.690  1.00  0.00     0.014 C 
HETATM   20  C34 UNL     1      -4.316  49.100 -18.399  1.00  0.00     0.036 C 
ENDROOT
BRANCH  15  21
HETATM   21  O4  UNL     1      -8.391  45.727 -21.498  1.00  0.00    -0.349 OA
BRANCH  21  22
HETATM   22  C23 UNL     1      -8.806  47.067 -21.690  1.00  0.00     0.292 C 
HETATM   23  O5  UNL     1      -8.096  47.591 -22.821  1.00  0.00    -0.348 OA
HETATM   24  C24 UNL     1      -8.536  47.108 -24.113  1.00  0.00     0.179 C 
HETATM   25  C26 UNL     1      -9.707  46.091 -24.160  1.00  0.00     0.183 C 
HETATM   26  C28 UNL     1     -10.775  46.348 -23.078  1.00  0.00     0.183 C 
HETATM   27  C29 UNL     1     -10.304  47.259 -21.944  1.00  0.00     0.204 C 
BRANCH  24  28
HETATM   28  C25 UNL     1      -8.887  48.365 -24.928  1.00  0.00     0.198 C 
BRANCH  28  29
HETATM   29  O6  UNL     1      -8.181  48.359 -26.171  1.00  0.00    -0.398 OA
HETATM   30  H36 UNL     1      -7.301  47.987 -25.978  1.00  0.00     0.209 HD
ENDBRANCH  28  29
ENDBRANCH  24  28
BRANCH  25  31
HETATM   31  O7  UNL     1      -9.293  44.725 -23.970  1.00  0.00    -0.385 OA
HETATM   32  C27 UNL     1      -8.247  44.278 -24.819  1.00  0.00     0.202 C 
ENDBRANCH  25  31
BRANCH  26  33
HETATM   33  O8  UNL     1     -11.953  46.942 -23.660  1.00  0.00    -0.390 OA
HETATM   34  H42 UNL     1     -12.361  46.255 -24.214  1.00  0.00     0.210 HD
ENDBRANCH  26  33
BRANCH  27  35
HETATM   35  O9  UNL     1     -11.104  47.036 -20.776  1.00  0.00    -0.388 OA
HETATM   36  H44 UNL     1     -12.028  47.166 -21.064  1.00  0.00     0.210 HD
ENDBRANCH  27  35
ENDBRANCH  21  22
ENDBRANCH  15  21
BRANCH   4  37
HETATM   37  C11 UNL     1      -1.113  48.899 -18.763  1.00  0.00     0.156 C 
HETATM   38  O2  UNL     1      -0.222  49.163 -17.973  1.00  0.00    -0.649 OA
BRANCH  37  39
HETATM   39  O3  UNL     1      -1.252  47.610 -19.139  1.00  0.00    -0.775 OA
HETATM   40  H16 UNL     1      -0.522  47.156 -18.663  1.00  0.00     0.167 HD
ENDBRANCH  37  39
ENDBRANCH   4  37
BRANCH   3  41
HETATM   41  O1  UNL     1      -3.176  52.046 -18.892  1.00  0.00    -0.394 OA
HETATM   42  H15 UNL     1      -3.023  52.896 -18.445  1.00  0.00     0.210 HD
ENDBRANCH   3  41
BRANCH   1  43
HETATM   43  C5  UNL     1       0.476  51.882 -21.640  1.00  0.00    -0.013 C 
HETATM   44  C6  UNL     1       1.387  52.941 -20.982  1.00  0.00     0.010 C 
BRANCH  43  45
HETATM   45  C4  UNL     1      -0.182  52.476 -22.907  1.00  0.00     0.009 C 
BRANCH  45  46
HETATM   46  C3  UNL     1       0.723  52.759 -24.112  1.00  0.00     0.034 C 
BRANCH  46  47
HETATM   47  C2  UNL     1       0.364  51.910 -25.324  1.00  0.00    -0.086 C 
HETATM   48  C1  UNL     1      -0.643  51.024 -25.243  1.00  0.00     0.014 C 
BRANCH  47  49
HETATM   49  C35 UNL     1       1.178  52.040 -26.608  1.00  0.00     0.005 C 
HETATM   50  C36 UNL     1       2.535  51.351 -26.515  1.00  0.00     0.014 C 
HETATM   51  C37 UNL     1       0.399  51.564 -27.835  1.00  0.00     0.014 C 
ENDBRANCH  47  49
ENDBRANCH  46  47
ENDBRANCH  45  46
ENDBRANCH  43  45
ENDBRANCH   1  43
TORSDOF 15
ENDMDL
MODEL 4
REMARK minimizedAffinity -7.68657255
REMARK CNNscore 0.367103726
REMARK CNNaffinity 6.103827
REMARK  15 active torsions:
REMARK  status: ('A' for Active; 'I' for Inactive)
REMARK    1  A    between atoms: C2_2  and  C3_3 
REMARK    2  A    between atoms: C2_2  and  C35_44 
REMARK    3  A    between atoms: C3_3  and  C4_4 
REMARK    4  A    between atoms: C4_4  and  C5_5 
REMARK    5  A    between atoms: C5_5  and  C7_7 
REMARK    6  A    between atoms: C9_9  and  O1_10 
REMARK    7  A    between atoms: C10_11  and  C11_12 
REMARK    8  A    between atoms: C11_12  and  O3_14 
REMARK    9  A    between atoms: C22_25  and  O4_26 
REMARK   10  A    between atoms: O4_26  and  C23_27 
REMARK   11  A    between atoms: C24_29  and  C25_30 
REMARK   12  A    between atoms: C25_30  and  O6_31 
REMARK   13  A    between atoms: C26_32  and  O7_33 
REMARK   14  A    between atoms: C28_35  and  O8_36 
REMARK   15  A    between atoms: C29_37  and  O9_38 
ROOT
HETATM    1  C7  UNL     1      -8.234  47.434 -24.922  1.00  0.00     0.001 C 
HETATM    2  C8  UNL     1      -8.805  48.848 -25.183  1.00  0.00     0.039 C 
HETATM    3  C9  UNL     1      -9.652  48.745 -26.480  1.00  0.00     0.142 C 
HETATM    4  C10 UNL     1      -9.765  47.214 -26.770  1.00  0.00     0.102 C 
HETATM    5  C12 UNL     1     -10.078  46.655 -28.163  1.00  0.00    -0.054 C 
HETATM    6  C13 UNL     1      -9.569  45.457 -28.556  1.00  0.00    -0.067 C 
HETATM    7  C14 UNL     1      -8.681  44.609 -27.634  1.00  0.00     0.036 C 
HETATM    8  C15 UNL     1      -8.265  45.210 -26.280  1.00  0.00     0.015 C 
HETATM    9  C16 UNL     1      -8.326  46.738 -26.307  1.00  0.00    -0.016 C 
HETATM   10  C17 UNL     1      -7.197  47.220 -27.270  1.00  0.00     0.017 C 
HETATM   11  C18 UNL     1      -9.773  44.915 -29.993  1.00  0.00    -0.013 C 
HETATM   12  C19 UNL     1      -8.436  45.184 -30.746  1.00  0.00     0.021 C 
HETATM   13  C20 UNL     1     -10.112  43.400 -30.000  1.00  0.00     0.017 C 
HETATM   14  C21 UNL     1     -10.182  42.815 -31.408  1.00  0.00     0.037 C 
HETATM   15  C22 UNL     1     -10.921  43.640 -32.468  1.00  0.00     0.153 C 
HETATM   16  C30 UNL     1     -11.084  45.138 -32.183  1.00  0.00    -0.055 C 
HETATM   17  C31 UNL     1     -11.293  46.002 -33.213  1.00  0.00     0.017 C 
HETATM   18  C32 UNL     1     -10.984  45.592 -30.721  1.00  0.00     0.029 C 
HETATM   19  C33 UNL     1     -10.948  47.114 -30.516  1.00  0.00     0.014 C 
HETATM   20  C34 UNL     1     -10.987  47.478 -29.037  1.00  0.00     0.036 C 
ENDROOT
BRANCH  15  21
HETATM   21  O4  UNL     1     -10.110  43.536 -33.650  1.00  0.00    -0.349 OA
BRANCH  21  22
HETATM   22  C23 UNL     1      -9.679  42.237 -34.015  1.00  0.00     0.292 C 
HETATM   23  O5  UNL     1     -10.845  41.436 -34.250  1.00  0.00    -0.348 OA
HETATM   24  C24 UNL     1     -11.556  41.712 -35.481  1.00  0.00     0.179 C 
HETATM   25  C26 UNL     1     -11.008  42.825 -36.414  1.00  0.00     0.183 C 
HETATM   26  C28 UNL     1      -9.467  42.894 -36.432  1.00  0.00     0.183 C 
HETATM   27  C29 UNL     1      -8.799  42.166 -35.265  1.00  0.00     0.204 C 
BRANCH  24  28
HETATM   28  C25 UNL     1     -11.624  40.371 -36.231  1.00  0.00     0.198 C 
BRANCH  28  29
HETATM   29  O6  UNL     1     -12.187  40.561 -37.531  1.00  0.00    -0.398 OA
HETATM   30  H36 UNL     1     -12.885  41.233 -37.425  1.00  0.00     0.209 HD
ENDBRANCH  28  29
ENDBRANCH  24  28
BRANCH  25  31
HETATM   31  O7  UNL     1     -11.445  44.148 -36.052  1.00  0.00    -0.385 OA
HETATM   32  C27 UNL     1     -11.117  45.175 -36.974  1.00  0.00     0.202 C 
ENDBRANCH  25  31
BRANCH  26  33
HETATM   33  O8  UNL     1      -8.950  42.334 -37.656  1.00  0.00    -0.390 OA
HETATM   34  H42 UNL     1      -9.206  42.946 -38.367  1.00  0.00     0.210 HD
ENDBRANCH  26  33
BRANCH  27  35
HETATM   35  O9  UNL     1      -7.481  42.690 -35.055  1.00  0.00    -0.388 OA
HETATM   36  H44 UNL     1      -7.028  42.610 -35.915  1.00  0.00     0.210 HD
ENDBRANCH  27  35
ENDBRANCH  21  22
ENDBRANCH  15  21
BRANCH   4  37
HETATM   37  C11 UNL     1     -10.944  46.679 -25.908  1.00  0.00     0.156 C 
HETATM   38  O2  UNL     1     -11.165  45.532 -25.555  1.00  0.00    -0.649 OA
BRANCH  37  39
HETATM   39  O3  UNL     1     -11.856  47.619 -25.579  1.00  0.00    -0.775 OA
HETATM   40  H16 UNL     1     -12.552  47.104 -25.114  1.00  0.00     0.167 HD
ENDBRANCH  37  39
ENDBRANCH   4  37
BRANCH   3  41
HETATM   41  O1  UNL     1      -8.989  49.461 -27.522  1.00  0.00    -0.394 OA
HETATM   42  H15 UNL     1      -8.893  50.386 -27.237  1.00  0.00     0.210 HD
ENDBRANCH   3  41
BRANCH   1  43
HETATM   43  C5  UNL     1      -6.969  47.302 -24.033  1.00  0.00    -0.013 C 
HETATM   44  C6  UNL     1      -7.360  46.738 -22.651  1.00  0.00     0.010 C 
BRANCH  43  45
HETATM   45  C4  UNL     1      -5.980  48.477 -23.856  1.00  0.00     0.009 C 
BRANCH  45  46
HETATM   46  C3  UNL     1      -4.610  48.361 -24.535  1.00  0.00     0.034 C 
BRANCH  46  47
HETATM   47  C2  UNL     1      -4.142  49.679 -25.136  1.00  0.00    -0.086 C 
HETATM   48  C1  UNL     1      -4.417  50.833 -24.506  1.00  0.00     0.014 C 
BRANCH  47  49
HETATM   49  C35 UNL     1      -3.403  49.684 -26.471  1.00  0.00     0.005 C 
HETATM   50  C36 UNL     1      -1.917  49.991 -26.319  1.00  0.00     0.014 C 
HETATM   51  C37 UNL     1      -3.623  48.390 -27.257  1.00  0.00     0.014 C 
ENDBRANCH  47  49
ENDBRANCH  46  47
ENDBRANCH  45  46
ENDBRANCH  43  45
ENDBRANCH   1  43
TORSDOF 15
ENDMDL
MODEL 5
REMARK minimizedAffinity -8.35218334
REMARK CNNscore 0.336160392
REMARK CNNaffinity 6.87226629
REMARK  15 active torsions:
REMARK  status: ('A' for Active; 'I' for Inactive)
REMARK    1  A    between atoms: C2_2  and  C3_3 
REMARK    2  A    between atoms: C2_2  and  C35_44 
REMARK    3  A    between atoms: C3_3  and  C4_4 
REMARK    4  A    between atoms: C4_4  and  C5_5 
REMARK    5  A    between atoms: C5_5  and  C7_7 
REMARK    6  A    between atoms: C9_9  and  O1_10 
REMARK    7  A    between atoms: C10_11  and  C11_12 
REMARK    8  A    between atoms: C11_12  and  O3_14 
REMARK    9  A    between atoms: C22_25  and  O4_26 
REMARK   10  A    between atoms: O4_26  and  C23_27 
REMARK   11  A    between atoms: C24_29  and  C25_30 
REMARK   12  A    between atoms: C25_30  and  O6_31 
REMARK   13  A    between atoms: C26_32  and  O7_33 
REMARK   14  A    between atoms: C28_35  and  O8_36 
REMARK   15  A    between atoms: C29_37  and  O9_38 
ROOT
HETATM    1  C7  UNL     1      -1.172  50.354 -12.854  1.00  0.00     0.001 C 
HETATM    2  C8  UNL     1      -2.039  49.152 -12.409  1.00  0.00     0.039 C 
HETATM    3  C9  UNL     1      -2.330  48.325 -13.690  1.00  0.00     0.142 C 
HETATM    4  C10 UNL     1      -1.392  48.928 -14.784  1.00  0.00     0.102 C 
HETATM    5  C12 UNL     1      -1.663  48.773 -16.284  1.00  0.00    -0.054 C 
HETATM    6  C13 UNL     1      -1.291  49.747 -17.157  1.00  0.00    -0.067 C 
HETATM    7  C14 UNL     1      -0.578  51.026 -16.691  1.00  0.00     0.036 C 
HETATM    8  C15 UNL     1      -0.405  51.246 -15.179  1.00  0.00     0.015 C 
HETATM    9  C16 UNL     1      -1.444  50.458 -14.379  1.00  0.00    -0.016 C 
HETATM   10  C17 UNL     1      -2.831  51.110 -14.674  1.00  0.00     0.017 C 
HETATM   11  C18 UNL     1      -1.648  49.675 -18.662  1.00  0.00    -0.013 C 
HETATM   12  C19 UNL     1      -2.861  50.632 -18.861  1.00  0.00     0.021 C 
HETATM   13  C20 UNL     1      -0.457  50.104 -19.563  1.00  0.00     0.017 C 
HETATM   14  C21 UNL     1      -0.828  50.173 -21.042  1.00  0.00     0.037 C 
HETATM   15  C22 UNL     1      -1.671  49.020 -21.601  1.00  0.00     0.153 C 
HETATM   16  C30 UNL     1      -2.466  48.192 -20.585  1.00  0.00    -0.055 C 
HETATM   17  C31 UNL     1      -3.555  47.487 -20.993  1.00  0.00     0.017 C 
HETATM   18  C32 UNL     1      -1.987  48.218 -19.127  1.00  0.00     0.029 C 
HETATM   19  C33 UNL     1      -2.933  47.544 -18.122  1.00  0.00     0.014 C 
HETATM   20  C34 UNL     1      -2.322  47.494 -16.728  1.00  0.00     0.036 C 
ENDROOT
BRANCH  15  21
HETATM   21  O4  UNL     1      -2.637  49.651 -22.459  1.00  0.00    -0.349 OA
BRANCH  21  22
HETATM   22  C23 UNL     1      -2.538  51.055 -22.607  1.00  0.00     0.292 C 
HETATM   23  O5  UNL     1      -1.784  51.321 -23.798  1.00  0.00    -0.348 OA
HETATM   24  C24 UNL     1      -2.482  51.084 -25.045  1.00  0.00     0.179 C 
HETATM   25  C26 UNL     1      -3.947  50.576 -24.985  1.00  0.00     0.183 C 
HETATM   26  C28 UNL     1      -4.745  51.170 -23.806  1.00  0.00     0.183 C 
HETATM   27  C29 UNL     1      -3.872  51.798 -22.719  1.00  0.00     0.204 C 
BRANCH  24  28
HETATM   28  C25 UNL     1      -2.408  52.412 -25.820  1.00  0.00     0.198 C 
BRANCH  28  29
HETATM   29  O6  UNL     1      -1.396  53.253 -25.259  1.00  0.00    -0.398 OA
HETATM   30  H36 UNL     1      -1.436  53.114 -24.295  1.00  0.00     0.209 HD
ENDBRANCH  28  29
ENDBRANCH  24  28
BRANCH  25  31
HETATM   31  O7  UNL     1      -4.056  49.149 -24.838  1.00  0.00    -0.385 OA
HETATM   32  C27 UNL     1      -3.463  48.379 -25.872  1.00  0.00     0.202 C 
ENDBRANCH  25  31
BRANCH  26  33
HETATM   33  O8  UNL     1      -5.662  52.180 -24.273  1.00  0.00    -0.390 OA
HETATM   34  H42 UNL     1      -6.343  51.714 -24.788  1.00  0.00     0.210 HD
ENDBRANCH  26  33
BRANCH  27  35
HETATM   35  O9  UNL     1      -4.593  51.845 -21.481  1.00  0.00    -0.388 OA
HETATM   36  H44 UNL     1      -5.423  52.318 -21.681  1.00  0.00     0.210 HD
ENDBRANCH  27  35
ENDBRANCH  21  22
ENDBRANCH  15  21
BRANCH   4  37
HETATM   37  C11 UNL     1      -0.003  48.248 -14.610  1.00  0.00     0.156 C 
HETATM   38  O2  UNL     1       0.562  47.933 -13.575  1.00  0.00    -0.649 OA
BRANCH  37  39
HETATM   39  O3  UNL     1       0.663  48.052 -15.768  1.00  0.00    -0.775 OA
HETATM   40  H16 UNL     1       1.529  47.695 -15.472  1.00  0.00     0.167 HD
ENDBRANCH  37  39
ENDBRANCH   4  37
BRANCH   3  41
HETATM   41  O1  UNL     1      -3.715  48.448 -14.014  1.00  0.00    -0.394 OA
HETATM   42  H15 UNL     1      -4.232  48.121 -13.258  1.00  0.00     0.210 HD
ENDBRANCH   3  41
BRANCH   1  43
HETATM   43  C5  UNL     1      -1.140  51.615 -11.950  1.00  0.00    -0.013 C 
HETATM   44  C6  UNL     1      -2.504  52.335 -12.011  1.00  0.00     0.010 C 
BRANCH  43  45
HETATM   45  C4  UNL     1       0.002  52.652 -12.050  1.00  0.00     0.009 C 
BRANCH  45  46
HETATM   46  C3  UNL     1       0.457  53.334 -10.755  1.00  0.00     0.034 C 
BRANCH  46  47
HETATM   47  C2  UNL     1       1.867  53.899 -10.856  1.00  0.00    -0.086 C 
HETATM   48  C1  UNL     1       2.881  53.097 -11.225  1.00  0.00     0.014 C 
BRANCH  47  49
HETATM   49  C35 UNL     1       2.128  55.358 -10.497  1.00  0.00     0.005 C 
HETATM   50  C36 UNL     1       1.866  55.656  -9.024  1.00  0.00     0.014 C 
HETATM   51  C37 UNL     1       3.527  55.814 -10.913  1.00  0.00     0.014 C 
ENDBRANCH  47  49
ENDBRANCH  46  47
ENDBRANCH  45  46
ENDBRANCH  43  45
ENDBRANCH   1  43
TORSDOF 15
ENDMDL
MODEL 6
REMARK minimizedAffinity -7.68829918
REMARK CNNscore 0.335544646
REMARK CNNaffinity 6.89150572
REMARK  15 active torsions:
REMARK  status: ('A' for Active; 'I' for Inactive)
REMARK    1  A    between atoms: C2_2  and  C3_3 
REMARK    2  A    between atoms: C2_2  and  C35_44 
REMARK    3  A    between atoms: C3_3  and  C4_4 
REMARK    4  A    between atoms: C4_4  and  C5_5 
REMARK    5  A    between atoms: C5_5  and  C7_7 
REMARK    6  A    between atoms: C9_9  and  O1_10 
REMARK    7  A    between atoms: C10_11  and  C11_12 
REMARK    8  A    between atoms: C11_12  and  O3_14 
REMARK    9  A    between atoms: C22_25  and  O4_26 
REMARK   10  A    between atoms: O4_26  and  C23_27 
REMARK   11  A    between atoms: C24_29  and  C25_30 
REMARK   12  A    between atoms: C25_30  and  O6_31 
REMARK   13  A    between atoms: C26_32  and  O7_33 
REMARK   14  A    between atoms: C28_35  and  O8_36 
REMARK   15  A    between atoms: C29_37  and  O9_38 
ROOT
HETATM    1  C7  UNL     1      -1.756  50.778 -21.221  1.00  0.00     0.001 C 
HETATM    2  C8  UNL     1      -2.614  51.931 -20.648  1.00  0.00     0.039 C 
HETATM    3  C9  UNL     1      -4.002  51.321 -20.317  1.00  0.00     0.142 C 
HETATM    4  C10 UNL     1      -3.809  49.777 -20.453  1.00  0.00     0.102 C 
HETATM    5  C12 UNL     1      -4.978  48.815 -20.694  1.00  0.00    -0.054 C 
HETATM    6  C13 UNL     1      -4.796  47.677 -21.416  1.00  0.00    -0.067 C 
HETATM    7  C14 UNL     1      -3.429  47.297 -22.004  1.00  0.00     0.036 C 
HETATM    8  C15 UNL     1      -2.278  48.308 -21.868  1.00  0.00     0.015 C 
HETATM    9  C16 UNL     1      -2.807  49.731 -21.679  1.00  0.00    -0.016 C 
HETATM   10  C17 UNL     1      -3.485  50.145 -23.023  1.00  0.00     0.017 C 
HETATM   11  C18 UNL     1      -5.976  46.739 -21.773  1.00  0.00    -0.013 C 
HETATM   12  C19 UNL     1      -6.335  47.048 -23.257  1.00  0.00     0.021 C 
HETATM   13  C20 UNL     1      -5.603  45.242 -21.599  1.00  0.00     0.017 C 
HETATM   14  C21 UNL     1      -6.703  44.298 -22.076  1.00  0.00     0.037 C 
HETATM   15  C22 UNL     1      -8.141  44.648 -21.677  1.00  0.00     0.153 C 
HETATM   16  C30 UNL     1      -8.412  46.106 -21.288  1.00  0.00    -0.055 C 
HETATM   17  C31 UNL     1      -9.675  46.604 -21.369  1.00  0.00     0.017 C 
HETATM   18  C32 UNL     1      -7.212  46.948 -20.832  1.00  0.00     0.029 C 
HETATM   19  C33 UNL     1      -7.501  48.446 -20.655  1.00  0.00     0.014 C 
HETATM   20  C34 UNL     1      -6.300  49.180 -20.073  1.00  0.00     0.036 C 
ENDROOT
BRANCH  15  21
HETATM   21  O4  UNL     1      -8.926  44.387 -22.853  1.00  0.00    -0.349 OA
BRANCH  21  22
HETATM   22  C23 UNL     1      -9.150  43.028 -23.181  1.00  0.00     0.292 C 
HETATM   23  O5  UNL     1     -10.532  42.737 -22.932  1.00  0.00    -0.348 OA
HETATM   24  C24 UNL     1     -11.469  43.283 -23.891  1.00  0.00     0.179 C 
HETATM   25  C26 UNL     1     -10.910  44.116 -25.075  1.00  0.00     0.183 C 
HETATM   26  C28 UNL     1      -9.557  43.591 -25.597  1.00  0.00     0.183 C 
HETATM   27  C29 UNL     1      -8.842  42.646 -24.631  1.00  0.00     0.204 C 
BRANCH  24  28
HETATM   28  C25 UNL     1     -12.273  42.081 -24.415  1.00  0.00     0.198 C 
BRANCH  28  29
HETATM   29  O6  UNL     1     -13.667  42.399 -24.453  1.00  0.00    -0.398 OA
HETATM   30  H36 UNL     1     -13.838  42.946 -23.664  1.00  0.00     0.209 HD
ENDBRANCH  28  29
ENDBRANCH  24  28
BRANCH  25  31
HETATM   31  O7  UNL     1     -10.683  45.500 -24.750  1.00  0.00    -0.385 OA
HETATM   32  C27 UNL     1     -11.572  46.425 -25.356  1.00  0.00     0.202 C 
ENDBRANCH  25  31
BRANCH  26  33
HETATM   33  O8  UNL     1      -9.732  42.896 -26.847  1.00  0.00    -0.390 OA
HETATM   34  H42 UNL     1      -9.976  43.569 -27.505  1.00  0.00     0.210 HD
ENDBRANCH  26  33
BRANCH  27  35
HETATM   35  O9  UNL     1      -7.439  42.624 -24.920  1.00  0.00    -0.388 OA
HETATM   36  H44 UNL     1      -7.371  42.390 -25.865  1.00  0.00     0.210 HD
ENDBRANCH  27  35
ENDBRANCH  21  22
ENDBRANCH  15  21
BRANCH   4  37
HETATM   37  C11 UNL     1      -3.220  49.277 -19.102  1.00  0.00     0.156 C 
HETATM   38  O2  UNL     1      -3.506  49.637 -17.972  1.00  0.00    -0.649 OA
BRANCH  37  39
HETATM   39  O3  UNL     1      -2.224  48.375 -19.237  1.00  0.00    -0.775 OA
HETATM   40  H16 UNL     1      -1.924  48.231 -18.312  1.00  0.00     0.167 HD
ENDBRANCH  37  39
ENDBRANCH   4  37
BRANCH   3  41
HETATM   41  O1  UNL     1      -4.966  51.845 -21.230  1.00  0.00    -0.394 OA
HETATM   42  H15 UNL     1      -4.975  52.813 -21.136  1.00  0.00     0.210 HD
ENDBRANCH   3  41
BRANCH   1  43
HETATM   43  C5  UNL     1      -0.534  51.137 -22.106  1.00  0.00    -0.013 C 
HETATM   44  C6  UNL     1       0.640  51.593 -21.214  1.00  0.00     0.010 C 
BRANCH  43  45
HETATM   45  C4  UNL     1      -0.666  52.086 -23.320  1.00  0.00     0.009 C 
BRANCH  45  46
HETATM   46  C3  UNL     1       0.540  52.211 -24.258  1.00  0.00     0.034 C 
BRANCH  46  47
HETATM   47  C2  UNL     1       0.260  51.656 -25.648  1.00  0.00    -0.086 C 
HETATM   48  C1  UNL     1      -0.748  50.784 -25.826  1.00  0.00     0.014 C 
BRANCH  47  49
HETATM   49  C35 UNL     1       1.151  52.057 -26.819  1.00  0.00     0.005 C 
HETATM   50  C36 UNL     1       2.558  51.478 -26.713  1.00  0.00     0.014 C 
HETATM   51  C37 UNL     1       0.515  51.722 -28.169  1.00  0.00     0.014 C 
ENDBRANCH  47  49
ENDBRANCH  46  47
ENDBRANCH  45  46
ENDBRANCH  43  45
ENDBRANCH   1  43
TORSDOF 15
ENDMDL
MODEL 7
REMARK minimizedAffinity -7.5120945
REMARK CNNscore 0.270113617
REMARK CNNaffinity 6.00276899
REMARK  15 active torsions:
REMARK  status: ('A' for Active; 'I' for Inactive)
REMARK    1  A    between atoms: C2_2  and  C3_3 
REMARK    2  A    between atoms: C2_2  and  C35_44 
REMARK    3  A    between atoms: C3_3  and  C4_4 
REMARK    4  A    between atoms: C4_4  and  C5_5 
REMARK    5  A    between atoms: C5_5  and  C7_7 
REMARK    6  A    between atoms: C9_9  and  O1_10 
REMARK    7  A    between atoms: C10_11  and  C11_12 
REMARK    8  A    between atoms: C11_12  and  O3_14 
REMARK    9  A    between atoms: C22_25  and  O4_26 
REMARK   10  A    between atoms: O4_26  and  C23_27 
REMARK   11  A    between atoms: C24_29  and  C25_30 
REMARK   12  A    between atoms: C25_30  and  O6_31 
REMARK   13  A    between atoms: C26_32  and  O7_33 
REMARK   14  A    between atoms: C28_35  and  O8_36 
REMARK   15  A    between atoms: C29_37  and  O9_38 
ROOT
HETATM    1  C7  UNL     1     -15.878  44.537 -25.184  1.00  0.00     0.001 C 
HETATM    2  C8  UNL     1     -15.081  43.955 -23.993  1.00  0.00     0.039 C 
HETATM    3  C9  UNL     1     -13.613  44.422 -24.179  1.00  0.00     0.142 C 
HETATM    4  C10 UNL     1     -13.667  45.487 -25.321  1.00  0.00     0.102 C 
HETATM    5  C12 UNL     1     -12.443  45.860 -26.164  1.00  0.00    -0.054 C 
HETATM    6  C13 UNL     1     -12.589  46.235 -27.464  1.00  0.00    -0.067 C 
HETATM    7  C14 UNL     1     -13.967  46.316 -28.136  1.00  0.00     0.036 C 
HETATM    8  C15 UNL     1     -15.190  45.833 -27.338  1.00  0.00     0.015 C 
HETATM    9  C16 UNL     1     -14.785  44.845 -26.243  1.00  0.00    -0.016 C 
HETATM   10  C17 UNL     1     -14.297  43.548 -26.961  1.00  0.00     0.017 C 
HETATM   11  C18 UNL     1     -11.368  46.512 -28.375  1.00  0.00    -0.013 C 
HETATM   12  C19 UNL     1     -11.201  45.243 -29.264  1.00  0.00     0.021 C 
HETATM   13  C20 UNL     1     -11.573  47.775 -29.255  1.00  0.00     0.017 C 
HETATM   14  C21 UNL     1     -10.443  47.988 -30.259  1.00  0.00     0.037 C 
HETATM   15  C22 UNL     1      -9.012  47.793 -29.746  1.00  0.00     0.153 C 
HETATM   16  C30 UNL     1      -8.845  46.949 -28.476  1.00  0.00    -0.055 C 
HETATM   17  C31 UNL     1      -7.652  46.350 -28.216  1.00  0.00     0.017 C 
HETATM   18  C32 UNL     1     -10.066  46.811 -27.557  1.00  0.00     0.029 C 
HETATM   19  C33 UNL     1      -9.907  45.794 -26.416  1.00  0.00     0.014 C 
HETATM   20  C34 UNL     1     -11.105  45.819 -25.476  1.00  0.00     0.036 C 
ENDROOT
BRANCH  15  21
HETATM   21  O4  UNL     1      -8.335  47.085 -30.798  1.00  0.00    -0.349 OA
BRANCH  21  22
HETATM   22  C23 UNL     1      -9.132  46.634 -31.878  1.00  0.00     0.292 C 
HETATM   23  O5  UNL     1      -9.008  47.586 -32.944  1.00  0.00    -0.348 OA
HETATM   24  C24 UNL     1      -7.750  47.562 -33.661  1.00  0.00     0.179 C 
HETATM   25  C26 UNL     1      -6.672  46.534 -33.223  1.00  0.00     0.183 C 
HETATM   26  C28 UNL     1      -7.272  45.190 -32.759  1.00  0.00     0.183 C 
HETATM   27  C29 UNL     1      -8.764  45.256 -32.433  1.00  0.00     0.204 C 
BRANCH  24  28
HETATM   28  C25 UNL     1      -8.119  47.352 -35.140  1.00  0.00     0.198 C 
BRANCH  28  29
HETATM   29  O6  UNL     1      -7.153  47.984 -35.983  1.00  0.00    -0.398 OA
HETATM   30  H36 UNL     1      -6.903  48.811 -35.531  1.00  0.00     0.209 HD
ENDBRANCH  28  29
ENDBRANCH  24  28
BRANCH  25  31
HETATM   31  O7  UNL     1      -5.856  46.986 -32.128  1.00  0.00    -0.385 OA
HETATM   32  C27 UNL     1      -4.939  46.033 -31.613  1.00  0.00     0.202 C 
ENDBRANCH  25  31
BRANCH  26  33
HETATM   33  O8  UNL     1      -7.084  44.177 -33.767  1.00  0.00    -0.390 OA
HETATM   34  H42 UNL     1      -6.130  43.994 -33.797  1.00  0.00     0.210 HD
ENDBRANCH  26  33
BRANCH  27  35
HETATM   35  O9  UNL     1      -9.117  44.183 -31.550  1.00  0.00    -0.388 OA
HETATM   36  H44 UNL     1      -8.819  43.368 -31.997  1.00  0.00     0.210 HD
ENDBRANCH  27  35
ENDBRANCH  21  22
ENDBRANCH  15  21
BRANCH   4  37
HETATM   37  C11 UNL     1     -14.058  46.839 -24.658  1.00  0.00     0.156 C 
HETATM   38  O2  UNL     1     -15.010  47.559 -24.910  1.00  0.00    -0.649 OA
BRANCH  37  39
HETATM   39  O3  UNL     1     -13.175  47.273 -23.733  1.00  0.00    -0.775 OA
HETATM   40  H16 UNL     1     -13.529  48.154 -23.480  1.00  0.00     0.167 HD
ENDBRANCH  37  39
ENDBRANCH   4  37
BRANCH   3  41
HETATM   41  O1  UNL     1     -12.806  43.292 -24.510  1.00  0.00    -0.394 OA
HETATM   42  H15 UNL     1     -12.882  42.646 -23.786  1.00  0.00     0.210 HD
ENDBRANCH   3  41
BRANCH   1  43
HETATM   43  C5  UNL     1     -17.217  43.858 -25.578  1.00  0.00    -0.013 C 
HETATM   44  C6  UNL     1     -16.942  42.440 -26.122  1.00  0.00     0.010 C 
BRANCH  43  45
HETATM   45  C4  UNL     1     -18.249  44.572 -26.480  1.00  0.00     0.009 C 
BRANCH  45  46
HETATM   46  C3  UNL     1     -19.573  45.005 -25.840  1.00  0.00     0.034 C 
BRANCH  46  47
HETATM   47  C2  UNL     1     -19.370  45.835 -24.580  1.00  0.00    -0.086 C 
HETATM   48  C1  UNL     1     -18.721  47.010 -24.654  1.00  0.00     0.014 C 
BRANCH  47  49
HETATM   49  C35 UNL     1     -19.864  45.308 -23.237  1.00  0.00     0.005 C 
HETATM   50  C36 UNL     1     -20.474  43.914 -23.341  1.00  0.00     0.014 C 
HETATM   51  C37 UNL     1     -18.776  45.356 -22.163  1.00  0.00     0.014 C 
ENDBRANCH  47  49
ENDBRANCH  46  47
ENDBRANCH  45  46
ENDBRANCH  43  45
ENDBRANCH   1  43
TORSDOF 15
ENDMDL
MODEL 8
REMARK minimizedAffinity -7.61983252
REMARK CNNscore 0.266051292
REMARK CNNaffinity 5.73088074
REMARK  15 active torsions:
REMARK  status: ('A' for Active; 'I' for Inactive)
REMARK    1  A    between atoms: C2_2  and  C3_3 
REMARK    2  A    between atoms: C2_2  and  C35_44 
REMARK    3  A    between atoms: C3_3  and  C4_4 
REMARK    4  A    between atoms: C4_4  and  C5_5 
REMARK    5  A    between atoms: C5_5  and  C7_7 
REMARK    6  A    between atoms: C9_9  and  O1_10 
REMARK    7  A    between atoms: C10_11  and  C11_12 
REMARK    8  A    between atoms: C11_12  and  O3_14 
REMARK    9  A    between atoms: C22_25  and  O4_26 
REMARK   10  A    between atoms: O4_26  and  C23_27 
REMARK   11  A    between atoms: C24_29  and  C25_30 
REMARK   12  A    between atoms: C25_30  and  O6_31 
REMARK   13  A    between atoms: C26_32  and  O7_33 
REMARK   14  A    between atoms: C28_35  and  O8_36 
REMARK   15  A    between atoms: C29_37  and  O9_38 
ROOT
HETATM    1  C7  UNL     1      -8.185  47.721 -24.859  1.00  0.00     0.001 C 
HETATM    2  C8  UNL     1      -8.823  49.041 -25.352  1.00  0.00     0.039 C 
HETATM    3  C9  UNL     1      -9.675  48.677 -26.597  1.00  0.00     0.142 C 
HETATM    4  C10 UNL     1      -9.719  47.115 -26.616  1.00  0.00     0.102 C 
HETATM    5  C12 UNL     1     -10.019  46.310 -27.885  1.00  0.00    -0.054 C 
HETATM    6  C13 UNL     1      -9.458  45.086 -28.074  1.00  0.00    -0.067 C 
HETATM    7  C14 UNL     1      -8.523  44.451 -27.033  1.00  0.00     0.036 C 
HETATM    8  C15 UNL     1      -8.123  45.296 -25.811  1.00  0.00     0.015 C 
HETATM    9  C16 UNL     1      -8.256  46.792 -26.101  1.00  0.00    -0.016 C 
HETATM   10  C17 UNL     1      -7.159  47.148 -27.152  1.00  0.00     0.017 C 
HETATM   11  C18 UNL     1      -9.649  44.294 -29.391  1.00  0.00    -0.013 C 
HETATM   12  C19 UNL     1      -8.333  44.487 -30.201  1.00  0.00     0.021 C 
HETATM   13  C20 UNL     1      -9.918  42.787 -29.130  1.00  0.00     0.017 C 
HETATM   14  C21 UNL     1      -9.972  41.964 -30.414  1.00  0.00     0.037 C 
HETATM   15  C22 UNL     1     -10.758  42.559 -31.588  1.00  0.00     0.153 C 
HETATM   16  C30 UNL     1     -10.988  44.074 -31.565  1.00  0.00    -0.055 C 
HETATM   17  C31 UNL     1     -11.246  44.737 -32.725  1.00  0.00     0.017 C 
HETATM   18  C32 UNL     1     -10.897  44.780 -30.205  1.00  0.00     0.029 C 
HETATM   19  C33 UNL     1     -10.930  46.314 -30.267  1.00  0.00     0.014 C 
HETATM   20  C34 UNL     1     -10.972  46.927 -28.873  1.00  0.00     0.036 C 
ENDROOT
BRANCH  15  21
HETATM   21  O4  UNL     1      -9.954  42.286 -32.748  1.00  0.00    -0.349 OA
BRANCH  21  22
HETATM   22  C23 UNL     1      -8.891  43.184 -33.013  1.00  0.00     0.292 C 
HETATM   23  O5  UNL     1      -7.745  42.741 -32.273  1.00  0.00    -0.348 OA
HETATM   24  C24 UNL     1      -7.083  41.563 -32.793  1.00  0.00     0.179 C 
HETATM   25  C26 UNL     1      -7.657  40.899 -34.072  1.00  0.00     0.183 C 
HETATM   26  C28 UNL     1      -8.224  41.919 -35.080  1.00  0.00     0.183 C 
HETATM   27  C29 UNL     1      -8.485  43.303 -34.484  1.00  0.00     0.204 C 
BRANCH  24  28
HETATM   28  C25 UNL     1      -5.618  41.976 -33.016  1.00  0.00     0.198 C 
BRANCH  28  29
HETATM   29  O6  UNL     1      -4.740  40.944 -32.557  1.00  0.00    -0.398 OA
HETATM   30  H36 UNL     1      -5.152  40.580 -31.752  1.00  0.00     0.209 HD
ENDBRANCH  28  29
ENDBRANCH  24  28
BRANCH  25  31
HETATM   31  O7  UNL     1      -8.736  39.981 -33.811  1.00  0.00    -0.385 OA
HETATM   32  C27 UNL     1      -8.531  39.088 -32.727  1.00  0.00     0.202 C 
ENDBRANCH  25  31
BRANCH  26  33
HETATM   33  O8  UNL     1      -7.325  42.081 -36.195  1.00  0.00    -0.390 OA
HETATM   34  H42 UNL     1      -7.349  41.245 -36.691  1.00  0.00     0.210 HD
ENDBRANCH  26  33
BRANCH  27  35
HETATM   35  O9  UNL     1      -9.452  44.001 -35.279  1.00  0.00    -0.388 OA
HETATM   36  H44 UNL     1      -9.096  43.995 -36.188  1.00  0.00     0.210 HD
ENDBRANCH  27  35
ENDBRANCH  21  22
ENDBRANCH  15  21
BRANCH   4  37
HETATM   37  C11 UNL     1     -10.865  46.687 -25.654  1.00  0.00     0.156 C 
HETATM   38  O2  UNL     1     -11.002  45.627 -25.065  1.00  0.00    -0.649 OA
BRANCH  37  39
HETATM   39  O3  UNL     1     -11.849  47.602 -25.528  1.00  0.00    -0.775 OA
HETATM   40  H16 UNL     1     -12.510  47.147 -24.962  1.00  0.00     0.167 HD
ENDBRANCH  37  39
ENDBRANCH   4  37
BRANCH   3  41
HETATM   41  O1  UNL     1      -9.056  49.230 -27.758  1.00  0.00    -0.394 OA
HETATM   42  H15 UNL     1      -8.999  50.194 -27.639  1.00  0.00     0.210 HD
ENDBRANCH   3  41
BRANCH   1  43
HETATM   43  C5  UNL     1      -6.907  47.802 -23.983  1.00  0.00    -0.013 C 
HETATM   44  C6  UNL     1      -7.008  46.790 -22.821  1.00  0.00     0.010 C 
BRANCH  43  45
HETATM   45  C4  UNL     1      -6.374  49.153 -23.453  1.00  0.00     0.009 C 
BRANCH  45  46
HETATM   46  C3  UNL     1      -5.175  49.777 -24.177  1.00  0.00     0.034 C 
BRANCH  46  47
HETATM   47  C2  UNL     1      -3.964  48.854 -24.205  1.00  0.00    -0.086 C 
HETATM   48  C1  UNL     1      -3.466  48.374 -23.053  1.00  0.00     0.014 C 
BRANCH  47  49
HETATM   49  C35 UNL     1      -3.297  48.518 -25.535  1.00  0.00     0.005 C 
HETATM   50  C36 UNL     1      -4.299  48.383 -26.677  1.00  0.00     0.014 C 
HETATM   51  C37 UNL     1      -2.186  49.506 -25.889  1.00  0.00     0.014 C 
ENDBRANCH  47  49
ENDBRANCH  46  47
ENDBRANCH  45  46
ENDBRANCH  43  45
ENDBRANCH   1  43
TORSDOF 15
ENDMDL
MODEL 9
REMARK minimizedAffinity -7.39360714
REMARK CNNscore 0.264540464
REMARK CNNaffinity 6.78900766
REMARK  15 active torsions:
REMARK  status: ('A' for Active; 'I' for Inactive)
REMARK    1  A    between atoms: C2_2  and  C3_3 
REMARK    2  A    between atoms: C2_2  and  C35_44 
REMARK    3  A    between atoms: C3_3  and  C4_4 
REMARK    4  A    between atoms: C4_4  and  C5_5 
REMARK    5  A    between atoms: C5_5  and  C7_7 
REMARK    6  A    between atoms: C9_9  and  O1_10 
REMARK    7  A    between atoms: C10_11  and  C11_12 
REMARK    8  A    between atoms: C11_12  and  O3_14 
REMARK    9  A    between atoms: C22_25  and  O4_26 
REMARK   10  A    between atoms: O4_26  and  C23_27 
REMARK   11  A    between atoms: C24_29  and  C25_30 
REMARK   12  A    between atoms: C25_30  and  O6_31 
REMARK   13  A    between atoms: C26_32  and  O7_33 
REMARK   14  A    between atoms: C28_35  and  O8_36 
REMARK   15  A    between atoms: C29_37  and  O9_38 
ROOT
HETATM    1  C7  UNL     1      -1.861  50.927 -22.085  1.00  0.00     0.001 C 
HETATM    2  C8  UNL     1      -2.497  52.087 -21.284  1.00  0.00     0.039 C 
HETATM    3  C9  UNL     1      -3.826  51.538 -20.700  1.00  0.00     0.142 C 
HETATM    4  C10 UNL     1      -3.775  49.998 -20.954  1.00  0.00     0.102 C 
HETATM    5  C12 UNL     1      -5.033  49.123 -20.994  1.00  0.00    -0.054 C 
HETATM    6  C13 UNL     1      -5.086  48.026 -21.796  1.00  0.00    -0.067 C 
HETATM    7  C14 UNL     1      -3.900  47.607 -22.678  1.00  0.00     0.036 C 
HETATM    8  C15 UNL     1      -2.678  48.539 -22.736  1.00  0.00     0.015 C 
HETATM    9  C16 UNL     1      -3.055  49.975 -22.365  1.00  0.00    -0.016 C 
HETATM   10  C17 UNL     1      -3.965  50.515 -23.512  1.00  0.00     0.017 C 
HETATM   11  C18 UNL     1      -6.377  47.184 -21.945  1.00  0.00    -0.013 C 
HETATM   12  C19 UNL     1      -7.013  47.611 -23.301  1.00  0.00     0.021 C 
HETATM   13  C20 UNL     1      -6.082  45.660 -21.932  1.00  0.00     0.017 C 
HETATM   14  C21 UNL     1      -7.321  44.814 -22.215  1.00  0.00     0.037 C 
HETATM   15  C22 UNL     1      -8.617  45.220 -21.503  1.00  0.00     0.153 C 
HETATM   16  C30 UNL     1      -8.698  46.663 -20.990  1.00  0.00    -0.055 C 
HETATM   17  C31 UNL     1      -9.912  47.237 -20.777  1.00  0.00     0.017 C 
HETATM   18  C32 UNL     1      -7.373  47.402 -20.755  1.00  0.00     0.029 C 
HETATM   19  C33 UNL     1      -7.513  48.899 -20.442  1.00  0.00     0.014 C 
HETATM   20  C34 UNL     1      -6.169  49.522 -20.089  1.00  0.00     0.036 C 
ENDROOT
BRANCH  15  21
HETATM   21  O4  UNL     1      -9.644  45.084 -22.499  1.00  0.00    -0.349 OA
BRANCH  21  22
HETATM   22  C23 UNL     1      -9.255  45.275 -23.847  1.00  0.00     0.292 C 
HETATM   23  O5  UNL     1      -9.143  43.984 -24.461  1.00  0.00    -0.348 OA
HETATM   24  C24 UNL     1     -10.396  43.321 -24.756  1.00  0.00     0.179 C 
HETATM   25  C26 UNL     1     -11.718  44.047 -24.391  1.00  0.00     0.183 C 
HETATM   26  C28 UNL     1     -11.641  45.576 -24.582  1.00  0.00     0.183 C 
HETATM   27  C29 UNL     1     -10.215  46.117 -24.693  1.00  0.00     0.204 C 
BRANCH  24  28
HETATM   28  C25 UNL     1     -10.356  43.010 -26.263  1.00  0.00     0.198 C 
BRANCH  28  29
HETATM   29  O6  UNL     1     -10.222  41.602 -26.472  1.00  0.00    -0.398 OA
HETATM   30  H36 UNL     1      -9.626  41.282 -25.770  1.00  0.00     0.209 HD
ENDBRANCH  28  29
ENDBRANCH  24  28
BRANCH  25  31
HETATM   31  O7  UNL     1     -12.122  43.854 -23.023  1.00  0.00    -0.385 OA
HETATM   32  C27 UNL     1     -11.893  42.558 -22.493  1.00  0.00     0.202 C 
ENDBRANCH  25  31
BRANCH  26  33
HETATM   33  O8  UNL     1     -12.357  45.974 -25.767  1.00  0.00    -0.390 OA
HETATM   34  H42 UNL     1     -13.300  45.823 -25.583  1.00  0.00     0.210 HD
ENDBRANCH  26  33
BRANCH  27  35
HETATM   35  O9  UNL     1     -10.194  47.508 -24.348  1.00  0.00    -0.388 OA
HETATM   36  H44 UNL     1     -10.851  47.931 -24.932  1.00  0.00     0.210 HD
ENDBRANCH  27  35
ENDBRANCH  21  22
ENDBRANCH  15  21
BRANCH   4  37
HETATM   37  C11 UNL     1      -2.956  49.376 -19.786  1.00  0.00     0.156 C 
HETATM   38  O2  UNL     1      -2.490  49.935 -18.807  1.00  0.00    -0.649 OA
BRANCH  37  39
HETATM   39  O3  UNL     1      -2.690  48.061 -19.940  1.00  0.00    -0.775 OA
HETATM   40  H16 UNL     1      -2.114  47.857 -19.171  1.00  0.00     0.167 HD
ENDBRANCH  37  39
ENDBRANCH   4  37
BRANCH   3  41
HETATM   41  O1  UNL     1      -4.920  52.176 -21.360  1.00  0.00    -0.394 OA
HETATM   42  H15 UNL     1      -4.841  53.135 -21.216  1.00  0.00     0.210 HD
ENDBRANCH   3  41
BRANCH   1  43
HETATM   43  C5  UNL     1      -0.826  51.272 -23.188  1.00  0.00    -0.013 C 
HETATM   44  C6  UNL     1       0.423  51.917 -22.549  1.00  0.00     0.010 C 
BRANCH  43  45
HETATM   45  C4  UNL     1      -1.229  52.061 -24.455  1.00  0.00     0.009 C 
BRANCH  45  46
HETATM   46  C3  UNL     1      -0.296  53.186 -24.918  1.00  0.00     0.034 C 
BRANCH  46  47
HETATM   47  C2  UNL     1       0.125  53.035 -26.373  1.00  0.00    -0.086 C 
HETATM   48  C1  UNL     1      -0.125  54.026 -27.246  1.00  0.00     0.014 C 
BRANCH  47  49
HETATM   49  C35 UNL     1       0.789  51.743 -26.840  1.00  0.00     0.005 C 
HETATM   50  C36 UNL     1       0.906  51.658 -28.358  1.00  0.00     0.014 C 
HETATM   51  C37 UNL     1       2.142  51.514 -26.167  1.00  0.00     0.014 C 
ENDBRANCH  47  49
ENDBRANCH  46  47
ENDBRANCH  45  46
ENDBRANCH  43  45
ENDBRANCH   1  43
TORSDOF 15
ENDMDL
