MODEL 1
REMARK minimizedAffinity -10.2904625
REMARK  4 active torsions:
REMARK  status: ('A' for Active; 'I' for Inactive)
REMARK    1  A    between atoms: C2_2  and  C4_4 
REMARK    2  A    between atoms: C7_7  and  C8_8 
REMARK    3  A    between atoms: C8_8  and  O1_9 
REMARK    4  A    between atoms: C10_11  and  O2_12 
ROOT
HETATM    1  C4  UNL     1      -8.120   5.688  14.075  1.00  0.00     0.018 C 
HETATM    2  C5  UNL     1      -9.410   6.415  14.546  1.00  0.00     0.010 C 
HETATM    3  C6  UNL     1      -8.983   7.823  14.991  1.00  0.00     0.013 C 
HETATM    4  C7  UNL     1      -7.482   7.688  15.290  1.00  0.00    -0.012 C 
HETATM    5  C9  UNL     1      -6.713   9.013  15.214  1.00  0.00     0.044 C 
HETATM    6  C10 UNL     1      -5.184   8.784  15.251  1.00  0.00     0.128 C 
HETATM    7  C11 UNL     1      -4.646   7.770  14.159  1.00  0.00    -0.006 C 
HETATM    8  C12 UNL     1      -4.804   8.488  12.772  1.00  0.00     0.019 C 
HETATM    9  C13 UNL     1      -5.544   6.453  14.185  1.00  0.00     0.002 C 
HETATM   10  C14 UNL     1      -5.086   5.425  13.145  1.00  0.00     0.006 C 
HETATM   11  C15 UNL     1      -3.606   5.062  13.285  1.00  0.00     0.006 C 
HETATM   12  C16 UNL     1      -2.672   6.293  13.280  1.00  0.00     0.003 C 
HETATM   13  C17 UNL     1      -1.137   5.921  13.123  1.00  0.00    -0.035 C 
HETATM   14  C18 UNL     1      -0.658   4.908  14.201  1.00  0.00     0.016 C 
HETATM   15  C19 UNL     1      -0.946   5.194  11.750  1.00  0.00     0.017 C 
HETATM   16  C20 UNL     1       0.459   5.332  11.190  1.00  0.00     0.080 C 
HETATM   17  C21 UNL     1       0.741   6.777  10.868  1.00  0.00     0.135 C 
HETATM   18  O3  UNL     1       1.421   7.062   9.879  1.00  0.00    -0.297 OA
HETATM   19  C22 UNL     1       0.175   7.854  11.813  1.00  0.00     0.017 C 
HETATM   20  C23 UNL     1       1.304   8.896  12.009  1.00  0.00     0.023 C 
HETATM   21  C24 UNL     1      -0.975   8.548  11.073  1.00  0.00     0.023 C 
HETATM   22  C25 UNL     1      -0.198   7.188  13.194  1.00  0.00     0.009 C 
HETATM   23  C26 UNL     1      -0.630   8.161  14.309  1.00  0.00     0.007 C 
HETATM   24  C27 UNL     1      -2.111   8.531  14.330  1.00  0.00     0.011 C 
HETATM   25  C28 UNL     1      -3.082   7.325  14.402  1.00  0.00    -0.030 C 
HETATM   26  C29 UNL     1      -2.934   6.715  15.829  1.00  0.00     0.016 C 
HETATM   27  C30 UNL     1      -7.046   6.803  14.094  1.00  0.00     0.009 C 
ENDROOT
BRANCH   1  28
HETATM   28  C2  UNL     1      -8.335   4.957  12.761  1.00  0.00    -0.089 C 
HETATM   29  C1  UNL     1      -8.206   3.620  12.686  1.00  0.00     0.014 C 
HETATM   30  C3  UNL     1      -8.720   5.754  11.542  1.00  0.00     0.043 C 
ENDBRANCH   1  28
BRANCH   4  31
HETATM   31  C8  UNL     1      -7.301   7.033  16.691  1.00  0.00     0.174 C 
BRANCH  31  32
HETATM   32  O1  UNL     1      -6.419   5.918  16.597  1.00  0.00    -0.400 OA
HETATM   33  H13 UNL     1      -6.269   5.592  17.502  1.00  0.00     0.209 HD
ENDBRANCH  31  32
ENDBRANCH   4  31
BRANCH   6  34
HETATM   34  O2  UNL     1      -4.555  10.058  15.112  1.00  0.00    -0.395 OA
HETATM   35  H17 UNL     1      -4.915  10.640  15.802  1.00  0.00     0.210 HD
ENDBRANCH   6  34
TORSDOF 4
ENDMDL
MODEL 2
REMARK minimizedAffinity -8.15702343
REMARK  4 active torsions:
REMARK  status: ('A' for Active; 'I' for Inactive)
REMARK    1  A    between atoms: C2_2  and  C4_4 
REMARK    2  A    between atoms: C7_7  and  C8_8 
REMARK    3  A    between atoms: C8_8  and  O1_9 
REMARK    4  A    between atoms: C10_11  and  O2_12 
ROOT
HETATM    1  C4  UNL     1       2.341   8.457   9.465  1.00  0.00     0.018 C 
HETATM    2  C5  UNL     1       3.820   8.047   9.227  1.00  0.00     0.010 C 
HETATM    3  C6  UNL     1       4.279   7.301  10.492  1.00  0.00     0.013 C 
HETATM    4  C7  UNL     1       3.305   7.772  11.583  1.00  0.00    -0.012 C 
HETATM    5  C9  UNL     1       3.181   6.801  12.764  1.00  0.00     0.044 C 
HETATM    6  C10 UNL     1       2.002   7.180  13.688  1.00  0.00     0.128 C 
HETATM    7  C11 UNL     1       0.609   7.329  12.948  1.00  0.00    -0.006 C 
HETATM    8  C12 UNL     1       0.185   5.882  12.507  1.00  0.00     0.019 C 
HETATM    9  C13 UNL     1       0.801   8.246  11.659  1.00  0.00     0.002 C 
HETATM   10  C14 UNL     1      -0.509   8.429  10.884  1.00  0.00     0.006 C 
HETATM   11  C15 UNL     1      -1.642   8.971  11.758  1.00  0.00     0.006 C 
HETATM   12  C16 UNL     1      -1.879   8.136  13.037  1.00  0.00     0.003 C 
HETATM   13  C17 UNL     1      -3.227   8.502  13.790  1.00  0.00    -0.035 C 
HETATM   14  C18 UNL     1      -3.325  10.017  14.130  1.00  0.00     0.016 C 
HETATM   15  C19 UNL     1      -4.424   8.212  12.824  1.00  0.00     0.017 C 
HETATM   16  C20 UNL     1      -5.724   7.919  13.551  1.00  0.00     0.080 C 
HETATM   17  C21 UNL     1      -5.590   6.643  14.342  1.00  0.00     0.135 C 
HETATM   18  O3  UNL     1      -6.554   5.879  14.440  1.00  0.00    -0.297 OA
HETATM   19  C22 UNL     1      -4.238   6.350  15.021  1.00  0.00     0.017 C 
HETATM   20  C23 UNL     1      -4.571   5.810  16.435  1.00  0.00     0.023 C 
HETATM   21  C24 UNL     1      -3.572   5.215  14.236  1.00  0.00     0.023 C 
HETATM   22  C25 UNL     1      -3.411   7.689  15.130  1.00  0.00     0.009 C 
HETATM   23  C26 UNL     1      -2.098   7.600  15.932  1.00  0.00     0.007 C 
HETATM   24  C27 UNL     1      -0.868   7.154  15.145  1.00  0.00     0.011 C 
HETATM   25  C28 UNL     1      -0.556   8.008  13.888  1.00  0.00    -0.030 C 
HETATM   26  C29 UNL     1      -0.063   9.395  14.401  1.00  0.00     0.016 C 
HETATM   27  C30 UNL     1       1.974   7.744  10.789  1.00  0.00     0.009 C 
ENDROOT
BRANCH   1  28
HETATM   28  C2  UNL     1       1.474   8.160   8.254  1.00  0.00    -0.089 C 
HETATM   29  C1  UNL     1       0.181   8.532   8.222  1.00  0.00     0.014 C 
HETATM   30  C3  UNL     1       2.094   7.460   7.073  1.00  0.00     0.043 C 
ENDBRANCH   1  28
BRANCH   4  31
HETATM   31  C8  UNL     1       3.742   9.181  12.080  1.00  0.00     0.174 C 
BRANCH  31  32
HETATM   32  O1  UNL     1       2.598   9.941  12.458  1.00  0.00    -0.400 OA
HETATM   33  H13 UNL     1       2.920  10.777  12.837  1.00  0.00     0.209 HD
ENDBRANCH  31  32
ENDBRANCH   4  31
BRANCH   6  34
HETATM   34  O2  UNL     1       1.925   6.192  14.716  1.00  0.00    -0.395 OA
HETATM   35  H17 UNL     1       2.799   6.140  15.139  1.00  0.00     0.210 HD
ENDBRANCH   6  34
TORSDOF 4
ENDMDL
MODEL 3
REMARK minimizedAffinity -7.99378395
REMARK  4 active torsions:
REMARK  status: ('A' for Active; 'I' for Inactive)
REMARK    1  A    between atoms: C2_2  and  C4_4 
REMARK    2  A    between atoms: C7_7  and  C8_8 
REMARK    3  A    between atoms: C8_8  and  O1_9 
REMARK    4  A    between atoms: C10_11  and  O2_12 
ROOT
HETATM    1  C4  UNL     1      -4.775   5.899  12.919  1.00  0.00     0.018 C 
HETATM    2  C5  UNL     1      -4.567   4.384  12.642  1.00  0.00     0.010 C 
HETATM    3  C6  UNL     1      -3.234   3.995  13.302  1.00  0.00     0.013 C 
HETATM    4  C7  UNL     1      -2.476   5.325  13.437  1.00  0.00    -0.012 C 
HETATM    5  C9  UNL     1      -1.399   5.316  14.529  1.00  0.00     0.044 C 
HETATM    6  C10 UNL     1      -0.862   6.738  14.808  1.00  0.00     0.128 C 
HETATM    7  C11 UNL     1      -1.981   7.808  15.145  1.00  0.00    -0.006 C 
HETATM    8  C12 UNL     1      -2.547   7.425  16.558  1.00  0.00     0.019 C 
HETATM    9  C13 UNL     1      -3.141   7.707  14.057  1.00  0.00     0.002 C 
HETATM   10  C14 UNL     1      -4.268   8.711  14.325  1.00  0.00     0.006 C 
HETATM   11  C15 UNL     1      -3.763  10.151  14.431  1.00  0.00     0.006 C 
HETATM   12  C16 UNL     1      -2.625  10.325  15.461  1.00  0.00     0.003 C 
HETATM   13  C17 UNL     1      -2.302  11.842  15.796  1.00  0.00    -0.035 C 
HETATM   14  C18 UNL     1      -1.985  12.678  14.523  1.00  0.00     0.016 C 
HETATM   15  C19 UNL     1      -3.584  12.492  16.415  1.00  0.00     0.017 C 
HETATM   16  C20 UNL     1      -3.280  13.673  17.320  1.00  0.00     0.080 C 
HETATM   17  C21 UNL     1      -2.503  13.207  18.524  1.00  0.00     0.135 C 
HETATM   18  O3  UNL     1      -2.706  13.728  19.624  1.00  0.00    -0.297 OA
HETATM   19  C22 UNL     1      -1.457  12.094  18.325  1.00  0.00     0.017 C 
HETATM   20  C23 UNL     1      -0.214  12.514  19.149  1.00  0.00     0.023 C 
HETATM   21  C24 UNL     1      -2.024  10.818  18.958  1.00  0.00     0.023 C 
HETATM   22  C25 UNL     1      -1.088  11.996  16.793  1.00  0.00     0.009 C 
HETATM   23  C26 UNL     1       0.067  11.037  16.445  1.00  0.00     0.007 C 
HETATM   24  C27 UNL     1      -0.325   9.578  16.224  1.00  0.00     0.011 C 
HETATM   25  C28 UNL     1      -1.420   9.353  15.150  1.00  0.00    -0.030 C 
HETATM   26  C29 UNL     1      -0.765   9.670  13.771  1.00  0.00     0.016 C 
HETATM   27  C30 UNL     1      -3.630   6.250  13.901  1.00  0.00     0.009 C 
ENDROOT
BRANCH   1  28
HETATM   28  C2  UNL     1      -6.193   6.198  13.374  1.00  0.00    -0.089 C 
HETATM   29  C1  UNL     1      -6.467   7.292  14.107  1.00  0.00     0.014 C 
HETATM   30  C3  UNL     1      -7.298   5.259  12.967  1.00  0.00     0.043 C 
ENDBRANCH   1  28
BRANCH   4  31
HETATM   31  C8  UNL     1      -1.852   5.695  12.059  1.00  0.00     0.174 C 
BRANCH  31  32
HETATM   32  O1  UNL     1      -1.352   4.524  11.421  1.00  0.00    -0.400 OA
HETATM   33  H13 UNL     1      -1.048   4.786  10.535  1.00  0.00     0.209 HD
ENDBRANCH  31  32
ENDBRANCH   4  31
BRANCH   6  34
HETATM   34  O2  UNL     1       0.083   6.641  15.874  1.00  0.00    -0.395 OA
HETATM   35  H17 UNL     1       0.746   5.978  15.618  1.00  0.00     0.210 HD
ENDBRANCH   6  34
TORSDOF 4
ENDMDL
MODEL 4
REMARK minimizedAffinity -7.93627691
REMARK  4 active torsions:
REMARK  status: ('A' for Active; 'I' for Inactive)
REMARK    1  A    between atoms: C2_2  and  C4_4 
REMARK    2  A    between atoms: C7_7  and  C8_8 
REMARK    3  A    between atoms: C8_8  and  O1_9 
REMARK    4  A    between atoms: C10_11  and  O2_12 
ROOT
HETATM    1  C4  UNL     1      -5.785   4.207  12.365  1.00  0.00     0.018 C 
HETATM    2  C5  UNL     1      -6.203   2.800  11.855  1.00  0.00     0.010 C 
HETATM    3  C6  UNL     1      -4.901   2.022  11.595  1.00  0.00     0.013 C 
HETATM    4  C7  UNL     1      -3.835   3.116  11.421  1.00  0.00    -0.012 C 
HETATM    5  C9  UNL     1      -2.405   2.637  11.701  1.00  0.00     0.044 C 
HETATM    6  C10 UNL     1      -1.416   3.822  11.780  1.00  0.00     0.128 C 
HETATM    7  C11 UNL     1      -1.830   4.955  12.807  1.00  0.00    -0.006 C 
HETATM    8  C12 UNL     1      -1.662   4.335  14.240  1.00  0.00     0.019 C 
HETATM    9  C13 UNL     1      -3.356   5.343  12.567  1.00  0.00     0.002 C 
HETATM   10  C14 UNL     1      -3.831   6.432  13.534  1.00  0.00     0.006 C 
HETATM   11  C15 UNL     1      -2.952   7.683  13.493  1.00  0.00     0.006 C 
HETATM   12  C16 UNL     1      -1.452   7.383  13.708  1.00  0.00     0.003 C 
HETATM   13  C17 UNL     1      -0.577   8.682  13.964  1.00  0.00    -0.035 C 
HETATM   14  C18 UNL     1      -0.741   9.742  12.838  1.00  0.00     0.016 C 
HETATM   15  C19 UNL     1      -1.098   9.374  15.268  1.00  0.00     0.017 C 
HETATM   16  C20 UNL     1      -0.041  10.213  15.965  1.00  0.00     0.080 C 
HETATM   17  C21 UNL     1       1.074   9.325  16.455  1.00  0.00     0.135 C 
HETATM   18  O3  UNL     1       1.633   9.578  17.526  1.00  0.00    -0.297 OA
HETATM   19  C22 UNL     1       1.488   8.129  15.577  1.00  0.00     0.017 C 
HETATM   20  C23 UNL     1       3.037   8.096  15.591  1.00  0.00     0.023 C 
HETATM   21  C24 UNL     1       0.990   6.858  16.276  1.00  0.00     0.023 C 
HETATM   22  C25 UNL     1       0.961   8.358  14.107  1.00  0.00     0.009 C 
HETATM   23  C26 UNL     1       1.429   7.326  13.062  1.00  0.00     0.007 C 
HETATM   24  C27 UNL     1       0.576   6.066  12.945  1.00  0.00     0.011 C 
HETATM   25  C28 UNL     1      -0.927   6.321  12.663  1.00  0.00    -0.030 C 
HETATM   26  C29 UNL     1      -1.025   6.853  11.201  1.00  0.00     0.016 C 
HETATM   27  C30 UNL     1      -4.254   4.085  12.556  1.00  0.00     0.009 C 
ENDROOT
BRANCH   1  28
HETATM   28  C2  UNL     1      -6.602   4.632  13.573  1.00  0.00    -0.089 C 
HETATM   29  C1  UNL     1      -7.216   3.719  14.348  1.00  0.00     0.014 C 
HETATM   30  C3  UNL     1      -6.695   6.098  13.906  1.00  0.00     0.043 C 
ENDBRANCH   1  28
BRANCH   4  31
HETATM   31  C8  UNL     1      -3.942   3.704   9.983  1.00  0.00     0.174 C 
BRANCH  31  32
HETATM   32  O1  UNL     1      -4.922   2.989   9.237  1.00  0.00    -0.400 OA
HETATM   33  H13 UNL     1      -5.015   3.439   8.379  1.00  0.00     0.209 HD
ENDBRANCH  31  32
ENDBRANCH   4  31
BRANCH   6  34
HETATM   34  O2  UNL     1      -0.131   3.290  12.104  1.00  0.00    -0.395 OA
HETATM   35  H17 UNL     1       0.076   2.604  11.446  1.00  0.00     0.210 HD
ENDBRANCH   6  34
TORSDOF 4
ENDMDL
MODEL 5
REMARK minimizedAffinity -7.72620583
REMARK  4 active torsions:
REMARK  status: ('A' for Active; 'I' for Inactive)
REMARK    1  A    between atoms: C2_2  and  C4_4 
REMARK    2  A    between atoms: C7_7  and  C8_8 
REMARK    3  A    between atoms: C8_8  and  O1_9 
REMARK    4  A    between atoms: C10_11  and  O2_12 
ROOT
HETATM    1  C4  UNL     1       1.563   7.498   9.352  1.00  0.00     0.018 C 
HETATM    2  C5  UNL     1       2.721   6.661   8.742  1.00  0.00     0.010 C 
HETATM    3  C6  UNL     1       2.767   5.338   9.525  1.00  0.00     0.013 C 
HETATM    4  C7  UNL     1       2.062   5.659  10.853  1.00  0.00    -0.012 C 
HETATM    5  C9  UNL     1       1.490   4.427  11.564  1.00  0.00     0.044 C 
HETATM    6  C10 UNL     1       0.566   4.828  12.737  1.00  0.00     0.128 C 
HETATM    7  C11 UNL     1      -0.597   5.830  12.344  1.00  0.00    -0.006 C 
HETATM    8  C12 UNL     1      -1.597   5.017  11.447  1.00  0.00     0.019 C 
HETATM    9  C13 UNL     1       0.018   7.036  11.504  1.00  0.00     0.002 C 
HETATM   10  C14 UNL     1      -1.055   8.045  11.080  1.00  0.00     0.006 C 
HETATM   11  C15 UNL     1      -1.863   8.580  12.263  1.00  0.00     0.006 C 
HETATM   12  C16 UNL     1      -2.482   7.464  13.134  1.00  0.00     0.003 C 
HETATM   13  C17 UNL     1      -3.557   7.996  14.174  1.00  0.00    -0.035 C 
HETATM   14  C18 UNL     1      -2.993   9.119  15.090  1.00  0.00     0.016 C 
HETATM   15  C19 UNL     1      -4.729   8.656  13.374  1.00  0.00     0.017 C 
HETATM   16  C20 UNL     1      -6.049   8.645  14.125  1.00  0.00     0.080 C 
HETATM   17  C21 UNL     1      -6.511   7.223  14.323  1.00  0.00     0.135 C 
HETATM   18  O3  UNL     1      -7.714   6.958  14.266  1.00  0.00    -0.297 OA
HETATM   19  C22 UNL     1      -5.446   6.148  14.611  1.00  0.00     0.017 C 
HETATM   20  C23 UNL     1      -6.026   5.253  15.734  1.00  0.00     0.023 C 
HETATM   21  C24 UNL     1      -5.319   5.286  13.349  1.00  0.00     0.023 C 
HETATM   22  C25 UNL     1      -4.120   6.849  15.101  1.00  0.00     0.009 C 
HETATM   23  C26 UNL     1      -3.005   5.902  15.585  1.00  0.00     0.007 C 
HETATM   24  C27 UNL     1      -2.070   5.369  14.502  1.00  0.00     0.011 C 
HETATM   25  C28 UNL     1      -1.376   6.461  13.647  1.00  0.00    -0.030 C 
HETATM   26  C29 UNL     1      -0.342   7.167  14.575  1.00  0.00     0.016 C 
HETATM   27  C30 UNL     1       0.879   6.514  10.332  1.00  0.00     0.009 C 
ENDROOT
BRANCH   1  28
HETATM   28  C2  UNL     1       0.692   8.121   8.275  1.00  0.00    -0.089 C 
HETATM   29  C1  UNL     1      -0.322   8.945   8.598  1.00  0.00     0.014 C 
HETATM   30  C3  UNL     1       0.997   7.820   6.831  1.00  0.00     0.043 C 
ENDBRANCH   1  28
BRANCH   4  31
HETATM   31  C8  UNL     1       3.057   6.413  11.784  1.00  0.00     0.174 C 
BRANCH  31  32
HETATM   32  O1  UNL     1       4.397   6.076  11.441  1.00  0.00    -0.400 OA
HETATM   33  H13 UNL     1       4.983   6.628  11.988  1.00  0.00     0.209 HD
ENDBRANCH  31  32
ENDBRANCH   4  31
BRANCH   6  34
HETATM   34  O2  UNL     1       0.033   3.627  13.296  1.00  0.00    -0.395 OA
HETATM   35  H17 UNL     1       0.782   3.050  13.520  1.00  0.00     0.210 HD
ENDBRANCH   6  34
TORSDOF 4
ENDMDL
MODEL 6
REMARK minimizedAffinity -7.64926004
REMARK  4 active torsions:
REMARK  status: ('A' for Active; 'I' for Inactive)
REMARK    1  A    between atoms: C2_2  and  C4_4 
REMARK    2  A    between atoms: C7_7  and  C8_8 
REMARK    3  A    between atoms: C8_8  and  O1_9 
REMARK    4  A    between atoms: C10_11  and  O2_12 
ROOT
HETATM    1  C4  UNL     1      -5.871   3.372  12.674  1.00  0.00     0.018 C 
HETATM    2  C5  UNL     1      -7.406   3.248  12.471  1.00  0.00     0.010 C 
HETATM    3  C6  UNL     1      -8.023   4.566  12.967  1.00  0.00     0.013 C 
HETATM    4  C7  UNL     1      -6.962   5.149  13.913  1.00  0.00    -0.012 C 
HETATM    5  C9  UNL     1      -7.067   6.667  14.103  1.00  0.00     0.044 C 
HETATM    6  C10 UNL     1      -5.829   7.234  14.834  1.00  0.00     0.128 C 
HETATM    7  C11 UNL     1      -4.442   6.855  14.167  1.00  0.00    -0.006 C 
HETATM    8  C12 UNL     1      -4.373   7.646  12.812  1.00  0.00     0.019 C 
HETATM    9  C13 UNL     1      -4.417   5.289  13.874  1.00  0.00     0.002 C 
HETATM   10  C14 UNL     1      -3.103   4.849  13.218  1.00  0.00     0.006 C 
HETATM   11  C15 UNL     1      -1.872   5.258  14.028  1.00  0.00     0.006 C 
HETATM   12  C16 UNL     1      -1.834   6.767  14.361  1.00  0.00     0.003 C 
HETATM   13  C17 UNL     1      -0.435   7.253  14.931  1.00  0.00    -0.035 C 
HETATM   14  C18 UNL     1       0.019   6.434  16.173  1.00  0.00     0.016 C 
HETATM   15  C19 UNL     1       0.657   6.996  13.839  1.00  0.00     0.017 C 
HETATM   16  C20 UNL     1       1.853   7.924  13.958  1.00  0.00     0.080 C 
HETATM   17  C21 UNL     1       1.425   9.346  13.703  1.00  0.00     0.135 C 
HETATM   18  O3  UNL     1       2.182  10.116  13.106  1.00  0.00    -0.297 OA
HETATM   19  C22 UNL     1       0.045   9.791  14.223  1.00  0.00     0.017 C 
HETATM   20  C23 UNL     1       0.245  11.200  14.835  1.00  0.00     0.023 C 
HETATM   21  C24 UNL     1      -0.874   9.941  13.004  1.00  0.00     0.023 C 
HETATM   22  C25 UNL     1      -0.443   8.780  15.332  1.00  0.00     0.009 C 
HETATM   23  C26 UNL     1      -1.738   9.173  16.070  1.00  0.00     0.007 C 
HETATM   24  C27 UNL     1      -3.041   8.738  15.403  1.00  0.00     0.011 C 
HETATM   25  C28 UNL     1      -3.147   7.219  15.111  1.00  0.00    -0.030 C 
HETATM   26  C29 UNL     1      -3.297   6.508  16.490  1.00  0.00     0.016 C 
HETATM   27  C30 UNL     1      -5.678   4.848  13.099  1.00  0.00     0.009 C 
ENDROOT
BRANCH   1  28
HETATM   28  C2  UNL     1      -5.102   2.896  11.454  1.00  0.00    -0.089 C 
HETATM   29  C1  UNL     1      -5.553   3.148  10.212  1.00  0.00     0.014 C 
HETATM   30  C3  UNL     1      -3.806   2.154  11.657  1.00  0.00     0.043 C 
ENDBRANCH   1  28
BRANCH   4  31
HETATM   31  C8  UNL     1      -7.053   4.420  15.287  1.00  0.00     0.174 C 
BRANCH  31  32
HETATM   32  O1  UNL     1      -8.223   4.839  15.983  1.00  0.00    -0.400 OA
HETATM   33  H13 UNL     1      -8.284   4.303  16.793  1.00  0.00     0.209 HD
ENDBRANCH  31  32
ENDBRANCH   4  31
BRANCH   6  34
HETATM   34  O2  UNL     1      -5.984   8.651  14.908  1.00  0.00    -0.395 OA
HETATM   35  H17 UNL     1      -6.844   8.831  15.325  1.00  0.00     0.210 HD
ENDBRANCH   6  34
TORSDOF 4
ENDMDL
MODEL 7
REMARK minimizedAffinity -7.42285013
REMARK  4 active torsions:
REMARK  status: ('A' for Active; 'I' for Inactive)
REMARK    1  A    between atoms: C2_2  and  C4_4 
REMARK    2  A    between atoms: C7_7  and  C8_8 
REMARK    3  A    between atoms: C8_8  and  O1_9 
REMARK    4  A    between atoms: C10_11  and  O2_12 
ROOT
HETATM    1  C4  UNL     1      -1.611   6.813  13.903  1.00  0.00     0.018 C 
HETATM    2  C5  UNL     1      -2.671   6.163  12.972  1.00  0.00     0.010 C 
HETATM    3  C6  UNL     1      -3.934   7.035  13.065  1.00  0.00     0.013 C 
HETATM    4  C7  UNL     1      -3.777   7.786  14.397  1.00  0.00    -0.012 C 
HETATM    5  C9  UNL     1      -4.581   9.090  14.472  1.00  0.00     0.044 C 
HETATM    6  C10 UNL     1      -4.181   9.934  15.704  1.00  0.00     0.128 C 
HETATM    7  C11 UNL     1      -2.629  10.234  15.817  1.00  0.00    -0.006 C 
HETATM    8  C12 UNL     1      -2.285  11.230  14.653  1.00  0.00     0.019 C 
HETATM    9  C13 UNL     1      -1.820   8.876  15.615  1.00  0.00     0.002 C 
HETATM   10  C14 UNL     1      -0.306   9.091  15.704  1.00  0.00     0.006 C 
HETATM   11  C15 UNL     1       0.119   9.774  17.005  1.00  0.00     0.006 C 
HETATM   12  C16 UNL     1      -0.634  11.096  17.275  1.00  0.00     0.003 C 
HETATM   13  C17 UNL     1      -0.000  11.956  18.448  1.00  0.00    -0.035 C 
HETATM   14  C18 UNL     1       0.130  11.151  19.773  1.00  0.00     0.016 C 
HETATM   15  C19 UNL     1       1.463  12.336  18.044  1.00  0.00     0.017 C 
HETATM   16  C20 UNL     1       1.960  13.605  18.714  1.00  0.00     0.080 C 
HETATM   17  C21 UNL     1       1.145  14.783  18.245  1.00  0.00     0.135 C 
HETATM   18  O3  UNL     1       1.691  15.877  18.080  1.00  0.00    -0.297 OA
HETATM   19  C22 UNL     1      -0.361  14.572  18.005  1.00  0.00     0.017 C 
HETATM   20  C23 UNL     1      -1.073  15.813  18.600  1.00  0.00     0.023 C 
HETATM   21  C24 UNL     1      -0.587  14.591  16.488  1.00  0.00     0.023 C 
HETATM   22  C25 UNL     1      -0.828  13.265  18.754  1.00  0.00     0.009 C 
HETATM   23  C26 UNL     1      -2.347  12.998  18.747  1.00  0.00     0.007 C 
HETATM   24  C27 UNL     1      -2.882  12.239  17.536  1.00  0.00     0.011 C 
HETATM   25  C28 UNL     1      -2.197  10.874  17.268  1.00  0.00    -0.030 C 
HETATM   26  C29 UNL     1      -2.648   9.915  18.411  1.00  0.00     0.016 C 
HETATM   27  C30 UNL     1      -2.271   8.146  14.330  1.00  0.00     0.009 C 
ENDROOT
BRANCH   1  28
HETATM   28  C2  UNL     1      -0.250   6.897  13.233  1.00  0.00    -0.089 C 
HETATM   29  C1  UNL     1       0.758   6.092  13.613  1.00  0.00     0.014 C 
HETATM   30  C3  UNL     1      -0.054   7.885  12.113  1.00  0.00     0.043 C 
ENDBRANCH   1  28
BRANCH   4  31
HETATM   31  C8  UNL     1      -4.173   6.835  15.565  1.00  0.00     0.174 C 
BRANCH  31  32
HETATM   32  O1  UNL     1      -3.123   6.781  16.526  1.00  0.00    -0.400 OA
HETATM   33  H13 UNL     1      -3.443   6.245  17.272  1.00  0.00     0.209 HD
ENDBRANCH  31  32
ENDBRANCH   4  31
BRANCH   6  34
HETATM   34  O2  UNL     1      -4.929  11.148  15.656  1.00  0.00    -0.395 OA
HETATM   35  H17 UNL     1      -5.869  10.911  15.589  1.00  0.00     0.210 HD
ENDBRANCH   6  34
TORSDOF 4
ENDMDL
MODEL 8
REMARK minimizedAffinity -7.36848736
REMARK  4 active torsions:
REMARK  status: ('A' for Active; 'I' for Inactive)
REMARK    1  A    between atoms: C2_2  and  C4_4 
REMARK    2  A    between atoms: C7_7  and  C8_8 
REMARK    3  A    between atoms: C8_8  and  O1_9 
REMARK    4  A    between atoms: C10_11  and  O2_12 
ROOT
HETATM    1  C4  UNL     1       1.809   6.790  12.140  1.00  0.00     0.018 C 
HETATM    2  C5  UNL     1       1.541   5.715  11.052  1.00  0.00     0.010 C 
HETATM    3  C6  UNL     1       2.883   5.462  10.344  1.00  0.00     0.013 C 
HETATM    4  C7  UNL     1       3.707   6.727  10.631  1.00  0.00    -0.012 C 
HETATM    5  C9  UNL     1       5.222   6.517  10.526  1.00  0.00     0.044 C 
HETATM    6  C10 UNL     1       6.003   7.728  11.085  1.00  0.00     0.128 C 
HETATM    7  C11 UNL     1       5.603   8.143  12.561  1.00  0.00    -0.006 C 
HETATM    8  C12 UNL     1       6.127   6.997  13.499  1.00  0.00     0.019 C 
HETATM    9  C13 UNL     1       4.016   8.235  12.664  1.00  0.00     0.002 C 
HETATM   10  C14 UNL     1       3.553   8.625  14.072  1.00  0.00     0.006 C 
HETATM   11  C15 UNL     1       4.194   9.923  14.566  1.00  0.00     0.006 C 
HETATM   12  C16 UNL     1       5.737   9.912  14.485  1.00  0.00     0.003 C 
HETATM   13  C17 UNL     1       6.420  11.115  15.264  1.00  0.00    -0.035 C 
HETATM   14  C18 UNL     1       5.884  12.501  14.804  1.00  0.00     0.016 C 
HETATM   15  C19 UNL     1       6.039  10.999  16.777  1.00  0.00     0.017 C 
HETATM   16  C20 UNL     1       7.054  11.648  17.702  1.00  0.00     0.080 C 
HETATM   17  C21 UNL     1       8.369  10.917  17.610  1.00  0.00     0.135 C 
HETATM   18  O3  UNL     1       9.063  10.778  18.620  1.00  0.00    -0.297 OA
HETATM   19  C22 UNL     1       8.805  10.381  16.234  1.00  0.00     0.017 C 
HETATM   20  C23 UNL     1      10.315  10.702  16.103  1.00  0.00     0.023 C 
HETATM   21  C24 UNL     1       8.657   8.855  16.272  1.00  0.00     0.023 C 
HETATM   22  C25 UNL     1       7.990  11.124  15.105  1.00  0.00     0.009 C 
HETATM   23  C26 UNL     1       8.423  10.817  13.658  1.00  0.00     0.007 C 
HETATM   24  C27 UNL     1       7.779   9.590  13.018  1.00  0.00     0.011 C 
HETATM   25  C28 UNL     1       6.229   9.592  13.020  1.00  0.00    -0.030 C 
HETATM   26  C29 UNL     1       5.782  10.691  12.009  1.00  0.00     0.016 C 
HETATM   27  C30 UNL     1       3.348   6.951  12.123  1.00  0.00     0.009 C 
ENDROOT
BRANCH   1  28
HETATM   28  C2  UNL     1       1.167   6.420  13.467  1.00  0.00    -0.089 C 
HETATM   29  C1  UNL     1       1.364   7.173  14.564  1.00  0.00     0.014 C 
HETATM   30  C3  UNL     1       0.280   5.203  13.528  1.00  0.00     0.043 C 
ENDBRANCH   1  28
BRANCH   4  31
HETATM   31  C8  UNL     1       3.246   7.862   9.668  1.00  0.00     0.174 C 
BRANCH  31  32
HETATM   32  O1  UNL     1       3.133   7.358   8.341  1.00  0.00    -0.400 OA
HETATM   33  H13 UNL     1       2.766   8.073   7.792  1.00  0.00     0.209 HD
ENDBRANCH  31  32
ENDBRANCH   4  31
BRANCH   6  34
HETATM   34  O2  UNL     1       7.394   7.419  11.005  1.00  0.00    -0.395 OA
HETATM   35  H17 UNL     1       7.588   7.174  10.084  1.00  0.00     0.210 HD
ENDBRANCH   6  34
TORSDOF 4
ENDMDL
MODEL 9
REMARK minimizedAffinity -7.30225134
REMARK  4 active torsions:
REMARK  status: ('A' for Active; 'I' for Inactive)
REMARK    1  A    between atoms: C2_2  and  C4_4 
REMARK    2  A    between atoms: C7_7  and  C8_8 
REMARK    3  A    between atoms: C8_8  and  O1_9 
REMARK    4  A    between atoms: C10_11  and  O2_12 
ROOT
HETATM    1  C4  UNL     1      -5.728   3.908  11.938  1.00  0.00     0.018 C 
HETATM    2  C5  UNL     1      -5.491   2.452  11.452  1.00  0.00     0.010 C 
HETATM    3  C6  UNL     1      -4.016   2.127  11.742  1.00  0.00     0.013 C 
HETATM    4  C7  UNL     1      -3.339   3.502  11.849  1.00  0.00    -0.012 C 
HETATM    5  C9  UNL     1      -2.036   3.490  12.657  1.00  0.00     0.044 C 
HETATM    6  C10 UNL     1      -1.545   4.924  12.964  1.00  0.00     0.128 C 
HETATM    7  C11 UNL     1      -2.622   5.849  13.667  1.00  0.00    -0.006 C 
HETATM    8  C12 UNL     1      -2.810   5.285  15.120  1.00  0.00     0.019 C 
HETATM    9  C13 UNL     1      -3.998   5.744  12.869  1.00  0.00     0.002 C 
HETATM   10  C14 UNL     1      -5.094   6.610  13.499  1.00  0.00     0.006 C 
HETATM   11  C15 UNL     1      -4.678   8.075  13.649  1.00  0.00     0.006 C 
HETATM   12  C16 UNL     1      -3.342   8.255  14.404  1.00  0.00     0.003 C 
HETATM   13  C17 UNL     1      -3.052   9.757  14.826  1.00  0.00    -0.035 C 
HETATM   14  C18 UNL     1      -3.103  10.735  13.617  1.00  0.00     0.016 C 
HETATM   15  C19 UNL     1      -4.192  10.226  15.791  1.00  0.00     0.017 C 
HETATM   16  C20 UNL     1      -3.763  11.339  16.730  1.00  0.00     0.080 C 
HETATM   17  C21 UNL     1      -2.692  10.835  17.664  1.00  0.00     0.135 C 
HETATM   18  O3  UNL     1      -2.664  11.230  18.832  1.00  0.00    -0.297 OA
HETATM   19  C22 UNL     1      -1.651   9.847  17.106  1.00  0.00     0.017 C 
HETATM   20  C23 UNL     1      -0.279  10.301  17.666  1.00  0.00     0.023 C 
HETATM   21  C24 UNL     1      -1.964   8.470  17.704  1.00  0.00     0.023 C 
HETATM   22  C25 UNL     1      -1.650   9.928  15.530  1.00  0.00     0.009 C 
HETATM   23  C26 UNL     1      -0.548   9.117  14.820  1.00  0.00     0.007 C 
HETATM   24  C27 UNL     1      -0.882   7.655  14.532  1.00  0.00     0.011 C 
HETATM   25  C28 UNL     1      -2.182   7.432  13.718  1.00  0.00    -0.030 C 
HETATM   26  C29 UNL     1      -1.896   7.936  12.271  1.00  0.00     0.016 C 
HETATM   27  C30 UNL     1      -4.410   4.269  12.665  1.00  0.00     0.009 C 
ENDROOT
BRANCH   1  28
HETATM   28  C2  UNL     1      -7.015   4.032  12.736  1.00  0.00    -0.089 C 
HETATM   29  C1  UNL     1      -7.229   3.270  13.824  1.00  0.00     0.014 C 
HETATM   30  C3  UNL     1      -8.044   5.044  12.300  1.00  0.00     0.043 C 
ENDBRANCH   1  28
BRANCH   4  31
HETATM   31  C8  UNL     1      -3.086   4.056  10.415  1.00  0.00     0.174 C 
BRANCH  31  32
HETATM   32  O1  UNL     1      -2.363   3.101   9.645  1.00  0.00    -0.400 OA
HETATM   33  H13 UNL     1      -2.300   3.450   8.739  1.00  0.00     0.209 HD
ENDBRANCH  31  32
ENDBRANCH   4  31
BRANCH   6  34
HETATM   34  O2  UNL     1      -0.370   4.815  13.768  1.00  0.00    -0.395 OA
HETATM   35  H17 UNL     1       0.256   4.242  13.295  1.00  0.00     0.210 HD
ENDBRANCH   6  34
TORSDOF 4
ENDMDL
