MODEL 1
REMARK minimizedAffinity -8.89279366
REMARK CNNscore 0.666752875
REMARK CNNaffinity 7.36477089
REMARK  14 active torsions:
REMARK  status: ('A' for Active; 'I' for Inactive)
REMARK    1  A    between atoms: O1_2  and  C2_3 
REMARK    2  A    between atoms: C2_3  and  C3_5 
REMARK    3  A    between atoms: C3_5  and  C4_6 
REMARK    4  A    between atoms: C3_5  and  N2_16 
REMARK    5  A    between atoms: C4_6  and  C5_7 
REMARK       I    between atoms: N2_16  and  C13_17 
REMARK    6  A    between atoms: C13_17  and  C14_19 
REMARK    7  A    between atoms: C14_19  and  C15_20 
REMARK    8  A    between atoms: C15_20  and  C16_21 
REMARK    9  A    between atoms: C16_21  and  O5_23 
REMARK   10  A    between atoms: O5_23  and  C17_24 
REMARK   11  A    between atoms: C17_24  and  C18_25 
REMARK   12  A    between atoms: C18_25  and  C19_27 
REMARK   13  A    between atoms: C19_27  and  O7_28 
REMARK   14  A    between atoms: C34_44  and  O9_45 
ROOT
HETATM    1  C17 UNL     1      -5.988   5.826  14.943  1.00  0.00     0.260 C 
ENDROOT
BRANCH   1   2
HETATM    2  O5  UNL     1      -7.380   5.916  14.654  1.00  0.00    -0.314 OA
BRANCH   2   3
HETATM    3  C16 UNL     1      -7.761   5.436  13.437  1.00  0.00     0.259 C 
HETATM    4  O4  UNL     1      -7.116   4.656  12.751  1.00  0.00    -0.265 OA
BRANCH   3   5
HETATM    5  C15 UNL     1      -9.122   5.955  13.060  1.00  0.00     0.120 C 
BRANCH   5   6
HETATM    6  C14 UNL     1      -9.671   6.910  14.108  1.00  0.00     0.112 C 
BRANCH   6   7
HETATM    7  C13 UNL     1     -11.150   7.158  13.905  1.00  0.00     0.218 C 
HETATM    8  N2  UNL     1     -11.836   7.326  15.083  1.00  0.00    -0.347 N 
HETATM    9  H13 UNL     1     -11.369   7.187  15.971  1.00  0.00     0.163 HD
HETATM   10  O3  UNL     1     -11.685   7.200  12.805  1.00  0.00    -0.274 OA
BRANCH   8  11
HETATM   11  C3  UNL     1     -13.300   7.518  15.123  1.00  0.00     0.188 C 
BRANCH  11  12
HETATM   12  C2  UNL     1     -13.665   8.922  14.594  1.00  0.00     0.281 C 
HETATM   13  O2  UNL     1     -13.306   9.983  15.080  1.00  0.00    -0.263 OA
BRANCH  12  14
HETATM   14  O1  UNL     1     -14.470   8.832  13.487  1.00  0.00    -0.325 OA
HETATM   15  C1  UNL     1     -14.057   9.666  12.402  1.00  0.00     0.213 C 
ENDBRANCH  12  14
ENDBRANCH  11  12
BRANCH  11  16
HETATM   16  C4  UNL     1     -14.005   6.436  14.291  1.00  0.00     0.076 C 
BRANCH  16  17
HETATM   17  C5  UNL     1     -15.180   5.816  14.985  1.00  0.00    -0.028 A 
HETATM   18  C6  UNL     1     -16.178   6.483  15.669  1.00  0.00     0.096 A 
HETATM   19  N1  UNL     1     -17.056   5.557  16.161  1.00  0.00    -0.365 N 
HETATM   20  C7  UNL     1     -16.661   4.289  15.806  1.00  0.00     0.042 A 
HETATM   21  H8  UNL     1     -17.875   5.767  16.713  1.00  0.00     0.165 HD
HETATM   22  C8  UNL     1     -17.251   3.050  16.085  1.00  0.00     0.030 A 
HETATM   23  C12 UNL     1     -15.485   4.418  15.066  1.00  0.00    -0.002 A 
HETATM   24  C9  UNL     1     -16.619   1.908  15.586  1.00  0.00     0.002 A 
HETATM   25  C10 UNL     1     -15.446   2.002  14.843  1.00  0.00     0.001 A 
HETATM   26  C11 UNL     1     -14.867   3.248  14.578  1.00  0.00     0.014 A 
ENDBRANCH  16  17
ENDBRANCH  11  16
ENDBRANCH   8  11
ENDBRANCH   6   7
ENDBRANCH   5   6
ENDBRANCH   3   5
ENDBRANCH   2   3
ENDBRANCH   1   2
BRANCH   1  27
HETATM   27  C18 UNL     1      -5.247   7.165  14.959  1.00  0.00     0.185 C 
HETATM   28  O6  UNL     1      -5.894   8.212  14.850  1.00  0.00    -0.292 OA
BRANCH  27  29
HETATM   29  C19 UNL     1      -3.702   7.179  15.174  1.00  0.00     0.128 C 
HETATM   30  C20 UNL     1      -3.201   5.740  15.388  1.00  0.00     0.047 C 
HETATM   31  C21 UNL     1      -3.004   5.175  13.994  1.00  0.00     0.009 C 
HETATM   32  C22 UNL     1      -2.606   6.363  13.099  1.00  0.00     0.002 C 
HETATM   33  C23 UNL     1      -1.161   6.186  12.559  1.00  0.00    -0.002 C 
HETATM   34  C36 UNL     1      -2.839   7.656  13.947  1.00  0.00     0.001 C 
HETATM   35  C24 UNL     1      -1.123   5.147  11.440  1.00  0.00     0.010 C 
HETATM   36  C33 UNL     1      -0.569   7.533  12.083  1.00  0.00     0.031 C 
HETATM   37  C25 UNL     1       0.313   4.803  11.067  1.00  0.00     0.035 C 
HETATM   38  C26 UNL     1       1.270   5.970  11.088  1.00  0.00    -0.068 C 
HETATM   39  C27 UNL     1       2.589   5.697  11.028  1.00  0.00     0.053 C 
HETATM   40  C31 UNL     1       0.703   7.395  11.117  1.00  0.00    -0.014 C 
HETATM   41  C28 UNL     1       3.612   6.756  10.890  1.00  0.00     0.149 C 
HETATM   42  O8  UNL     1       4.800   6.447  10.859  1.00  0.00    -0.293 OA
HETATM   43  C29 UNL     1       3.140   8.174  10.705  1.00  0.00     0.084 C 
HETATM   44  C30 UNL     1       1.844   8.398  11.476  1.00  0.00     0.022 C 
HETATM   45  C32 UNL     1       0.236   7.722   9.671  1.00  0.00     0.020 C 
HETATM   46  C34 UNL     1      -0.407   8.436  13.330  1.00  0.00     0.124 C 
HETATM   47  C35 UNL     1      -1.479   8.242  14.421  1.00  0.00     0.045 C 
HETATM   48  C37 UNL     1      -3.570   8.723  13.111  1.00  0.00     0.019 C 
BRANCH  29  49
HETATM   49  O7  UNL     1      -3.384   7.917  16.350  1.00  0.00    -0.381 OA
HETATM   50  H20 UNL     1      -3.624   7.364  17.118  1.00  0.00     0.211 HD
ENDBRANCH  29  49
BRANCH  46  51
HETATM   51  O9  UNL     1      -0.354   9.805  12.935  1.00  0.00    -0.395 OA
HETATM   52  H41 UNL     1      -1.260  10.139  12.831  1.00  0.00     0.210 HD
ENDBRANCH  46  51
ENDBRANCH  27  29
ENDBRANCH   1  27
TORSDOF 14
ENDMDL
MODEL 2
REMARK minimizedAffinity -8.79711342
REMARK CNNscore 0.579213917
REMARK CNNaffinity 7.40266943
REMARK  14 active torsions:
REMARK  status: ('A' for Active; 'I' for Inactive)
REMARK    1  A    between atoms: O1_2  and  C2_3 
REMARK    2  A    between atoms: C2_3  and  C3_5 
REMARK    3  A    between atoms: C3_5  and  C4_6 
REMARK    4  A    between atoms: C3_5  and  N2_16 
REMARK    5  A    between atoms: C4_6  and  C5_7 
REMARK       I    between atoms: N2_16  and  C13_17 
REMARK    6  A    between atoms: C13_17  and  C14_19 
REMARK    7  A    between atoms: C14_19  and  C15_20 
REMARK    8  A    between atoms: C15_20  and  C16_21 
REMARK    9  A    between atoms: C16_21  and  O5_23 
REMARK   10  A    between atoms: O5_23  and  C17_24 
REMARK   11  A    between atoms: C17_24  and  C18_25 
REMARK   12  A    between atoms: C18_25  and  C19_27 
REMARK   13  A    between atoms: C19_27  and  O7_28 
REMARK   14  A    between atoms: C34_44  and  O9_45 
ROOT
HETATM    1  C17 UNL     1      -8.654   7.949  16.009  1.00  0.00     0.260 C 
ENDROOT
BRANCH   1   2
HETATM    2  O5  UNL     1     -10.042   8.253  16.096  1.00  0.00    -0.314 OA
BRANCH   2   3
HETATM    3  C16 UNL     1     -10.349   9.576  16.210  1.00  0.00     0.259 C 
HETATM    4  O4  UNL     1      -9.666  10.499  15.788  1.00  0.00    -0.265 OA
BRANCH   3   5
HETATM    5  C15 UNL     1     -11.680   9.760  16.886  1.00  0.00     0.120 C 
BRANCH   5   6
HETATM    6  C14 UNL     1     -11.734  11.053  17.684  1.00  0.00     0.112 C 
BRANCH   6   7
HETATM    7  C13 UNL     1     -11.779  10.780  19.171  1.00  0.00     0.218 C 
HETATM    8  N2  UNL     1     -12.177  11.869  19.908  1.00  0.00    -0.347 N 
HETATM    9  H13 UNL     1     -12.317  12.767  19.460  1.00  0.00     0.163 HD
HETATM   10  O3  UNL     1     -11.486   9.702  19.672  1.00  0.00    -0.274 OA
BRANCH   8  11
HETATM   11  C3  UNL     1     -12.233  11.845  21.384  1.00  0.00     0.188 C 
BRANCH  11  12
HETATM   12  C2  UNL     1     -13.583  11.263  21.854  1.00  0.00     0.281 C 
HETATM   13  O2  UNL     1     -14.504  10.921  21.128  1.00  0.00    -0.263 OA
BRANCH  12  14
HETATM   14  O1  UNL     1     -13.631  11.183  23.222  1.00  0.00    -0.325 OA
HETATM   15  C1  UNL     1     -13.786   9.852  23.719  1.00  0.00     0.213 C 
ENDBRANCH  12  14
ENDBRANCH  11  12
BRANCH  11  16
HETATM   16  C4  UNL     1     -11.071  11.015  21.950  1.00  0.00     0.076 C 
BRANCH  16  17
HETATM   17  C5  UNL     1     -10.131  11.806  22.809  1.00  0.00    -0.028 A 
HETATM   18  C6  UNL     1     -10.152  11.894  24.187  1.00  0.00     0.096 A 
HETATM   19  N1  UNL     1      -9.135  12.721  24.581  1.00  0.00    -0.365 N 
HETATM   20  C7  UNL     1      -8.436  13.173  23.488  1.00  0.00     0.042 A 
HETATM   21  H8  UNL     1      -8.927  12.972  25.537  1.00  0.00     0.165 HD
HETATM   22  C8  UNL     1      -7.329  14.027  23.416  1.00  0.00     0.030 A 
HETATM   23  C12 UNL     1      -9.038  12.616  22.358  1.00  0.00    -0.002 A 
HETATM   24  C9  UNL     1      -6.819  14.317  22.148  1.00  0.00     0.002 A 
HETATM   25  C10 UNL     1      -7.394  13.776  21.001  1.00  0.00     0.001 A 
HETATM   26  C11 UNL     1      -8.504  12.929  21.091  1.00  0.00     0.014 A 
ENDBRANCH  16  17
ENDBRANCH  11  16
ENDBRANCH   8  11
ENDBRANCH   6   7
ENDBRANCH   5   6
ENDBRANCH   3   5
ENDBRANCH   2   3
ENDBRANCH   1   2
BRANCH   1  27
HETATM   27  C18 UNL     1      -8.304   6.811  15.048  1.00  0.00     0.185 C 
HETATM   28  O6  UNL     1      -9.022   6.614  14.061  1.00  0.00    -0.292 OA
BRANCH  27  29
HETATM   29  C19 UNL     1      -7.018   5.965  15.302  1.00  0.00     0.128 C 
HETATM   30  C20 UNL     1      -7.411   4.506  15.591  1.00  0.00     0.047 C 
HETATM   31  C21 UNL     1      -7.570   3.859  14.228  1.00  0.00     0.009 C 
HETATM   32  C22 UNL     1      -6.575   4.572  13.293  1.00  0.00     0.002 C 
HETATM   33  C23 UNL     1      -5.481   3.586  12.800  1.00  0.00    -0.002 C 
HETATM   34  C36 UNL     1      -6.039   5.814  14.079  1.00  0.00     0.001 C 
HETATM   35  C24 UNL     1      -6.037   2.651  11.728  1.00  0.00     0.010 C 
HETATM   36  C33 UNL     1      -4.235   4.343  12.282  1.00  0.00     0.031 C 
HETATM   37  C25 UNL     1      -5.044   1.541  11.408  1.00  0.00     0.035 C 
HETATM   38  C26 UNL     1      -3.596   1.970  11.403  1.00  0.00    -0.068 C 
HETATM   39  C27 UNL     1      -2.659   1.000  11.390  1.00  0.00     0.053 C 
HETATM   40  C31 UNL     1      -3.263   3.466  11.356  1.00  0.00    -0.014 C 
HETATM   41  C28 UNL     1      -1.217   1.294  11.233  1.00  0.00     0.149 C 
HETATM   42  O8  UNL     1      -0.409   0.369  11.247  1.00  0.00    -0.293 OA
HETATM   43  C29 UNL     1      -0.811   2.720  10.974  1.00  0.00     0.084 C 
HETATM   44  C30 UNL     1      -1.754   3.672  11.701  1.00  0.00     0.022 C 
HETATM   45  C32 UNL     1      -3.470   3.925   9.885  1.00  0.00     0.020 C 
HETATM   46  C34 UNL     1      -3.591   5.061  13.492  1.00  0.00     0.124 C 
HETATM   47  C35 UNL     1      -4.584   5.557  14.562  1.00  0.00     0.045 C 
HETATM   48  C37 UNL     1      -6.046   7.063  13.179  1.00  0.00     0.019 C 
BRANCH  29  49
HETATM   49  O7  UNL     1      -6.336   6.456  16.453  1.00  0.00    -0.381 OA
HETATM   50  H20 UNL     1      -6.843   6.172  17.237  1.00  0.00     0.211 HD
ENDBRANCH  29  49
BRANCH  46  51
HETATM   51  O9  UNL     1      -2.778   6.142  13.040  1.00  0.00    -0.395 OA
HETATM   52  H41 UNL     1      -3.340   6.921  12.898  1.00  0.00     0.210 HD
ENDBRANCH  46  51
ENDBRANCH  27  29
ENDBRANCH   1  27
TORSDOF 14
ENDMDL
MODEL 3
REMARK minimizedAffinity -10.106616
REMARK CNNscore 0.486639559
REMARK CNNaffinity 7.22508955
REMARK  14 active torsions:
REMARK  status: ('A' for Active; 'I' for Inactive)
REMARK    1  A    between atoms: O1_2  and  C2_3 
REMARK    2  A    between atoms: C2_3  and  C3_5 
REMARK    3  A    between atoms: C3_5  and  C4_6 
REMARK    4  A    between atoms: C3_5  and  N2_16 
REMARK    5  A    between atoms: C4_6  and  C5_7 
REMARK       I    between atoms: N2_16  and  C13_17 
REMARK    6  A    between atoms: C13_17  and  C14_19 
REMARK    7  A    between atoms: C14_19  and  C15_20 
REMARK    8  A    between atoms: C15_20  and  C16_21 
REMARK    9  A    between atoms: C16_21  and  O5_23 
REMARK   10  A    between atoms: O5_23  and  C17_24 
REMARK   11  A    between atoms: C17_24  and  C18_25 
REMARK   12  A    between atoms: C18_25  and  C19_27 
REMARK   13  A    between atoms: C19_27  and  O7_28 
REMARK   14  A    between atoms: C34_44  and  O9_45 
ROOT
HETATM    1  C17 UNL     1       1.075   9.620  14.703  1.00  0.00     0.260 C 
ENDROOT
BRANCH   1   2
HETATM    2  O5  UNL     1       0.759   9.965  16.048  1.00  0.00    -0.314 OA
BRANCH   2   3
HETATM    3  C16 UNL     1       1.781   9.846  16.942  1.00  0.00     0.259 C 
HETATM    4  O4  UNL     1       2.370   8.808  17.209  1.00  0.00    -0.265 OA
BRANCH   3   5
HETATM    5  C15 UNL     1       2.132  11.185  17.532  1.00  0.00     0.120 C 
BRANCH   5   6
HETATM    6  C14 UNL     1       3.348  11.099  18.440  1.00  0.00     0.112 C 
BRANCH   6   7
HETATM    7  C13 UNL     1       2.965  11.284  19.892  1.00  0.00     0.218 C 
HETATM    8  N2  UNL     1       3.527  10.346  20.724  1.00  0.00    -0.347 N 
HETATM    9  H13 UNL     1       4.053   9.571  20.338  1.00  0.00     0.163 HD
HETATM   10  O3  UNL     1       2.227  12.177  20.289  1.00  0.00    -0.274 OA
BRANCH   8  11
HETATM   11  C3  UNL     1       3.239  10.301  22.171  1.00  0.00     0.188 C 
BRANCH  11  12
HETATM   12  C2  UNL     1       2.606   8.943  22.543  1.00  0.00     0.281 C 
HETATM   13  O2  UNL     1       2.049   8.179  21.768  1.00  0.00    -0.263 OA
BRANCH  12  14
HETATM   14  O1  UNL     1       2.738   8.693  23.885  1.00  0.00    -0.325 OA
HETATM   15  C1  UNL     1       2.367   9.793  24.718  1.00  0.00     0.213 C 
ENDBRANCH  12  14
ENDBRANCH  11  12
BRANCH  11  16
HETATM   16  C4  UNL     1       4.525  10.527  22.981  1.00  0.00     0.076 C 
BRANCH  16  17
HETATM   17  C5  UNL     1       4.991  11.951  22.981  1.00  0.00    -0.028 A 
HETATM   18  C6  UNL     1       4.195  13.078  22.913  1.00  0.00     0.096 A 
HETATM   19  N1  UNL     1       5.006  14.180  22.931  1.00  0.00    -0.365 N 
HETATM   20  C7  UNL     1       6.324  13.802  23.020  1.00  0.00     0.042 A 
HETATM   21  H8  UNL     1       4.687  15.137  22.879  1.00  0.00     0.165 HD
HETATM   22  C8  UNL     1       7.484  14.583  23.070  1.00  0.00     0.030 A 
HETATM   23  C12 UNL     1       6.349  12.407  23.053  1.00  0.00    -0.002 A 
HETATM   24  C9  UNL     1       8.709  13.916  23.162  1.00  0.00     0.002 A 
HETATM   25  C10 UNL     1       8.768  12.525  23.199  1.00  0.00     0.001 A 
HETATM   26  C11 UNL     1       7.598  11.759  23.142  1.00  0.00     0.014 A 
ENDBRANCH  16  17
ENDBRANCH  11  16
ENDBRANCH   8  11
ENDBRANCH   6   7
ENDBRANCH   5   6
ENDBRANCH   3   5
ENDBRANCH   2   3
ENDBRANCH   1   2
BRANCH   1  27
HETATM   27  C18 UNL     1       0.212   8.507  14.105  1.00  0.00     0.185 C 
HETATM   28  O6  UNL     1       0.605   7.337  14.175  1.00  0.00    -0.292 OA
BRANCH  27  29
HETATM   29  C19 UNL     1      -1.170   8.867  13.478  1.00  0.00     0.128 C 
HETATM   30  C20 UNL     1      -1.366   8.070  12.176  1.00  0.00     0.047 C 
HETATM   31  C21 UNL     1      -1.912   6.723  12.612  1.00  0.00     0.009 C 
HETATM   32  C22 UNL     1      -2.740   6.985  13.883  1.00  0.00     0.002 C 
HETATM   33  C23 UNL     1      -4.241   6.670  13.638  1.00  0.00    -0.002 C 
HETATM   34  C36 UNL     1      -2.437   8.457  14.317  1.00  0.00     0.001 C 
HETATM   35  C24 UNL     1      -4.483   5.162  13.618  1.00  0.00     0.010 C 
HETATM   36  C33 UNL     1      -5.140   7.361  14.690  1.00  0.00     0.031 C 
HETATM   37  C25 UNL     1      -5.898   4.845  13.153  1.00  0.00     0.035 C 
HETATM   38  C26 UNL     1      -6.956   5.805  13.643  1.00  0.00    -0.068 C 
HETATM   39  C27 UNL     1      -8.171   5.742  13.064  1.00  0.00     0.053 C 
HETATM   40  C31 UNL     1      -6.619   6.754  14.801  1.00  0.00    -0.014 C 
HETATM   41  C28 UNL     1      -9.326   6.523  13.560  1.00  0.00     0.149 C 
HETATM   42  O8  UNL     1     -10.405   6.438  12.979  1.00  0.00    -0.293 OA
HETATM   43  C29 UNL     1      -9.146   7.328  14.819  1.00  0.00     0.084 C 
HETATM   44  C30 UNL     1      -7.719   7.858  14.900  1.00  0.00     0.022 C 
HETATM   45  C32 UNL     1      -6.688   5.911  16.105  1.00  0.00     0.020 C 
HETATM   46  C34 UNL     1      -5.025   8.888  14.468  1.00  0.00     0.124 C 
HETATM   47  C35 UNL     1      -3.645   9.376  13.981  1.00  0.00     0.045 C 
HETATM   48  C37 UNL     1      -2.170   8.527  15.832  1.00  0.00     0.019 C 
BRANCH  29  49
HETATM   49  O7  UNL     1      -1.200  10.250  13.136  1.00  0.00    -0.381 OA
HETATM   50  H20 UNL     1      -0.653  10.367  12.337  1.00  0.00     0.211 HD
ENDBRANCH  29  49
BRANCH  46  51
HETATM   51  O9  UNL     1      -5.396   9.581  15.658  1.00  0.00    -0.395 OA
HETATM   52  H41 UNL     1      -4.627   9.626  16.250  1.00  0.00     0.210 HD
ENDBRANCH  46  51
ENDBRANCH  27  29
ENDBRANCH   1  27
TORSDOF 14
ENDMDL
MODEL 4
REMARK minimizedAffinity -8.6305809
REMARK CNNscore 0.478592217
REMARK CNNaffinity 6.62502623
REMARK  14 active torsions:
REMARK  status: ('A' for Active; 'I' for Inactive)
REMARK    1  A    between atoms: O1_2  and  C2_3 
REMARK    2  A    between atoms: C2_3  and  C3_5 
REMARK    3  A    between atoms: C3_5  and  C4_6 
REMARK    4  A    between atoms: C3_5  and  N2_16 
REMARK    5  A    between atoms: C4_6  and  C5_7 
REMARK       I    between atoms: N2_16  and  C13_17 
REMARK    6  A    between atoms: C13_17  and  C14_19 
REMARK    7  A    between atoms: C14_19  and  C15_20 
REMARK    8  A    between atoms: C15_20  and  C16_21 
REMARK    9  A    between atoms: C16_21  and  O5_23 
REMARK   10  A    between atoms: O5_23  and  C17_24 
REMARK   11  A    between atoms: C17_24  and  C18_25 
REMARK   12  A    between atoms: C18_25  and  C19_27 
REMARK   13  A    between atoms: C19_27  and  O7_28 
REMARK   14  A    between atoms: C34_44  and  O9_45 
ROOT
HETATM    1  C17 UNL     1       5.264   8.237  12.652  1.00  0.00     0.260 C 
ENDROOT
BRANCH   1   2
HETATM    2  O5  UNL     1       4.497   9.269  12.038  1.00  0.00    -0.314 OA
BRANCH   2   3
HETATM    3  C16 UNL     1       3.510   9.807  12.809  1.00  0.00     0.259 C 
HETATM    4  O4  UNL     1       3.399  10.992  13.091  1.00  0.00    -0.265 OA
BRANCH   3   5
HETATM    5  C15 UNL     1       2.529   8.749  13.235  1.00  0.00     0.120 C 
BRANCH   5   6
HETATM    6  C14 UNL     1       1.206   9.353  13.678  1.00  0.00     0.112 C 
BRANCH   6   7
HETATM    7  C13 UNL     1       0.037   8.497  13.243  1.00  0.00     0.218 C 
HETATM    8  N2  UNL     1       0.132   7.195  13.668  1.00  0.00    -0.347 N 
HETATM    9  H13 UNL     1       0.970   6.870  14.135  1.00  0.00     0.163 HD
HETATM   10  O3  UNL     1      -0.900   8.919  12.575  1.00  0.00    -0.274 OA
BRANCH   8  11
HETATM   11  C3  UNL     1      -0.868   6.171  13.304  1.00  0.00     0.188 C 
BRANCH  11  12
HETATM   12  C2  UNL     1      -2.253   6.561  13.863  1.00  0.00     0.281 C 
HETATM   13  O2  UNL     1      -2.485   6.922  15.007  1.00  0.00    -0.263 OA
BRANCH  12  14
HETATM   14  O1  UNL     1      -3.220   6.443  12.897  1.00  0.00    -0.325 OA
HETATM   15  C1  UNL     1      -4.508   6.907  13.308  1.00  0.00     0.213 C 
ENDBRANCH  12  14
ENDBRANCH  11  12
BRANCH  11  16
HETATM   16  C4  UNL     1      -0.937   6.007  11.778  1.00  0.00     0.076 C 
BRANCH  16  17
HETATM   17  C5  UNL     1       0.404   5.837  11.131  1.00  0.00    -0.028 A 
HETATM   18  C6  UNL     1       1.333   4.853  11.408  1.00  0.00     0.096 A 
HETATM   19  N1  UNL     1       2.425   5.054  10.610  1.00  0.00    -0.365 N 
HETATM   20  C7  UNL     1       2.232   6.149   9.803  1.00  0.00     0.042 A 
HETATM   21  H8  UNL     1       3.261   4.487  10.614  1.00  0.00     0.165 HD
HETATM   22  C8  UNL     1       3.071   6.717   8.838  1.00  0.00     0.030 A 
HETATM   23  C12 UNL     1       0.970   6.664  10.106  1.00  0.00    -0.002 A 
HETATM   24  C9  UNL     1       2.604   7.846   8.159  1.00  0.00     0.002 A 
HETATM   25  C10 UNL     1       1.350   8.384   8.437  1.00  0.00     0.001 A 
HETATM   26  C11 UNL     1       0.526   7.806   9.409  1.00  0.00     0.014 A 
ENDBRANCH  16  17
ENDBRANCH  11  16
ENDBRANCH   8  11
ENDBRANCH   6   7
ENDBRANCH   5   6
ENDBRANCH   3   5
ENDBRANCH   2   3
ENDBRANCH   1   2
BRANCH   1  27
HETATM   27  C18 UNL     1       6.771   8.494  12.692  1.00  0.00     0.185 C 
HETATM   28  O6  UNL     1       7.323   8.996  11.707  1.00  0.00    -0.292 OA
BRANCH  27  29
HETATM   29  C19 UNL     1       7.565   8.174  13.996  1.00  0.00     0.128 C 
HETATM   30  C20 UNL     1       9.031   7.865  13.643  1.00  0.00     0.047 C 
HETATM   31  C21 UNL     1       9.713   9.218  13.556  1.00  0.00     0.009 C 
HETATM   32  C22 UNL     1       8.987  10.132  14.560  1.00  0.00     0.002 C 
HETATM   33  C23 UNL     1       9.944  10.563  15.705  1.00  0.00    -0.002 C 
HETATM   34  C36 UNL     1       7.710   9.357  15.024  1.00  0.00     0.001 C 
HETATM   35  C24 UNL     1      10.922  11.632  15.221  1.00  0.00     0.010 C 
HETATM   36  C33 UNL     1       9.156  11.053  16.942  1.00  0.00     0.031 C 
HETATM   37  C25 UNL     1      12.002  11.890  16.262  1.00  0.00     0.035 C 
HETATM   38  C26 UNL     1      11.524  11.853  17.694  1.00  0.00    -0.068 C 
HETATM   39  C27 UNL     1      12.460  11.809  18.663  1.00  0.00     0.053 C 
HETATM   40  C31 UNL     1      10.018  11.922  17.977  1.00  0.00    -0.014 C 
HETATM   41  C28 UNL     1      12.120  11.921  20.099  1.00  0.00     0.149 C 
HETATM   42  O8  UNL     1      13.015  11.856  20.937  1.00  0.00    -0.293 OA
HETATM   43  C29 UNL     1      10.687  12.198  20.465  1.00  0.00     0.084 C 
HETATM   44  C30 UNL     1       9.752  11.528  19.464  1.00  0.00     0.022 C 
HETATM   45  C32 UNL     1       9.599  13.410  17.809  1.00  0.00     0.020 C 
HETATM   46  C34 UNL     1       8.389   9.837  17.517  1.00  0.00     0.124 C 
HETATM   47  C35 UNL     1       7.904   8.816  16.469  1.00  0.00     0.045 C 
HETATM   48  C37 UNL     1       6.481  10.286  15.008  1.00  0.00     0.019 C 
BRANCH  29  49
HETATM   49  O7  UNL     1       7.026   7.011  14.618  1.00  0.00    -0.381 OA
HETATM   50  H20 UNL     1       7.310   6.239  14.093  1.00  0.00     0.211 HD
ENDBRANCH  29  49
BRANCH  46  51
HETATM   51  O9  UNL     1       7.291  10.285  18.308  1.00  0.00    -0.395 OA
HETATM   52  H41 UNL     1       6.535  10.465  17.726  1.00  0.00     0.210 HD
ENDBRANCH  46  51
ENDBRANCH  27  29
ENDBRANCH   1  27
TORSDOF 14
ENDMDL
MODEL 5
REMARK minimizedAffinity -9.27365112
REMARK CNNscore 0.458390236
REMARK CNNaffinity 7.69289017
REMARK  14 active torsions:
REMARK  status: ('A' for Active; 'I' for Inactive)
REMARK    1  A    between atoms: O1_2  and  C2_3 
REMARK    2  A    between atoms: C2_3  and  C3_5 
REMARK    3  A    between atoms: C3_5  and  C4_6 
REMARK    4  A    between atoms: C3_5  and  N2_16 
REMARK    5  A    between atoms: C4_6  and  C5_7 
REMARK       I    between atoms: N2_16  and  C13_17 
REMARK    6  A    between atoms: C13_17  and  C14_19 
REMARK    7  A    between atoms: C14_19  and  C15_20 
REMARK    8  A    between atoms: C15_20  and  C16_21 
REMARK    9  A    between atoms: C16_21  and  O5_23 
REMARK   10  A    between atoms: O5_23  and  C17_24 
REMARK   11  A    between atoms: C17_24  and  C18_25 
REMARK   12  A    between atoms: C18_25  and  C19_27 
REMARK   13  A    between atoms: C19_27  and  O7_28 
REMARK   14  A    between atoms: C34_44  and  O9_45 
ROOT
HETATM    1  C17 UNL     1      -9.408   6.760  14.780  1.00  0.00     0.260 C 
ENDROOT
BRANCH   1   2
HETATM    2  O5  UNL     1      -9.795   6.727  13.409  1.00  0.00    -0.314 OA
BRANCH   2   3
HETATM    3  C16 UNL     1     -10.994   7.306  13.122  1.00  0.00     0.259 C 
HETATM    4  O4  UNL     1     -11.227   8.004  12.144  1.00  0.00    -0.265 OA
BRANCH   3   5
HETATM    5  C15 UNL     1     -12.028   6.932  14.149  1.00  0.00     0.120 C 
BRANCH   5   6
HETATM    6  C14 UNL     1     -13.374   6.630  13.510  1.00  0.00     0.112 C 
BRANCH   6   7
HETATM    7  C13 UNL     1     -14.277   7.843  13.530  1.00  0.00     0.218 C 
HETATM    8  N2  UNL     1     -14.111   8.659  12.438  1.00  0.00    -0.347 N 
HETATM    9  H13 UNL     1     -13.374   8.473  11.768  1.00  0.00     0.163 HD
HETATM   10  O3  UNL     1     -15.073   8.080  14.430  1.00  0.00    -0.274 OA
BRANCH   8  11
HETATM   11  C3  UNL     1     -14.846   9.930  12.283  1.00  0.00     0.188 C 
BRANCH  11  12
HETATM   12  C2  UNL     1     -16.220   9.672  11.628  1.00  0.00     0.281 C 
HETATM   13  O2  UNL     1     -16.403   9.260  10.493  1.00  0.00    -0.263 OA
BRANCH  12  14
HETATM   14  O1  UNL     1     -17.239   9.977  12.494  1.00  0.00    -0.325 OA
HETATM   15  C1  UNL     1     -18.197  10.895  11.961  1.00  0.00     0.213 C 
ENDBRANCH  12  14
ENDBRANCH  11  12
BRANCH  11  16
HETATM   16  C4  UNL     1     -15.028  10.614  13.647  1.00  0.00     0.076 C 
BRANCH  16  17
HETATM   17  C5  UNL     1     -14.088  11.759  13.876  1.00  0.00    -0.028 A 
HETATM   18  C6  UNL     1     -14.399  13.103  13.813  1.00  0.00     0.096 A 
HETATM   19  N1  UNL     1     -13.264  13.821  14.074  1.00  0.00    -0.365 N 
HETATM   20  C7  UNL     1     -12.210  12.974  14.318  1.00  0.00     0.042 A 
HETATM   21  H8  UNL     1     -13.202  14.828  14.082  1.00  0.00     0.165 HD
HETATM   22  C8  UNL     1     -10.875  13.262  14.628  1.00  0.00     0.030 A 
HETATM   23  C12 UNL     1     -12.695  11.670  14.200  1.00  0.00    -0.002 A 
HETATM   24  C9  UNL     1     -10.011  12.182  14.828  1.00  0.00     0.002 A 
HETATM   25  C10 UNL     1     -10.464  10.869  14.720  1.00  0.00     0.001 A 
HETATM   26  C11 UNL     1     -11.800  10.600  14.404  1.00  0.00     0.014 A 
ENDBRANCH  16  17
ENDBRANCH  11  16
ENDBRANCH   8  11
ENDBRANCH   6   7
ENDBRANCH   5   6
ENDBRANCH   3   5
ENDBRANCH   2   3
ENDBRANCH   1   2
BRANCH   1  27
HETATM   27  C18 UNL     1      -8.043   7.396  15.048  1.00  0.00     0.185 C 
HETATM   28  O6  UNL     1      -7.953   8.627  15.106  1.00  0.00    -0.292 OA
BRANCH  27  29
HETATM   29  C19 UNL     1      -6.810   6.476  15.303  1.00  0.00     0.128 C 
HETATM   30  C20 UNL     1      -7.291   5.059  15.662  1.00  0.00     0.047 C 
HETATM   31  C21 UNL     1      -7.532   4.371  14.330  1.00  0.00     0.009 C 
HETATM   32  C22 UNL     1      -6.519   4.978  13.342  1.00  0.00     0.002 C 
HETATM   33  C23 UNL     1      -5.508   3.902  12.861  1.00  0.00    -0.002 C 
HETATM   34  C36 UNL     1      -5.879   6.210  14.062  1.00  0.00     0.001 C 
HETATM   35  C24 UNL     1      -6.156   2.965  11.843  1.00  0.00     0.010 C 
HETATM   36  C33 UNL     1      -4.230   4.551  12.280  1.00  0.00     0.031 C 
HETATM   37  C25 UNL     1      -5.249   1.779  11.542  1.00  0.00     0.035 C 
HETATM   38  C26 UNL     1      -3.776   2.107  11.482  1.00  0.00    -0.068 C 
HETATM   39  C27 UNL     1      -2.907   1.077  11.484  1.00  0.00     0.053 C 
HETATM   40  C31 UNL     1      -3.346   3.575  11.366  1.00  0.00    -0.014 C 
HETATM   41  C28 UNL     1      -1.454   1.265  11.278  1.00  0.00     0.149 C 
HETATM   42  O8  UNL     1      -0.709   0.289  11.308  1.00  0.00    -0.293 OA
HETATM   43  C29 UNL     1      -0.961   2.649  10.950  1.00  0.00     0.084 C 
HETATM   44  C30 UNL     1      -1.817   3.691  11.662  1.00  0.00     0.022 C 
HETATM   45  C32 UNL     1      -3.564   3.989   9.883  1.00  0.00     0.020 C 
HETATM   46  C34 UNL     1      -3.504   5.270  13.442  1.00  0.00     0.124 C 
HETATM   47  C35 UNL     1      -4.430   5.875  14.517  1.00  0.00     0.045 C 
HETATM   48  C37 UNL     1      -5.828   7.421  13.112  1.00  0.00     0.019 C 
BRANCH  29  49
HETATM   49  O7  UNL     1      -6.064   6.963  16.415  1.00  0.00    -0.381 OA
HETATM   50  H20 UNL     1      -6.566   6.746  17.223  1.00  0.00     0.211 HD
ENDBRANCH  29  49
BRANCH  46  51
HETATM   51  O9  UNL     1      -2.635   6.275  12.926  1.00  0.00    -0.395 OA
HETATM   52  H41 UNL     1      -3.147   7.085  12.767  1.00  0.00     0.210 HD
ENDBRANCH  46  51
ENDBRANCH  27  29
ENDBRANCH   1  27
TORSDOF 14
ENDMDL
MODEL 6
REMARK minimizedAffinity -9.1957674
REMARK CNNscore 0.337683499
REMARK CNNaffinity 7.72526169
REMARK  14 active torsions:
REMARK  status: ('A' for Active; 'I' for Inactive)
REMARK    1  A    between atoms: O1_2  and  C2_3 
REMARK    2  A    between atoms: C2_3  and  C3_5 
REMARK    3  A    between atoms: C3_5  and  C4_6 
REMARK    4  A    between atoms: C3_5  and  N2_16 
REMARK    5  A    between atoms: C4_6  and  C5_7 
REMARK       I    between atoms: N2_16  and  C13_17 
REMARK    6  A    between atoms: C13_17  and  C14_19 
REMARK    7  A    between atoms: C14_19  and  C15_20 
REMARK    8  A    between atoms: C15_20  and  C16_21 
REMARK    9  A    between atoms: C16_21  and  O5_23 
REMARK   10  A    between atoms: O5_23  and  C17_24 
REMARK   11  A    between atoms: C17_24  and  C18_25 
REMARK   12  A    between atoms: C18_25  and  C19_27 
REMARK   13  A    between atoms: C19_27  and  O7_28 
REMARK   14  A    between atoms: C34_44  and  O9_45 
ROOT
HETATM    1  C17 UNL     1      -9.324   6.729  14.745  1.00  0.00     0.260 C 
ENDROOT
BRANCH   1   2
HETATM    2  O5  UNL     1      -9.672   6.582  13.371  1.00  0.00    -0.314 OA
BRANCH   2   3
HETATM    3  C16 UNL     1     -10.842   7.170  12.994  1.00  0.00     0.259 C 
HETATM    4  O4  UNL     1     -11.168   7.420  11.842  1.00  0.00    -0.265 OA
BRANCH   3   5
HETATM    5  C15 UNL     1     -11.718   7.431  14.189  1.00  0.00     0.120 C 
BRANCH   5   6
HETATM    6  C14 UNL     1     -12.259   8.851  14.192  1.00  0.00     0.112 C 
BRANCH   6   7
HETATM    7  C13 UNL     1     -13.771   8.864  14.220  1.00  0.00     0.218 C 
HETATM    8  N2  UNL     1     -14.338   8.277  13.115  1.00  0.00    -0.347 N 
HETATM    9  H13 UNL     1     -13.756   7.973  12.343  1.00  0.00     0.163 HD
HETATM   10  O3  UNL     1     -14.428   9.352  15.131  1.00  0.00    -0.274 OA
BRANCH   8  11
HETATM   11  C3  UNL     1     -15.799   8.234  12.906  1.00  0.00     0.188 C 
BRANCH  11  12
HETATM   12  C2  UNL     1     -16.213   9.275  11.844  1.00  0.00     0.281 C 
HETATM   13  O2  UNL     1     -16.150   9.123  10.633  1.00  0.00    -0.263 OA
BRANCH  12  14
HETATM   14  O1  UNL     1     -16.662  10.427  12.438  1.00  0.00    -0.325 OA
HETATM   15  C1  UNL     1     -15.807  11.554  12.237  1.00  0.00     0.213 C 
ENDBRANCH  12  14
ENDBRANCH  11  12
BRANCH  11  16
HETATM   16  C4  UNL     1     -16.236   6.827  12.469  1.00  0.00     0.076 C 
BRANCH  16  17
HETATM   17  C5  UNL     1     -16.505   5.899  13.615  1.00  0.00    -0.028 A 
HETATM   18  C6  UNL     1     -16.187   6.116  14.941  1.00  0.00     0.096 A 
HETATM   19  N1  UNL     1     -16.590   5.027  15.665  1.00  0.00    -0.365 N 
HETATM   20  C7  UNL     1     -17.179   4.098  14.841  1.00  0.00     0.042 A 
HETATM   21  H8  UNL     1     -16.470   4.914  16.661  1.00  0.00     0.165 HD
HETATM   22  C8  UNL     1     -17.735   2.850  15.143  1.00  0.00     0.030 A 
HETATM   23  C12 UNL     1     -17.141   4.616  13.546  1.00  0.00    -0.002 A 
HETATM   24  C9  UNL     1     -18.273   2.109  14.086  1.00  0.00     0.002 A 
HETATM   25  C10 UNL     1     -18.252   2.599  12.783  1.00  0.00     0.001 A 
HETATM   26  C11 UNL     1     -17.687   3.846  12.498  1.00  0.00     0.014 A 
ENDBRANCH  16  17
ENDBRANCH  11  16
ENDBRANCH   8  11
ENDBRANCH   6   7
ENDBRANCH   5   6
ENDBRANCH   3   5
ENDBRANCH   2   3
ENDBRANCH   1   2
BRANCH   1  27
HETATM   27  C18 UNL     1      -7.957   7.368  14.998  1.00  0.00     0.185 C 
HETATM   28  O6  UNL     1      -7.867   8.600  15.041  1.00  0.00    -0.292 OA
BRANCH  27  29
HETATM   29  C19 UNL     1      -6.722   6.451  15.256  1.00  0.00     0.128 C 
HETATM   30  C20 UNL     1      -7.202   5.035  15.622  1.00  0.00     0.047 C 
HETATM   31  C21 UNL     1      -7.443   4.341  14.294  1.00  0.00     0.009 C 
HETATM   32  C22 UNL     1      -6.432   4.944  13.302  1.00  0.00     0.002 C 
HETATM   33  C23 UNL     1      -5.420   3.867  12.825  1.00  0.00    -0.002 C 
HETATM   34  C36 UNL     1      -5.792   6.181  14.015  1.00  0.00     0.001 C 
HETATM   35  C24 UNL     1      -6.067   2.925  11.812  1.00  0.00     0.010 C 
HETATM   36  C33 UNL     1      -4.143   4.515  12.239  1.00  0.00     0.031 C 
HETATM   37  C25 UNL     1      -5.159   1.739  11.516  1.00  0.00     0.035 C 
HETATM   38  C26 UNL     1      -3.687   2.069  11.453  1.00  0.00    -0.068 C 
HETATM   39  C27 UNL     1      -2.817   1.039  11.459  1.00  0.00     0.053 C 
HETATM   40  C31 UNL     1      -3.259   3.536  11.329  1.00  0.00    -0.014 C 
HETATM   41  C28 UNL     1      -1.364   1.229  11.250  1.00  0.00     0.149 C 
HETATM   42  O8  UNL     1      -0.618   0.254  11.284  1.00  0.00    -0.293 OA
HETATM   43  C29 UNL     1      -0.873   2.612  10.916  1.00  0.00     0.084 C 
HETATM   44  C30 UNL     1      -1.730   3.656  11.623  1.00  0.00     0.022 C 
HETATM   45  C32 UNL     1      -3.479   3.943   9.844  1.00  0.00     0.020 C 
HETATM   46  C34 UNL     1      -3.417   5.241  13.398  1.00  0.00     0.124 C 
HETATM   47  C35 UNL     1      -4.343   5.849  14.470  1.00  0.00     0.045 C 
HETATM   48  C37 UNL     1      -5.744   7.387  13.059  1.00  0.00     0.019 C 
BRANCH  29  49
HETATM   49  O7  UNL     1      -5.976   6.945  16.364  1.00  0.00    -0.381 OA
HETATM   50  H20 UNL     1      -6.477   6.731  17.174  1.00  0.00     0.211 HD
ENDBRANCH  29  49
BRANCH  46  51
HETATM   51  O9  UNL     1      -2.550   6.245  12.875  1.00  0.00    -0.395 OA
HETATM   52  H41 UNL     1      -3.063   7.053  12.713  1.00  0.00     0.210 HD
ENDBRANCH  46  51
ENDBRANCH  27  29
ENDBRANCH   1  27
TORSDOF 14
ENDMDL
MODEL 7
REMARK minimizedAffinity -7.92162085
REMARK CNNscore 0.297781497
REMARK CNNaffinity 7.44618082
REMARK  14 active torsions:
REMARK  status: ('A' for Active; 'I' for Inactive)
REMARK    1  A    between atoms: O1_2  and  C2_3 
REMARK    2  A    between atoms: C2_3  and  C3_5 
REMARK    3  A    between atoms: C3_5  and  C4_6 
REMARK    4  A    between atoms: C3_5  and  N2_16 
REMARK    5  A    between atoms: C4_6  and  C5_7 
REMARK       I    between atoms: N2_16  and  C13_17 
REMARK    6  A    between atoms: C13_17  and  C14_19 
REMARK    7  A    between atoms: C14_19  and  C15_20 
REMARK    8  A    between atoms: C15_20  and  C16_21 
REMARK    9  A    between atoms: C16_21  and  O5_23 
REMARK   10  A    between atoms: O5_23  and  C17_24 
REMARK   11  A    between atoms: C17_24  and  C18_25 
REMARK   12  A    between atoms: C18_25  and  C19_27 
REMARK   13  A    between atoms: C19_27  and  O7_28 
REMARK   14  A    between atoms: C34_44  and  O9_45 
ROOT
HETATM    1  C17 UNL     1      -7.202   6.430  14.162  1.00  0.00     0.260 C 
ENDROOT
BRANCH   1   2
HETATM    2  O5  UNL     1      -7.978   5.555  13.348  1.00  0.00    -0.314 OA
BRANCH   2   3
HETATM    3  C16 UNL     1      -7.539   4.267  13.285  1.00  0.00     0.259 C 
HETATM    4  O4  UNL     1      -8.246   3.287  13.095  1.00  0.00    -0.265 OA
BRANCH   3   5
HETATM    5  C15 UNL     1      -6.043   4.204  13.432  1.00  0.00     0.120 C 
BRANCH   5   6
HETATM    6  C14 UNL     1      -5.360   3.894  12.109  1.00  0.00     0.112 C 
BRANCH   6   7
HETATM    7  C13 UNL     1      -3.897   3.565  12.310  1.00  0.00     0.218 C 
HETATM    8  N2  UNL     1      -3.139   4.656  12.657  1.00  0.00    -0.347 N 
HETATM    9  H13 UNL     1      -3.551   5.583  12.665  1.00  0.00     0.163 HD
HETATM   10  O3  UNL     1      -3.431   2.441  12.173  1.00  0.00    -0.274 OA
BRANCH   8  11
HETATM   11  C3  UNL     1      -1.677   4.576  12.841  1.00  0.00     0.188 C 
BRANCH  11  12
HETATM   12  C2  UNL     1      -0.965   4.667  11.475  1.00  0.00     0.281 C 
HETATM   13  O2  UNL     1      -0.482   3.729  10.857  1.00  0.00    -0.263 OA
BRANCH  12  14
HETATM   14  O1  UNL     1      -0.929   5.963  11.028  1.00  0.00    -0.325 OA
HETATM   15  C1  UNL     1       0.375   6.410  10.649  1.00  0.00     0.213 C 
ENDBRANCH  12  14
ENDBRANCH  11  12
BRANCH  11  16
HETATM   16  C4  UNL     1      -1.191   5.700  13.769  1.00  0.00     0.076 C 
BRANCH  16  17
HETATM   17  C5  UNL     1      -2.291   6.350  14.552  1.00  0.00    -0.028 A 
HETATM   18  C6  UNL     1      -3.222   5.713  15.348  1.00  0.00     0.096 A 
HETATM   19  N1  UNL     1      -4.057   6.659  15.878  1.00  0.00    -0.365 N 
HETATM   20  C7  UNL     1      -3.687   7.913  15.454  1.00  0.00     0.042 A 
HETATM   21  H8  UNL     1      -4.838   6.469  16.489  1.00  0.00     0.165 HD
HETATM   22  C8  UNL     1      -4.245   9.163  15.743  1.00  0.00     0.030 A 
HETATM   23  C12 UNL     1      -2.580   7.753  14.618  1.00  0.00    -0.002 A 
HETATM   24  C9  UNL     1      -3.650  10.286  15.162  1.00  0.00     0.002 A 
HETATM   25  C10 UNL     1      -2.544  10.161  14.326  1.00  0.00     0.001 A 
HETATM   26  C11 UNL     1      -2.002   8.903  14.043  1.00  0.00     0.014 A 
ENDBRANCH  16  17
ENDBRANCH  11  16
ENDBRANCH   8  11
ENDBRANCH   6   7
ENDBRANCH   5   6
ENDBRANCH   3   5
ENDBRANCH   2   3
ENDBRANCH   1   2
BRANCH   1  27
HETATM   27  C18 UNL     1      -7.970   7.621  14.738  1.00  0.00     0.185 C 
HETATM   28  O6  UNL     1      -7.471   8.750  14.669  1.00  0.00    -0.292 OA
BRANCH  27  29
HETATM   29  C19 UNL     1      -9.389   7.393  15.343  1.00  0.00     0.128 C 
HETATM   30  C20 UNL     1      -9.588   8.326  16.551  1.00  0.00     0.047 C 
HETATM   31  C21 UNL     1     -10.049   9.646  15.963  1.00  0.00     0.009 C 
HETATM   32  C22 UNL     1     -10.845   9.298  14.691  1.00  0.00     0.002 C 
HETATM   33  C23 UNL     1     -12.335   9.708  14.846  1.00  0.00    -0.002 C 
HETATM   34  C36 UNL     1     -10.604   7.777  14.419  1.00  0.00     0.001 C 
HETATM   35  C24 UNL     1     -12.499  11.220  14.706  1.00  0.00     0.010 C 
HETATM   36  C33 UNL     1     -13.232   8.958  13.833  1.00  0.00     0.031 C 
HETATM   37  C25 UNL     1     -13.911  11.649  15.082  1.00  0.00     0.035 C 
HETATM   38  C26 UNL     1     -15.000  10.697  14.647  1.00  0.00    -0.068 C 
HETATM   39  C27 UNL     1     -16.230  10.877  15.169  1.00  0.00     0.053 C 
HETATM   40  C31 UNL     1     -14.673   9.621  13.604  1.00  0.00    -0.014 C 
HETATM   41  C28 UNL     1     -17.406  10.106  14.708  1.00  0.00     0.149 C 
HETATM   42  O8  UNL     1     -18.498  10.301  15.235  1.00  0.00    -0.293 OA
HETATM   43  C29 UNL     1     -17.224   9.170  13.544  1.00  0.00     0.084 C 
HETATM   44  C30 UNL     1     -15.824   8.567  13.571  1.00  0.00     0.022 C 
HETATM   45  C32 UNL     1     -14.654  10.330  12.220  1.00  0.00     0.020 C 
HETATM   46  C34 UNL     1     -13.204   7.457  14.209  1.00  0.00     0.124 C 
HETATM   47  C35 UNL     1     -11.869   6.955  14.796  1.00  0.00     0.045 C 
HETATM   48  C37 UNL     1     -10.289   7.541  12.930  1.00  0.00     0.019 C 
BRANCH  29  49
HETATM   49  O7  UNL     1      -9.503   6.055  15.819  1.00  0.00    -0.381 OA
HETATM   50  H20 UNL     1      -8.990   5.993  16.647  1.00  0.00     0.211 HD
ENDBRANCH  29  49
BRANCH  46  51
HETATM   51  O9  UNL     1     -13.569   6.666  13.080  1.00  0.00    -0.395 OA
HETATM   52  H41 UNL     1     -12.784   6.524  12.526  1.00  0.00     0.210 HD
ENDBRANCH  46  51
ENDBRANCH  27  29
ENDBRANCH   1  27
TORSDOF 14
ENDMDL
MODEL 8
REMARK minimizedAffinity -8.38443947
REMARK CNNscore 0.274089336
REMARK CNNaffinity 6.98207474
REMARK  14 active torsions:
REMARK  status: ('A' for Active; 'I' for Inactive)
REMARK    1  A    between atoms: O1_2  and  C2_3 
REMARK    2  A    between atoms: C2_3  and  C3_5 
REMARK    3  A    between atoms: C3_5  and  C4_6 
REMARK    4  A    between atoms: C3_5  and  N2_16 
REMARK    5  A    between atoms: C4_6  and  C5_7 
REMARK       I    between atoms: N2_16  and  C13_17 
REMARK    6  A    between atoms: C13_17  and  C14_19 
REMARK    7  A    between atoms: C14_19  and  C15_20 
REMARK    8  A    between atoms: C15_20  and  C16_21 
REMARK    9  A    between atoms: C16_21  and  O5_23 
REMARK   10  A    between atoms: O5_23  and  C17_24 
REMARK   11  A    between atoms: C17_24  and  C18_25 
REMARK   12  A    between atoms: C18_25  and  C19_27 
REMARK   13  A    between atoms: C19_27  and  O7_28 
REMARK   14  A    between atoms: C34_44  and  O9_45 
ROOT
HETATM    1  C17 UNL     1      -6.431   6.108  15.288  1.00  0.00     0.260 C 
ENDROOT
BRANCH   1   2
HETATM    2  O5  UNL     1      -7.845   6.214  15.142  1.00  0.00    -0.314 OA
BRANCH   2   3
HETATM    3  C16 UNL     1      -8.339   5.862  13.922  1.00  0.00     0.259 C 
HETATM    4  O4  UNL     1      -7.816   5.072  13.148  1.00  0.00    -0.265 OA
BRANCH   3   5
HETATM    5  C15 UNL     1      -9.656   6.541  13.664  1.00  0.00     0.120 C 
BRANCH   5   6
HETATM    6  C14 UNL     1      -9.826   7.787  14.519  1.00  0.00     0.112 C 
BRANCH   6   7
HETATM    7  C13 UNL     1     -11.254   8.285  14.488  1.00  0.00     0.218 C 
HETATM    8  N2  UNL     1     -11.602   8.855  13.287  1.00  0.00    -0.347 N 
HETATM    9  H13 UNL     1     -10.904   8.993  12.566  1.00  0.00     0.163 HD
HETATM   10  O3  UNL     1     -12.024   8.195  15.436  1.00  0.00    -0.274 OA
BRANCH   8  11
HETATM   11  C3  UNL     1     -12.928   9.463  13.057  1.00  0.00     0.188 C 
BRANCH  11  12
HETATM   12  C2  UNL     1     -14.001   8.360  12.930  1.00  0.00     0.281 C 
HETATM   13  O2  UNL     1     -13.785   7.172  12.744  1.00  0.00    -0.263 OA
BRANCH  12  14
HETATM   14  O1  UNL     1     -15.261   8.890  13.045  1.00  0.00    -0.325 OA
HETATM   15  C1  UNL     1     -15.777   9.428  11.826  1.00  0.00     0.213 C 
ENDBRANCH  12  14
ENDBRANCH  11  12
BRANCH  11  16
HETATM   16  C4  UNL     1     -13.284  10.422  14.203  1.00  0.00     0.076 C 
BRANCH  16  17
HETATM   17  C5  UNL     1     -12.639  11.770  14.080  1.00  0.00    -0.028 A 
HETATM   18  C6  UNL     1     -13.124  12.852  13.372  1.00  0.00     0.096 A 
HETATM   19  N1  UNL     1     -12.237  13.885  13.505  1.00  0.00    -0.365 N 
HETATM   20  C7  UNL     1     -11.180  13.508  14.298  1.00  0.00     0.042 A 
HETATM   21  H8  UNL     1     -12.337  14.796  13.080  1.00  0.00     0.165 HD
HETATM   22  C8  UNL     1     -10.053  14.233  14.702  1.00  0.00     0.030 A 
HETATM   23  C12 UNL     1     -11.402  12.183  14.675  1.00  0.00    -0.002 A 
HETATM   24  C9  UNL     1      -9.126  13.583  15.522  1.00  0.00     0.002 A 
HETATM   25  C10 UNL     1      -9.320  12.262  15.918  1.00  0.00     0.001 A 
HETATM   26  C11 UNL     1     -10.449  11.550  15.500  1.00  0.00     0.014 A 
ENDBRANCH  16  17
ENDBRANCH  11  16
ENDBRANCH   8  11
ENDBRANCH   6   7
ENDBRANCH   5   6
ENDBRANCH   3   5
ENDBRANCH   2   3
ENDBRANCH   1   2
BRANCH   1  27
HETATM   27  C18 UNL     1      -5.647   7.354  14.871  1.00  0.00     0.185 C 
HETATM   28  O6  UNL     1      -6.254   8.309  14.373  1.00  0.00    -0.292 OA
BRANCH  27  29
HETATM   29  C19 UNL     1      -4.112   7.415  15.140  1.00  0.00     0.128 C 
HETATM   30  C20 UNL     1      -3.594   6.006  15.481  1.00  0.00     0.047 C 
HETATM   31  C21 UNL     1      -3.336   5.342  14.141  1.00  0.00     0.009 C 
HETATM   32  C22 UNL     1      -2.924   6.467  13.174  1.00  0.00     0.002 C 
HETATM   33  C23 UNL     1      -1.456   6.278  12.703  1.00  0.00    -0.002 C 
HETATM   34  C36 UNL     1      -3.211   7.816  13.913  1.00  0.00     0.001 C 
HETATM   35  C24 UNL     1      -1.359   5.159  11.668  1.00  0.00     0.010 C 
HETATM   36  C33 UNL     1      -0.870   7.597  12.148  1.00  0.00     0.031 C 
HETATM   37  C25 UNL     1       0.096   4.816  11.375  1.00  0.00     0.035 C 
HETATM   38  C26 UNL     1       1.031   6.001  11.342  1.00  0.00    -0.068 C 
HETATM   39  C27 UNL     1       2.356   5.749  11.351  1.00  0.00     0.053 C 
HETATM   40  C31 UNL     1       0.440   7.413  11.242  1.00  0.00    -0.014 C 
HETATM   41  C28 UNL     1       3.365   6.816  11.170  1.00  0.00     0.149 C 
HETATM   42  O8  UNL     1       4.559   6.528  11.207  1.00  0.00    -0.293 OA
HETATM   43  C29 UNL     1       2.877   8.206  10.861  1.00  0.00     0.084 C 
HETATM   44  C30 UNL     1       1.550   8.462  11.566  1.00  0.00     0.022 C 
HETATM   45  C32 UNL     1       0.023   7.620   9.759  1.00  0.00     0.020 C 
HETATM   46  C34 UNL     1      -0.771   8.595  13.327  1.00  0.00     0.124 C 
HETATM   47  C35 UNL     1      -1.880   8.462  14.390  1.00  0.00     0.045 C 
HETATM   48  C37 UNL     1      -3.928   8.802  12.972  1.00  0.00     0.019 C 
BRANCH  29  49
HETATM   49  O7  UNL     1      -3.851   8.245  16.268  1.00  0.00    -0.381 OA
HETATM   50  H20 UNL     1      -4.110   7.747  17.066  1.00  0.00     0.211 HD
ENDBRANCH  29  49
BRANCH  46  51
HETATM   51  O9  UNL     1      -0.726   9.931  12.832  1.00  0.00    -0.395 OA
HETATM   52  H41 UNL     1      -1.633  10.238  12.670  1.00  0.00     0.210 HD
ENDBRANCH  46  51
ENDBRANCH  27  29
ENDBRANCH   1  27
TORSDOF 14
ENDMDL
MODEL 9
REMARK minimizedAffinity -8.31157684
REMARK CNNscore 0.249599829
REMARK CNNaffinity 5.90140152
REMARK  14 active torsions:
REMARK  status: ('A' for Active; 'I' for Inactive)
REMARK    1  A    between atoms: O1_2  and  C2_3 
REMARK    2  A    between atoms: C2_3  and  C3_5 
REMARK    3  A    between atoms: C3_5  and  C4_6 
REMARK    4  A    between atoms: C3_5  and  N2_16 
REMARK    5  A    between atoms: C4_6  and  C5_7 
REMARK       I    between atoms: N2_16  and  C13_17 
REMARK    6  A    between atoms: C13_17  and  C14_19 
REMARK    7  A    between atoms: C14_19  and  C15_20 
REMARK    8  A    between atoms: C15_20  and  C16_21 
REMARK    9  A    between atoms: C16_21  and  O5_23 
REMARK   10  A    between atoms: O5_23  and  C17_24 
REMARK   11  A    between atoms: C17_24  and  C18_25 
REMARK   12  A    between atoms: C18_25  and  C19_27 
REMARK   13  A    between atoms: C19_27  and  O7_28 
REMARK   14  A    between atoms: C34_44  and  O9_45 
ROOT
HETATM    1  C17 UNL     1      -1.266  11.955  18.919  1.00  0.00     0.260 C 
ENDROOT
BRANCH   1   2
HETATM    2  O5  UNL     1      -1.920  11.007  18.081  1.00  0.00    -0.314 OA
BRANCH   2   3
HETATM    3  C16 UNL     1      -1.469  10.946  16.797  1.00  0.00     0.259 C 
HETATM    4  O4  UNL     1      -1.061  11.897  16.145  1.00  0.00    -0.265 OA
BRANCH   3   5
HETATM    5  C15 UNL     1      -1.488   9.529  16.291  1.00  0.00     0.120 C 
BRANCH   5   6
HETATM    6  C14 UNL     1      -0.480   9.316  15.174  1.00  0.00     0.112 C 
BRANCH   6   7
HETATM    7  C13 UNL     1      -1.153   8.817  13.914  1.00  0.00     0.218 C 
HETATM    8  N2  UNL     1      -0.795   7.534  13.581  1.00  0.00    -0.347 N 
HETATM    9  H13 UNL     1      -0.072   7.053  14.104  1.00  0.00     0.163 HD
HETATM   10  O3  UNL     1      -1.935   9.488  13.252  1.00  0.00    -0.274 OA
BRANCH   8  11
HETATM   11  C3  UNL     1      -1.284   6.870  12.356  1.00  0.00     0.188 C 
BRANCH  11  12
HETATM   12  C2  UNL     1      -0.173   6.851  11.284  1.00  0.00     0.281 C 
HETATM   13  O2  UNL     1      -0.105   7.591  10.314  1.00  0.00    -0.263 OA
BRANCH  12  14
HETATM   14  O1  UNL     1       0.748   5.872  11.552  1.00  0.00    -0.325 OA
HETATM   15  C1  UNL     1       1.976   6.364  12.094  1.00  0.00     0.213 C 
ENDBRANCH  12  14
ENDBRANCH  11  12
BRANCH  11  16
HETATM   16  C4  UNL     1      -1.744   5.438  12.669  1.00  0.00     0.076 C 
BRANCH  16  17
HETATM   17  C5  UNL     1      -3.224   5.313  12.870  1.00  0.00    -0.028 A 
HETATM   18  C6  UNL     1      -4.045   6.212  13.522  1.00  0.00     0.096 A 
HETATM   19  N1  UNL     1      -5.324   5.727  13.495  1.00  0.00    -0.365 N 
HETATM   20  C7  UNL     1      -5.364   4.526  12.827  1.00  0.00     0.042 A 
HETATM   21  H8  UNL     1      -6.126   6.178  13.910  1.00  0.00     0.165 HD
HETATM   22  C8  UNL     1      -6.447   3.682  12.557  1.00  0.00     0.030 A 
HETATM   23  C12 UNL     1      -4.060   4.238  12.422  1.00  0.00    -0.002 A 
HETATM   24  C9  UNL     1      -6.188   2.507  11.845  1.00  0.00     0.002 A 
HETATM   25  C10 UNL     1      -4.899   2.191  11.425  1.00  0.00     0.001 A 
HETATM   26  C11 UNL     1      -3.827   3.045  11.709  1.00  0.00     0.014 A 
ENDBRANCH  16  17
ENDBRANCH  11  16
ENDBRANCH   8  11
ENDBRANCH   6   7
ENDBRANCH   5   6
ENDBRANCH   3   5
ENDBRANCH   2   3
ENDBRANCH   1   2
BRANCH   1  27
HETATM   27  C18 UNL     1       0.092  11.505  19.461  1.00  0.00     0.185 C 
HETATM   28  O6  UNL     1       0.154  10.492  20.166  1.00  0.00    -0.292 OA
BRANCH  27  29
HETATM   29  C19 UNL     1       1.374  12.298  19.060  1.00  0.00     0.128 C 
HETATM   30  C20 UNL     1       1.205  13.778  19.448  1.00  0.00     0.047 C 
HETATM   31  C21 UNL     1       1.610  13.855  20.909  1.00  0.00     0.009 C 
HETATM   32  C22 UNL     1       2.686  12.774  21.116  1.00  0.00     0.002 C 
HETATM   33  C23 UNL     1       4.051  13.419  21.481  1.00  0.00    -0.002 C 
HETATM   34  C36 UNL     1       2.696  11.902  19.817  1.00  0.00     0.001 C 
HETATM   35  C24 UNL     1       4.053  13.901  22.931  1.00  0.00     0.010 C 
HETATM   36  C33 UNL     1       5.222  12.443  21.221  1.00  0.00     0.031 C 
HETATM   37  C25 UNL     1       5.294  14.733  23.225  1.00  0.00     0.035 C 
HETATM   38  C26 UNL     1       6.557  14.245  22.557  1.00  0.00    -0.068 C 
HETATM   39  C27 UNL     1       7.622  15.072  22.558  1.00  0.00     0.053 C 
HETATM   40  C31 UNL     1       6.587  12.829  21.969  1.00  0.00    -0.014 C 
HETATM   41  C28 UNL     1       8.953  14.648  22.071  1.00  0.00     0.149 C 
HETATM   42  O8  UNL     1       9.882  15.452  22.079  1.00  0.00    -0.293 OA
HETATM   43  C29 UNL     1       9.132  13.210  21.663  1.00  0.00     0.084 C 
HETATM   44  C30 UNL     1       7.841  12.677  21.051  1.00  0.00     0.022 C 
HETATM   45  C32 UNL     1       6.764  11.850  23.164  1.00  0.00     0.020 C 
HETATM   46  C34 UNL     1       5.303  12.210  19.693  1.00  0.00     0.124 C 
HETATM   47  C35 UNL     1       3.948  12.231  18.956  1.00  0.00     0.045 C 
HETATM   48  C37 UNL     1       2.725  10.404  20.176  1.00  0.00     0.019 C 
BRANCH  29  49
HETATM   49  O7  UNL     1       1.552  12.249  17.648  1.00  0.00    -0.381 OA
HETATM   50  H20 UNL     1       0.891  12.846  17.248  1.00  0.00     0.211 HD
ENDBRANCH  29  49
BRANCH  46  51
HETATM   51  O9  UNL     1       5.987  10.989  19.422  1.00  0.00    -0.395 OA
HETATM   52  H41 UNL     1       5.356  10.253  19.484  1.00  0.00     0.210 HD
ENDBRANCH  46  51
ENDBRANCH  27  29
ENDBRANCH   1  27
TORSDOF 14
ENDMDL
