MODEL 1
REMARK minimizedAffinity -8.5609436
REMARK CNNscore 0.676608086
REMARK CNNaffinity 7.4513793
REMARK  5 active torsions:
REMARK  status: ('A' for Active; 'I' for Inactive)
REMARK    1  A    between atoms: C2_2  and  C25_28 
REMARK    2  A    between atoms: C3_3  and  C4_4 
REMARK    3  A    between atoms: C4_4  and  C6_6 
REMARK    4  A    between atoms: C20_20  and  O1_21 
REMARK    5  A    between atoms: C25_28  and  C27_30 
ROOT
HETATM    1  C6  UNL     1      -2.609   5.894  12.321  1.00  0.00     0.001 C 
HETATM    2  C7  UNL     1      -3.124   4.460  11.967  1.00  0.00     0.006 C 
HETATM    3  C8  UNL     1      -4.531   4.318  12.570  1.00  0.00     0.009 C 
HETATM    4  C9  UNL     1      -4.847   5.730  13.037  1.00  0.00     0.036 C 
HETATM    5  C10 UNL     1      -3.488   6.285  13.557  1.00  0.00    -0.033 C 
HETATM    6  C11 UNL     1      -2.934   5.594  14.830  1.00  0.00     0.016 C 
HETATM    7  C12 UNL     1      -3.618   7.795  13.875  1.00  0.00     0.010 C 
HETATM    8  C13 UNL     1      -5.003   8.418  13.669  1.00  0.00     0.010 C 
HETATM    9  C14 UNL     1      -6.241   7.553  13.989  1.00  0.00     0.039 C 
HETATM   10  C15 UNL     1      -6.030   5.997  13.957  1.00  0.00     0.123 C 
HETATM   11  C16 UNL     1      -6.016   5.278  15.292  1.00  0.00     0.014 C 
HETATM   12  C17 UNL     1      -7.063   5.562  16.082  1.00  0.00     0.014 C 
HETATM   13  C18 UNL     1      -7.966   6.609  15.486  1.00  0.00     0.124 C 
HETATM   14  C19 UNL     1      -9.216   6.905  16.309  1.00  0.00     0.078 C 
HETATM   15  C20 UNL     1     -10.153   7.881  15.584  1.00  0.00     0.121 C 
HETATM   16  C21 UNL     1      -9.472   8.763  14.531  1.00  0.00     0.033 C 
HETATM   17  C22 UNL     1      -8.048   9.142  14.930  1.00  0.00     0.015 C 
HETATM   18  C23 UNL     1      -7.125   7.921  15.222  1.00  0.00     0.001 C 
HETATM   19  C24 UNL     1      -6.245   8.324  16.437  1.00  0.00     0.019 C 
HETATM   20  O2  UNL     1      -8.425   6.065  14.197  1.00  0.00    -0.223 OA
HETATM   21  O3  UNL     1      -7.272   5.506  13.390  1.00  0.00    -0.224 OA
ENDROOT
BRANCH   1  22
HETATM   22  C4  UNL     1      -1.060   5.935  12.435  1.00  0.00     0.009 C 
HETATM   23  C5  UNL     1      -0.522   6.251  13.833  1.00  0.00     0.014 C 
BRANCH  22  24
HETATM   24  C3  UNL     1      -0.402   6.826  11.394  1.00  0.00    -0.019 C 
HETATM   25  C2  UNL     1       0.761   6.689  10.721  1.00  0.00    -0.083 C 
HETATM   26  C1  UNL     1       1.711   5.529  10.852  1.00  0.00     0.043 C 
BRANCH  25  27
HETATM   27  C25 UNL     1       1.236   7.766   9.734  1.00  0.00     0.013 C 
HETATM   28  C26 UNL     1       0.047   8.240   8.881  1.00  0.00     0.015 C 
BRANCH  27  29
HETATM   29  C27 UNL     1       2.458   7.326   8.871  1.00  0.00    -0.015 C 
HETATM   30  C28 UNL     1       2.079   7.119   7.399  1.00  0.00     0.010 C 
HETATM   31  C29 UNL     1       3.601   8.348   8.947  1.00  0.00     0.010 C 
ENDBRANCH  27  29
ENDBRANCH  25  27
ENDBRANCH  22  24
ENDBRANCH   1  22
BRANCH  15  32
HETATM   32  O1  UNL     1     -10.762   8.730  16.561  1.00  0.00    -0.395 OA
HETATM   33  H28 UNL     1     -11.337   8.170  17.112  1.00  0.00     0.210 HD
ENDBRANCH  15  32
TORSDOF 5
ENDMDL
MODEL 2
REMARK minimizedAffinity -8.141325
REMARK CNNscore 0.410903692
REMARK CNNaffinity 6.60407114
REMARK  5 active torsions:
REMARK  status: ('A' for Active; 'I' for Inactive)
REMARK    1  A    between atoms: C2_2  and  C25_28 
REMARK    2  A    between atoms: C3_3  and  C4_4 
REMARK    3  A    between atoms: C4_4  and  C6_6 
REMARK    4  A    between atoms: C20_20  and  O1_21 
REMARK    5  A    between atoms: C25_28  and  C27_30 
ROOT
HETATM    1  C6  UNL     1      -2.990   6.563  12.623  1.00  0.00     0.001 C 
HETATM    2  C7  UNL     1      -3.031   7.721  13.674  1.00  0.00     0.006 C 
HETATM    3  C8  UNL     1      -1.617   8.323  13.745  1.00  0.00     0.009 C 
HETATM    4  C9  UNL     1      -0.898   7.646  12.588  1.00  0.00     0.036 C 
HETATM    5  C10 UNL     1      -1.468   6.197  12.566  1.00  0.00    -0.033 C 
HETATM    6  C11 UNL     1      -1.095   5.320  13.789  1.00  0.00     0.016 C 
HETATM    7  C12 UNL     1      -0.974   5.452  11.301  1.00  0.00     0.010 C 
HETATM    8  C13 UNL     1      -0.029   6.230  10.377  1.00  0.00     0.010 C 
HETATM    9  C14 UNL     1       0.981   7.200  11.026  1.00  0.00     0.039 C 
HETATM   10  C15 UNL     1       0.616   7.731  12.458  1.00  0.00     0.123 C 
HETATM   11  C16 UNL     1       1.419   7.181  13.621  1.00  0.00     0.014 C 
HETATM   12  C17 UNL     1       2.748   7.250  13.454  1.00  0.00     0.014 C 
HETATM   13  C18 UNL     1       3.132   7.781  12.098  1.00  0.00     0.124 C 
HETATM   14  C19 UNL     1       4.632   7.957  11.891  1.00  0.00     0.078 C 
HETATM   15  C20 UNL     1       4.944   8.622  10.543  1.00  0.00     0.121 C 
HETATM   16  C21 UNL     1       3.845   8.471   9.484  1.00  0.00     0.033 C 
HETATM   17  C22 UNL     1       3.126   7.129   9.586  1.00  0.00     0.015 C 
HETATM   18  C23 UNL     1       2.502   6.849  10.987  1.00  0.00     0.001 C 
HETATM   19  C24 UNL     1       2.732   5.339  11.270  1.00  0.00     0.019 C 
HETATM   20  O2  UNL     1       2.528   9.120  11.999  1.00  0.00    -0.223 OA
HETATM   21  O3  UNL     1       1.076   9.106  12.430  1.00  0.00    -0.224 OA
ENDROOT
BRANCH   1  22
HETATM   22  C4  UNL     1      -4.034   5.459  12.947  1.00  0.00     0.009 C 
HETATM   23  C5  UNL     1      -4.206   4.393  11.862  1.00  0.00     0.014 C 
BRANCH  22  24
HETATM   24  C3  UNL     1      -5.384   6.013  13.372  1.00  0.00    -0.019 C 
HETATM   25  C2  UNL     1      -6.541   5.385  13.676  1.00  0.00    -0.083 C 
HETATM   26  C1  UNL     1      -6.748   3.894  13.678  1.00  0.00     0.043 C 
BRANCH  25  27
HETATM   27  C25 UNL     1      -7.802   6.182  14.043  1.00  0.00     0.013 C 
HETATM   28  C26 UNL     1      -8.060   6.066  15.555  1.00  0.00     0.015 C 
BRANCH  27  29
HETATM   29  C27 UNL     1      -9.050   5.804  13.188  1.00  0.00    -0.015 C 
HETATM   30  C28 UNL     1     -10.228   6.754  13.437  1.00  0.00     0.010 C 
HETATM   31  C29 UNL     1      -8.727   5.801  11.687  1.00  0.00     0.010 C 
ENDBRANCH  27  29
ENDBRANCH  25  27
ENDBRANCH  22  24
ENDBRANCH   1  22
BRANCH  15  32
HETATM   32  O1  UNL     1       6.151   8.051  10.029  1.00  0.00    -0.395 OA
HETATM   33  H28 UNL     1       6.872   8.314  10.626  1.00  0.00     0.210 HD
ENDBRANCH  15  32
TORSDOF 5
ENDMDL
MODEL 3
REMARK minimizedAffinity -6.3427186
REMARK CNNscore 0.404743195
REMARK CNNaffinity 6.22427702
REMARK  5 active torsions:
REMARK  status: ('A' for Active; 'I' for Inactive)
REMARK    1  A    between atoms: C2_2  and  C25_28 
REMARK    2  A    between atoms: C3_3  and  C4_4 
REMARK    3  A    between atoms: C4_4  and  C6_6 
REMARK    4  A    between atoms: C20_20  and  O1_21 
REMARK    5  A    between atoms: C25_28  and  C27_30 
ROOT
HETATM    1  C6  UNL     1     -14.034   6.062  23.802  1.00  0.00     0.001 C 
HETATM    2  C7  UNL     1     -14.190   6.256  25.347  1.00  0.00     0.006 C 
HETATM    3  C8  UNL     1     -13.814   7.713  25.664  1.00  0.00     0.009 C 
HETATM    4  C9  UNL     1     -13.683   8.341  24.285  1.00  0.00     0.036 C 
HETATM    5  C10 UNL     1     -13.059   7.220  23.402  1.00  0.00    -0.033 C 
HETATM    6  C11 UNL     1     -11.603   6.826  23.763  1.00  0.00     0.016 C 
HETATM    7  C12 UNL     1     -13.060   7.655  21.915  1.00  0.00     0.010 C 
HETATM    8  C13 UNL     1     -13.610   9.054  21.614  1.00  0.00     0.010 C 
HETATM    9  C14 UNL     1     -13.342  10.173  22.642  1.00  0.00     0.039 C 
HETATM   10  C15 UNL     1     -13.041   9.710  24.113  1.00  0.00     0.123 C 
HETATM   11  C16 UNL     1     -11.611   9.844  24.597  1.00  0.00     0.014 C 
HETATM   12  C17 UNL     1     -11.075  11.059  24.403  1.00  0.00     0.014 C 
HETATM   13  C18 UNL     1     -12.001  11.985  23.659  1.00  0.00     0.124 C 
HETATM   14  C19 UNL     1     -11.470  13.404  23.486  1.00  0.00     0.078 C 
HETATM   15  C20 UNL     1     -12.514  14.324  22.837  1.00  0.00     0.121 C 
HETATM   16  C21 UNL     1     -13.587  13.600  22.016  1.00  0.00     0.033 C 
HETATM   17  C22 UNL     1     -13.036  12.365  21.309  1.00  0.00     0.015 C 
HETATM   18  C23 UNL     1     -12.367  11.333  22.265  1.00  0.00     0.001 C 
HETATM   19  C24 UNL     1     -11.121  10.789  21.513  1.00  0.00     0.019 C 
HETATM   20  O2  UNL     1     -13.222  12.083  24.476  1.00  0.00    -0.223 OA
HETATM   21  O3  UNL     1     -13.703  10.718  24.920  1.00  0.00    -0.224 OA
ENDROOT
BRANCH   1  22
HETATM   22  C4  UNL     1     -13.673   4.594  23.443  1.00  0.00     0.009 C 
HETATM   23  C5  UNL     1     -14.443   4.011  22.255  1.00  0.00     0.014 C 
BRANCH  22  24
HETATM   24  C3  UNL     1     -13.729   3.650  24.633  1.00  0.00    -0.019 C 
HETATM   25  C2  UNL     1     -12.867   2.697  25.046  1.00  0.00    -0.083 C 
HETATM   26  C1  UNL     1     -11.561   2.357  24.380  1.00  0.00     0.043 C 
BRANCH  25  27
HETATM   27  C25 UNL     1     -13.174   1.832  26.278  1.00  0.00     0.013 C 
HETATM   28  C26 UNL     1     -14.662   1.442  26.272  1.00  0.00     0.015 C 
BRANCH  27  29
HETATM   29  C27 UNL     1     -12.727   2.481  27.624  1.00  0.00    -0.015 C 
HETATM   30  C28 UNL     1     -13.878   2.559  28.636  1.00  0.00     0.010 C 
HETATM   31  C29 UNL     1     -11.560   1.714  28.261  1.00  0.00     0.010 C 
ENDBRANCH  27  29
ENDBRANCH  25  27
ENDBRANCH  22  24
ENDBRANCH   1  22
BRANCH  15  32
HETATM   32  O1  UNL     1     -11.831  15.245  21.982  1.00  0.00    -0.395 OA
HETATM   33  H28 UNL     1     -11.287  15.819  22.549  1.00  0.00     0.210 HD
ENDBRANCH  15  32
TORSDOF 5
ENDMDL
MODEL 4
REMARK minimizedAffinity -6.7806325
REMARK CNNscore 0.333640754
REMARK CNNaffinity 6.8615365
REMARK  5 active torsions:
REMARK  status: ('A' for Active; 'I' for Inactive)
REMARK    1  A    between atoms: C2_2  and  C25_28 
REMARK    2  A    between atoms: C3_3  and  C4_4 
REMARK    3  A    between atoms: C4_4  and  C6_6 
REMARK    4  A    between atoms: C20_20  and  O1_21 
REMARK    5  A    between atoms: C25_28  and  C27_30 
ROOT
HETATM    1  C6  UNL     1      -9.487   8.465  14.784  1.00  0.00     0.001 C 
HETATM    2  C7  UNL     1      -8.383   9.464  15.264  1.00  0.00     0.006 C 
HETATM    3  C8  UNL     1      -7.020   8.814  14.969  1.00  0.00     0.009 C 
HETATM    4  C9  UNL     1      -7.394   7.595  14.141  1.00  0.00     0.036 C 
HETATM    5  C10 UNL     1      -8.731   7.093  14.762  1.00  0.00    -0.033 C 
HETATM    6  C11 UNL     1      -8.622   6.534  16.205  1.00  0.00     0.016 C 
HETATM    7  C12 UNL     1      -9.337   5.973  13.882  1.00  0.00     0.010 C 
HETATM    8  C13 UNL     1      -8.526   5.560  12.648  1.00  0.00     0.010 C 
HETATM    9  C14 UNL     1      -6.986   5.572  12.758  1.00  0.00     0.039 C 
HETATM   10  C15 UNL     1      -6.374   6.498  13.869  1.00  0.00     0.123 C 
HETATM   11  C16 UNL     1      -5.786   5.815  15.088  1.00  0.00     0.014 C 
HETATM   12  C17 UNL     1      -4.912   4.837  14.802  1.00  0.00     0.014 C 
HETATM   13  C18 UNL     1      -4.790   4.587  13.322  1.00  0.00     0.124 C 
HETATM   14  C19 UNL     1      -3.746   3.541  12.943  1.00  0.00     0.078 C 
HETATM   15  C20 UNL     1      -3.583   3.431  11.421  1.00  0.00     0.121 C 
HETATM   16  C21 UNL     1      -4.790   3.913  10.608  1.00  0.00     0.033 C 
HETATM   17  C22 UNL     1      -6.113   3.617  11.311  1.00  0.00     0.015 C 
HETATM   18  C23 UNL     1      -6.215   4.214  12.747  1.00  0.00     0.001 C 
HETATM   19  C24 UNL     1      -6.949   3.150  13.607  1.00  0.00     0.019 C 
HETATM   20  O2  UNL     1      -4.352   5.861  12.729  1.00  0.00    -0.223 OA
HETATM   21  O3  UNL     1      -5.177   7.023  13.240  1.00  0.00    -0.224 OA
ENDROOT
BRANCH   1  22
HETATM   22  C4  UNL     1     -10.792   8.610  15.615  1.00  0.00     0.009 C 
HETATM   23  C5  UNL     1     -12.027   7.947  15.001  1.00  0.00     0.014 C 
BRANCH  22  24
HETATM   24  C3  UNL     1     -11.096  10.045  16.013  1.00  0.00    -0.019 C 
HETATM   25  C2  UNL     1     -11.297  10.602  17.227  1.00  0.00    -0.083 C 
HETATM   26  C1  UNL     1     -11.237   9.871  18.541  1.00  0.00     0.043 C 
BRANCH  25  27
HETATM   27  C25 UNL     1     -11.637  12.094  17.367  1.00  0.00     0.013 C 
HETATM   28  C26 UNL     1     -12.494  12.539  16.169  1.00  0.00     0.015 C 
BRANCH  27  29
HETATM   29  C27 UNL     1     -10.387  13.001  17.583  1.00  0.00    -0.015 C 
HETATM   30  C28 UNL     1      -9.773  12.813  18.976  1.00  0.00     0.010 C 
HETATM   31  C29 UNL     1      -9.306  12.733  16.526  1.00  0.00     0.010 C 
ENDBRANCH  27  29
ENDBRANCH  25  27
ENDBRANCH  22  24
ENDBRANCH   1  22
BRANCH  15  32
HETATM   32  O1  UNL     1      -3.333   2.061  11.094  1.00  0.00    -0.395 OA
HETATM   33  H28 UNL     1      -2.467   1.826  11.471  1.00  0.00     0.210 HD
ENDBRANCH  15  32
TORSDOF 5
ENDMDL
MODEL 5
REMARK minimizedAffinity -6.83044434
REMARK CNNscore 0.327017695
REMARK CNNaffinity 5.76494217
REMARK  5 active torsions:
REMARK  status: ('A' for Active; 'I' for Inactive)
REMARK    1  A    between atoms: C2_2  and  C25_28 
REMARK    2  A    between atoms: C3_3  and  C4_4 
REMARK    3  A    between atoms: C4_4  and  C6_6 
REMARK    4  A    between atoms: C20_20  and  O1_21 
REMARK    5  A    between atoms: C25_28  and  C27_30 
ROOT
HETATM    1  C6  UNL     1      -7.445  -9.135   3.972  1.00  0.00     0.001 C 
HETATM    2  C7  UNL     1      -8.998  -8.971   3.890  1.00  0.00     0.006 C 
HETATM    3  C8  UNL     1      -9.540  -9.034   5.327  1.00  0.00     0.009 C 
HETATM    4  C9  UNL     1      -8.276  -9.002   6.172  1.00  0.00     0.036 C 
HETATM    5  C10 UNL     1      -7.241  -9.833   5.359  1.00  0.00    -0.033 C 
HETATM    6  C11 UNL     1      -7.558 -11.347   5.233  1.00  0.00     0.016 C 
HETATM    7  C12 UNL     1      -5.839  -9.712   6.005  1.00  0.00     0.010 C 
HETATM    8  C13 UNL     1      -5.748  -8.872   7.285  1.00  0.00     0.010 C 
HETATM    9  C14 UNL     1      -6.940  -8.914   8.264  1.00  0.00     0.039 C 
HETATM   10  C15 UNL     1      -8.326  -9.335   7.656  1.00  0.00     0.123 C 
HETATM   11  C16 UNL     1      -8.846 -10.713   8.017  1.00  0.00     0.014 C 
HETATM   12  C17 UNL     1      -8.848 -10.974   9.333  1.00  0.00     0.014 C 
HETATM   13  C18 UNL     1      -8.242  -9.858  10.143  1.00  0.00     0.124 C 
HETATM   14  C19 UNL     1      -8.297 -10.072  11.652  1.00  0.00     0.078 C 
HETATM   15  C20 UNL     1      -7.782  -8.844  12.417  1.00  0.00     0.121 C 
HETATM   16  C21 UNL     1      -6.844  -7.934  11.615  1.00  0.00     0.033 C 
HETATM   17  C22 UNL     1      -5.963  -8.723  10.649  1.00  0.00     0.015 C 
HETATM   18  C23 UNL     1      -6.760  -9.614   9.649  1.00  0.00     0.001 C 
HETATM   19  C24 UNL     1      -5.951 -10.932   9.504  1.00  0.00     0.019 C 
HETATM   20  O2  UNL     1      -9.047  -8.660   9.852  1.00  0.00    -0.223 OA
HETATM   21  O3  UNL     1      -9.268  -8.489   8.364  1.00  0.00    -0.224 OA
ENDROOT
BRANCH   1  22
HETATM   22  C4  UNL     1      -6.869  -9.794   2.688  1.00  0.00     0.009 C 
HETATM   23  C5  UNL     1      -5.379  -9.543   2.445  1.00  0.00     0.014 C 
BRANCH  22  24
HETATM   24  C3  UNL     1      -7.675  -9.482   1.437  1.00  0.00    -0.019 C 
HETATM   25  C2  UNL     1      -7.448  -9.785   0.141  1.00  0.00    -0.083 C 
HETATM   26  C1  UNL     1      -6.274 -10.572  -0.376  1.00  0.00     0.043 C 
BRANCH  25  27
HETATM   27  C25 UNL     1      -8.408  -9.313  -0.962  1.00  0.00     0.013 C 
HETATM   28  C26 UNL     1      -8.732 -10.490  -1.898  1.00  0.00     0.015 C 
BRANCH  27  29
HETATM   29  C27 UNL     1      -7.902  -8.054  -1.731  1.00  0.00    -0.015 C 
HETATM   30  C28 UNL     1      -7.595  -8.362  -3.202  1.00  0.00     0.010 C 
HETATM   31  C29 UNL     1      -8.923  -6.908  -1.670  1.00  0.00     0.010 C 
ENDBRANCH  27  29
ENDBRANCH  25  27
ENDBRANCH  22  24
ENDBRANCH   1  22
BRANCH  15  32
HETATM   32  O1  UNL     1      -7.088  -9.299  13.582  1.00  0.00    -0.395 OA
HETATM   33  H28 UNL     1      -7.744  -9.719  14.165  1.00  0.00     0.210 HD
ENDBRANCH  15  32
TORSDOF 5
ENDMDL
MODEL 6
REMARK minimizedAffinity -6.60432673
REMARK CNNscore 0.30961436
REMARK CNNaffinity 6.19852591
REMARK  5 active torsions:
REMARK  status: ('A' for Active; 'I' for Inactive)
REMARK    1  A    between atoms: C2_2  and  C25_28 
REMARK    2  A    between atoms: C3_3  and  C4_4 
REMARK    3  A    between atoms: C4_4  and  C6_6 
REMARK    4  A    between atoms: C20_20  and  O1_21 
REMARK    5  A    between atoms: C25_28  and  C27_30 
ROOT
HETATM    1  C6  UNL     1     -13.773   6.024  23.762  1.00  0.00     0.001 C 
HETATM    2  C7  UNL     1     -13.883   5.733  22.228  1.00  0.00     0.006 C 
HETATM    3  C8  UNL     1     -13.374   6.983  21.490  1.00  0.00     0.009 C 
HETATM    4  C9  UNL     1     -12.792   7.830  22.610  1.00  0.00     0.036 C 
HETATM    5  C10 UNL     1     -13.744   7.589  23.819  1.00  0.00    -0.033 C 
HETATM    6  C11 UNL     1     -15.183   8.144  23.650  1.00  0.00     0.016 C 
HETATM    7  C12 UNL     1     -13.152   8.232  25.097  1.00  0.00     0.010 C 
HETATM    8  C13 UNL     1     -11.827   8.985  24.931  1.00  0.00     0.010 C 
HETATM    9  C14 UNL     1     -11.595   9.760  23.616  1.00  0.00     0.039 C 
HETATM   10  C15 UNL     1     -12.432   9.289  22.373  1.00  0.00     0.123 C 
HETATM   11  C16 UNL     1     -13.563  10.194  21.922  1.00  0.00     0.014 C 
HETATM   12  C17 UNL     1     -13.207  11.476  21.751  1.00  0.00     0.014 C 
HETATM   13  C18 UNL     1     -11.775  11.734  22.138  1.00  0.00     0.124 C 
HETATM   14  C19 UNL     1     -11.299  13.160  21.882  1.00  0.00     0.078 C 
HETATM   15  C20 UNL     1      -9.800  13.319  22.176  1.00  0.00     0.121 C 
HETATM   16  C21 UNL     1      -9.222  12.278  23.142  1.00  0.00     0.033 C 
HETATM   17  C22 UNL     1     -10.225  11.868  24.216  1.00  0.00     0.015 C 
HETATM   18  C23 UNL     1     -11.571  11.321  23.651  1.00  0.00     0.001 C 
HETATM   19  C24 UNL     1     -12.687  11.874  24.579  1.00  0.00     0.019 C 
HETATM   20  O2  UNL     1     -10.958  10.853  21.287  1.00  0.00    -0.223 OA
HETATM   21  O3  UNL     1     -11.501   9.439  21.271  1.00  0.00    -0.224 OA
ENDROOT
BRANCH   1  22
HETATM   22  C4  UNL     1     -14.847   5.245  24.571  1.00  0.00     0.009 C 
HETATM   23  C5  UNL     1     -16.095   6.053  24.935  1.00  0.00     0.014 C 
BRANCH  22  24
HETATM   24  C3  UNL     1     -14.286   4.543  25.797  1.00  0.00    -0.019 C 
HETATM   25  C2  UNL     1     -14.570   3.336  26.331  1.00  0.00    -0.083 C 
HETATM   26  C1  UNL     1     -15.559   2.348  25.774  1.00  0.00     0.043 C 
BRANCH  25  27
HETATM   27  C25 UNL     1     -13.886   2.861  27.623  1.00  0.00     0.013 C 
HETATM   28  C26 UNL     1     -13.361   4.079  28.402  1.00  0.00     0.015 C 
BRANCH  27  29
HETATM   29  C27 UNL     1     -12.789   1.779  27.385  1.00  0.00    -0.015 C 
HETATM   30  C28 UNL     1     -12.136   1.915  26.004  1.00  0.00     0.010 C 
HETATM   31  C29 UNL     1     -11.691   1.843  28.458  1.00  0.00     0.010 C 
ENDBRANCH  27  29
ENDBRANCH  25  27
ENDBRANCH  22  24
ENDBRANCH   1  22
BRANCH  15  32
HETATM   32  O1  UNL     1      -9.586  14.620  22.728  1.00  0.00    -0.395 OA
HETATM   33  H28 UNL     1      -9.789  15.268  22.032  1.00  0.00     0.210 HD
ENDBRANCH  15  32
TORSDOF 5
ENDMDL
MODEL 7
REMARK minimizedAffinity -9.17621422
REMARK CNNscore 0.30048269
REMARK CNNaffinity 6.56910753
REMARK  5 active torsions:
REMARK  status: ('A' for Active; 'I' for Inactive)
REMARK    1  A    between atoms: C2_2  and  C25_28 
REMARK    2  A    between atoms: C3_3  and  C4_4 
REMARK    3  A    between atoms: C4_4  and  C6_6 
REMARK    4  A    between atoms: C20_20  and  O1_21 
REMARK    5  A    between atoms: C25_28  and  C27_30 
ROOT
HETATM    1  C6  UNL     1      -4.112   6.986  13.739  1.00  0.00     0.001 C 
HETATM    2  C7  UNL     1      -4.491   8.426  13.258  1.00  0.00     0.006 C 
HETATM    3  C8  UNL     1      -3.249   9.020  12.573  1.00  0.00     0.009 C 
HETATM    4  C9  UNL     1      -2.303   7.833  12.490  1.00  0.00     0.036 C 
HETATM    5  C10 UNL     1      -2.549   7.043  13.810  1.00  0.00    -0.033 C 
HETATM    6  C11 UNL     1      -2.110   7.769  15.108  1.00  0.00     0.016 C 
HETATM    7  C12 UNL     1      -1.796   5.690  13.766  1.00  0.00     0.010 C 
HETATM    8  C13 UNL     1      -0.958   5.416  12.511  1.00  0.00     0.010 C 
HETATM    9  C14 UNL     1      -0.239   6.609  11.847  1.00  0.00     0.039 C 
HETATM   10  C15 UNL     1      -0.835   8.033  12.139  1.00  0.00     0.123 C 
HETATM   11  C16 UNL     1      -0.042   8.935  13.065  1.00  0.00     0.014 C 
HETATM   12  C17 UNL     1       1.252   9.062  12.734  1.00  0.00     0.014 C 
HETATM   13  C18 UNL     1       1.635   8.197  11.562  1.00  0.00     0.124 C 
HETATM   14  C19 UNL     1       3.077   8.370  11.096  1.00  0.00     0.078 C 
HETATM   15  C20 UNL     1       3.361   7.560   9.822  1.00  0.00     0.121 C 
HETATM   16  C21 UNL     1       2.419   6.373   9.593  1.00  0.00     0.033 C 
HETATM   17  C22 UNL     1       1.993   5.713  10.902  1.00  0.00     0.015 C 
HETATM   18  C23 UNL     1       1.320   6.689  11.914  1.00  0.00     0.001 C 
HETATM   19  C24 UNL     1       1.837   6.280  13.320  1.00  0.00     0.019 C 
HETATM   20  O2  UNL     1       0.773   8.620  10.446  1.00  0.00    -0.223 OA
HETATM   21  O3  UNL     1      -0.676   8.725  10.874  1.00  0.00    -0.224 OA
ENDROOT
BRANCH   1  22
HETATM   22  C4  UNL     1      -4.924   6.570  14.997  1.00  0.00     0.009 C 
HETATM   23  C5  UNL     1      -4.117   5.847  16.078  1.00  0.00     0.014 C 
BRANCH  22  24
HETATM   24  C3  UNL     1      -6.191   5.797  14.667  1.00  0.00    -0.019 C 
HETATM   25  C2  UNL     1      -6.414   4.799  13.786  1.00  0.00    -0.083 C 
HETATM   26  C1  UNL     1      -5.374   4.178  12.892  1.00  0.00     0.043 C 
BRANCH  25  27
HETATM   27  C25 UNL     1      -7.818   4.201  13.605  1.00  0.00     0.013 C 
HETATM   28  C26 UNL     1      -7.714   2.874  12.835  1.00  0.00     0.015 C 
BRANCH  27  29
HETATM   29  C27 UNL     1      -8.839   5.190  12.964  1.00  0.00    -0.015 C 
HETATM   30  C28 UNL     1      -9.041   6.445  13.822  1.00  0.00     0.010 C 
HETATM   31  C29 UNL     1      -8.400   5.621  11.556  1.00  0.00     0.010 C 
ENDBRANCH  27  29
ENDBRANCH  25  27
ENDBRANCH  22  24
ENDBRANCH   1  22
BRANCH  15  32
HETATM   32  O1  UNL     1       4.702   7.069   9.892  1.00  0.00    -0.395 OA
HETATM   33  H28 UNL     1       5.295   7.840   9.854  1.00  0.00     0.210 HD
ENDBRANCH  15  32
TORSDOF 5
ENDMDL
MODEL 8
REMARK minimizedAffinity -9.22993088
REMARK CNNscore 0.280034184
REMARK CNNaffinity 6.44771624
REMARK  5 active torsions:
REMARK  status: ('A' for Active; 'I' for Inactive)
REMARK    1  A    between atoms: C2_2  and  C25_28 
REMARK    2  A    between atoms: C3_3  and  C4_4 
REMARK    3  A    between atoms: C4_4  and  C6_6 
REMARK    4  A    between atoms: C20_20  and  O1_21 
REMARK    5  A    between atoms: C25_28  and  C27_30 
ROOT
HETATM    1  C6  UNL     1      -4.268   7.466  13.208  1.00  0.00     0.001 C 
HETATM    2  C7  UNL     1      -4.050   8.919  13.744  1.00  0.00     0.006 C 
HETATM    3  C8  UNL     1      -2.558   9.251  13.569  1.00  0.00     0.009 C 
HETATM    4  C9  UNL     1      -2.041   8.081  12.746  1.00  0.00     0.036 C 
HETATM    5  C10 UNL     1      -2.830   6.848  13.278  1.00  0.00    -0.033 C 
HETATM    6  C11 UNL     1      -2.509   6.437  14.739  1.00  0.00     0.016 C 
HETATM    7  C12 UNL     1      -2.553   5.615  12.384  1.00  0.00     0.010 C 
HETATM    8  C13 UNL     1      -1.569   5.819  11.225  1.00  0.00     0.010 C 
HETATM    9  C14 UNL     1      -0.375   6.771  11.450  1.00  0.00     0.039 C 
HETATM   10  C15 UNL     1      -0.546   7.849  12.579  1.00  0.00     0.123 C 
HETATM   11  C16 UNL     1       0.245   7.640  13.856  1.00  0.00     0.014 C 
HETATM   12  C17 UNL     1       1.553   7.413  13.662  1.00  0.00     0.014 C 
HETATM   13  C18 UNL     1       1.913   7.329  12.202  1.00  0.00     0.124 C 
HETATM   14  C19 UNL     1       3.403   7.154  11.930  1.00  0.00     0.078 C 
HETATM   15  C20 UNL     1       3.714   7.207  10.427  1.00  0.00     0.121 C 
HETATM   16  C21 UNL     1       2.530   6.867   9.514  1.00  0.00     0.033 C 
HETATM   17  C22 UNL     1       1.620   5.804  10.123  1.00  0.00     0.015 C 
HETATM   18  C23 UNL     1       1.066   6.175  11.531  1.00  0.00     0.001 C 
HETATM   19  C24 UNL     1       1.077   4.862  12.361  1.00  0.00     0.019 C 
HETATM   20  O2  UNL     1       1.520   8.618  11.611  1.00  0.00    -0.223 OA
HETATM   21  O3  UNL     1       0.119   9.015  12.029  1.00  0.00    -0.224 OA
ENDROOT
BRANCH   1  22
HETATM   22  C4  UNL     1      -5.445   6.758  13.934  1.00  0.00     0.009 C 
HETATM   23  C5  UNL     1      -5.310   6.676  15.457  1.00  0.00     0.014 C 
BRANCH  22  24
HETATM   24  C3  UNL     1      -5.780   5.394  13.352  1.00  0.00    -0.019 C 
HETATM   25  C2  UNL     1      -6.913   4.930  12.783  1.00  0.00    -0.083 C 
HETATM   26  C1  UNL     1      -8.170   5.730  12.568  1.00  0.00     0.043 C 
BRANCH  25  27
HETATM   27  C25 UNL     1      -7.020   3.475  12.302  1.00  0.00     0.013 C 
HETATM   28  C26 UNL     1      -7.384   2.568  13.490  1.00  0.00     0.015 C 
BRANCH  27  29
HETATM   29  C27 UNL     1      -5.758   2.979  11.530  1.00  0.00    -0.015 C 
HETATM   30  C28 UNL     1      -4.508   2.968  12.418  1.00  0.00     0.010 C 
HETATM   31  C29 UNL     1      -5.967   1.571  10.954  1.00  0.00     0.010 C 
ENDBRANCH  27  29
ENDBRANCH  25  27
ENDBRANCH  22  24
ENDBRANCH   1  22
BRANCH  15  32
HETATM   32  O1  UNL     1       4.776   6.289  10.155  1.00  0.00    -0.395 OA
HETATM   33  H28 UNL     1       5.572   6.625  10.602  1.00  0.00     0.210 HD
ENDBRANCH  15  32
TORSDOF 5
ENDMDL
MODEL 9
REMARK minimizedAffinity -7.81264448
REMARK CNNscore 0.266316056
REMARK CNNaffinity 6.71947432
REMARK  5 active torsions:
REMARK  status: ('A' for Active; 'I' for Inactive)
REMARK    1  A    between atoms: C2_2  and  C25_28 
REMARK    2  A    between atoms: C3_3  and  C4_4 
REMARK    3  A    between atoms: C4_4  and  C6_6 
REMARK    4  A    between atoms: C20_20  and  O1_21 
REMARK    5  A    between atoms: C25_28  and  C27_30 
ROOT
HETATM    1  C6  UNL     1      -7.356   7.062  14.098  1.00  0.00     0.001 C 
HETATM    2  C7  UNL     1      -7.672   5.872  13.132  1.00  0.00     0.006 C 
HETATM    3  C8  UNL     1      -9.182   5.911  12.840  1.00  0.00     0.009 C 
HETATM    4  C9  UNL     1      -9.616   7.231  13.457  1.00  0.00     0.036 C 
HETATM    5  C10 UNL     1      -8.750   7.367  14.743  1.00  0.00    -0.033 C 
HETATM    6  C11 UNL     1      -9.049   6.329  15.856  1.00  0.00     0.016 C 
HETATM    7  C12 UNL     1      -8.941   8.772  15.366  1.00  0.00     0.010 C 
HETATM    8  C13 UNL     1      -9.931   9.703  14.656  1.00  0.00     0.010 C 
HETATM    9  C14 UNL     1     -11.187   9.073  14.017  1.00  0.00     0.039 C 
HETATM   10  C15 UNL     1     -11.092   7.547  13.654  1.00  0.00     0.123 C 
HETATM   11  C16 UNL     1     -11.873   6.583  14.525  1.00  0.00     0.014 C 
HETATM   12  C17 UNL     1     -13.162   6.913  14.694  1.00  0.00     0.014 C 
HETATM   13  C18 UNL     1     -13.510   8.227  14.045  1.00  0.00     0.124 C 
HETATM   14  C19 UNL     1     -14.984   8.606  14.139  1.00  0.00     0.078 C 
HETATM   15  C20 UNL     1     -15.292   9.886  13.348  1.00  0.00     0.121 C 
HETATM   16  C21 UNL     1     -14.084  10.800  13.112  1.00  0.00     0.033 C 
HETATM   17  C22 UNL     1     -13.108  10.780  14.285  1.00  0.00     0.015 C 
HETATM   18  C23 UNL     1     -12.585   9.358  14.651  1.00  0.00     0.001 C 
HETATM   19  C24 UNL     1     -12.513   9.308  16.201  1.00  0.00     0.019 C 
HETATM   20  O2  UNL     1     -13.200   8.070  12.615  1.00  0.00    -0.223 OA
HETATM   21  O3  UNL     1     -11.831   7.456  12.409  1.00  0.00    -0.224 OA
ENDROOT
BRANCH   1  22
HETATM   22  C4  UNL     1      -6.138   6.750  15.011  1.00  0.00     0.009 C 
HETATM   23  C5  UNL     1      -5.648   7.926  15.859  1.00  0.00     0.014 C 
BRANCH  22  24
HETATM   24  C3  UNL     1      -4.979   6.104  14.269  1.00  0.00    -0.019 C 
HETATM   25  C2  UNL     1      -4.088   6.624  13.398  1.00  0.00    -0.083 C 
HETATM   26  C1  UNL     1      -4.036   8.063  12.960  1.00  0.00     0.043 C 
BRANCH  25  27
HETATM   27  C25 UNL     1      -3.016   5.741  12.739  1.00  0.00     0.013 C 
HETATM   28  C26 UNL     1      -3.299   4.264  13.065  1.00  0.00     0.015 C 
BRANCH  27  29
HETATM   29  C27 UNL     1      -1.557   6.166  13.088  1.00  0.00    -0.015 C 
HETATM   30  C28 UNL     1      -1.109   5.621  14.450  1.00  0.00     0.010 C 
HETATM   31  C29 UNL     1      -0.561   5.698  12.017  1.00  0.00     0.010 C 
ENDBRANCH  27  29
ENDBRANCH  25  27
ENDBRANCH  22  24
ENDBRANCH   1  22
BRANCH  15  32
HETATM   32  O1  UNL     1     -16.289  10.624  14.058  1.00  0.00    -0.395 OA
HETATM   33  H28 UNL     1     -17.107  10.098  14.040  1.00  0.00     0.210 HD
ENDBRANCH  15  32
TORSDOF 5
ENDMDL
