MODEL 1
REMARK minimizedAffinity -10.8856459
REMARK  7 active torsions:
REMARK  status: ('A' for Active; 'I' for Inactive)
REMARK    1  A    between atoms: C3_3  and  C4_4 
REMARK    2  A    between atoms: C4_4  and  O1_5 
REMARK    3  A    between atoms: C6_9  and  C7_10 
REMARK    4  A    between atoms: C7_10  and  C9_12 
REMARK    5  A    between atoms: C9_12  and  O4_13 
REMARK    6  A    between atoms: C10_14  and  O5_15 
REMARK    7  A    between atoms: C17_22  and  O6_23 
ROOT
HETATM    1  C9  UNL     1       1.076   6.712  13.386  1.00  0.00     0.097 C 
HETATM    2  C10 UNL     1       0.195   7.878  13.996  1.00  0.00     0.154 C 
HETATM    3  C11 UNL     1      -1.281   7.476  13.828  1.00  0.00     0.040 C 
HETATM    4  C12 UNL     1      -1.237   6.054  13.293  1.00  0.00     0.004 C 
HETATM    5  C13 UNL     1      -2.501   5.520  12.598  1.00  0.00    -0.001 C 
HETATM    6  C14 UNL     1      -3.712   5.617  13.531  1.00  0.00     0.033 C 
HETATM    7  C15 UNL     1      -4.908   4.897  12.999  1.00  0.00    -0.019 C 
HETATM    8  C16 UNL     1      -4.877   3.959  12.032  1.00  0.00    -0.035 C 
HETATM    9  C17 UNL     1      -6.133   3.273  11.511  1.00  0.00     0.171 C 
HETATM   10  C18 UNL     1      -5.988   1.790  11.506  1.00  0.00     0.013 C 
HETATM   11  C19 UNL     1      -4.814   1.150  11.555  1.00  0.00     0.050 C 
HETATM   12  C20 UNL     1      -3.532   1.904  11.565  1.00  0.00     0.162 C 
HETATM   13  O7  UNL     1      -2.497   1.240  11.622  1.00  0.00    -0.292 OA
HETATM   14  C21 UNL     1      -3.552   3.454  11.416  1.00  0.00     0.051 C 
HETATM   15  C22 UNL     1      -3.527   3.781   9.908  1.00  0.00     0.029 C 
HETATM   16  C23 UNL     1      -2.283   4.043  12.162  1.00  0.00     0.011 C 
HETATM   17  C24 UNL     1      -0.950   3.889  11.381  1.00  0.00     0.007 C 
HETATM   18  C25 UNL     1       0.261   4.522  12.087  1.00  0.00     0.013 C 
HETATM   19  C26 UNL     1       0.039   6.018  12.408  1.00  0.00    -0.006 C 
HETATM   20  C27 UNL     1      -0.124   6.835  11.097  1.00  0.00     0.019 C 
ENDROOT
BRANCH   1  21
HETATM   21  C7  UNL     1       2.466   7.183  12.806  1.00  0.00     0.049 C 
HETATM   22  C8  UNL     1       2.976   8.462  13.493  1.00  0.00     0.016 C 
BRANCH  21  23
HETATM   23  C6  UNL     1       2.427   7.453  11.255  1.00  0.00     0.143 C 
HETATM   24  O3  UNL     1       2.909   6.326  10.496  1.00  0.00    -0.311 OA
HETATM   25  C5  UNL     1       4.244   6.145  10.297  1.00  0.00     0.292 C 
HETATM   26  C3  UNL     1       5.155   7.275  10.629  1.00  0.00     0.042 C 
HETATM   27  O2  UNL     1       4.663   5.062   9.897  1.00  0.00    -0.260 OA
HETATM   28  C2  UNL     1       4.641   8.504  10.846  1.00  0.00    -0.067 C 
HETATM   29  C1  UNL     1       5.444   9.733  11.165  1.00  0.00     0.044 C 
HETATM   30  C28 UNL     1       3.157   8.705  10.757  1.00  0.00     0.067 C 
BRANCH  26  31
HETATM   31  C4  UNL     1       6.615   6.932  10.657  1.00  0.00     0.209 C 
BRANCH  31  32
HETATM   32  O1  UNL     1       6.771   5.526  10.821  1.00  0.00    -0.396 OA
HETATM   33  H6  UNL     1       7.689   5.380  11.105  1.00  0.00     0.209 HD
ENDBRANCH  31  32
ENDBRANCH  26  31
ENDBRANCH  21  23
ENDBRANCH   1  21
BRANCH   1  34
HETATM   34  O4  UNL     1       1.357   5.767  14.444  1.00  0.00    -0.386 OA
HETATM   35  H12 UNL     1       1.642   6.270  15.228  1.00  0.00     0.210 HD
ENDBRANCH   1  34
BRANCH   2  36
HETATM   36  O5  UNL     1       0.382   9.122  13.331  1.00  0.00    -0.392 OA
HETATM   37  H14 UNL     1       0.192   9.821  13.990  1.00  0.00     0.210 HD
ENDBRANCH   2  36
BRANCH   9  38
HETATM   38  O6  UNL     1      -7.266   3.565  12.314  1.00  0.00    -0.387 OA
HETATM   39  H23 UNL     1      -7.476   4.502  12.152  1.00  0.00     0.210 HD
ENDBRANCH   9  38
TORSDOF 7
ENDMDL
MODEL 2
REMARK minimizedAffinity -10.6667242
REMARK  7 active torsions:
REMARK  status: ('A' for Active; 'I' for Inactive)
REMARK    1  A    between atoms: C3_3  and  C4_4 
REMARK    2  A    between atoms: C4_4  and  O1_5 
REMARK    3  A    between atoms: C6_9  and  C7_10 
REMARK    4  A    between atoms: C7_10  and  C9_12 
REMARK    5  A    between atoms: C9_12  and  O4_13 
REMARK    6  A    between atoms: C10_14  and  O5_15 
REMARK    7  A    between atoms: C17_22  and  O6_23 
ROOT
HETATM    1  C9  UNL     1       0.174   6.686  11.673  1.00  0.00     0.097 C 
HETATM    2  C10 UNL     1       0.083   5.262  10.985  1.00  0.00     0.154 C 
HETATM    3  C11 UNL     1      -1.297   4.673  11.326  1.00  0.00     0.040 C 
HETATM    4  C12 UNL     1      -2.031   5.796  12.043  1.00  0.00     0.004 C 
HETATM    5  C13 UNL     1      -3.245   5.411  12.905  1.00  0.00    -0.001 C 
HETATM    6  C14 UNL     1      -4.281   4.651  12.070  1.00  0.00     0.033 C 
HETATM    7  C15 UNL     1      -5.576   4.464  12.790  1.00  0.00    -0.019 C 
HETATM    8  C16 UNL     1      -5.969   5.170  13.869  1.00  0.00    -0.035 C 
HETATM    9  C17 UNL     1      -7.293   4.920  14.578  1.00  0.00     0.171 C 
HETATM   10  C18 UNL     1      -8.061   6.183  14.771  1.00  0.00     0.013 C 
HETATM   11  C19 UNL     1      -7.522   7.406  14.712  1.00  0.00     0.050 C 
HETATM   12  C20 UNL     1      -6.061   7.588  14.495  1.00  0.00     0.162 C 
HETATM   13  O7  UNL     1      -5.648   8.747  14.444  1.00  0.00    -0.292 OA
HETATM   14  C21 UNL     1      -5.132   6.340  14.435  1.00  0.00     0.051 C 
HETATM   15  C22 UNL     1      -4.697   6.010  15.879  1.00  0.00     0.029 C 
HETATM   16  C23 UNL     1      -3.889   6.688  13.515  1.00  0.00     0.011 C 
HETATM   17  C24 UNL     1      -2.813   7.575  14.198  1.00  0.00     0.007 C 
HETATM   18  C25 UNL     1      -1.583   7.851  13.316  1.00  0.00     0.013 C 
HETATM   19  C26 UNL     1      -0.914   6.549  12.816  1.00  0.00    -0.006 C 
HETATM   20  C27 UNL     1      -0.364   5.728  14.014  1.00  0.00     0.019 C 
ENDROOT
BRANCH   1  21
HETATM   21  C7  UNL     1       1.638   7.125  12.067  1.00  0.00     0.049 C 
HETATM   22  C8  UNL     1       1.654   8.038  13.306  1.00  0.00     0.016 C 
BRANCH  21  23
HETATM   23  C6  UNL     1       2.389   7.877  10.906  1.00  0.00     0.143 C 
HETATM   24  O3  UNL     1       2.069   7.331   9.610  1.00  0.00    -0.311 OA
HETATM   25  C5  UNL     1       2.721   6.231   9.142  1.00  0.00     0.292 C 
HETATM   26  C3  UNL     1       3.948   5.792   9.862  1.00  0.00     0.042 C 
HETATM   27  O2  UNL     1       2.269   5.613   8.181  1.00  0.00    -0.260 OA
HETATM   28  C2  UNL     1       4.527   6.619  10.758  1.00  0.00    -0.067 C 
HETATM   29  C1  UNL     1       5.776   6.314  11.536  1.00  0.00     0.044 C 
HETATM   30  C28 UNL     1       3.915   7.964  11.018  1.00  0.00     0.067 C 
BRANCH  26  31
HETATM   31  C4  UNL     1       4.461   4.435   9.482  1.00  0.00     0.209 C 
BRANCH  31  32
HETATM   32  O1  UNL     1       3.486   3.449   9.807  1.00  0.00    -0.396 OA
HETATM   33  H6  UNL     1       3.946   2.593   9.806  1.00  0.00     0.209 HD
ENDBRANCH  31  32
ENDBRANCH  26  31
ENDBRANCH  21  23
ENDBRANCH   1  21
BRANCH   1  34
HETATM   34  O4  UNL     1      -0.322   7.666  10.731  1.00  0.00    -0.386 OA
HETATM   35  H12 UNL     1       0.087   7.486   9.866  1.00  0.00     0.210 HD
ENDBRANCH   1  34
BRANCH   2  36
HETATM   36  O5  UNL     1       1.069   4.352  11.459  1.00  0.00    -0.392 OA
HETATM   37  H14 UNL     1       1.238   3.721  10.730  1.00  0.00     0.210 HD
ENDBRANCH   2  36
BRANCH   9  38
HETATM   38  O6  UNL     1      -8.131   4.045  13.839  1.00  0.00    -0.387 OA
HETATM   39  H23 UNL     1      -7.715   3.167  13.891  1.00  0.00     0.210 HD
ENDBRANCH   9  38
TORSDOF 7
ENDMDL
MODEL 3
REMARK minimizedAffinity -10.1187334
REMARK  7 active torsions:
REMARK  status: ('A' for Active; 'I' for Inactive)
REMARK    1  A    between atoms: C3_3  and  C4_4 
REMARK    2  A    between atoms: C4_4  and  O1_5 
REMARK    3  A    between atoms: C6_9  and  C7_10 
REMARK    4  A    between atoms: C7_10  and  C9_12 
REMARK    5  A    between atoms: C9_12  and  O4_13 
REMARK    6  A    between atoms: C10_14  and  O5_15 
REMARK    7  A    between atoms: C17_22  and  O6_23 
ROOT
HETATM    1  C9  UNL     1       1.645   7.547  11.542  1.00  0.00     0.097 C 
HETATM    2  C10 UNL     1       1.942   6.145  10.866  1.00  0.00     0.154 C 
HETATM    3  C11 UNL     1       0.672   5.287  11.006  1.00  0.00     0.040 C 
HETATM    4  C12 UNL     1      -0.369   6.229  11.592  1.00  0.00     0.004 C 
HETATM    5  C13 UNL     1      -1.595   5.594  12.269  1.00  0.00    -0.001 C 
HETATM    6  C14 UNL     1      -2.323   4.658  11.300  1.00  0.00     0.033 C 
HETATM    7  C15 UNL     1      -3.646   4.204  11.822  1.00  0.00    -0.019 C 
HETATM    8  C16 UNL     1      -4.327   4.798  12.822  1.00  0.00    -0.035 C 
HETATM    9  C17 UNL     1      -5.664   4.277  13.331  1.00  0.00     0.171 C 
HETATM   10  C18 UNL     1      -6.689   5.358  13.392  1.00  0.00     0.013 C 
HETATM   11  C19 UNL     1      -6.402   6.665  13.399  1.00  0.00     0.050 C 
HETATM   12  C20 UNL     1      -4.992   7.138  13.398  1.00  0.00     0.162 C 
HETATM   13  O7  UNL     1      -4.816   8.357  13.394  1.00  0.00    -0.292 OA
HETATM   14  C21 UNL     1      -3.834   6.102  13.492  1.00  0.00     0.051 C 
HETATM   15  C22 UNL     1      -3.559   5.839  14.988  1.00  0.00     0.029 C 
HETATM   16  C23 UNL     1      -2.563   6.706  12.762  1.00  0.00     0.011 C 
HETATM   17  C24 UNL     1      -1.800   7.778  13.586  1.00  0.00     0.007 C 
HETATM   18  C25 UNL     1      -0.533   8.309  12.893  1.00  0.00     0.013 C 
HETATM   19  C26 UNL     1       0.449   7.176  12.513  1.00  0.00    -0.006 C 
HETATM   20  C27 UNL     1       0.969   6.460  13.789  1.00  0.00     0.019 C 
ENDROOT
BRANCH   1  21
HETATM   21  C7  UNL     1       2.917   8.262  12.144  1.00  0.00     0.049 C 
HETATM   22  C8  UNL     1       2.564   9.599  12.817  1.00  0.00     0.016 C 
BRANCH  21  23
HETATM   23  C6  UNL     1       4.031   8.544  11.067  1.00  0.00     0.143 C 
HETATM   24  O3  UNL     1       4.796   7.363  10.755  1.00  0.00    -0.311 OA
HETATM   25  C5  UNL     1       5.840   6.985  11.544  1.00  0.00     0.292 C 
HETATM   26  C3  UNL     1       6.341   7.964  12.548  1.00  0.00     0.042 C 
HETATM   27  O2  UNL     1       6.308   5.854  11.442  1.00  0.00    -0.260 OA
HETATM   28  C2  UNL     1       5.954   9.255  12.472  1.00  0.00    -0.067 C 
HETATM   29  C1  UNL     1       6.399  10.348  13.401  1.00  0.00     0.044 C 
HETATM   30  C28 UNL     1       5.016   9.676  11.379  1.00  0.00     0.067 C 
BRANCH  26  31
HETATM   31  C4  UNL     1       7.292   7.407  13.565  1.00  0.00     0.209 C 
BRANCH  31  32
HETATM   32  O1  UNL     1       6.594   6.518  14.433  1.00  0.00    -0.396 OA
HETATM   33  H6  UNL     1       7.155   6.399  15.217  1.00  0.00     0.209 HD
ENDBRANCH  31  32
ENDBRANCH  26  31
ENDBRANCH  21  23
ENDBRANCH   1  21
BRANCH   1  34
HETATM   34  O4  UNL     1       1.108   8.425  10.526  1.00  0.00    -0.386 OA
HETATM   35  H12 UNL     1       1.668   8.345   9.733  1.00  0.00     0.210 HD
ENDBRANCH   1  34
BRANCH   2  36
HETATM   36  O5  UNL     1       3.010   5.442  11.493  1.00  0.00    -0.392 OA
HETATM   37  H14 UNL     1       3.407   4.870  10.805  1.00  0.00     0.210 HD
ENDBRANCH   2  36
BRANCH   9  38
HETATM   38  O6  UNL     1      -6.193   3.266  12.487  1.00  0.00    -0.387 OA
HETATM   39  H23 UNL     1      -5.622   2.488  12.610  1.00  0.00     0.210 HD
ENDBRANCH   9  38
TORSDOF 7
ENDMDL
MODEL 4
REMARK minimizedAffinity -10.0703087
REMARK  7 active torsions:
REMARK  status: ('A' for Active; 'I' for Inactive)
REMARK    1  A    between atoms: C3_3  and  C4_4 
REMARK    2  A    between atoms: C4_4  and  O1_5 
REMARK    3  A    between atoms: C6_9  and  C7_10 
REMARK    4  A    between atoms: C7_10  and  C9_12 
REMARK    5  A    between atoms: C9_12  and  O4_13 
REMARK    6  A    between atoms: C10_14  and  O5_15 
REMARK    7  A    between atoms: C17_22  and  O6_23 
ROOT
HETATM    1  C9  UNL     1      -3.068   8.203  14.473  1.00  0.00     0.097 C 
HETATM    2  C10 UNL     1      -2.403   8.101  15.907  1.00  0.00     0.154 C 
HETATM    3  C11 UNL     1      -0.891   7.903  15.701  1.00  0.00     0.040 C 
HETATM    4  C12 UNL     1      -0.681   8.057  14.202  1.00  0.00     0.004 C 
HETATM    5  C13 UNL     1       0.615   7.482  13.607  1.00  0.00    -0.001 C 
HETATM    6  C14 UNL     1       1.841   8.082  14.302  1.00  0.00     0.033 C 
HETATM    7  C15 UNL     1       3.120   7.744  13.608  1.00  0.00    -0.019 C 
HETATM    8  C16 UNL     1       3.216   7.301  12.339  1.00  0.00    -0.035 C 
HETATM    9  C17 UNL     1       4.547   6.948  11.689  1.00  0.00     0.171 C 
HETATM   10  C18 UNL     1       4.706   7.614  10.365  1.00  0.00     0.013 C 
HETATM   11  C19 UNL     1       3.693   8.115   9.650  1.00  0.00     0.050 C 
HETATM   12  C20 UNL     1       2.288   7.989  10.122  1.00  0.00     0.162 C 
HETATM   13  O7  UNL     1       1.416   8.487   9.409  1.00  0.00    -0.292 OA
HETATM   14  C21 UNL     1       1.982   7.177  11.415  1.00  0.00     0.051 C 
HETATM   15  C22 UNL     1       1.791   5.701  11.007  1.00  0.00     0.029 C 
HETATM   16  C23 UNL     1       0.673   7.774  12.081  1.00  0.00     0.011 C 
HETATM   17  C24 UNL     1      -0.650   7.351  11.387  1.00  0.00     0.007 C 
HETATM   18  C25 UNL     1      -1.914   7.885  12.082  1.00  0.00     0.013 C 
HETATM   19  C26 UNL     1      -1.980   7.482  13.574  1.00  0.00    -0.006 C 
HETATM   20  C27 UNL     1      -2.075   5.938  13.714  1.00  0.00     0.019 C 
ENDROOT
BRANCH   1  21
HETATM   21  C7  UNL     1      -4.561   7.695  14.410  1.00  0.00     0.049 C 
HETATM   22  C8  UNL     1      -5.544   8.712  15.016  1.00  0.00     0.016 C 
BRANCH  21  23
HETATM   23  C6  UNL     1      -4.774   6.321  15.150  1.00  0.00     0.143 C 
HETATM   24  O3  UNL     1      -4.685   5.200  14.248  1.00  0.00    -0.311 OA
HETATM   25  C5  UNL     1      -5.762   4.818  13.507  1.00  0.00     0.292 C 
HETATM   26  C3  UNL     1      -7.088   5.394  13.862  1.00  0.00     0.042 C 
HETATM   27  O2  UNL     1      -5.613   4.056  12.555  1.00  0.00    -0.260 OA
HETATM   28  C2  UNL     1      -7.241   6.039  15.038  1.00  0.00    -0.067 C 
HETATM   29  C1  UNL     1      -8.524   6.645  15.531  1.00  0.00     0.044 C 
HETATM   30  C28 UNL     1      -6.066   6.171  15.961  1.00  0.00     0.067 C 
BRANCH  26  31
HETATM   31  C4  UNL     1      -8.176   5.163  12.856  1.00  0.00     0.209 C 
BRANCH  31  32
HETATM   32  O1  UNL     1      -8.737   3.868  13.049  1.00  0.00    -0.396 OA
HETATM   33  H6  UNL     1      -9.224   3.653  12.236  1.00  0.00     0.209 HD
ENDBRANCH  31  32
ENDBRANCH  26  31
ENDBRANCH  21  23
ENDBRANCH   1  21
BRANCH   1  34
HETATM   34  O4  UNL     1      -3.080   9.597  14.087  1.00  0.00    -0.386 OA
HETATM   35  H12 UNL     1      -3.408  10.116  14.843  1.00  0.00     0.210 HD
ENDBRANCH   1  34
BRANCH   2  36
HETATM   36  O5  UNL     1      -2.884   6.996  16.664  1.00  0.00    -0.392 OA
HETATM   37  H14 UNL     1      -2.796   7.246  17.607  1.00  0.00     0.210 HD
ENDBRANCH   2  36
BRANCH   9  38
HETATM   38  O6  UNL     1       5.648   7.360  12.484  1.00  0.00    -0.387 OA
HETATM   39  H23 UNL     1       5.651   6.775  13.261  1.00  0.00     0.210 HD
ENDBRANCH   9  38
TORSDOF 7
ENDMDL
MODEL 5
REMARK minimizedAffinity -9.74035835
REMARK  7 active torsions:
REMARK  status: ('A' for Active; 'I' for Inactive)
REMARK    1  A    between atoms: C3_3  and  C4_4 
REMARK    2  A    between atoms: C4_4  and  O1_5 
REMARK    3  A    between atoms: C6_9  and  C7_10 
REMARK    4  A    between atoms: C7_10  and  C9_12 
REMARK    5  A    between atoms: C9_12  and  O4_13 
REMARK    6  A    between atoms: C10_14  and  O5_15 
REMARK    7  A    between atoms: C17_22  and  O6_23 
ROOT
HETATM    1  C9  UNL     1      -3.892   6.328  14.529  1.00  0.00     0.097 C 
HETATM    2  C10 UNL     1      -4.195   5.078  13.606  1.00  0.00     0.154 C 
HETATM    3  C11 UNL     1      -2.933   4.805  12.769  1.00  0.00     0.040 C 
HETATM    4  C12 UNL     1      -1.888   5.764  13.319  1.00  0.00     0.004 C 
HETATM    5  C13 UNL     1      -0.671   6.071  12.431  1.00  0.00    -0.001 C 
HETATM    6  C14 UNL     1       0.056   4.778  12.047  1.00  0.00     0.033 C 
HETATM    7  C15 UNL     1       1.372   5.032  11.389  1.00  0.00    -0.019 C 
HETATM    8  C16 UNL     1       2.052   6.195  11.443  1.00  0.00    -0.035 C 
HETATM    9  C17 UNL     1       3.382   6.406  10.733  1.00  0.00     0.171 C 
HETATM   10  C18 UNL     1       4.414   6.964  11.651  1.00  0.00     0.013 C 
HETATM   11  C19 UNL     1       4.137   7.578  12.808  1.00  0.00     0.050 C 
HETATM   12  C20 UNL     1       2.731   7.795  13.241  1.00  0.00     0.162 C 
HETATM   13  O7  UNL     1       2.563   8.358  14.323  1.00  0.00    -0.292 OA
HETATM   14  C21 UNL     1       1.564   7.393  12.290  1.00  0.00     0.051 C 
HETATM   15  C22 UNL     1       1.278   8.595  11.365  1.00  0.00     0.029 C 
HETATM   16  C23 UNL     1       0.302   7.026  13.177  1.00  0.00     0.011 C 
HETATM   17  C24 UNL     1      -0.458   8.252  13.750  1.00  0.00     0.007 C 
HETATM   18  C25 UNL     1      -1.717   7.883  14.554  1.00  0.00     0.013 C 
HETATM   19  C26 UNL     1      -2.705   7.018  13.737  1.00  0.00    -0.006 C 
HETATM   20  C27 UNL     1      -3.238   7.814  12.515  1.00  0.00     0.019 C 
ENDROOT
BRANCH   1  21
HETATM   21  C7  UNL     1      -5.162   7.191  14.894  1.00  0.00     0.049 C 
HETATM   22  C8  UNL     1      -4.781   8.560  15.486  1.00  0.00     0.016 C 
BRANCH  21  23
HETATM   23  C6  UNL     1      -6.119   6.474  15.919  1.00  0.00     0.143 C 
HETATM   24  O3  UNL     1      -6.557   5.186  15.441  1.00  0.00    -0.311 OA
HETATM   25  C5  UNL     1      -7.612   5.085  14.587  1.00  0.00     0.292 C 
HETATM   26  C3  UNL     1      -8.466   6.290  14.393  1.00  0.00     0.042 C 
HETATM   27  O2  UNL     1      -7.809   4.038  13.974  1.00  0.00    -0.260 OA
HETATM   28  C2  UNL     1      -8.351   7.332  15.244  1.00  0.00    -0.067 C 
HETATM   29  C1  UNL     1      -9.163   8.594  15.179  1.00  0.00     0.044 C 
HETATM   30  C28 UNL     1      -7.357   7.257  16.366  1.00  0.00     0.067 C 
BRANCH  26  31
HETATM   31  C4  UNL     1      -9.430   6.213  13.248  1.00  0.00     0.209 C 
BRANCH  31  32
HETATM   32  O1  UNL     1      -8.734   5.838  12.062  1.00  0.00    -0.396 OA
HETATM   33  H6  UNL     1      -9.316   6.062  11.317  1.00  0.00     0.209 HD
ENDBRANCH  31  32
ENDBRANCH  26  31
ENDBRANCH  21  23
ENDBRANCH   1  21
BRANCH   1  34
HETATM   34  O4  UNL     1      -3.341   5.838  15.774  1.00  0.00    -0.386 OA
HETATM   35  H12 UNL     1      -3.897   5.098  16.078  1.00  0.00     0.210 HD
ENDBRANCH   1  34
BRANCH   2  36
HETATM   36  O5  UNL     1      -5.272   5.303  12.702  1.00  0.00    -0.392 OA
HETATM   37  H14 UNL     1      -5.669   4.427  12.520  1.00  0.00     0.210 HD
ENDBRANCH   2  36
BRANCH   9  38
HETATM   38  O6  UNL     1       3.908   5.189  10.225  1.00  0.00    -0.387 OA
HETATM   39  H23 UNL     1       3.330   4.935   9.484  1.00  0.00     0.210 HD
ENDBRANCH   9  38
TORSDOF 7
ENDMDL
MODEL 6
REMARK minimizedAffinity -9.49057102
REMARK  7 active torsions:
REMARK  status: ('A' for Active; 'I' for Inactive)
REMARK    1  A    between atoms: C3_3  and  C4_4 
REMARK    2  A    between atoms: C4_4  and  O1_5 
REMARK    3  A    between atoms: C6_9  and  C7_10 
REMARK    4  A    between atoms: C7_10  and  C9_12 
REMARK    5  A    between atoms: C9_12  and  O4_13 
REMARK    6  A    between atoms: C10_14  and  O5_15 
REMARK    7  A    between atoms: C17_22  and  O6_23 
ROOT
HETATM    1  C9  UNL     1       4.805   7.694  12.468  1.00  0.00     0.097 C 
HETATM    2  C10 UNL     1       6.038   6.794  12.045  1.00  0.00     0.154 C 
HETATM    3  C11 UNL     1       7.203   7.134  12.990  1.00  0.00     0.040 C 
HETATM    4  C12 UNL     1       6.602   8.073  14.024  1.00  0.00     0.004 C 
HETATM    5  C13 UNL     1       7.572   8.946  14.836  1.00  0.00    -0.001 C 
HETATM    6  C14 UNL     1       8.606   8.077  15.559  1.00  0.00     0.033 C 
HETATM    7  C15 UNL     1       9.419   8.848  16.546  1.00  0.00    -0.019 C 
HETATM    8  C16 UNL     1       9.083  10.053  17.050  1.00  0.00    -0.035 C 
HETATM    9  C17 UNL     1       9.963  10.806  18.038  1.00  0.00     0.171 C 
HETATM   10  C18 UNL     1       9.192  11.254  19.232  1.00  0.00     0.013 C 
HETATM   11  C19 UNL     1       7.858  11.355  19.269  1.00  0.00     0.050 C 
HETATM   12  C20 UNL     1       7.035  11.066  18.064  1.00  0.00     0.162 C 
HETATM   13  O7  UNL     1       5.815  11.172  18.187  1.00  0.00    -0.292 OA
HETATM   14  C21 UNL     1       7.739  10.739  16.714  1.00  0.00     0.051 C 
HETATM   15  C22 UNL     1       8.010  12.075  15.991  1.00  0.00     0.029 C 
HETATM   16  C23 UNL     1       6.782   9.800  15.868  1.00  0.00     0.011 C 
HETATM   17  C24 UNL     1       5.600  10.538  15.184  1.00  0.00     0.007 C 
HETATM   18  C25 UNL     1       4.718   9.626  14.314  1.00  0.00     0.013 C 
HETATM   19  C26 UNL     1       5.532   8.875  13.234  1.00  0.00    -0.006 C 
HETATM   20  C27 UNL     1       6.163   9.883  12.235  1.00  0.00     0.019 C 
ENDROOT
BRANCH   1  21
HETATM   21  C7  UNL     1       3.822   8.048  11.286  1.00  0.00     0.049 C 
HETATM   22  C8  UNL     1       2.395   8.336  11.786  1.00  0.00     0.016 C 
BRANCH  21  23
HETATM   23  C6  UNL     1       3.729   6.910  10.201  1.00  0.00     0.143 C 
HETATM   24  O3  UNL     1       3.738   7.438   8.859  1.00  0.00    -0.311 OA
HETATM   25  C5  UNL     1       2.590   7.896   8.287  1.00  0.00     0.292 C 
HETATM   26  C3  UNL     1       1.302   7.573   8.961  1.00  0.00     0.042 C 
HETATM   27  O2  UNL     1       2.643   8.586   7.272  1.00  0.00    -0.260 OA
HETATM   28  C2  UNL     1       1.274   6.636   9.932  1.00  0.00    -0.067 C 
HETATM   29  C1  UNL     1       0.045   6.197  10.675  1.00  0.00     0.044 C 
HETATM   30  C28 UNL     1       2.547   5.942  10.319  1.00  0.00     0.067 C 
BRANCH  26  31
HETATM   31  C4  UNL     1       0.108   8.326   8.453  1.00  0.00     0.209 C 
BRANCH  31  32
HETATM   32  O1  UNL     1      -0.409   9.156   9.489  1.00  0.00    -0.396 OA
HETATM   33  H6  UNL     1      -1.309   9.404   9.222  1.00  0.00     0.209 HD
ENDBRANCH  31  32
ENDBRANCH  26  31
ENDBRANCH  21  23
ENDBRANCH   1  21
BRANCH   1  34
HETATM   34  O4  UNL     1       4.038   6.961  13.451  1.00  0.00    -0.386 OA
HETATM   35  H12 UNL     1       3.921   6.051  13.125  1.00  0.00     0.210 HD
ENDBRANCH   1  34
BRANCH   2  36
HETATM   36  O5  UNL     1       6.476   7.043  10.713  1.00  0.00    -0.392 OA
HETATM   37  H14 UNL     1       6.882   6.212  10.394  1.00  0.00     0.210 HD
ENDBRANCH   2  36
BRANCH   9  38
HETATM   38  O6  UNL     1      11.025   9.998  18.523  1.00  0.00    -0.387 OA
HETATM   39  H23 UNL     1      11.634   9.877  17.773  1.00  0.00     0.210 HD
ENDBRANCH   9  38
TORSDOF 7
ENDMDL
MODEL 7
REMARK minimizedAffinity -9.37296677
REMARK  7 active torsions:
REMARK  status: ('A' for Active; 'I' for Inactive)
REMARK    1  A    between atoms: C3_3  and  C4_4 
REMARK    2  A    between atoms: C4_4  and  O1_5 
REMARK    3  A    between atoms: C6_9  and  C7_10 
REMARK    4  A    between atoms: C7_10  and  C9_12 
REMARK    5  A    between atoms: C9_12  and  O4_13 
REMARK    6  A    between atoms: C10_14  and  O5_15 
REMARK    7  A    between atoms: C17_22  and  O6_23 
ROOT
HETATM    1  C9  UNL     1       0.591   8.306  13.265  1.00  0.00     0.097 C 
HETATM    2  C10 UNL     1       1.237   6.960  12.738  1.00  0.00     0.154 C 
HETATM    3  C11 UNL     1       0.107   5.924  12.613  1.00  0.00     0.040 C 
HETATM    4  C12 UNL     1      -1.167   6.704  12.898  1.00  0.00     0.004 C 
HETATM    5  C13 UNL     1      -2.416   5.901  13.295  1.00  0.00    -0.001 C 
HETATM    6  C14 UNL     1      -2.752   4.859  12.223  1.00  0.00     0.033 C 
HETATM    7  C15 UNL     1      -4.083   4.217  12.439  1.00  0.00    -0.019 C 
HETATM    8  C16 UNL     1      -5.060   4.712  13.226  1.00  0.00    -0.035 C 
HETATM    9  C17 UNL     1      -6.391   4.002  13.428  1.00  0.00     0.171 C 
HETATM   10  C18 UNL     1      -7.544   4.919  13.200  1.00  0.00     0.013 C 
HETATM   11  C19 UNL     1      -7.457   6.254  13.218  1.00  0.00     0.050 C 
HETATM   12  C20 UNL     1      -6.169   6.932  13.528  1.00  0.00     0.162 C 
HETATM   13  O7  UNL     1      -6.172   8.163  13.513  1.00  0.00    -0.292 OA
HETATM   14  C21 UNL     1      -4.931   6.079  13.936  1.00  0.00     0.051 C 
HETATM   15  C22 UNL     1      -4.987   5.872  15.464  1.00  0.00     0.029 C 
HETATM   16  C23 UNL     1      -3.622   6.860  13.499  1.00  0.00     0.011 C 
HETATM   17  C24 UNL     1      -3.238   8.040  14.432  1.00  0.00     0.007 C 
HETATM   18  C25 UNL     1      -1.931   8.747  14.033  1.00  0.00     0.013 C 
HETATM   19  C26 UNL     1      -0.736   7.770  13.943  1.00  0.00    -0.006 C 
HETATM   20  C27 UNL     1      -0.439   7.149  15.336  1.00  0.00     0.019 C 
ENDROOT
BRANCH   1  21
HETATM   21  C7  UNL     1       1.568   9.207  14.117  1.00  0.00     0.049 C 
HETATM   22  C8  UNL     1       0.813  10.284  14.916  1.00  0.00     0.016 C 
BRANCH  21  23
HETATM   23  C6  UNL     1       2.657   9.933  13.241  1.00  0.00     0.143 C 
HETATM   24  O3  UNL     1       3.495   8.998  12.532  1.00  0.00    -0.311 OA
HETATM   25  C5  UNL     1       4.564   8.422  13.148  1.00  0.00     0.292 C 
HETATM   26  C3  UNL     1       5.006   8.993  14.450  1.00  0.00     0.042 C 
HETATM   27  O2  UNL     1       5.104   7.438  12.647  1.00  0.00    -0.260 OA
HETATM   28  C2  UNL     1       4.536  10.195  14.846  1.00  0.00    -0.067 C 
HETATM   29  C1  UNL     1       4.915  10.895  16.119  1.00  0.00     0.044 C 
HETATM   30  C28 UNL     1       3.568  10.930  13.965  1.00  0.00     0.067 C 
BRANCH  26  31
HETATM   31  C4  UNL     1       5.995   8.159  15.210  1.00  0.00     0.209 C 
BRANCH  31  32
HETATM   32  O1  UNL     1       5.388   6.928  15.592  1.00  0.00    -0.396 OA
HETATM   33  H6  UNL     1       5.944   6.551  16.293  1.00  0.00     0.209 HD
ENDBRANCH  31  32
ENDBRANCH  26  31
ENDBRANCH  21  23
ENDBRANCH   1  21
BRANCH   1  34
HETATM   34  O4  UNL     1       0.192   9.087  12.114  1.00  0.00    -0.386 OA
HETATM   35  H12 UNL     1       0.931   9.085  11.479  1.00  0.00     0.210 HD
ENDBRANCH   1  34
BRANCH   2  36
HETATM   36  O5  UNL     1       2.214   6.427  13.627  1.00  0.00    -0.392 OA
HETATM   37  H14 UNL     1       2.841   5.916  13.077  1.00  0.00     0.210 HD
ENDBRANCH   2  36
BRANCH   9  38
HETATM   38  O6  UNL     1      -6.554   2.917  12.528  1.00  0.00    -0.387 OA
HETATM   39  H23 UNL     1      -5.924   2.233  12.815  1.00  0.00     0.210 HD
ENDBRANCH   9  38
TORSDOF 7
ENDMDL
MODEL 8
REMARK minimizedAffinity -9.29826164
REMARK  7 active torsions:
REMARK  status: ('A' for Active; 'I' for Inactive)
REMARK    1  A    between atoms: C3_3  and  C4_4 
REMARK    2  A    between atoms: C4_4  and  O1_5 
REMARK    3  A    between atoms: C6_9  and  C7_10 
REMARK    4  A    between atoms: C7_10  and  C9_12 
REMARK    5  A    between atoms: C9_12  and  O4_13 
REMARK    6  A    between atoms: C10_14  and  O5_15 
REMARK    7  A    between atoms: C17_22  and  O6_23 
ROOT
HETATM    1  C9  UNL     1       0.836   6.540  11.148  1.00  0.00     0.097 C 
HETATM    2  C10 UNL     1       0.932   7.065   9.657  1.00  0.00     0.154 C 
HETATM    3  C11 UNL     1       2.232   7.881   9.539  1.00  0.00     0.040 C 
HETATM    4  C12 UNL     1       2.936   7.684  10.873  1.00  0.00     0.004 C 
HETATM    5  C13 UNL     1       4.021   8.703  11.257  1.00  0.00    -0.001 C 
HETATM    6  C14 UNL     1       5.105   8.770  10.177  1.00  0.00     0.033 C 
HETATM    7  C15 UNL     1       6.298   9.560  10.607  1.00  0.00    -0.019 C 
HETATM    8  C16 UNL     1       6.600   9.870  11.884  1.00  0.00    -0.035 C 
HETATM    9  C17 UNL     1       7.819  10.700  12.262  1.00  0.00     0.171 C 
HETATM   10  C18 UNL     1       8.623  10.041  13.329  1.00  0.00     0.013 C 
HETATM   11  C19 UNL     1       8.158   9.079  14.134  1.00  0.00     0.050 C 
HETATM   12  C20 UNL     1       6.744   8.626  14.047  1.00  0.00     0.162 C 
HETATM   13  O7  UNL     1       6.399   7.729  14.816  1.00  0.00    -0.292 OA
HETATM   14  C21 UNL     1       5.765   9.350  13.076  1.00  0.00     0.051 C 
HETATM   15  C22 UNL     1       5.150  10.545  13.835  1.00  0.00     0.029 C 
HETATM   16  C23 UNL     1       4.655   8.312  12.622  1.00  0.00     0.011 C 
HETATM   17  C24 UNL     1       3.555   8.044  13.685  1.00  0.00     0.007 C 
HETATM   18  C25 UNL     1       2.450   7.086  13.207  1.00  0.00     0.013 C 
HETATM   19  C26 UNL     1       1.777   7.568  11.901  1.00  0.00    -0.006 C 
HETATM   20  C27 UNL     1       1.052   8.921  12.134  1.00  0.00     0.019 C 
ENDROOT
BRANCH   1  21
HETATM   21  C7  UNL     1      -0.639   6.337  11.672  1.00  0.00     0.049 C 
HETATM   22  C8  UNL     1      -1.179   7.592  12.379  1.00  0.00     0.016 C 
BRANCH  21  23
HETATM   23  C6  UNL     1      -0.776   5.126  12.670  1.00  0.00     0.143 C 
HETATM   24  O3  UNL     1      -0.657   3.855  12.000  1.00  0.00    -0.311 OA
HETATM   25  C5  UNL     1      -1.732   3.295  11.379  1.00  0.00     0.292 C 
HETATM   26  C3  UNL     1      -3.074   3.878  11.655  1.00  0.00     0.042 C 
HETATM   27  O2  UNL     1      -1.570   2.368  10.589  1.00  0.00    -0.260 OA
HETATM   28  C2  UNL     1      -3.230   4.734  12.687  1.00  0.00    -0.067 C 
HETATM   29  C1  UNL     1      -4.528   5.374  13.090  1.00  0.00     0.044 C 
HETATM   30  C28 UNL     1      -2.042   5.088  13.532  1.00  0.00     0.067 C 
BRANCH  26  31
HETATM   31  C4  UNL     1      -4.172   3.413  10.745  1.00  0.00     0.209 C 
BRANCH  31  32
HETATM   32  O1  UNL     1      -3.764   3.567   9.389  1.00  0.00    -0.396 OA
HETATM   33  H6  UNL     1      -4.571   3.522   8.850  1.00  0.00     0.209 HD
ENDBRANCH  31  32
ENDBRANCH  26  31
ENDBRANCH  21  23
ENDBRANCH   1  21
BRANCH   1  34
HETATM   34  O4  UNL     1       1.486   5.249  11.206  1.00  0.00    -0.386 OA
HETATM   35  H12 UNL     1       1.171   4.718  10.453  1.00  0.00     0.210 HD
ENDBRANCH   1  34
BRANCH   2  36
HETATM   36  O5  UNL     1      -0.148   7.921   9.298  1.00  0.00    -0.392 OA
HETATM   37  H14 UNL     1      -0.264   7.831   8.331  1.00  0.00     0.210 HD
ENDBRANCH   2  36
BRANCH   9  38
HETATM   38  O6  UNL     1       8.690  10.893  11.159  1.00  0.00    -0.387 OA
HETATM   39  H23 UNL     1       8.226  11.496  10.552  1.00  0.00     0.210 HD
ENDBRANCH   9  38
TORSDOF 7
ENDMDL
MODEL 9
REMARK minimizedAffinity -9.19105148
REMARK  7 active torsions:
REMARK  status: ('A' for Active; 'I' for Inactive)
REMARK    1  A    between atoms: C3_3  and  C4_4 
REMARK    2  A    between atoms: C4_4  and  O1_5 
REMARK    3  A    between atoms: C6_9  and  C7_10 
REMARK    4  A    between atoms: C7_10  and  C9_12 
REMARK    5  A    between atoms: C9_12  and  O4_13 
REMARK    6  A    between atoms: C10_14  and  O5_15 
REMARK    7  A    between atoms: C17_22  and  O6_23 
ROOT
HETATM    1  C9  UNL     1       1.825   7.555  10.969  1.00  0.00     0.097 C 
HETATM    2  C10 UNL     1       2.072   6.046  10.555  1.00  0.00     0.154 C 
HETATM    3  C11 UNL     1       0.808   5.252  10.929  1.00  0.00     0.040 C 
HETATM    4  C12 UNL     1      -0.190   6.305  11.385  1.00  0.00     0.004 C 
HETATM    5  C13 UNL     1      -1.377   5.832  12.240  1.00  0.00    -0.001 C 
HETATM    6  C14 UNL     1      -2.168   4.742  11.509  1.00  0.00     0.033 C 
HETATM    7  C15 UNL     1      -3.460   4.418  12.184  1.00  0.00    -0.019 C 
HETATM    8  C16 UNL     1      -4.076   5.202  13.092  1.00  0.00    -0.035 C 
HETATM    9  C17 UNL     1      -5.383   4.809  13.766  1.00  0.00     0.171 C 
HETATM   10  C18 UNL     1      -6.395   5.900  13.681  1.00  0.00     0.013 C 
HETATM   11  C19 UNL     1      -6.101   7.179  13.423  1.00  0.00     0.050 C 
HETATM   12  C20 UNL     1      -4.691   7.620  13.251  1.00  0.00     0.162 C 
HETATM   13  O7  UNL     1      -4.507   8.812  13.006  1.00  0.00    -0.292 OA
HETATM   14  C21 UNL     1      -3.535   6.599  13.473  1.00  0.00     0.051 C 
HETATM   15  C22 UNL     1      -3.173   6.619  14.973  1.00  0.00     0.029 C 
HETATM   16  C23 UNL     1      -2.307   7.033  12.569  1.00  0.00     0.011 C 
HETATM   17  C24 UNL     1      -1.489   8.228  13.129  1.00  0.00     0.007 C 
HETATM   18  C25 UNL     1      -0.263   8.596  12.275  1.00  0.00     0.013 C 
HETATM   19  C26 UNL     1       0.687   7.395  12.061  1.00  0.00    -0.006 C 
HETATM   20  C27 UNL     1       1.279   6.924  13.418  1.00  0.00     0.019 C 
ENDROOT
BRANCH   1  21
HETATM   21  C7  UNL     1       3.135   8.348  11.350  1.00  0.00     0.049 C 
HETATM   22  C8  UNL     1       4.392   7.725  10.718  1.00  0.00     0.016 C 
BRANCH  21  23
HETATM   23  C6  UNL     1       3.371   8.436  12.905  1.00  0.00     0.143 C 
HETATM   24  O3  UNL     1       2.951   9.704  13.446  1.00  0.00    -0.311 OA
HETATM   25  C5  UNL     1       3.774  10.788  13.392  1.00  0.00     0.292 C 
HETATM   26  C3  UNL     1       5.201  10.559  13.031  1.00  0.00     0.042 C 
HETATM   27  O2  UNL     1       3.323  11.912  13.598  1.00  0.00    -0.260 OA
HETATM   28  C2  UNL     1       5.697   9.303  13.036  1.00  0.00    -0.067 C 
HETATM   29  C1  UNL     1       7.117   8.933  12.717  1.00  0.00     0.044 C 
HETATM   30  C28 UNL     1       4.795   8.160  13.400  1.00  0.00     0.067 C 
BRANCH  26  31
HETATM   31  C4  UNL     1       5.987  11.796  12.716  1.00  0.00     0.209 C 
BRANCH  31  32
HETATM   32  O1  UNL     1       5.287  12.573  11.749  1.00  0.00    -0.396 OA
HETATM   33  H6  UNL     1       5.931  13.198  11.377  1.00  0.00     0.209 HD
ENDBRANCH  31  32
ENDBRANCH  26  31
ENDBRANCH  21  23
ENDBRANCH   1  21
BRANCH   1  34
HETATM   34  O4  UNL     1       1.233   8.234   9.838  1.00  0.00    -0.386 OA
HETATM   35  H12 UNL     1       1.744   7.997   9.044  1.00  0.00     0.210 HD
ENDBRANCH   1  34
BRANCH   2  36
HETATM   36  O5  UNL     1       3.171   5.455  11.241  1.00  0.00    -0.392 OA
HETATM   37  H14 UNL     1       3.523   4.757  10.652  1.00  0.00     0.210 HD
ENDBRANCH   2  36
BRANCH   9  38
HETATM   38  O6  UNL     1      -5.968   3.666  13.161  1.00  0.00    -0.387 OA
HETATM   39  H23 UNL     1      -5.395   2.916  13.396  1.00  0.00     0.210 HD
ENDBRANCH   9  38
TORSDOF 7
ENDMDL
