MODEL 1
REMARK minimizedAffinity -8.4316473
REMARK  9 active torsions:
REMARK  status: ('A' for Active; 'I' for Inactive)
REMARK    1  A    between atoms: O1_2  and  C2_3 
REMARK    2  A    between atoms: C2_3  and  C3_4 
REMARK    3  A    between atoms: C3_4  and  N1_5 
REMARK       I    between atoms: N1_5  and  C4_6 
REMARK    4  A    between atoms: C4_6  and  C5_8 
REMARK    5  A    between atoms: C5_8  and  C7_10 
REMARK    6  A    between atoms: C15_20  and  N3_21 
REMARK       I    between atoms: N3_21  and  C16_22 
REMARK    7  A    between atoms: C16_22  and  C17_24 
REMARK    8  A    between atoms: C17_24  and  N4_25 
REMARK    9  A    between atoms: C23_32  and  O4_33 
ROOT
HETATM    1  C7  UNL     1      -6.398   5.486  13.645  1.00  0.00     0.027 C 
HETATM    2  C8  UNL     1      -5.944   5.692  15.096  1.00  0.00     0.009 C 
HETATM    3  C9  UNL     1      -4.718   6.606  15.191  1.00  0.00     0.010 C 
HETATM    4  C10 UNL     1      -3.689   6.467  14.031  1.00  0.00    -0.033 C 
HETATM    5  C11 UNL     1      -3.893   7.634  13.027  1.00  0.00     0.016 C 
HETATM    6  C12 UNL     1      -2.254   6.598  14.650  1.00  0.00     0.058 C 
HETATM    7  C13 UNL     1      -1.217   6.172  13.670  1.00  0.00     0.010 A 
HETATM    8  C14 UNL     1      -1.441   5.392  12.556  1.00  0.00     0.029 A 
HETATM    9  N2  UNL     1      -0.331   5.186  11.761  1.00  0.00    -0.339 N 
ATOM     10  H2  UNL     1      -0.324   4.668  10.882  1.00  0.00     0.168 HD
HETATM   11  C15 UNL     1       0.709   5.756  12.311  1.00  0.00     0.151 A 
HETATM   12  S1  UNL     1       0.433   6.581  13.785  1.00  0.00    -0.056 SA
HETATM   13  C20 UNL     1      -2.794   4.859  12.163  1.00  0.00     0.040 C 
HETATM   14  C21 UNL     1      -2.695   3.392  11.726  1.00  0.00     0.017 C 
HETATM   15  C22 UNL     1      -3.830   5.066  13.334  1.00  0.00     0.033 C 
HETATM   16  C23 UNL     1      -5.279   4.751  12.866  1.00  0.00     0.128 C 
ENDROOT
BRANCH   1  17
HETATM   17  C5  UNL     1      -7.788   4.790  13.573  1.00  0.00     0.080 C 
HETATM   18  C6  UNL     1      -7.762   3.444  12.840  1.00  0.00     0.020 C 
BRANCH  17  19
HETATM   19  C4  UNL     1      -8.827   5.703  12.917  1.00  0.00     0.222 C 
HETATM   20  N1  UNL     1      -9.807   6.182  13.761  1.00  0.00    -0.359 N 
HETATM   21  H8  UNL     1      -9.697   6.047  14.756  1.00  0.00     0.162 HD
HETATM   22  O2  UNL     1      -8.801   5.928  11.710  1.00  0.00    -0.273 OA
BRANCH  20  23
HETATM   23  C3  UNL     1     -10.770   7.181  13.321  1.00  0.00     0.148 C 
BRANCH  23  24
HETATM   24  C2  UNL     1     -11.948   7.324  14.293  1.00  0.00     0.186 C 
BRANCH  24  25
HETATM   25  O1  UNL     1     -13.165   6.909  13.675  1.00  0.00    -0.394 OA
HETATM   26  C1  UNL     1     -13.728   5.772  14.319  1.00  0.00     0.201 C 
ENDBRANCH  24  25
ENDBRANCH  23  24
ENDBRANCH  20  23
ENDBRANCH  17  19
ENDBRANCH   1  17
BRANCH  16  27
HETATM   27  O4  UNL     1      -5.467   3.338  12.968  1.00  0.00    -0.395 OA
HETATM   28  H38 UNL     1      -5.431   3.081  13.907  1.00  0.00     0.210 HD
ENDBRANCH  16  27
BRANCH  11  29
HETATM   29  N3  UNL     1       2.009   5.788  11.897  1.00  0.00    -0.306 N 
HETATM   30  C16 UNL     1       2.367   5.795  10.561  1.00  0.00     0.252 C 
HETATM   31  O3  UNL     1       1.596   5.861   9.608  1.00  0.00    -0.271 OA
HETATM   32  H23 UNL     1       2.706   5.811  12.626  1.00  0.00     0.171 HD
BRANCH  30  33
HETATM   33  C17 UNL     1       3.895   5.734  10.378  1.00  0.00     0.373 C 
BRANCH  33  34
HETATM   34  N4  UNL     1       4.652   6.785  11.089  1.00  0.00     0.088 N 
HETATM   35  C18 UNL     1       6.028   6.391  11.377  1.00  0.00     0.310 C 
HETATM   36  C19 UNL     1       4.612   8.071  10.393  1.00  0.00     0.310 C 
ENDBRANCH  33  34
ENDBRANCH  30  33
ENDBRANCH  11  29
TORSDOF 9
ENDMDL
MODEL 2
REMARK minimizedAffinity -8.41449738
REMARK  9 active torsions:
REMARK  status: ('A' for Active; 'I' for Inactive)
REMARK    1  A    between atoms: O1_2  and  C2_3 
REMARK    2  A    between atoms: C2_3  and  C3_4 
REMARK    3  A    between atoms: C3_4  and  N1_5 
REMARK       I    between atoms: N1_5  and  C4_6 
REMARK    4  A    between atoms: C4_6  and  C5_8 
REMARK    5  A    between atoms: C5_8  and  C7_10 
REMARK    6  A    between atoms: C15_20  and  N3_21 
REMARK       I    between atoms: N3_21  and  C16_22 
REMARK    7  A    between atoms: C16_22  and  C17_24 
REMARK    8  A    between atoms: C17_24  and  N4_25 
REMARK    9  A    between atoms: C23_32  and  O4_33 
ROOT
HETATM    1  C7  UNL     1      -6.424   5.556  13.635  1.00  0.00     0.027 C 
HETATM    2  C8  UNL     1      -5.983   5.791  15.086  1.00  0.00     0.009 C 
HETATM    3  C9  UNL     1      -4.766   6.717  15.175  1.00  0.00     0.010 C 
HETATM    4  C10 UNL     1      -3.727   6.569  14.026  1.00  0.00    -0.033 C 
HETATM    5  C11 UNL     1      -3.934   7.717  13.001  1.00  0.00     0.016 C 
HETATM    6  C12 UNL     1      -2.298   6.723  14.654  1.00  0.00     0.058 C 
HETATM    7  C13 UNL     1      -1.249   6.291  13.688  1.00  0.00     0.010 A 
HETATM    8  C14 UNL     1      -1.458   5.490  12.586  1.00  0.00     0.029 A 
HETATM    9  N2  UNL     1      -0.340   5.281  11.803  1.00  0.00    -0.339 N 
ATOM     10  H2  UNL     1      -0.321   4.749  10.933  1.00  0.00     0.168 HD
HETATM   11  C15 UNL     1       0.691   5.870  12.351  1.00  0.00     0.151 A 
HETATM   12  S1  UNL     1       0.396   6.717  13.809  1.00  0.00    -0.056 SA
HETATM   13  C20 UNL     1      -2.802   4.938  12.191  1.00  0.00     0.040 C 
HETATM   14  C21 UNL     1      -2.687   3.465  11.779  1.00  0.00     0.017 C 
HETATM   15  C22 UNL     1      -3.850   5.156  13.350  1.00  0.00     0.033 C 
HETATM   16  C23 UNL     1      -5.292   4.819  12.877  1.00  0.00     0.128 C 
ENDROOT
BRANCH   1  17
HETATM   17  C5  UNL     1      -7.807   4.847  13.564  1.00  0.00     0.080 C 
HETATM   18  C6  UNL     1      -7.767   3.499  12.834  1.00  0.00     0.020 C 
BRANCH  17  19
HETATM   19  C4  UNL     1      -8.853   5.748  12.904  1.00  0.00     0.222 C 
HETATM   20  N1  UNL     1      -9.837   6.223  13.747  1.00  0.00    -0.359 N 
HETATM   21  H8  UNL     1      -9.724   6.094  14.742  1.00  0.00     0.162 HD
HETATM   22  O2  UNL     1      -8.832   5.966  11.696  1.00  0.00    -0.273 OA
BRANCH  20  23
HETATM   23  C3  UNL     1     -10.808   7.211  13.303  1.00  0.00     0.148 C 
BRANCH  23  24
HETATM   24  C2  UNL     1     -10.818   8.461  14.193  1.00  0.00     0.186 C 
BRANCH  24  25
HETATM   25  O1  UNL     1      -9.558   8.628  14.842  1.00  0.00    -0.394 OA
HETATM   26  C1  UNL     1      -9.354   9.968  15.273  1.00  0.00     0.201 C 
ENDBRANCH  24  25
ENDBRANCH  23  24
ENDBRANCH  20  23
ENDBRANCH  17  19
ENDBRANCH   1  17
BRANCH  16  27
HETATM   27  O4  UNL     1      -5.468   3.406  13.001  1.00  0.00    -0.395 OA
HETATM   28  H38 UNL     1      -5.437   3.165  13.944  1.00  0.00     0.210 HD
ENDBRANCH  16  27
BRANCH  11  29
HETATM   29  N3  UNL     1       1.993   5.908  11.947  1.00  0.00    -0.306 N 
HETATM   30  C16 UNL     1       2.364   5.842  10.616  1.00  0.00     0.252 C 
HETATM   31  O3  UNL     1       1.602   5.832   9.654  1.00  0.00    -0.271 OA
HETATM   32  H23 UNL     1       2.683   5.990  12.679  1.00  0.00     0.171 HD
BRANCH  30  33
HETATM   33  C17 UNL     1       3.895   5.806  10.449  1.00  0.00     0.373 C 
BRANCH  33  34
HETATM   34  N4  UNL     1       4.629   6.856  11.185  1.00  0.00     0.088 N 
HETATM   35  C18 UNL     1       5.985   6.449  11.545  1.00  0.00     0.310 C 
HETATM   36  C19 UNL     1       4.639   8.134  10.474  1.00  0.00     0.310 C 
ENDBRANCH  33  34
ENDBRANCH  30  33
ENDBRANCH  11  29
TORSDOF 9
ENDMDL
MODEL 3
REMARK minimizedAffinity -7.71595478
REMARK  9 active torsions:
REMARK  status: ('A' for Active; 'I' for Inactive)
REMARK    1  A    between atoms: O1_2  and  C2_3 
REMARK    2  A    between atoms: C2_3  and  C3_4 
REMARK    3  A    between atoms: C3_4  and  N1_5 
REMARK       I    between atoms: N1_5  and  C4_6 
REMARK    4  A    between atoms: C4_6  and  C5_8 
REMARK    5  A    between atoms: C5_8  and  C7_10 
REMARK    6  A    between atoms: C15_20  and  N3_21 
REMARK       I    between atoms: N3_21  and  C16_22 
REMARK    7  A    between atoms: C16_22  and  C17_24 
REMARK    8  A    between atoms: C17_24  and  N4_25 
REMARK    9  A    between atoms: C23_32  and  O4_33 
ROOT
HETATM    1  C7  UNL     1      -5.944   6.404  14.522  1.00  0.00     0.027 C 
HETATM    2  C8  UNL     1      -6.135   5.403  13.375  1.00  0.00     0.009 C 
HETATM    3  C9  UNL     1      -4.890   4.538  13.153  1.00  0.00     0.010 C 
HETATM    4  C10 UNL     1      -3.528   5.254  13.386  1.00  0.00    -0.033 C 
HETATM    5  C11 UNL     1      -2.976   4.856  14.782  1.00  0.00     0.016 C 
HETATM    6  C12 UNL     1      -2.525   4.735  12.296  1.00  0.00     0.058 C 
HETATM    7  C13 UNL     1      -1.305   5.589  12.255  1.00  0.00     0.010 A 
HETATM    8  C14 UNL     1      -1.205   6.866  12.761  1.00  0.00     0.029 A 
HETATM    9  N2  UNL     1       0.051   7.431  12.662  1.00  0.00    -0.339 N 
ATOM     10  H2  UNL     1       0.314   8.350  13.019  1.00  0.00     0.168 HD
HETATM   11  C15 UNL     1       0.851   6.605  12.040  1.00  0.00     0.151 A 
HETATM   12  S1  UNL     1       0.172   5.111  11.553  1.00  0.00    -0.056 SA
HETATM   13  C20 UNL     1      -2.335   7.589  13.448  1.00  0.00     0.040 C 
HETATM   14  C21 UNL     1      -2.421   9.043  12.971  1.00  0.00     0.017 C 
HETATM   15  C22 UNL     1      -3.691   6.810  13.246  1.00  0.00     0.033 C 
HETATM   16  C23 UNL     1      -4.817   7.397  14.143  1.00  0.00     0.128 C 
ENDROOT
BRANCH   1  17
HETATM   17  C5  UNL     1      -7.285   7.083  14.920  1.00  0.00     0.080 C 
HETATM   18  C6  UNL     1      -7.724   6.778  16.358  1.00  0.00     0.020 C 
BRANCH  17  19
HETATM   19  C4  UNL     1      -8.408   6.690  13.956  1.00  0.00     0.222 C 
HETATM   20  N1  UNL     1      -9.665   7.142  14.301  1.00  0.00    -0.359 N 
HETATM   21  H8  UNL     1      -9.748   7.819  15.046  1.00  0.00     0.162 HD
HETATM   22  O2  UNL     1      -8.187   5.970  12.986  1.00  0.00    -0.273 OA
BRANCH  20  23
HETATM   23  C3  UNL     1     -10.802   6.983  13.407  1.00  0.00     0.148 C 
BRANCH  23  24
HETATM   24  C2  UNL     1     -12.129   6.858  14.168  1.00  0.00     0.186 C 
BRANCH  24  25
HETATM   25  O1  UNL     1     -13.156   7.602  13.515  1.00  0.00    -0.394 OA
HETATM   26  C1  UNL     1     -14.386   6.889  13.475  1.00  0.00     0.201 C 
ENDBRANCH  24  25
ENDBRANCH  23  24
ENDBRANCH  20  23
ENDBRANCH  17  19
ENDBRANCH   1  17
BRANCH  16  27
HETATM   27  O4  UNL     1      -5.374   8.520  13.456  1.00  0.00    -0.395 OA
HETATM   28  H38 UNL     1      -5.818   8.208  12.647  1.00  0.00     0.210 HD
ENDBRANCH  16  27
BRANCH  11  29
HETATM   29  N3  UNL     1       2.163   6.750  11.697  1.00  0.00    -0.306 N 
HETATM   30  C16 UNL     1       2.757   6.017  10.686  1.00  0.00     0.252 C 
HETATM   31  O3  UNL     1       2.186   5.235   9.930  1.00  0.00    -0.271 OA
HETATM   32  H23 UNL     1       2.687   7.432  12.225  1.00  0.00     0.171 HD
BRANCH  30  33
HETATM   33  C17 UNL     1       4.265   6.309  10.575  1.00  0.00     0.373 C 
BRANCH  33  34
HETATM   34  N4  UNL     1       4.606   7.642  10.039  1.00  0.00     0.088 N 
HETATM   35  C18 UNL     1       3.549   8.199   9.199  1.00  0.00     0.310 C 
HETATM   36  C19 UNL     1       4.991   8.586  11.089  1.00  0.00     0.310 C 
ENDBRANCH  33  34
ENDBRANCH  30  33
ENDBRANCH  11  29
TORSDOF 9
ENDMDL
MODEL 4
REMARK minimizedAffinity -7.50173235
REMARK  9 active torsions:
REMARK  status: ('A' for Active; 'I' for Inactive)
REMARK    1  A    between atoms: O1_2  and  C2_3 
REMARK    2  A    between atoms: C2_3  and  C3_4 
REMARK    3  A    between atoms: C3_4  and  N1_5 
REMARK       I    between atoms: N1_5  and  C4_6 
REMARK    4  A    between atoms: C4_6  and  C5_8 
REMARK    5  A    between atoms: C5_8  and  C7_10 
REMARK    6  A    between atoms: C15_20  and  N3_21 
REMARK       I    between atoms: N3_21  and  C16_22 
REMARK    7  A    between atoms: C16_22  and  C17_24 
REMARK    8  A    between atoms: C17_24  and  N4_25 
REMARK    9  A    between atoms: C23_32  and  O4_33 
ROOT
HETATM    1  C7  UNL     1       2.885   6.630  11.765  1.00  0.00     0.027 C 
HETATM    2  C8  UNL     1       2.563   8.099  11.458  1.00  0.00     0.009 C 
HETATM    3  C9  UNL     1       1.814   8.776  12.610  1.00  0.00     0.010 C 
HETATM    4  C10 UNL     1       0.809   7.870  13.379  1.00  0.00    -0.033 C 
HETATM    5  C11 UNL     1       1.462   7.399  14.707  1.00  0.00     0.016 C 
HETATM    6  C12 UNL     1      -0.446   8.743  13.732  1.00  0.00     0.058 C 
HETATM    7  C13 UNL     1      -1.573   7.883  14.189  1.00  0.00     0.010 A 
HETATM    8  C14 UNL     1      -1.692   6.530  13.959  1.00  0.00     0.029 A 
HETATM    9  N2  UNL     1      -2.795   5.939  14.541  1.00  0.00    -0.339 N 
ATOM     10  H2  UNL     1      -3.018   4.943  14.507  1.00  0.00     0.168 HD
HETATM   11  C15 UNL     1      -3.511   6.852  15.142  1.00  0.00     0.151 A 
HETATM   12  S1  UNL     1      -2.915   8.455  15.070  1.00  0.00    -0.056 SA
HETATM   13  C20 UNL     1      -0.674   5.713  13.206  1.00  0.00     0.040 C 
HETATM   14  C21 UNL     1      -1.362   4.752  12.229  1.00  0.00     0.017 C 
HETATM   15  C22 UNL     1       0.365   6.656  12.486  1.00  0.00     0.033 C 
HETATM   16  C23 UNL     1       1.559   5.843  11.909  1.00  0.00     0.128 C 
ENDROOT
BRANCH   1  17
HETATM   17  C5  UNL     1       3.873   6.031  10.724  1.00  0.00     0.080 C 
HETATM   18  C6  UNL     1       5.212   6.773  10.652  1.00  0.00     0.020 C 
BRANCH  17  19
HETATM   19  C4  UNL     1       3.243   5.988   9.329  1.00  0.00     0.222 C 
HETATM   20  N1  UNL     1       2.806   7.203   8.844  1.00  0.00    -0.359 N 
HETATM   21  H8  UNL     1       3.065   8.044   9.339  1.00  0.00     0.162 HD
HETATM   22  O2  UNL     1       3.093   4.925   8.733  1.00  0.00    -0.273 OA
BRANCH  20  23
HETATM   23  C3  UNL     1       2.330   7.350   7.476  1.00  0.00     0.148 C 
BRANCH  23  24
HETATM   24  C2  UNL     1       0.915   7.940   7.411  1.00  0.00     0.186 C 
BRANCH  24  25
HETATM   25  O1  UNL     1       0.717   8.891   8.456  1.00  0.00    -0.394 OA
HETATM   26  C1  UNL     1      -0.421   8.581   9.250  1.00  0.00     0.201 C 
ENDBRANCH  24  25
ENDBRANCH  23  24
ENDBRANCH  20  23
ENDBRANCH  17  19
ENDBRANCH   1  17
BRANCH  16  27
HETATM   27  O4  UNL     1       1.158   5.333  10.636  1.00  0.00    -0.395 OA
HETATM   28  H38 UNL     1       1.028   6.079  10.023  1.00  0.00     0.210 HD
ENDBRANCH  16  27
BRANCH  11  29
HETATM   29  N3  UNL     1      -4.689   6.734  15.821  1.00  0.00    -0.306 N 
HETATM   30  C16 UNL     1      -5.825   6.184  15.255  1.00  0.00     0.252 C 
HETATM   31  O3  UNL     1      -5.900   5.667  14.143  1.00  0.00    -0.271 OA
HETATM   32  H23 UNL     1      -4.689   7.070  16.772  1.00  0.00     0.171 HD
BRANCH  30  33
HETATM   33  C17 UNL     1      -7.034   6.262  16.206  1.00  0.00     0.373 C 
BRANCH  33  34
HETATM   34  N4  UNL     1      -8.063   7.252  15.827  1.00  0.00     0.088 N 
HETATM   35  C18 UNL     1      -7.491   8.478  15.277  1.00  0.00     0.310 C 
HETATM   36  C19 UNL     1      -9.070   6.694  14.924  1.00  0.00     0.310 C 
ENDBRANCH  33  34
ENDBRANCH  30  33
ENDBRANCH  11  29
TORSDOF 9
ENDMDL
MODEL 5
REMARK minimizedAffinity -7.44013882
REMARK  9 active torsions:
REMARK  status: ('A' for Active; 'I' for Inactive)
REMARK    1  A    between atoms: O1_2  and  C2_3 
REMARK    2  A    between atoms: C2_3  and  C3_4 
REMARK    3  A    between atoms: C3_4  and  N1_5 
REMARK       I    between atoms: N1_5  and  C4_6 
REMARK    4  A    between atoms: C4_6  and  C5_8 
REMARK    5  A    between atoms: C5_8  and  C7_10 
REMARK    6  A    between atoms: C15_20  and  N3_21 
REMARK       I    between atoms: N3_21  and  C16_22 
REMARK    7  A    between atoms: C16_22  and  C17_24 
REMARK    8  A    between atoms: C17_24  and  N4_25 
REMARK    9  A    between atoms: C23_32  and  O4_33 
ROOT
HETATM    1  C7  UNL     1      -1.957   5.718  13.396  1.00  0.00     0.027 C 
HETATM    2  C8  UNL     1      -2.056   7.166  12.898  1.00  0.00     0.009 C 
HETATM    3  C9  UNL     1      -3.049   7.991  13.722  1.00  0.00     0.010 C 
HETATM    4  C10 UNL     1      -4.304   7.220  14.225  1.00  0.00    -0.033 C 
HETATM    5  C11 UNL     1      -4.105   6.843  15.718  1.00  0.00     0.016 C 
HETATM    6  C12 UNL     1      -5.532   8.191  14.124  1.00  0.00     0.058 C 
HETATM    7  C13 UNL     1      -6.809   7.443  14.291  1.00  0.00     0.010 A 
HETATM    8  C14 UNL     1      -6.965   6.082  14.138  1.00  0.00     0.029 A 
HETATM    9  N2  UNL     1      -8.234   5.611  14.410  1.00  0.00    -0.339 N 
ATOM     10  H2  UNL     1      -8.518   4.631  14.387  1.00  0.00     0.168 HD
HETATM   11  C15 UNL     1      -9.017   6.617  14.702  1.00  0.00     0.151 A 
HETATM   12  S1  UNL     1      -8.298   8.169  14.690  1.00  0.00    -0.056 SA
HETATM   13  C20 UNL     1      -5.843   5.142  13.784  1.00  0.00     0.040 C 
HETATM   14  C21 UNL     1      -6.294   4.131  12.723  1.00  0.00     0.017 C 
HETATM   15  C22 UNL     1      -4.566   5.953  13.335  1.00  0.00     0.033 C 
HETATM   16  C23 UNL     1      -3.327   5.023  13.200  1.00  0.00     0.128 C 
ENDROOT
BRANCH   1  17
HETATM   17  C5  UNL     1      -0.762   4.968  12.742  1.00  0.00     0.080 C 
HETATM   18  C6  UNL     1       0.539   5.066  13.548  1.00  0.00     0.020 C 
BRANCH  17  19
HETATM   19  C4  UNL     1      -0.512   5.468  11.317  1.00  0.00     0.222 C 
HETATM   20  N1  UNL     1       0.393   6.504  11.208  1.00  0.00    -0.359 N 
HETATM   21  H8  UNL     1       0.943   6.754  12.017  1.00  0.00     0.162 HD
HETATM   22  O2  UNL     1      -1.132   5.005  10.364  1.00  0.00    -0.273 OA
BRANCH  20  23
HETATM   23  C3  UNL     1       0.850   6.982   9.911  1.00  0.00     0.148 C 
BRANCH  23  24
HETATM   24  C2  UNL     1       2.152   6.304   9.466  1.00  0.00     0.186 C 
BRANCH  24  25
HETATM   25  O1  UNL     1       2.820   7.092   8.482  1.00  0.00    -0.394 OA
HETATM   26  C1  UNL     1       1.951   7.468   7.420  1.00  0.00     0.201 C 
ENDBRANCH  24  25
ENDBRANCH  23  24
ENDBRANCH  20  23
ENDBRANCH  17  19
ENDBRANCH   1  17
BRANCH  16  27
HETATM   27  O4  UNL     1      -3.381   4.417  11.907  1.00  0.00    -0.395 OA
HETATM   28  H38 UNL     1      -3.268   5.107  11.229  1.00  0.00     0.210 HD
ENDBRANCH  16  27
BRANCH  11  29
HETATM   29  N3  UNL     1     -10.347   6.629  15.009  1.00  0.00    -0.306 N 
HETATM   30  C16 UNL     1     -11.328   6.888  14.069  1.00  0.00     0.252 C 
HETATM   31  O3  UNL     1     -11.149   7.047  12.864  1.00  0.00    -0.271 OA
HETATM   32  H23 UNL     1     -10.582   6.434  15.970  1.00  0.00     0.171 HD
BRANCH  30  33
HETATM   33  C17 UNL     1     -12.731   6.937  14.703  1.00  0.00     0.373 C 
BRANCH  33  34
HETATM   34  N4  UNL     1     -13.825   6.454  13.836  1.00  0.00     0.088 N 
HETATM   35  C18 UNL     1     -14.722   5.528  14.522  1.00  0.00     0.310 C 
HETATM   36  C19 UNL     1     -14.576   7.550  13.222  1.00  0.00     0.310 C 
ENDBRANCH  33  34
ENDBRANCH  30  33
ENDBRANCH  11  29
TORSDOF 9
ENDMDL
MODEL 6
REMARK minimizedAffinity -7.42122889
REMARK  9 active torsions:
REMARK  status: ('A' for Active; 'I' for Inactive)
REMARK    1  A    between atoms: O1_2  and  C2_3 
REMARK    2  A    between atoms: C2_3  and  C3_4 
REMARK    3  A    between atoms: C3_4  and  N1_5 
REMARK       I    between atoms: N1_5  and  C4_6 
REMARK    4  A    between atoms: C4_6  and  C5_8 
REMARK    5  A    between atoms: C5_8  and  C7_10 
REMARK    6  A    between atoms: C15_20  and  N3_21 
REMARK       I    between atoms: N3_21  and  C16_22 
REMARK    7  A    between atoms: C16_22  and  C17_24 
REMARK    8  A    between atoms: C17_24  and  N4_25 
REMARK    9  A    between atoms: C23_32  and  O4_33 
ROOT
HETATM    1  C7  UNL     1      -5.764   3.418  12.769  1.00  0.00     0.027 C 
HETATM    2  C8  UNL     1      -5.747   3.745  11.270  1.00  0.00     0.009 C 
HETATM    3  C9  UNL     1      -4.370   3.506  10.644  1.00  0.00     0.010 C 
HETATM    4  C10 UNL     1      -3.154   3.834  11.558  1.00  0.00    -0.033 C 
HETATM    5  C11 UNL     1      -2.591   2.514  12.150  1.00  0.00     0.016 C 
HETATM    6  C12 UNL     1      -2.043   4.482  10.660  1.00  0.00     0.058 C 
HETATM    7  C13 UNL     1      -0.981   5.102  11.500  1.00  0.00     0.010 A 
HETATM    8  C14 UNL     1      -1.112   5.448  12.828  1.00  0.00     0.029 A 
HETATM    9  N2  UNL     1       0.035   5.948  13.410  1.00  0.00    -0.339 N 
ATOM     10  H2  UNL     1       0.130   6.217  14.390  1.00  0.00     0.168 HD
HETATM   11  C15 UNL     1       0.982   6.024  12.512  1.00  0.00     0.151 A 
HETATM   12  S1  UNL     1       0.577   5.494  10.935  1.00  0.00    -0.056 SA
HETATM   13  C20 UNL     1      -2.368   5.236  13.631  1.00  0.00     0.040 C 
HETATM   14  C21 UNL     1      -2.679   6.468  14.491  1.00  0.00     0.017 C 
HETATM   15  C22 UNL     1      -3.569   4.847  12.685  1.00  0.00     0.033 C 
HETATM   16  C23 UNL     1      -4.806   4.387  13.506  1.00  0.00     0.128 C 
ENDROOT
BRANCH   1  17
HETATM   17  C5  UNL     1      -7.213   3.399  13.335  1.00  0.00     0.080 C 
HETATM   18  C6  UNL     1      -8.111   2.340  12.684  1.00  0.00     0.020 C 
BRANCH  17  19
HETATM   19  C4  UNL     1      -7.874   4.774  13.201  1.00  0.00     0.222 C 
HETATM   20  N1  UNL     1      -8.328   5.325  14.382  1.00  0.00    -0.359 N 
HETATM   21  H8  UNL     1      -8.063   4.889  15.253  1.00  0.00     0.162 HD
HETATM   22  O2  UNL     1      -8.031   5.298  12.102  1.00  0.00    -0.273 OA
BRANCH  20  23
HETATM   23  C3  UNL     1      -8.836   6.687  14.439  1.00  0.00     0.148 C 
BRANCH  23  24
HETATM   24  C2  UNL     1      -9.105   7.150  15.877  1.00  0.00     0.186 C 
BRANCH  24  25
HETATM   25  O1  UNL     1      -9.994   8.266  15.890  1.00  0.00    -0.394 OA
HETATM   26  C1  UNL     1     -10.746   8.361  14.687  1.00  0.00     0.201 C 
ENDBRANCH  24  25
ENDBRANCH  23  24
ENDBRANCH  20  23
ENDBRANCH  17  19
ENDBRANCH   1  17
BRANCH  16  27
HETATM   27  O4  UNL     1      -5.519   5.559  13.907  1.00  0.00    -0.395 OA
HETATM   28  H38 UNL     1      -5.877   5.998  13.114  1.00  0.00     0.210 HD
ENDBRANCH  16  27
BRANCH  11  29
HETATM   29  N3  UNL     1       2.263   6.480  12.627  1.00  0.00    -0.306 N 
HETATM   30  C16 UNL     1       2.638   7.757  12.253  1.00  0.00     0.252 C 
HETATM   31  O3  UNL     1       1.884   8.647  11.868  1.00  0.00    -0.271 OA
HETATM   32  H23 UNL     1       2.932   5.828  13.008  1.00  0.00     0.171 HD
BRANCH  30  33
HETATM   33  C17 UNL     1       4.155   7.974  12.398  1.00  0.00     0.373 C 
BRANCH  33  34
HETATM   34  N4  UNL     1       4.940   7.742  11.168  1.00  0.00     0.088 N 
HETATM   35  C18 UNL     1       5.541   8.966  10.644  1.00  0.00     0.310 C 
HETATM   36  C19 UNL     1       5.948   6.696  11.337  1.00  0.00     0.310 C 
ENDBRANCH  33  34
ENDBRANCH  30  33
ENDBRANCH  11  29
TORSDOF 9
ENDMDL
MODEL 7
REMARK minimizedAffinity -7.41136217
REMARK  9 active torsions:
REMARK  status: ('A' for Active; 'I' for Inactive)
REMARK    1  A    between atoms: O1_2  and  C2_3 
REMARK    2  A    between atoms: C2_3  and  C3_4 
REMARK    3  A    between atoms: C3_4  and  N1_5 
REMARK       I    between atoms: N1_5  and  C4_6 
REMARK    4  A    between atoms: C4_6  and  C5_8 
REMARK    5  A    between atoms: C5_8  and  C7_10 
REMARK    6  A    between atoms: C15_20  and  N3_21 
REMARK       I    between atoms: N3_21  and  C16_22 
REMARK    7  A    between atoms: C16_22  and  C17_24 
REMARK    8  A    between atoms: C17_24  and  N4_25 
REMARK    9  A    between atoms: C23_32  and  O4_33 
ROOT
HETATM    1  C7  UNL     1      -5.145   6.529  13.839  1.00  0.00     0.027 C 
HETATM    2  C8  UNL     1      -5.139   5.493  12.707  1.00  0.00     0.009 C 
HETATM    3  C9  UNL     1      -3.825   4.707  12.654  1.00  0.00     0.010 C 
HETATM    4  C10 UNL     1      -2.546   5.516  13.019  1.00  0.00    -0.033 C 
HETATM    5  C11 UNL     1      -2.135   5.187  14.480  1.00  0.00     0.016 C 
HETATM    6  C12 UNL     1      -1.394   5.041  12.066  1.00  0.00     0.058 C 
HETATM    7  C13 UNL     1      -0.234   5.972  12.139  1.00  0.00     0.010 A 
HETATM    8  C14 UNL     1      -0.274   7.265  12.616  1.00  0.00     0.029 A 
HETATM    9  N2  UNL     1       0.947   7.909  12.644  1.00  0.00    -0.339 N 
ATOM     10  H2  UNL     1       1.109   8.851  13.001  1.00  0.00     0.168 HD
HETATM   11  C15 UNL     1       1.864   7.124  12.141  1.00  0.00     0.151 A 
HETATM   12  S1  UNL     1       1.341   5.579  11.624  1.00  0.00    -0.056 SA
HETATM   13  C20 UNL     1      -1.519   7.926  13.148  1.00  0.00     0.040 C 
HETATM   14  C21 UNL     1      -1.641   9.361  12.621  1.00  0.00     0.017 C 
HETATM   15  C22 UNL     1      -2.791   7.055  12.815  1.00  0.00     0.033 C 
HETATM   16  C23 UNL     1      -4.048   7.586  13.560  1.00  0.00     0.128 C 
ENDROOT
BRANCH   1  17
HETATM   17  C5  UNL     1      -6.564   7.126  14.061  1.00  0.00     0.080 C 
HETATM   18  C6  UNL     1      -6.765   7.726  15.457  1.00  0.00     0.020 C 
BRANCH  17  19
HETATM   19  C4  UNL     1      -7.649   6.078  13.801  1.00  0.00     0.222 C 
HETATM   20  N1  UNL     1      -7.202   4.891  13.257  1.00  0.00    -0.359 N 
HETATM   21  H8  UNL     1      -6.207   4.722  13.217  1.00  0.00     0.162 HD
HETATM   22  O2  UNL     1      -8.833   6.324  14.013  1.00  0.00    -0.273 OA
BRANCH  20  23
HETATM   23  C3  UNL     1      -8.085   3.746  13.099  1.00  0.00     0.148 C 
BRANCH  23  24
HETATM   24  C2  UNL     1      -7.313   2.427  12.966  1.00  0.00     0.186 C 
BRANCH  24  25
HETATM   25  O1  UNL     1      -6.442   2.464  11.836  1.00  0.00    -0.394 OA
HETATM   26  C1  UNL     1      -6.245   1.173  11.273  1.00  0.00     0.201 C 
ENDBRANCH  24  25
ENDBRANCH  23  24
ENDBRANCH  20  23
ENDBRANCH  17  19
ENDBRANCH   1  17
BRANCH  16  27
HETATM   27  O4  UNL     1      -4.591   8.654  12.782  1.00  0.00    -0.395 OA
HETATM   28  H38 UNL     1      -4.918   8.295  11.937  1.00  0.00     0.210 HD
ENDBRANCH  16  27
BRANCH  11  29
HETATM   29  N3  UNL     1       3.196   7.349  11.946  1.00  0.00    -0.306 N 
HETATM   30  C16 UNL     1       4.004   7.925  12.908  1.00  0.00     0.252 C 
HETATM   31  O3  UNL     1       3.669   8.218  14.053  1.00  0.00    -0.271 OA
HETATM   32  H23 UNL     1       3.567   7.066  11.052  1.00  0.00     0.171 HD
BRANCH  30  33
HETATM   33  C17 UNL     1       5.438   8.152  12.392  1.00  0.00     0.373 C 
BRANCH  33  34
HETATM   34  N4  UNL     1       6.440   8.441  13.437  1.00  0.00     0.088 N 
HETATM   35  C18 UNL     1       6.183   9.700  14.132  1.00  0.00     0.310 C 
HETATM   36  C19 UNL     1       6.588   7.341  14.390  1.00  0.00     0.310 C 
ENDBRANCH  33  34
ENDBRANCH  30  33
ENDBRANCH  11  29
TORSDOF 9
ENDMDL
MODEL 8
REMARK minimizedAffinity -7.36103392
REMARK  9 active torsions:
REMARK  status: ('A' for Active; 'I' for Inactive)
REMARK    1  A    between atoms: O1_2  and  C2_3 
REMARK    2  A    between atoms: C2_3  and  C3_4 
REMARK    3  A    between atoms: C3_4  and  N1_5 
REMARK       I    between atoms: N1_5  and  C4_6 
REMARK    4  A    between atoms: C4_6  and  C5_8 
REMARK    5  A    between atoms: C5_8  and  C7_10 
REMARK    6  A    between atoms: C15_20  and  N3_21 
REMARK       I    between atoms: N3_21  and  C16_22 
REMARK    7  A    between atoms: C16_22  and  C17_24 
REMARK    8  A    between atoms: C17_24  and  N4_25 
REMARK    9  A    between atoms: C23_32  and  O4_33 
ROOT
HETATM    1  C7  UNL     1       1.222   6.535   9.962  1.00  0.00     0.027 C 
HETATM    2  C8  UNL     1       1.905   5.659  11.021  1.00  0.00     0.009 C 
HETATM    3  C9  UNL     1       0.897   4.812  11.804  1.00  0.00     0.010 C 
HETATM    4  C10 UNL     1      -0.477   5.489  12.077  1.00  0.00    -0.033 C 
HETATM    5  C11 UNL     1      -1.522   4.946  11.065  1.00  0.00     0.016 C 
HETATM    6  C12 UNL     1      -0.933   5.078  13.520  1.00  0.00     0.058 C 
HETATM    7  C13 UNL     1      -2.074   5.922  13.972  1.00  0.00     0.010 A 
HETATM    8  C14 UNL     1      -2.430   7.140  13.435  1.00  0.00     0.029 A 
HETATM    9  N2  UNL     1      -3.567   7.702  13.981  1.00  0.00    -0.339 N 
ATOM     10  H2  UNL     1      -3.995   8.578  13.679  1.00  0.00     0.168 HD
HETATM   11  C15 UNL     1      -4.009   6.939  14.946  1.00  0.00     0.151 A 
HETATM   12  S1  UNL     1      -3.121   5.508  15.251  1.00  0.00    -0.056 SA
HETATM   13  C20 UNL     1      -1.707   7.796  12.288  1.00  0.00     0.040 C 
HETATM   14  C21 UNL     1      -1.507   9.293  12.556  1.00  0.00     0.017 C 
HETATM   15  C22 UNL     1      -0.347   7.053  11.996  1.00  0.00     0.033 C 
HETATM   16  C23 UNL     1       0.296   7.553  10.672  1.00  0.00     0.128 C 
ENDROOT
BRANCH   1  17
HETATM   17  C5  UNL     1       2.258   7.180   8.997  1.00  0.00     0.080 C 
HETATM   18  C6  UNL     1       2.285   6.532   7.607  1.00  0.00     0.020 C 
BRANCH  17  19
HETATM   19  C4  UNL     1       3.665   7.146   9.598  1.00  0.00     0.222 C 
HETATM   20  N1  UNL     1       4.094   8.332  10.158  1.00  0.00    -0.359 N 
HETATM   21  H8  UNL     1       3.425   9.076  10.286  1.00  0.00     0.162 HD
HETATM   22  O2  UNL     1       4.365   6.140   9.519  1.00  0.00    -0.273 OA
BRANCH  20  23
HETATM   23  C3  UNL     1       5.341   8.414  10.904  1.00  0.00     0.148 C 
BRANCH  23  24
HETATM   24  C2  UNL     1       5.288   7.627  12.220  1.00  0.00     0.186 C 
BRANCH  24  25
HETATM   25  O1  UNL     1       6.540   6.996  12.481  1.00  0.00    -0.394 OA
HETATM   26  C1  UNL     1       7.418   7.838  13.217  1.00  0.00     0.201 C 
ENDBRANCH  24  25
ENDBRANCH  23  24
ENDBRANCH  20  23
ENDBRANCH  17  19
ENDBRANCH   1  17
BRANCH  16  27
HETATM   27  O4  UNL     1       1.026   8.745  10.970  1.00  0.00    -0.395 OA
HETATM   28  H38 UNL     1       1.771   8.521  11.556  1.00  0.00     0.210 HD
ENDBRANCH  16  27
BRANCH  11  29
HETATM   29  N3  UNL     1      -5.080   7.109  15.774  1.00  0.00    -0.306 N 
HETATM   30  C16 UNL     1      -6.301   6.498  15.551  1.00  0.00     0.252 C 
HETATM   31  O3  UNL     1      -6.550   5.684  14.666  1.00  0.00    -0.271 OA
HETATM   32  H23 UNL     1      -4.934   7.709  16.571  1.00  0.00     0.171 HD
BRANCH  30  33
HETATM   33  C17 UNL     1      -7.358   6.938  16.581  1.00  0.00     0.373 C 
BRANCH  33  34
HETATM   34  N4  UNL     1      -8.449   7.774  16.039  1.00  0.00     0.088 N 
HETATM   35  C18 UNL     1      -7.964   8.822  15.144  1.00  0.00     0.310 C 
HETATM   36  C19 UNL     1      -9.495   6.980  15.394  1.00  0.00     0.310 C 
ENDBRANCH  33  34
ENDBRANCH  30  33
ENDBRANCH  11  29
TORSDOF 9
ENDMDL
MODEL 9
REMARK minimizedAffinity -7.29153967
REMARK  9 active torsions:
REMARK  status: ('A' for Active; 'I' for Inactive)
REMARK    1  A    between atoms: O1_2  and  C2_3 
REMARK    2  A    between atoms: C2_3  and  C3_4 
REMARK    3  A    between atoms: C3_4  and  N1_5 
REMARK       I    between atoms: N1_5  and  C4_6 
REMARK    4  A    between atoms: C4_6  and  C5_8 
REMARK    5  A    between atoms: C5_8  and  C7_10 
REMARK    6  A    between atoms: C15_20  and  N3_21 
REMARK       I    between atoms: N3_21  and  C16_22 
REMARK    7  A    between atoms: C16_22  and  C17_24 
REMARK    8  A    between atoms: C17_24  and  N4_25 
REMARK    9  A    between atoms: C23_32  and  O4_33 
ROOT
HETATM    1  C7  UNL     1      -5.786   5.819  13.557  1.00  0.00     0.027 C 
HETATM    2  C8  UNL     1      -5.642   6.231  15.027  1.00  0.00     0.009 C 
HETATM    3  C9  UNL     1      -4.793   7.495  15.191  1.00  0.00     0.010 C 
HETATM    4  C10 UNL     1      -3.610   7.640  14.189  1.00  0.00    -0.033 C 
HETATM    5  C11 UNL     1      -4.016   8.628  13.062  1.00  0.00     0.016 C 
HETATM    6  C12 UNL     1      -2.398   8.257  14.969  1.00  0.00     0.058 C 
HETATM    7  C13 UNL     1      -1.145   8.142  14.172  1.00  0.00     0.010 A 
HETATM    8  C14 UNL     1      -0.945   7.278  13.117  1.00  0.00     0.029 A 
HETATM    9  N2  UNL     1       0.280   7.403  12.492  1.00  0.00    -0.339 N 
ATOM     10  H2  UNL     1       0.581   6.874  11.673  1.00  0.00     0.168 HD
HETATM   11  C15 UNL     1       0.995   8.305  13.113  1.00  0.00     0.151 A 
HETATM   12  S1  UNL     1       0.257   9.067  14.456  1.00  0.00    -0.056 SA
HETATM   13  C20 UNL     1      -1.988   6.318  12.608  1.00  0.00     0.040 C 
HETATM   14  C21 UNL     1      -1.371   4.943  12.326  1.00  0.00     0.017 C 
HETATM   15  C22 UNL     1      -3.200   6.237  13.613  1.00  0.00     0.033 C 
HETATM   16  C23 UNL     1      -4.390   5.448  12.998  1.00  0.00     0.128 C 
ENDROOT
BRANCH   1  17
HETATM   17  C5  UNL     1      -6.862   4.709  13.375  1.00  0.00     0.080 C 
HETATM   18  C6  UNL     1      -6.457   3.623  12.371  1.00  0.00     0.020 C 
BRANCH  17  19
HETATM   19  C4  UNL     1      -8.206   5.309  12.956  1.00  0.00     0.222 C 
HETATM   20  N1  UNL     1      -9.003   5.748  13.993  1.00  0.00    -0.359 N 
HETATM   21  H8  UNL     1      -8.605   5.803  14.919  1.00  0.00     0.162 HD
HETATM   22  O2  UNL     1      -8.552   5.330  11.778  1.00  0.00    -0.273 OA
BRANCH  20  23
HETATM   23  C3  UNL     1     -10.236   6.481  13.748  1.00  0.00     0.148 C 
BRANCH  23  24
HETATM   24  C2  UNL     1     -10.173   7.922  14.270  1.00  0.00     0.186 C 
BRANCH  24  25
HETATM   25  O1  UNL     1      -8.908   8.184  14.876  1.00  0.00    -0.394 OA
HETATM   26  C1  UNL     1      -8.811   9.521  15.350  1.00  0.00     0.201 C 
ENDBRANCH  24  25
ENDBRANCH  23  24
ENDBRANCH  20  23
ENDBRANCH  17  19
ENDBRANCH   1  17
BRANCH  16  27
HETATM   27  O4  UNL     1      -4.140   4.057  13.207  1.00  0.00    -0.395 OA
HETATM   28  H38 UNL     1      -4.167   3.871  14.163  1.00  0.00     0.210 HD
ENDBRANCH  16  27
BRANCH  11  29
HETATM   29  N3  UNL     1       2.266   8.736  12.866  1.00  0.00    -0.306 N 
HETATM   30  C16 UNL     1       3.247   7.909  12.348  1.00  0.00     0.252 C 
HETATM   31  O3  UNL     1       3.090   6.750  11.973  1.00  0.00    -0.271 OA
HETATM   32  H23 UNL     1       2.456   9.703  13.079  1.00  0.00     0.171 HD
BRANCH  30  33
HETATM   33  C17 UNL     1       4.609   8.622  12.261  1.00  0.00     0.373 C 
BRANCH  33  34
HETATM   34  N4  UNL     1       5.638   8.120  13.194  1.00  0.00     0.088 N 
HETATM   35  C18 UNL     1       5.114   7.881  14.536  1.00  0.00     0.310 C 
HETATM   36  C19 UNL     1       6.324   6.933  12.683  1.00  0.00     0.310 C 
ENDBRANCH  33  34
ENDBRANCH  30  33
ENDBRANCH  11  29
TORSDOF 9
ENDMDL
