MODEL 1
REMARK minimizedAffinity -9.06375885
REMARK CNNscore 0.669426262
REMARK CNNaffinity 7.7323494
REMARK  11 active torsions:
REMARK  status: ('A' for Active; 'I' for Inactive)
REMARK    1  A    between atoms: C19_21  and  O3_22 
REMARK    2  A    between atoms: C19_21  and  C20_23 
REMARK    3  A    between atoms: C20_23  and  C21_25 
REMARK    4  A    between atoms: C21_25  and  O5_26 
REMARK    5  A    between atoms: O5_26  and  C22_27 
REMARK    6  A    between atoms: C22_27  and  C23_29 
REMARK    7  A    between atoms: C23_29  and  C24_30 
REMARK    8  A    between atoms: C24_30  and  C25_31 
REMARK       I    between atoms: C25_31  and  N1_33 
REMARK    9  A    between atoms: N1_33  and  C26_34 
REMARK   10  A    between atoms: C26_34  and  C27_35 
REMARK   11  A    between atoms: C27_35  and  C28_36 
ROOT
HETATM    1  C20 UNL     1      -5.370   5.735  14.557  1.00  0.00     0.185 C 
HETATM    2  O4  UNL     1      -4.791   6.211  15.544  1.00  0.00    -0.292 OA
ENDROOT
BRANCH   1   3
HETATM    3  C19 UNL     1      -6.897   5.455  14.646  1.00  0.00     0.128 C 
HETATM    4  C14 UNL     1      -7.841   6.540  14.036  1.00  0.00     0.005 C 
HETATM    5  C13 UNL     1      -9.114   5.903  13.421  1.00  0.00     0.091 C 
HETATM    6  C15 UNL     1      -7.130   7.350  12.930  1.00  0.00     0.019 C 
HETATM    7  C16 UNL     1      -8.237   7.447  15.245  1.00  0.00     0.002 C 
HETATM    8  C12 UNL     1     -10.097   6.964  12.967  1.00  0.00     0.133 C 
HETATM    9  C11 UNL     1     -10.342   8.145  13.909  1.00  0.00     0.072 C 
HETATM   10  O2  UNL     1     -10.603   6.892  11.849  1.00  0.00    -0.297 OA
HETATM   11  C2  UNL     1     -11.815   8.723  13.996  1.00  0.00    -0.009 C 
HETATM   12  C10 UNL     1      -9.747   7.805  15.307  1.00  0.00     0.003 C 
HETATM   13  C1  UNL     1     -11.744  10.236  13.637  1.00  0.00     0.021 C 
HETATM   14  C3  UNL     1     -12.883   8.142  13.027  1.00  0.00     0.022 C 
HETATM   15  C7  UNL     1     -12.317   8.566  15.439  1.00  0.00    -0.067 C 
HETATM   16  C4  UNL     1     -13.415   6.779  13.440  1.00  0.00     0.084 C 
HETATM   17  C5  UNL     1     -13.989   6.857  14.831  1.00  0.00     0.149 C 
HETATM   18  O1  UNL     1     -14.915   6.144  15.207  1.00  0.00    -0.293 OA
HETATM   19  C6  UNL     1     -13.326   7.756  15.803  1.00  0.00     0.053 C 
HETATM   20  C8  UNL     1     -11.492   9.263  16.493  1.00  0.00     0.035 C 
HETATM   21  C9  UNL     1     -10.001   8.964  16.298  1.00  0.00     0.010 C 
HETATM   22  C17 UNL     1      -7.819   6.677  16.518  1.00  0.00     0.009 C 
HETATM   23  C18 UNL     1      -7.408   5.285  16.071  1.00  0.00     0.047 C 
BRANCH   3  24
HETATM   24  O3  UNL     1      -7.092   4.201  13.975  1.00  0.00    -0.381 OA
HETATM   25  H25 UNL     1      -6.346   4.095  13.343  1.00  0.00     0.211 HD
ENDBRANCH   3  24
ENDBRANCH   1   3
BRANCH   1  26
HETATM   26  C21 UNL     1      -4.619   5.425  13.265  1.00  0.00     0.260 C 
BRANCH  26  27
HETATM   27  O5  UNL     1      -4.354   4.027  13.117  1.00  0.00    -0.314 OA
BRANCH  27  28
HETATM   28  C22 UNL     1      -4.656   3.514  11.896  1.00  0.00     0.259 C 
HETATM   29  O6  UNL     1      -5.749   3.064  11.578  1.00  0.00    -0.265 OA
BRANCH  28  30
HETATM   30  C23 UNL     1      -3.489   3.634  10.958  1.00  0.00     0.120 C 
BRANCH  30  31
HETATM   31  C24 UNL     1      -2.497   2.517  11.238  1.00  0.00     0.112 C 
BRANCH  31  32
HETATM   32  C25 UNL     1      -1.160   3.057  11.691  1.00  0.00     0.218 C 
HETATM   33  O7  UNL     1      -0.086   2.557  11.380  1.00  0.00    -0.274 OA
HETATM   34  N1  UNL     1      -1.277   4.166  12.501  1.00  0.00    -0.361 N 
HETATM   35  H32 UNL     1      -2.191   4.545  12.705  1.00  0.00     0.162 HD
BRANCH  34  36
HETATM   36  C26 UNL     1      -0.109   4.853  13.022  1.00  0.00     0.127 C 
BRANCH  36  37
HETATM   37  C27 UNL     1       0.151   6.190  12.323  1.00  0.00     0.060 C 
BRANCH  37  38
HETATM   38  C28 UNL     1       1.109   6.053  11.183  1.00  0.00    -0.029 A 
HETATM   39  C29 UNL     1       2.184   5.188  11.106  1.00  0.00     0.096 A 
HETATM   40  N2  UNL     1       2.803   5.380   9.900  1.00  0.00    -0.365 N 
HETATM   41  C30 UNL     1       2.160   6.359   9.183  1.00  0.00     0.042 A 
HETATM   42  H38 UNL     1       3.618   4.878   9.577  1.00  0.00     0.165 HD
HETATM   43  C31 UNL     1       2.440   6.882   7.915  1.00  0.00     0.030 A 
HETATM   44  C35 UNL     1       1.088   6.799   9.960  1.00  0.00    -0.002 A 
HETATM   45  C32 UNL     1       1.597   7.886   7.427  1.00  0.00     0.002 A 
HETATM   46  C33 UNL     1       0.519   8.345   8.180  1.00  0.00     0.001 A 
HETATM   47  C34 UNL     1       0.251   7.811   9.446  1.00  0.00     0.014 A 
ENDBRANCH  37  38
ENDBRANCH  36  37
ENDBRANCH  34  36
ENDBRANCH  31  32
ENDBRANCH  30  31
ENDBRANCH  28  30
ENDBRANCH  27  28
ENDBRANCH  26  27
ENDBRANCH   1  26
TORSDOF 11
ENDMDL
MODEL 2
REMARK minimizedAffinity -8.31413078
REMARK CNNscore 0.567501068
REMARK CNNaffinity 7.81317139
REMARK  11 active torsions:
REMARK  status: ('A' for Active; 'I' for Inactive)
REMARK    1  A    between atoms: C19_21  and  O3_22 
REMARK    2  A    between atoms: C19_21  and  C20_23 
REMARK    3  A    between atoms: C20_23  and  C21_25 
REMARK    4  A    between atoms: C21_25  and  O5_26 
REMARK    5  A    between atoms: O5_26  and  C22_27 
REMARK    6  A    between atoms: C22_27  and  C23_29 
REMARK    7  A    between atoms: C23_29  and  C24_30 
REMARK    8  A    between atoms: C24_30  and  C25_31 
REMARK       I    between atoms: C25_31  and  N1_33 
REMARK    9  A    between atoms: N1_33  and  C26_34 
REMARK   10  A    between atoms: C26_34  and  C27_35 
REMARK   11  A    between atoms: C27_35  and  C28_36 
ROOT
HETATM    1  C20 UNL     1      -6.782   6.064  14.251  1.00  0.00     0.185 C 
HETATM    2  O4  UNL     1      -6.094   7.010  13.842  1.00  0.00    -0.292 OA
ENDROOT
BRANCH   1   3
HETATM    3  C19 UNL     1      -8.056   6.370  15.089  1.00  0.00     0.128 C 
HETATM    4  C14 UNL     1      -9.301   6.886  14.300  1.00  0.00     0.005 C 
HETATM    5  C13 UNL     1     -10.623   6.388  14.939  1.00  0.00     0.091 C 
HETATM    6  C15 UNL     1      -9.274   6.413  12.830  1.00  0.00     0.019 C 
HETATM    7  C16 UNL     1      -9.219   8.443  14.402  1.00  0.00     0.002 C 
HETATM    8  C12 UNL     1     -11.830   7.012  14.266  1.00  0.00     0.133 C 
HETATM    9  C11 UNL     1     -11.770   8.511  13.962  1.00  0.00     0.072 C 
HETATM   10  O2  UNL     1     -12.773   6.303  13.920  1.00  0.00    -0.297 OA
HETATM   11  C2  UNL     1     -13.104   9.349  14.127  1.00  0.00    -0.009 C 
HETATM   12  C10 UNL     1     -10.570   9.133  14.736  1.00  0.00     0.003 C 
HETATM   13  C1  UNL     1     -13.393  10.039  12.763  1.00  0.00     0.021 C 
HETATM   14  C3  UNL     1     -14.412   8.577  14.458  1.00  0.00     0.022 C 
HETATM   15  C7  UNL     1     -12.877  10.423  15.201  1.00  0.00    -0.067 C 
HETATM   16  C4  UNL     1     -14.524   8.148  15.913  1.00  0.00     0.084 C 
HETATM   17  C5  UNL     1     -14.414   9.355  16.808  1.00  0.00     0.149 C 
HETATM   18  O1  UNL     1     -14.972   9.424  17.899  1.00  0.00    -0.293 OA
HETATM   19  C6  UNL     1     -13.502  10.445  16.391  1.00  0.00     0.053 C 
HETATM   20  C8  UNL     1     -11.760  11.398  14.919  1.00  0.00     0.035 C 
HETATM   21  C9  UNL     1     -10.492  10.655  14.478  1.00  0.00     0.010 C 
HETATM   22  C17 UNL     1      -8.179   8.749  15.503  1.00  0.00     0.009 C 
HETATM   23  C18 UNL     1      -7.842   7.424  16.167  1.00  0.00     0.047 C 
BRANCH   3  24
HETATM   24  O3  UNL     1      -8.373   5.140  15.759  1.00  0.00    -0.381 OA
HETATM   25  H25 UNL     1      -7.986   4.413  15.221  1.00  0.00     0.211 HD
ENDBRANCH   3  24
ENDBRANCH   1   3
BRANCH   1  26
HETATM   26  C21 UNL     1      -6.408   4.616  13.948  1.00  0.00     0.260 C 
BRANCH  26  27
HETATM   27  O5  UNL     1      -6.341   4.358  12.543  1.00  0.00    -0.314 OA
BRANCH  27  28
HETATM   28  C22 UNL     1      -6.665   3.090  12.178  1.00  0.00     0.259 C 
HETATM   29  O6  UNL     1      -7.568   2.430  12.674  1.00  0.00    -0.265 OA
BRANCH  28  30
HETATM   30  C23 UNL     1      -5.812   2.625  11.033  1.00  0.00     0.120 C 
BRANCH  30  31
HETATM   31  C24 UNL     1      -4.749   1.668  11.548  1.00  0.00     0.112 C 
BRANCH  31  32
HETATM   32  C25 UNL     1      -3.492   2.399  11.961  1.00  0.00     0.218 C 
HETATM   33  O7  UNL     1      -3.357   2.958  13.043  1.00  0.00    -0.274 OA
HETATM   34  N1  UNL     1      -2.517   2.380  10.988  1.00  0.00    -0.361 N 
HETATM   35  H32 UNL     1      -2.679   1.884  10.123  1.00  0.00     0.162 HD
BRANCH  34  36
HETATM   36  C26 UNL     1      -1.222   3.004  11.196  1.00  0.00     0.127 C 
BRANCH  36  37
HETATM   37  C27 UNL     1      -1.288   4.533  11.144  1.00  0.00     0.060 C 
BRANCH  37  38
HETATM   38  C28 UNL     1      -0.197   5.172  11.943  1.00  0.00    -0.029 A 
HETATM   39  C29 UNL     1      -0.007   5.075  13.308  1.00  0.00     0.096 A 
HETATM   40  N2  UNL     1       1.101   5.807  13.639  1.00  0.00    -0.365 N 
HETATM   41  C30 UNL     1       1.642   6.390  12.518  1.00  0.00     0.042 A 
HETATM   42  H38 UNL     1       1.474   5.912  14.572  1.00  0.00     0.165 HD
HETATM   43  C31 UNL     1       2.763   7.217  12.382  1.00  0.00     0.030 A 
HETATM   44  C35 UNL     1       0.852   6.006  11.435  1.00  0.00    -0.002 A 
HETATM   45  C32 UNL     1       3.085   7.665  11.097  1.00  0.00     0.002 A 
HETATM   46  C33 UNL     1       2.315   7.298   9.995  1.00  0.00     0.001 A 
HETATM   47  C34 UNL     1       1.197   6.469  10.149  1.00  0.00     0.014 A 
ENDBRANCH  37  38
ENDBRANCH  36  37
ENDBRANCH  34  36
ENDBRANCH  31  32
ENDBRANCH  30  31
ENDBRANCH  28  30
ENDBRANCH  27  28
ENDBRANCH  26  27
ENDBRANCH   1  26
TORSDOF 11
ENDMDL
MODEL 3
REMARK minimizedAffinity -8.92146015
REMARK CNNscore 0.553351879
REMARK CNNaffinity 7.73514032
REMARK  11 active torsions:
REMARK  status: ('A' for Active; 'I' for Inactive)
REMARK    1  A    between atoms: C19_21  and  O3_22 
REMARK    2  A    between atoms: C19_21  and  C20_23 
REMARK    3  A    between atoms: C20_23  and  C21_25 
REMARK    4  A    between atoms: C21_25  and  O5_26 
REMARK    5  A    between atoms: O5_26  and  C22_27 
REMARK    6  A    between atoms: C22_27  and  C23_29 
REMARK    7  A    between atoms: C23_29  and  C24_30 
REMARK    8  A    between atoms: C24_30  and  C25_31 
REMARK       I    between atoms: C25_31  and  N1_33 
REMARK    9  A    between atoms: N1_33  and  C26_34 
REMARK   10  A    between atoms: C26_34  and  C27_35 
REMARK   11  A    between atoms: C27_35  and  C28_36 
ROOT
HETATM    1  C20 UNL     1      -6.443   5.097  13.889  1.00  0.00     0.185 C 
HETATM    2  O4  UNL     1      -5.435   5.807  13.756  1.00  0.00    -0.292 OA
ENDROOT
BRANCH   1   3
HETATM    3  C19 UNL     1      -7.536   5.529  14.906  1.00  0.00     0.128 C 
HETATM    4  C14 UNL     1      -8.666   6.460  14.362  1.00  0.00     0.005 C 
HETATM    5  C13 UNL     1     -10.021   6.173  15.059  1.00  0.00     0.091 C 
HETATM    6  C15 UNL     1      -8.863   6.278  12.841  1.00  0.00     0.019 C 
HETATM    7  C16 UNL     1      -8.191   7.907  14.708  1.00  0.00     0.002 C 
HETATM    8  C12 UNL     1     -11.079   7.176  14.641  1.00  0.00     0.133 C 
HETATM    9  C11 UNL     1     -10.668   8.649  14.582  1.00  0.00     0.072 C 
HETATM   10  O2  UNL     1     -12.191   6.784  14.294  1.00  0.00    -0.297 OA
HETATM   11  C2  UNL     1     -11.735   9.729  15.035  1.00  0.00    -0.009 C 
HETATM   12  C10 UNL     1      -9.299   8.818  15.304  1.00  0.00     0.003 C 
HETATM   13  C1  UNL     1     -11.940  10.710  13.845  1.00  0.00     0.021 C 
HETATM   14  C3  UNL     1     -13.167   9.234  15.384  1.00  0.00     0.022 C 
HETATM   15  C7  UNL     1     -11.170  10.500  16.237  1.00  0.00    -0.067 C 
HETATM   16  C4  UNL     1     -13.278   8.579  16.751  1.00  0.00     0.084 C 
HETATM   17  C5  UNL     1     -12.806   9.538  17.814  1.00  0.00     0.149 C 
HETATM   18  O1  UNL     1     -13.250   9.529  18.959  1.00  0.00    -0.293 OA
HETATM   19  C6  UNL     1     -11.683  10.443  17.479  1.00  0.00     0.053 C 
HETATM   20  C8  UNL     1      -9.868  11.222  15.992  1.00  0.00     0.035 C 
HETATM   21  C9  UNL     1      -8.862  10.300  15.292  1.00  0.00     0.010 C 
HETATM   22  C17 UNL     1      -7.030   7.751  15.717  1.00  0.00     0.009 C 
HETATM   23  C18 UNL     1      -6.989   6.284  16.111  1.00  0.00     0.047 C 
BRANCH   3  24
HETATM   24  O3  UNL     1      -8.102   4.304  15.398  1.00  0.00    -0.381 OA
HETATM   25  H25 UNL     1      -7.948   3.621  14.707  1.00  0.00     0.211 HD
ENDBRANCH   3  24
ENDBRANCH   1   3
BRANCH   1  26
HETATM   26  C21 UNL     1      -6.630   3.819  13.076  1.00  0.00     0.260 C 
BRANCH  26  27
HETATM   27  O5  UNL     1      -5.973   3.884  11.808  1.00  0.00    -0.314 OA
BRANCH  27  28
HETATM   28  C22 UNL     1      -5.447   2.708  11.375  1.00  0.00     0.259 C 
HETATM   29  O6  UNL     1      -6.028   1.906  10.656  1.00  0.00    -0.265 OA
BRANCH  28  30
HETATM   30  C23 UNL     1      -4.027   2.551  11.839  1.00  0.00     0.120 C 
BRANCH  30  31
HETATM   31  C24 UNL     1      -3.165   3.632  11.207  1.00  0.00     0.112 C 
BRANCH  31  32
HETATM   32  C25 UNL     1      -1.693   3.377  11.435  1.00  0.00     0.218 C 
HETATM   33  O7  UNL     1      -1.165   2.280  11.294  1.00  0.00    -0.274 OA
HETATM   34  N1  UNL     1      -1.008   4.506  11.830  1.00  0.00    -0.361 N 
HETATM   35  H32 UNL     1      -1.495   5.387  11.908  1.00  0.00     0.162 HD
BRANCH  34  36
HETATM   36  C26 UNL     1       0.424   4.480  12.076  1.00  0.00     0.127 C 
BRANCH  36  37
HETATM   37  C27 UNL     1       1.000   5.872  12.348  1.00  0.00     0.060 C 
BRANCH  37  38
HETATM   38  C28 UNL     1       0.699   6.833  11.243  1.00  0.00    -0.029 A 
HETATM   39  C29 UNL     1      -0.187   7.892  11.287  1.00  0.00     0.096 A 
HETATM   40  N2  UNL     1      -0.167   8.519  10.070  1.00  0.00    -0.365 N 
HETATM   41  C30 UNL     1       0.713   7.889   9.222  1.00  0.00     0.042 A 
HETATM   42  H38 UNL     1      -0.718   9.328   9.821  1.00  0.00     0.165 HD
HETATM   43  C31 UNL     1       1.051   8.177   7.895  1.00  0.00     0.030 A 
HETATM   44  C35 UNL     1       1.277   6.828   9.932  1.00  0.00    -0.002 A 
HETATM   45  C32 UNL     1       1.996   7.354   7.274  1.00  0.00     0.002 A 
HETATM   46  C33 UNL     1       2.577   6.287   7.957  1.00  0.00     0.001 A 
HETATM   47  C34 UNL     1       2.228   6.013   9.285  1.00  0.00     0.014 A 
ENDBRANCH  37  38
ENDBRANCH  36  37
ENDBRANCH  34  36
ENDBRANCH  31  32
ENDBRANCH  30  31
ENDBRANCH  28  30
ENDBRANCH  27  28
ENDBRANCH  26  27
ENDBRANCH   1  26
TORSDOF 11
ENDMDL
MODEL 4
REMARK minimizedAffinity -9.34235573
REMARK CNNscore 0.540534616
REMARK CNNaffinity 7.74090528
REMARK  11 active torsions:
REMARK  status: ('A' for Active; 'I' for Inactive)
REMARK    1  A    between atoms: C19_21  and  O3_22 
REMARK    2  A    between atoms: C19_21  and  C20_23 
REMARK    3  A    between atoms: C20_23  and  C21_25 
REMARK    4  A    between atoms: C21_25  and  O5_26 
REMARK    5  A    between atoms: O5_26  and  C22_27 
REMARK    6  A    between atoms: C22_27  and  C23_29 
REMARK    7  A    between atoms: C23_29  and  C24_30 
REMARK    8  A    between atoms: C24_30  and  C25_31 
REMARK       I    between atoms: C25_31  and  N1_33 
REMARK    9  A    between atoms: N1_33  and  C26_34 
REMARK   10  A    between atoms: C26_34  and  C27_35 
REMARK   11  A    between atoms: C27_35  and  C28_36 
ROOT
HETATM    1  C20 UNL     1       1.034   5.544  11.233  1.00  0.00     0.185 C 
HETATM    2  O4  UNL     1       1.161   5.514  10.000  1.00  0.00    -0.292 OA
ENDROOT
BRANCH   1   3
HETATM    3  C19 UNL     1       1.552   6.787  12.010  1.00  0.00     0.128 C 
HETATM    4  C14 UNL     1       0.831   7.119  13.355  1.00  0.00     0.005 C 
HETATM    5  C13 UNL     1       1.813   7.724  14.391  1.00  0.00     0.091 C 
HETATM    6  C15 UNL     1       0.196   5.857  13.981  1.00  0.00     0.019 C 
HETATM    7  C16 UNL     1      -0.254   8.176  12.975  1.00  0.00     0.002 C 
HETATM    8  C12 UNL     1       1.084   8.185  15.638  1.00  0.00     0.133 C 
HETATM    9  C11 UNL     1      -0.225   8.954  15.444  1.00  0.00     0.072 C 
HETATM   10  O2  UNL     1       1.511   7.872  16.747  1.00  0.00    -0.297 OA
HETATM   11  C2  UNL     1      -0.535  10.142  16.445  1.00  0.00    -0.009 C 
HETATM   12  C10 UNL     1      -0.341   9.381  13.951  1.00  0.00     0.003 C 
HETATM   13  C1  UNL     1      -1.906   9.840  17.118  1.00  0.00     0.021 C 
HETATM   14  C3  UNL     1       0.441  10.365  17.634  1.00  0.00     0.022 C 
HETATM   15  C7  UNL     1      -0.641  11.445  15.640  1.00  0.00    -0.067 C 
HETATM   16  C4  UNL     1       1.739  11.057  17.246  1.00  0.00     0.084 C 
HETATM   17  C5  UNL     1       1.433  12.380  16.593  1.00  0.00     0.149 C 
HETATM   18  O1  UNL     1       2.189  13.345  16.664  1.00  0.00    -0.293 OA
HETATM   19  C6  UNL     1       0.224  12.468  15.741  1.00  0.00     0.053 C 
HETATM   20  C8  UNL     1      -1.706  11.463  14.570  1.00  0.00     0.035 C 
HETATM   21  C9  UNL     1      -1.639  10.188  13.720  1.00  0.00     0.010 C 
HETATM   22  C17 UNL     1       0.102   8.668  11.553  1.00  0.00     0.009 C 
HETATM   23  C18 UNL     1       1.465   8.085  11.219  1.00  0.00     0.047 C 
BRANCH   3  24
HETATM   24  O3  UNL     1       2.945   6.532  12.249  1.00  0.00    -0.381 OA
HETATM   25  H25 UNL     1       3.063   5.556  12.231  1.00  0.00     0.211 HD
ENDBRANCH   3  24
ENDBRANCH   1   3
BRANCH   1  26
HETATM   26  C21 UNL     1       0.381   4.395  11.996  1.00  0.00     0.260 C 
BRANCH  26  27
HETATM   27  O5  UNL     1       0.572   3.136  11.344  1.00  0.00    -0.314 OA
BRANCH  27  28
HETATM   28  C22 UNL     1      -0.542   2.363  11.255  1.00  0.00     0.259 C 
HETATM   29  O6  UNL     1      -0.539   1.151  11.086  1.00  0.00    -0.265 OA
BRANCH  28  30
HETATM   30  C23 UNL     1      -1.783   3.183  11.460  1.00  0.00     0.120 C 
BRANCH  30  31
HETATM   31  C24 UNL     1      -2.960   2.260  11.736  1.00  0.00     0.112 C 
BRANCH  31  32
HETATM   32  C25 UNL     1      -4.197   3.035  12.128  1.00  0.00     0.218 C 
HETATM   33  O7  UNL     1      -4.174   4.040  12.827  1.00  0.00    -0.274 OA
HETATM   34  N1  UNL     1      -5.356   2.485  11.624  1.00  0.00    -0.361 N 
HETATM   35  H32 UNL     1      -5.309   1.666  11.035  1.00  0.00     0.162 HD
BRANCH  34  36
HETATM   36  C26 UNL     1      -6.653   3.093  11.864  1.00  0.00     0.127 C 
BRANCH  36  37
HETATM   37  C27 UNL     1      -6.849   3.509  13.324  1.00  0.00     0.060 C 
BRANCH  37  38
HETATM   38  C28 UNL     1      -7.765   4.684  13.457  1.00  0.00    -0.029 A 
HETATM   39  C29 UNL     1      -8.707   5.106  12.538  1.00  0.00     0.096 A 
HETATM   40  N2  UNL     1      -9.330   6.216  13.042  1.00  0.00    -0.365 N 
HETATM   41  C30 UNL     1      -8.813   6.536  14.274  1.00  0.00     0.042 A 
HETATM   42  H38 UNL     1     -10.065   6.732  12.580  1.00  0.00     0.165 HD
HETATM   43  C31 UNL     1      -9.139   7.581  15.147  1.00  0.00     0.030 A 
HETATM   44  C35 UNL     1      -7.831   5.589  14.565  1.00  0.00    -0.002 A 
HETATM   45  C32 UNL     1      -8.438   7.659  16.355  1.00  0.00     0.002 A 
HETATM   46  C33 UNL     1      -7.452   6.728  16.673  1.00  0.00     0.001 A 
HETATM   47  C34 UNL     1      -7.139   5.688  15.790  1.00  0.00     0.014 A 
ENDBRANCH  37  38
ENDBRANCH  36  37
ENDBRANCH  34  36
ENDBRANCH  31  32
ENDBRANCH  30  31
ENDBRANCH  28  30
ENDBRANCH  27  28
ENDBRANCH  26  27
ENDBRANCH   1  26
TORSDOF 11
ENDMDL
MODEL 5
REMARK minimizedAffinity -8.46465969
REMARK CNNscore 0.527729511
REMARK CNNaffinity 7.02001619
REMARK  11 active torsions:
REMARK  status: ('A' for Active; 'I' for Inactive)
REMARK    1  A    between atoms: C19_21  and  O3_22 
REMARK    2  A    between atoms: C19_21  and  C20_23 
REMARK    3  A    between atoms: C20_23  and  C21_25 
REMARK    4  A    between atoms: C21_25  and  O5_26 
REMARK    5  A    between atoms: O5_26  and  C22_27 
REMARK    6  A    between atoms: C22_27  and  C23_29 
REMARK    7  A    between atoms: C23_29  and  C24_30 
REMARK    8  A    between atoms: C24_30  and  C25_31 
REMARK       I    between atoms: C25_31  and  N1_33 
REMARK    9  A    between atoms: N1_33  and  C26_34 
REMARK   10  A    between atoms: C26_34  and  C27_35 
REMARK   11  A    between atoms: C27_35  and  C28_36 
ROOT
HETATM    1  C20 UNL     1     -15.637   2.760  14.861  1.00  0.00     0.185 C 
HETATM    2  O4  UNL     1     -14.418   2.623  14.684  1.00  0.00    -0.292 OA
ENDROOT
BRANCH   1   3
HETATM    3  C19 UNL     1     -16.531   1.491  14.941  1.00  0.00     0.128 C 
HETATM    4  C14 UNL     1     -15.820   0.161  15.346  1.00  0.00     0.005 C 
HETATM    5  C13 UNL     1     -16.757  -0.755  16.175  1.00  0.00     0.091 C 
HETATM    6  C15 UNL     1     -14.552   0.432  16.185  1.00  0.00     0.019 C 
HETATM    7  C16 UNL     1     -15.470  -0.532  13.990  1.00  0.00     0.002 C 
HETATM    8  C12 UNL     1     -16.119  -2.105  16.436  1.00  0.00     0.133 C 
HETATM    9  C11 UNL     1     -15.403  -2.783  15.266  1.00  0.00     0.072 C 
HETATM   10  O2  UNL     1     -16.125  -2.576  17.571  1.00  0.00    -0.297 OA
HETATM   11  C2  UNL     1     -15.519  -4.359  15.146  1.00  0.00    -0.009 C 
HETATM   12  C10 UNL     1     -15.790  -2.051  13.947  1.00  0.00     0.003 C 
HETATM   13  C1  UNL     1     -14.073  -4.934  15.141  1.00  0.00     0.021 C 
HETATM   14  C3  UNL     1     -16.239  -5.124  16.292  1.00  0.00     0.022 C 
HETATM   15  C7  UNL     1     -16.205  -4.699  13.815  1.00  0.00    -0.067 C 
HETATM   16  C4  UNL     1     -17.755  -5.028  16.241  1.00  0.00     0.084 C 
HETATM   17  C5  UNL     1     -18.252  -5.534  14.911  1.00  0.00     0.149 C 
HETATM   18  O1  UNL     1     -19.349  -6.066  14.772  1.00  0.00    -0.293 OA
HETATM   19  C6  UNL     1     -17.419  -5.267  13.715  1.00  0.00     0.053 C 
HETATM   20  C8  UNL     1     -15.503  -4.199  12.576  1.00  0.00     0.035 C 
HETATM   21  C9  UNL     1     -15.108  -2.726  12.735  1.00  0.00     0.010 C 
HETATM   22  C17 UNL     1     -16.278   0.213  12.903  1.00  0.00     0.009 C 
HETATM   23  C18 UNL     1     -17.229   1.148  13.631  1.00  0.00     0.047 C 
BRANCH   3  24
HETATM   24  O3  UNL     1     -17.557   1.809  15.894  1.00  0.00    -0.381 OA
HETATM   25  H25 UNL     1     -17.194   2.508  16.482  1.00  0.00     0.211 HD
ENDBRANCH   3  24
ENDBRANCH   1   3
BRANCH   1  26
HETATM   26  C21 UNL     1     -16.272   4.141  15.004  1.00  0.00     0.260 C 
BRANCH  26  27
HETATM   27  O5  UNL     1     -15.658   5.108  14.149  1.00  0.00    -0.314 OA
BRANCH  27  28
HETATM   28  C22 UNL     1     -14.859   6.006  14.782  1.00  0.00     0.259 C 
HETATM   29  O6  UNL     1     -15.232   6.782  15.652  1.00  0.00    -0.265 OA
BRANCH  28  30
HETATM   30  C23 UNL     1     -13.435   5.875  14.324  1.00  0.00     0.120 C 
BRANCH  30  31
HETATM   31  C24 UNL     1     -12.632   7.069  14.816  1.00  0.00     0.112 C 
BRANCH  31  32
HETATM   32  C25 UNL     1     -11.261   7.119  14.182  1.00  0.00     0.218 C 
HETATM   33  O7  UNL     1     -11.068   7.389  13.003  1.00  0.00    -0.274 OA
HETATM   34  N1  UNL     1     -10.250   6.819  15.069  1.00  0.00    -0.361 N 
HETATM   35  H32 UNL     1     -10.470   6.625  16.036  1.00  0.00     0.162 HD
BRANCH  34  36
HETATM   36  C26 UNL     1      -8.854   6.836  14.666  1.00  0.00     0.127 C 
BRANCH  36  37
HETATM   37  C27 UNL     1      -8.073   5.628  15.191  1.00  0.00     0.060 C 
BRANCH  37  38
HETATM   38  C28 UNL     1      -6.895   5.302  14.331  1.00  0.00    -0.029 A 
HETATM   39  C29 UNL     1      -5.736   6.044  14.199  1.00  0.00     0.096 A 
HETATM   40  N2  UNL     1      -4.912   5.400  13.316  1.00  0.00    -0.365 N 
HETATM   41  C30 UNL     1      -5.508   4.248  12.859  1.00  0.00     0.042 A 
HETATM   42  H38 UNL     1      -3.996   5.718  13.033  1.00  0.00     0.165 HD
HETATM   43  C31 UNL     1      -5.042   3.289  11.953  1.00  0.00     0.030 A 
HETATM   44  C35 UNL     1      -6.753   4.156  13.482  1.00  0.00    -0.002 A 
HETATM   45  C32 UNL     1      -5.876   2.201  11.675  1.00  0.00     0.002 A 
HETATM   46  C33 UNL     1      -7.124   2.081  12.282  1.00  0.00     0.001 A 
HETATM   47  C34 UNL     1      -7.575   3.049  13.187  1.00  0.00     0.014 A 
ENDBRANCH  37  38
ENDBRANCH  36  37
ENDBRANCH  34  36
ENDBRANCH  31  32
ENDBRANCH  30  31
ENDBRANCH  28  30
ENDBRANCH  27  28
ENDBRANCH  26  27
ENDBRANCH   1  26
TORSDOF 11
ENDMDL
MODEL 6
REMARK minimizedAffinity -7.96957159
REMARK CNNscore 0.520593941
REMARK CNNaffinity 7.06298971
REMARK  11 active torsions:
REMARK  status: ('A' for Active; 'I' for Inactive)
REMARK    1  A    between atoms: C19_21  and  O3_22 
REMARK    2  A    between atoms: C19_21  and  C20_23 
REMARK    3  A    between atoms: C20_23  and  C21_25 
REMARK    4  A    between atoms: C21_25  and  O5_26 
REMARK    5  A    between atoms: O5_26  and  C22_27 
REMARK    6  A    between atoms: C22_27  and  C23_29 
REMARK    7  A    between atoms: C23_29  and  C24_30 
REMARK    8  A    between atoms: C24_30  and  C25_31 
REMARK       I    between atoms: C25_31  and  N1_33 
REMARK    9  A    between atoms: N1_33  and  C26_34 
REMARK   10  A    between atoms: C26_34  and  C27_35 
REMARK   11  A    between atoms: C27_35  and  C28_36 
ROOT
HETATM    1  C20 UNL     1      -6.356   6.869  14.398  1.00  0.00     0.185 C 
HETATM    2  O4  UNL     1      -6.637   6.037  13.524  1.00  0.00    -0.292 OA
ENDROOT
BRANCH   1   3
HETATM    3  C19 UNL     1      -4.867   7.058  14.804  1.00  0.00     0.128 C 
HETATM    4  C14 UNL     1      -3.915   7.638  13.710  1.00  0.00     0.005 C 
HETATM    5  C13 UNL     1      -2.810   8.529  14.333  1.00  0.00     0.091 C 
HETATM    6  C15 UNL     1      -4.690   8.489  12.680  1.00  0.00     0.019 C 
HETATM    7  C16 UNL     1      -3.266   6.383  13.042  1.00  0.00     0.002 C 
HETATM    8  C12 UNL     1      -1.799   8.966  13.291  1.00  0.00     0.133 C 
HETATM    9  C11 UNL     1      -1.310   7.908  12.299  1.00  0.00     0.072 C 
HETATM   10  O2  UNL     1      -1.464  10.146  13.220  1.00  0.00    -0.297 OA
HETATM   11  C2  UNL     1       0.210   7.963  11.856  1.00  0.00    -0.009 C 
HETATM   12  C10 UNL     1      -1.734   6.501  12.815  1.00  0.00     0.003 C 
HETATM   13  C1  UNL     1       0.240   8.078  10.304  1.00  0.00     0.021 C 
HETATM   14  C3  UNL     1       1.069   9.159  12.352  1.00  0.00     0.022 C 
HETATM   15  C7  UNL     1       0.891   6.654  12.281  1.00  0.00    -0.067 C 
HETATM   16  C4  UNL     1       1.517   9.040  13.800  1.00  0.00     0.084 C 
HETATM   17  C5  UNL     1       2.285   7.758  13.991  1.00  0.00     0.149 C 
HETATM   18  O1  UNL     1       3.179   7.639  14.824  1.00  0.00    -0.293 OA
HETATM   19  C6  UNL     1       1.856   6.573  13.213  1.00  0.00     0.053 C 
HETATM   20  C8  UNL     1       0.295   5.394  11.703  1.00  0.00     0.035 C 
HETATM   21  C9  UNL     1      -1.232   5.400  11.853  1.00  0.00     0.010 C 
HETATM   22  C17 UNL     1      -3.576   5.189  13.974  1.00  0.00     0.009 C 
HETATM   23  C18 UNL     1      -4.182   5.770  15.240  1.00  0.00     0.047 C 
BRANCH   3  24
HETATM   24  O3  UNL     1      -4.893   7.930  15.945  1.00  0.00    -0.381 OA
HETATM   25  H25 UNL     1      -5.726   8.448  15.890  1.00  0.00     0.211 HD
ENDBRANCH   3  24
ENDBRANCH   1   3
BRANCH   1  26
HETATM   26  C21 UNL     1      -7.436   7.708  15.077  1.00  0.00     0.260 C 
BRANCH  26  27
HETATM   27  O5  UNL     1      -8.705   7.579  14.431  1.00  0.00    -0.314 OA
BRANCH  27  28
HETATM   28  C22 UNL     1      -9.731   8.216  15.055  1.00  0.00     0.259 C 
HETATM   29  O6  UNL     1     -10.759   7.674  15.437  1.00  0.00    -0.265 OA
BRANCH  28  30
HETATM   30  C23 UNL     1      -9.409   9.665  15.279  1.00  0.00     0.120 C 
BRANCH  30  31
HETATM   31  C24 UNL     1     -10.392  10.529  14.505  1.00  0.00     0.112 C 
BRANCH  31  32
HETATM   32  C25 UNL     1     -10.843  11.723  15.314  1.00  0.00     0.218 C 
HETATM   33  O7  UNL     1     -11.909  12.299  15.134  1.00  0.00    -0.274 OA
HETATM   34  N1  UNL     1      -9.925  12.102  16.268  1.00  0.00    -0.361 N 
HETATM   35  H32 UNL     1      -9.071  11.573  16.383  1.00  0.00     0.162 HD
BRANCH  34  36
HETATM   36  C26 UNL     1     -10.178  13.212  17.170  1.00  0.00     0.127 C 
BRANCH  36  37
HETATM   37  C27 UNL     1      -9.016  13.468  18.133  1.00  0.00     0.060 C 
BRANCH  37  38
HETATM   38  C28 UNL     1      -9.348  13.070  19.535  1.00  0.00    -0.029 A 
HETATM   39  C29 UNL     1     -10.540  12.534  19.983  1.00  0.00     0.096 A 
HETATM   40  N2  UNL     1     -10.433  12.314  21.330  1.00  0.00    -0.365 N 
HETATM   41  C30 UNL     1      -9.193  12.698  21.780  1.00  0.00     0.042 A 
HETATM   42  H38 UNL     1     -11.158  11.925  21.917  1.00  0.00     0.165 HD
HETATM   43  C31 UNL     1      -8.648  12.659  23.068  1.00  0.00     0.030 A 
HETATM   44  C35 UNL     1      -8.485  13.173  20.675  1.00  0.00    -0.002 A 
HETATM   45  C32 UNL     1      -7.338  13.120  23.232  1.00  0.00     0.002 A 
HETATM   46  C33 UNL     1      -6.606  13.600  22.148  1.00  0.00     0.001 A 
HETATM   47  C34 UNL     1      -7.166  13.631  20.865  1.00  0.00     0.014 A 
ENDBRANCH  37  38
ENDBRANCH  36  37
ENDBRANCH  34  36
ENDBRANCH  31  32
ENDBRANCH  30  31
ENDBRANCH  28  30
ENDBRANCH  27  28
ENDBRANCH  26  27
ENDBRANCH   1  26
TORSDOF 11
ENDMDL
MODEL 7
REMARK minimizedAffinity -8.88799953
REMARK CNNscore 0.489892423
REMARK CNNaffinity 7.65179253
REMARK  11 active torsions:
REMARK  status: ('A' for Active; 'I' for Inactive)
REMARK    1  A    between atoms: C19_21  and  O3_22 
REMARK    2  A    between atoms: C19_21  and  C20_23 
REMARK    3  A    between atoms: C20_23  and  C21_25 
REMARK    4  A    between atoms: C21_25  and  O5_26 
REMARK    5  A    between atoms: O5_26  and  C22_27 
REMARK    6  A    between atoms: C22_27  and  C23_29 
REMARK    7  A    between atoms: C23_29  and  C24_30 
REMARK    8  A    between atoms: C24_30  and  C25_31 
REMARK       I    between atoms: C25_31  and  N1_33 
REMARK    9  A    between atoms: N1_33  and  C26_34 
REMARK   10  A    between atoms: C26_34  and  C27_35 
REMARK   11  A    between atoms: C27_35  and  C28_36 
ROOT
HETATM    1  C20 UNL     1      -5.761   6.760  14.127  1.00  0.00     0.185 C 
HETATM    2  O4  UNL     1      -6.261   7.493  13.261  1.00  0.00    -0.292 OA
ENDROOT
BRANCH   1   3
HETATM    3  C19 UNL     1      -4.628   7.327  15.027  1.00  0.00     0.128 C 
HETATM    4  C14 UNL     1      -3.423   7.997  14.293  1.00  0.00     0.005 C 
HETATM    5  C13 UNL     1      -2.843   9.177  15.115  1.00  0.00     0.091 C 
HETATM    6  C15 UNL     1      -3.838   8.538  12.907  1.00  0.00     0.019 C 
HETATM    7  C16 UNL     1      -2.354   6.865  14.168  1.00  0.00     0.002 C 
HETATM    8  C12 UNL     1      -1.583   9.728  14.476  1.00  0.00     0.133 C 
HETATM    9  C11 UNL     1      -0.556   8.717  13.960  1.00  0.00     0.072 C 
HETATM   10  O2  UNL     1      -1.455  10.940  14.321  1.00  0.00    -0.297 OA
HETATM   11  C2  UNL     1       0.977   9.076  14.129  1.00  0.00    -0.009 C 
HETATM   12  C10 UNL     1      -0.909   7.309  14.526  1.00  0.00     0.003 C 
HETATM   13  C1  UNL     1       1.624   9.038  12.714  1.00  0.00     0.021 C 
HETATM   14  C3  UNL     1       1.338  10.482  14.685  1.00  0.00     0.022 C 
HETATM   15  C7  UNL     1       1.635   8.009  15.017  1.00  0.00    -0.067 C 
HETATM   16  C4  UNL     1       1.162  10.616  16.189  1.00  0.00     0.084 C 
HETATM   17  C5  UNL     1       1.989   9.571  16.893  1.00  0.00     0.149 C 
HETATM   18  O1  UNL     1       2.466   9.745  18.010  1.00  0.00    -0.293 OA
HETATM   19  C6  UNL     1       2.128   8.246  16.244  1.00  0.00     0.053 C 
HETATM   20  C8  UNL     1       1.554   6.593  14.499  1.00  0.00     0.035 C 
HETATM   21  C9  UNL     1       0.125   6.262  14.051  1.00  0.00     0.010 C 
HETATM   22  C17 UNL     1      -2.812   5.732  15.114  1.00  0.00     0.009 C 
HETATM   23  C18 UNL     1      -3.975   6.282  15.923  1.00  0.00     0.047 C 
BRANCH   3  24
HETATM   24  O3  UNL     1      -5.269   8.279  15.890  1.00  0.00    -0.381 OA
HETATM   25  H25 UNL     1      -6.081   8.583  15.425  1.00  0.00     0.211 HD
ENDBRANCH   3  24
ENDBRANCH   1   3
BRANCH   1  26
HETATM   26  C21 UNL     1      -6.237   5.323  14.326  1.00  0.00     0.260 C 
BRANCH  26  27
HETATM   27  O5  UNL     1      -5.569   4.407  13.455  1.00  0.00    -0.314 OA
BRANCH  27  28
HETATM   28  C22 UNL     1      -6.283   4.035  12.360  1.00  0.00     0.259 C 
HETATM   29  O6  UNL     1      -7.482   4.227  12.211  1.00  0.00    -0.265 OA
BRANCH  28  30
HETATM   30  C23 UNL     1      -5.393   3.416  11.322  1.00  0.00     0.120 C 
BRANCH  30  31
HETATM   31  C24 UNL     1      -4.139   2.871  11.988  1.00  0.00     0.112 C 
BRANCH  31  32
HETATM   32  C25 UNL     1      -2.901   3.167  11.174  1.00  0.00     0.218 C 
HETATM   33  O7  UNL     1      -2.866   3.119   9.951  1.00  0.00    -0.274 OA
HETATM   34  N1  UNL     1      -1.810   3.486  11.954  1.00  0.00    -0.361 N 
HETATM   35  H32 UNL     1      -1.907   3.531  12.959  1.00  0.00     0.162 HD
BRANCH  34  36
HETATM   36  C26 UNL     1      -0.528   3.830  11.365  1.00  0.00     0.127 C 
BRANCH  36  37
HETATM   37  C27 UNL     1      -0.399   5.325  11.063  1.00  0.00     0.060 C 
BRANCH  37  38
HETATM   38  C28 UNL     1       0.997   5.706  10.686  1.00  0.00    -0.029 A 
HETATM   39  C29 UNL     1       2.165   5.146  11.166  1.00  0.00     0.096 A 
HETATM   40  N2  UNL     1       3.222   5.780  10.570  1.00  0.00    -0.365 N 
HETATM   41  C30 UNL     1       2.772   6.751   9.709  1.00  0.00     0.042 A 
HETATM   42  H38 UNL     1       4.197   5.570  10.735  1.00  0.00     0.165 HD
HETATM   43  C31 UNL     1       3.487   7.640   8.897  1.00  0.00     0.030 A 
HETATM   44  C35 UNL     1       1.378   6.727   9.755  1.00  0.00    -0.002 A 
HETATM   45  C32 UNL     1       2.752   8.530   8.108  1.00  0.00     0.002 A 
HETATM   46  C33 UNL     1       1.359   8.529   8.133  1.00  0.00     0.001 A 
HETATM   47  C34 UNL     1       0.660   7.634   8.950  1.00  0.00     0.014 A 
ENDBRANCH  37  38
ENDBRANCH  36  37
ENDBRANCH  34  36
ENDBRANCH  31  32
ENDBRANCH  30  31
ENDBRANCH  28  30
ENDBRANCH  27  28
ENDBRANCH  26  27
ENDBRANCH   1  26
TORSDOF 11
ENDMDL
MODEL 8
REMARK minimizedAffinity -8.51890182
REMARK CNNscore 0.456040949
REMARK CNNaffinity 7.4401145
REMARK  11 active torsions:
REMARK  status: ('A' for Active; 'I' for Inactive)
REMARK    1  A    between atoms: C19_21  and  O3_22 
REMARK    2  A    between atoms: C19_21  and  C20_23 
REMARK    3  A    between atoms: C20_23  and  C21_25 
REMARK    4  A    between atoms: C21_25  and  O5_26 
REMARK    5  A    between atoms: O5_26  and  C22_27 
REMARK    6  A    between atoms: C22_27  and  C23_29 
REMARK    7  A    between atoms: C23_29  and  C24_30 
REMARK    8  A    between atoms: C24_30  and  C25_31 
REMARK       I    between atoms: C25_31  and  N1_33 
REMARK    9  A    between atoms: N1_33  and  C26_34 
REMARK   10  A    between atoms: C26_34  and  C27_35 
REMARK   11  A    between atoms: C27_35  and  C28_36 
ROOT
HETATM    1  C20 UNL     1      -4.229   7.569  14.526  1.00  0.00     0.185 C 
HETATM    2  O4  UNL     1      -4.049   7.767  13.315  1.00  0.00    -0.292 OA
ENDROOT
BRANCH   1   3
HETATM    3  C19 UNL     1      -3.073   7.885  15.517  1.00  0.00     0.128 C 
HETATM    4  C14 UNL     1      -3.015   9.341  16.079  1.00  0.00     0.005 C 
HETATM    5  C13 UNL     1      -2.482   9.366  17.535  1.00  0.00     0.091 C 
HETATM    6  C15 UNL     1      -4.409  10.005  16.070  1.00  0.00     0.019 C 
HETATM    7  C16 UNL     1      -2.018  10.091  15.139  1.00  0.00     0.002 C 
HETATM    8  C12 UNL     1      -2.282  10.787  18.025  1.00  0.00     0.133 C 
HETATM    9  C11 UNL     1      -1.619  11.776  17.063  1.00  0.00     0.072 C 
HETATM   10  O2  UNL     1      -2.716  11.122  19.124  1.00  0.00    -0.297 OA
HETATM   11  C2  UNL     1      -0.627  12.848  17.679  1.00  0.00    -0.009 C 
HETATM   12  C10 UNL     1      -0.986  10.982  15.883  1.00  0.00     0.003 C 
HETATM   13  C1  UNL     1      -1.153  14.256  17.276  1.00  0.00     0.021 C 
HETATM   14  C3  UNL     1      -0.494  12.910  19.227  1.00  0.00     0.022 C 
HETATM   15  C7  UNL     1       0.766  12.632  17.070  1.00  0.00    -0.067 C 
HETATM   16  C4  UNL     1       0.366  11.804  19.818  1.00  0.00     0.084 C 
HETATM   17  C5  UNL     1       1.737  11.839  19.195  1.00  0.00     0.149 C 
HETATM   18  O1  UNL     1       2.747  11.479  19.793  1.00  0.00    -0.293 OA
HETATM   19  C6  UNL     1       1.838  12.219  17.766  1.00  0.00     0.053 C 
HETATM   20  C8  UNL     1       0.843  12.752  15.568  1.00  0.00     0.035 C 
HETATM   21  C9  UNL     1      -0.278  11.945  14.902  1.00  0.00     0.010 C 
HETATM   22  C17 UNL     1      -1.288   8.999  14.324  1.00  0.00     0.009 C 
HETATM   23  C18 UNL     1      -1.685   7.664  14.930  1.00  0.00     0.047 C 
BRANCH   3  24
HETATM   24  O3  UNL     1      -3.230   6.948  16.593  1.00  0.00    -0.381 OA
HETATM   25  H25 UNL     1      -4.177   6.684  16.606  1.00  0.00     0.211 HD
ENDBRANCH   3  24
ENDBRANCH   1   3
BRANCH   1  26
HETATM   26  C21 UNL     1      -5.554   7.030  15.058  1.00  0.00     0.260 C 
BRANCH  26  27
HETATM   27  O5  UNL     1      -6.655   7.371  14.212  1.00  0.00    -0.314 OA
BRANCH  27  28
HETATM   28  C22 UNL     1      -7.732   7.892  14.858  1.00  0.00     0.259 C 
HETATM   29  O6  UNL     1      -7.881   9.077  15.122  1.00  0.00    -0.265 OA
BRANCH  28  30
HETATM   30  C23 UNL     1      -8.753   6.829  15.143  1.00  0.00     0.120 C 
BRANCH  30  31
HETATM   31  C24 UNL     1      -9.576   6.567  13.892  1.00  0.00     0.112 C 
BRANCH  31  32
HETATM   32  C25 UNL     1      -8.828   5.704  12.902  1.00  0.00     0.218 C 
HETATM   33  O7  UNL     1      -8.904   5.844  11.687  1.00  0.00    -0.274 OA
HETATM   34  N1  UNL     1      -8.060   4.735  13.509  1.00  0.00    -0.361 N 
HETATM   35  H32 UNL     1      -8.021   4.682  14.517  1.00  0.00     0.162 HD
BRANCH  34  36
HETATM   36  C26 UNL     1      -7.242   3.816  12.736  1.00  0.00     0.127 C 
BRANCH  36  37
HETATM   37  C27 UNL     1      -5.770   4.235  12.687  1.00  0.00     0.060 C 
BRANCH  37  38
HETATM   38  C28 UNL     1      -4.895   3.153  12.139  1.00  0.00    -0.029 A 
HETATM   39  C29 UNL     1      -5.298   1.910  11.692  1.00  0.00     0.096 A 
HETATM   40  N2  UNL     1      -4.190   1.223  11.274  1.00  0.00    -0.365 N 
HETATM   41  C30 UNL     1      -3.062   1.990  11.443  1.00  0.00     0.042 A 
HETATM   42  H38 UNL     1      -4.191   0.287  10.896  1.00  0.00     0.165 HD
HETATM   43  C31 UNL     1      -1.722   1.699  11.161  1.00  0.00     0.030 A 
HETATM   44  C35 UNL     1      -3.472   3.210  11.980  1.00  0.00    -0.002 A 
HETATM   45  C32 UNL     1      -0.773   2.689  11.437  1.00  0.00     0.002 A 
HETATM   46  C33 UNL     1      -1.152   3.917  11.973  1.00  0.00     0.001 A 
HETATM   47  C34 UNL     1      -2.496   4.192  12.249  1.00  0.00     0.014 A 
ENDBRANCH  37  38
ENDBRANCH  36  37
ENDBRANCH  34  36
ENDBRANCH  31  32
ENDBRANCH  30  31
ENDBRANCH  28  30
ENDBRANCH  27  28
ENDBRANCH  26  27
ENDBRANCH   1  26
TORSDOF 11
ENDMDL
MODEL 9
REMARK minimizedAffinity -8.56616306
REMARK CNNscore 0.452262849
REMARK CNNaffinity 7.60112953
REMARK  11 active torsions:
REMARK  status: ('A' for Active; 'I' for Inactive)
REMARK    1  A    between atoms: C19_21  and  O3_22 
REMARK    2  A    between atoms: C19_21  and  C20_23 
REMARK    3  A    between atoms: C20_23  and  C21_25 
REMARK    4  A    between atoms: C21_25  and  O5_26 
REMARK    5  A    between atoms: O5_26  and  C22_27 
REMARK    6  A    between atoms: C22_27  and  C23_29 
REMARK    7  A    between atoms: C23_29  and  C24_30 
REMARK    8  A    between atoms: C24_30  and  C25_31 
REMARK       I    between atoms: C25_31  and  N1_33 
REMARK    9  A    between atoms: N1_33  and  C26_34 
REMARK   10  A    between atoms: C26_34  and  C27_35 
REMARK   11  A    between atoms: C27_35  and  C28_36 
ROOT
HETATM    1  C20 UNL     1      -6.131   6.240  14.049  1.00  0.00     0.185 C 
HETATM    2  O4  UNL     1      -6.646   7.189  13.440  1.00  0.00    -0.292 OA
ENDROOT
BRANCH   1   3
HETATM    3  C19 UNL     1      -4.824   6.486  14.853  1.00  0.00     0.128 C 
HETATM    4  C14 UNL     1      -4.314   7.961  14.922  1.00  0.00     0.005 C 
HETATM    5  C13 UNL     1      -3.624   8.260  16.278  1.00  0.00     0.091 C 
HETATM    6  C15 UNL     1      -5.473   8.967  14.745  1.00  0.00     0.019 C 
HETATM    7  C16 UNL     1      -3.274   8.078  13.763  1.00  0.00     0.002 C 
HETATM    8  C12 UNL     1      -2.998   9.641  16.285  1.00  0.00     0.133 C 
HETATM    9  C11 UNL     1      -2.215  10.065  15.040  1.00  0.00     0.072 C 
HETATM   10  O2  UNL     1      -3.193  10.397  17.235  1.00  0.00    -0.297 OA
HETATM   11  C2  UNL     1      -0.909  10.936  15.254  1.00  0.00    -0.009 C 
HETATM   12  C10 UNL     1      -1.961   8.810  14.154  1.00  0.00     0.003 C 
HETATM   13  C1  UNL     1      -1.087  12.251  14.441  1.00  0.00     0.021 C 
HETATM   14  C3  UNL     1      -0.580  11.412  16.697  1.00  0.00     0.022 C 
HETATM   15  C7  UNL     1       0.294  10.157  14.703  1.00  0.00    -0.067 C 
HETATM   16  C4  UNL     1       0.020  10.331  17.582  1.00  0.00     0.084 C 
HETATM   17  C5  UNL     1       1.267   9.782  16.939  1.00  0.00     0.149 C 
HETATM   18  O1  UNL     1       2.208   9.339  17.590  1.00  0.00    -0.293 OA
HETATM   19  C6  UNL     1       1.294   9.676  15.461  1.00  0.00     0.053 C 
HETATM   20  C8  UNL     1       0.221   9.799  13.238  1.00  0.00     0.035 C 
HETATM   21  C9  UNL     1      -1.146   9.193  12.898  1.00  0.00     0.010 C 
HETATM   22  C17 UNL     1      -2.963   6.631  13.315  1.00  0.00     0.009 C 
HETATM   23  C18 UNL     1      -3.624   5.710  14.326  1.00  0.00     0.047 C 
BRANCH   3  24
HETATM   24  O3  UNL     1      -5.094   5.997  16.176  1.00  0.00    -0.381 OA
HETATM   25  H25 UNL     1      -6.068   6.034  16.300  1.00  0.00     0.211 HD
ENDBRANCH   3  24
ENDBRANCH   1   3
BRANCH   1  26
HETATM   26  C21 UNL     1      -6.754   4.847  14.029  1.00  0.00     0.260 C 
BRANCH  26  27
HETATM   27  O5  UNL     1      -6.668   4.236  12.739  1.00  0.00    -0.314 OA
BRANCH  27  28
HETATM   28  C22 UNL     1      -7.316   3.047  12.625  1.00  0.00     0.259 C 
HETATM   29  O6  UNL     1      -8.466   2.841  12.987  1.00  0.00    -0.265 OA
BRANCH  28  30
HETATM   30  C23 UNL     1      -6.456   2.031  11.929  1.00  0.00     0.120 C 
BRANCH  30  31
HETATM   31  C24 UNL     1      -5.440   2.742  11.050  1.00  0.00     0.112 C 
BRANCH  31  32
HETATM   32  C25 UNL     1      -4.023   2.378  11.427  1.00  0.00     0.218 C 
HETATM   33  O7  UNL     1      -3.638   1.225  11.583  1.00  0.00    -0.274 OA
HETATM   34  N1  UNL     1      -3.211   3.479  11.588  1.00  0.00    -0.361 N 
HETATM   35  H32 UNL     1      -3.581   4.405  11.424  1.00  0.00     0.162 HD
BRANCH  34  36
HETATM   36  C26 UNL     1      -1.804   3.345  11.925  1.00  0.00     0.127 C 
BRANCH  36  37
HETATM   37  C27 UNL     1      -0.913   4.307  11.135  1.00  0.00     0.060 C 
BRANCH  37  38
HETATM   38  C28 UNL     1       0.038   5.049  12.018  1.00  0.00    -0.029 A 
HETATM   39  C29 UNL     1       0.179   4.907  13.385  1.00  0.00     0.096 A 
HETATM   40  N2  UNL     1       1.155   5.769  13.808  1.00  0.00    -0.365 N 
HETATM   41  C30 UNL     1       1.659   6.479  12.745  1.00  0.00     0.042 A 
HETATM   42  H38 UNL     1       1.467   5.874  14.763  1.00  0.00     0.165 HD
HETATM   43  C31 UNL     1       2.655   7.461  12.705  1.00  0.00     0.030 A 
HETATM   44  C35 UNL     1       0.981   6.046  11.605  1.00  0.00    -0.002 A 
HETATM   45  C32 UNL     1       2.968   8.016  11.460  1.00  0.00     0.002 A 
HETATM   46  C33 UNL     1       2.309   7.604  10.305  1.00  0.00     0.001 A 
HETATM   47  C34 UNL     1       1.315   6.620  10.361  1.00  0.00     0.014 A 
ENDBRANCH  37  38
ENDBRANCH  36  37
ENDBRANCH  34  36
ENDBRANCH  31  32
ENDBRANCH  30  31
ENDBRANCH  28  30
ENDBRANCH  27  28
ENDBRANCH  26  27
ENDBRANCH   1  26
TORSDOF 11
ENDMDL
