MODEL 1
REMARK minimizedAffinity -7.78643465
REMARK CNNscore 0.628688991
REMARK CNNaffinity 7.05010414
REMARK  12 active torsions:
REMARK  status: ('A' for Active; 'I' for Inactive)
REMARK    1  A    between atoms: C4_4  and  C5_5 
REMARK    2  A    between atoms: C5_5  and  O1_6 
REMARK    3  A    between atoms: C5_5  and  C6_7 
REMARK    4  A    between atoms: C6_7  and  C7_8 
REMARK    5  A    between atoms: C9_11  and  C10_12 
REMARK    6  A    between atoms: C18_20  and  O3_21 
REMARK    7  A    between atoms: O3_21  and  C19_22 
REMARK    8  A    between atoms: C20_24  and  C21_25 
REMARK    9  A    between atoms: C21_25  and  O5_26 
REMARK   10  A    between atoms: C22_27  and  O6_28 
REMARK   11  A    between atoms: C23_29  and  O7_30 
REMARK   12  A    between atoms: C24_31  and  O8_32 
ROOT
HETATM    1  C10 UNL     1       6.374  53.803  -7.464  1.00  0.00     0.029 C 
HETATM    2  C11 UNL     1       6.636  53.863  -9.004  1.00  0.00     0.009 C 
HETATM    3  C12 UNL     1       5.521  54.543  -9.823  1.00  0.00     0.007 C 
HETATM    4  C13 UNL     1       4.174  54.419  -9.104  1.00  0.00     0.003 C 
HETATM    5  C14 UNL     1       2.860  54.453  -9.985  1.00  0.00    -0.035 C 
HETATM    6  C15 UNL     1       2.660  55.829 -10.653  1.00  0.00     0.016 C 
HETATM    7  C16 UNL     1       2.963  53.392 -11.124  1.00  0.00     0.012 C 
HETATM    8  C17 UNL     1       1.643  53.107 -11.845  1.00  0.00     0.034 C 
HETATM    9  C18 UNL     1       0.518  52.698 -10.890  1.00  0.00     0.133 C 
HETATM   10  C25 UNL     1       0.303  53.727  -9.731  1.00  0.00    -0.017 C 
HETATM   11  C26 UNL     1      -0.688  53.079  -8.722  1.00  0.00     0.018 C 
HETATM   12  C27 UNL     1      -0.391  55.009 -10.239  1.00  0.00     0.018 C 
HETATM   13  C28 UNL     1       1.687  53.988  -9.035  1.00  0.00     0.004 C 
HETATM   14  C29 UNL     1       1.623  54.817  -7.735  1.00  0.00     0.007 C 
HETATM   15  C30 UNL     1       2.955  54.803  -6.959  1.00  0.00     0.011 C 
HETATM   16  C31 UNL     1       4.181  55.289  -7.786  1.00  0.00    -0.029 C 
HETATM   17  C32 UNL     1       3.960  56.804  -8.040  1.00  0.00     0.016 C 
HETATM   18  C33 UNL     1       5.584  55.095  -6.993  1.00  0.00     0.004 C 
HETATM   19  C34 UNL     1       5.441  55.214  -5.465  1.00  0.00     0.190 C 
HETATM   20  O9  UNL     1       6.747  55.493  -4.953  1.00  0.00    -0.321 OA
HETATM   21  C35 UNL     1       7.447  56.156  -5.916  1.00  0.00     0.259 C 
HETATM   22  O10 UNL     1       8.571  56.605  -5.773  1.00  0.00    -0.265 OA
HETATM   23  C36 UNL     1       6.599  56.275  -7.152  1.00  0.00     0.124 C 
ENDROOT
BRANCH   9  24
HETATM   24  O3  UNL     1      -0.722  52.531 -11.587  1.00  0.00    -0.352 OA
BRANCH  24  25
HETATM   25  C19 UNL     1      -0.730  51.498 -12.566  1.00  0.00     0.292 C 
HETATM   26  O4  UNL     1      -1.638  51.814 -13.628  1.00  0.00    -0.348 OA
HETATM   27  C20 UNL     1      -3.029  51.741 -13.288  1.00  0.00     0.179 C 
HETATM   28  C22 UNL     1      -3.403  50.353 -12.731  1.00  0.00     0.180 C 
HETATM   29  C23 UNL     1      -2.505  49.943 -11.554  1.00  0.00     0.183 C 
HETATM   30  C24 UNL     1      -1.022  50.122 -11.923  1.00  0.00     0.204 C 
BRANCH  27  31
HETATM   31  C21 UNL     1      -3.501  52.909 -12.413  1.00  0.00     0.198 C 
BRANCH  31  32
HETATM   32  O5  UNL     1      -4.284  53.817 -13.191  1.00  0.00    -0.398 OA
HETATM   33  H34 UNL     1      -4.524  54.549 -12.594  1.00  0.00     0.209 HD
ENDBRANCH  31  32
ENDBRANCH  27  31
BRANCH  28  34
HETATM   34  O6  UNL     1      -3.229  49.368 -13.772  1.00  0.00    -0.390 OA
HETATM   35  H36 UNL     1      -3.825  49.617 -14.504  1.00  0.00     0.210 HD
ENDBRANCH  28  34
BRANCH  29  36
HETATM   36  O7  UNL     1      -2.841  50.654 -10.365  1.00  0.00    -0.390 OA
HETATM   37  H38 UNL     1      -3.745  50.390 -10.113  1.00  0.00     0.210 HD
ENDBRANCH  29  36
BRANCH  30  38
HETATM   38  O8  UNL     1      -0.633  49.076 -12.839  1.00  0.00    -0.388 OA
HETATM   39  H40 UNL     1      -1.340  49.039 -13.520  1.00  0.00     0.210 HD
ENDBRANCH  30  38
ENDBRANCH  24  25
ENDBRANCH   9  24
BRANCH   1  40
HETATM   40  C9  UNL     1       5.784  52.445  -7.112  1.00  0.00     0.162 A 
HETATM   41  C7  UNL     1       6.451  51.499  -6.105  1.00  0.00     0.087 A 
HETATM   42  C8  UNL     1       7.601  51.920  -5.232  1.00  0.00     0.049 C 
HETATM   43  O2  UNL     1       5.258  52.243  -5.805  1.00  0.00    -0.369 OA
BRANCH  41  44
HETATM   44  C6  UNL     1       6.204  50.012  -6.256  1.00  0.00     0.076 C 
BRANCH  44  45
HETATM   45  C5  UNL     1       7.060  49.324  -7.333  1.00  0.00     0.144 C 
BRANCH  45  46
HETATM   46  C4  UNL     1       8.533  49.649  -7.274  1.00  0.00     0.006 C 
HETATM   47  C2  UNL     1       9.609  49.018  -7.790  1.00  0.00    -0.089 C 
HETATM   48  C1  UNL     1      10.997  49.549  -7.531  1.00  0.00     0.042 C 
HETATM   49  C3  UNL     1       9.577  47.809  -8.682  1.00  0.00     0.042 C 
ENDBRANCH  45  46
BRANCH  45  50
HETATM   50  O1  UNL     1       6.507  49.539  -8.625  1.00  0.00    -0.392 OA
HETATM   51  H9  UNL     1       7.117  49.118  -9.254  1.00  0.00     0.210 HD
ENDBRANCH  45  50
ENDBRANCH  44  45
ENDBRANCH  41  44
ENDBRANCH   1  40
TORSDOF 12
ENDMDL
MODEL 2
REMARK minimizedAffinity -7.46261072
REMARK CNNscore 0.40564388
REMARK CNNaffinity 6.60291147
REMARK  12 active torsions:
REMARK  status: ('A' for Active; 'I' for Inactive)
REMARK    1  A    between atoms: C4_4  and  C5_5 
REMARK    2  A    between atoms: C5_5  and  O1_6 
REMARK    3  A    between atoms: C5_5  and  C6_7 
REMARK    4  A    between atoms: C6_7  and  C7_8 
REMARK    5  A    between atoms: C9_11  and  C10_12 
REMARK    6  A    between atoms: C18_20  and  O3_21 
REMARK    7  A    between atoms: O3_21  and  C19_22 
REMARK    8  A    between atoms: C20_24  and  C21_25 
REMARK    9  A    between atoms: C21_25  and  O5_26 
REMARK   10  A    between atoms: C22_27  and  O6_28 
REMARK   11  A    between atoms: C23_29  and  O7_30 
REMARK   12  A    between atoms: C24_31  and  O8_32 
ROOT
HETATM    1  C10 UNL     1       6.376  55.323  -6.341  1.00  0.00     0.029 C 
HETATM    2  C11 UNL     1       6.967  55.209  -7.784  1.00  0.00     0.009 C 
HETATM    3  C12 UNL     1       5.978  55.548  -8.916  1.00  0.00     0.007 C 
HETATM    4  C13 UNL     1       4.537  55.282  -8.469  1.00  0.00     0.003 C 
HETATM    5  C14 UNL     1       3.466  54.947  -9.585  1.00  0.00    -0.035 C 
HETATM    6  C15 UNL     1       3.219  56.153 -10.515  1.00  0.00     0.016 C 
HETATM    7  C16 UNL     1       3.981  53.771 -10.472  1.00  0.00     0.012 C 
HETATM    8  C17 UNL     1       2.916  53.148 -11.378  1.00  0.00     0.034 C 
HETATM    9  C18 UNL     1       1.677  52.680 -10.607  1.00  0.00     0.133 C 
HETATM   10  C25 UNL     1       1.055  53.807  -9.718  1.00  0.00    -0.017 C 
HETATM   11  C26 UNL     1      -0.030  53.138  -8.826  1.00  0.00     0.018 C 
HETATM   12  C27 UNL     1       0.311  54.853 -10.574  1.00  0.00     0.018 C 
HETATM   13  C28 UNL     1       2.191  54.415  -8.819  1.00  0.00     0.004 C 
HETATM   14  C29 UNL     1       1.712  55.395  -7.728  1.00  0.00     0.007 C 
HETATM   15  C30 UNL     1       2.821  55.738  -6.713  1.00  0.00     0.011 C 
HETATM   16  C31 UNL     1       4.115  56.318  -7.353  1.00  0.00    -0.029 C 
HETATM   17  C32 UNL     1       3.735  57.715  -7.914  1.00  0.00     0.016 C 
HETATM   18  C33 UNL     1       5.316  56.502  -6.276  1.00  0.00     0.004 C 
HETATM   19  C34 UNL     1       4.815  56.809  -4.853  1.00  0.00     0.190 C 
HETATM   20  O9  UNL     1       5.915  57.394  -4.151  1.00  0.00    -0.321 OA
HETATM   21  C35 UNL     1       6.707  58.030  -5.058  1.00  0.00     0.259 C 
HETATM   22  O10 UNL     1       7.690  58.694  -4.778  1.00  0.00    -0.265 OA
HETATM   23  C36 UNL     1       6.153  57.813  -6.439  1.00  0.00     0.124 C 
ENDROOT
BRANCH   9  24
HETATM   24  O3  UNL     1       0.667  52.190 -11.495  1.00  0.00    -0.352 OA
BRANCH  24  25
HETATM   25  C19 UNL     1       1.074  52.041 -12.851  1.00  0.00     0.292 C 
HETATM   26  O4  UNL     1       0.079  52.561 -13.739  1.00  0.00    -0.348 OA
HETATM   27  C20 UNL     1      -1.124  51.786 -13.834  1.00  0.00     0.179 C 
HETATM   28  C22 UNL     1      -0.828  50.329 -14.243  1.00  0.00     0.180 C 
HETATM   29  C23 UNL     1       0.206  49.669 -13.316  1.00  0.00     0.183 C 
HETATM   30  C24 UNL     1       1.443  50.571 -13.165  1.00  0.00     0.204 C 
BRANCH  27  31
HETATM   31  C21 UNL     1      -2.026  51.913 -12.600  1.00  0.00     0.198 C 
BRANCH  31  32
HETATM   32  O5  UNL     1      -2.798  53.113 -12.680  1.00  0.00    -0.398 OA
HETATM   33  H34 UNL     1      -3.321  53.155 -11.859  1.00  0.00     0.209 HD
ENDBRANCH  31  32
ENDBRANCH  27  31
BRANCH  28  34
HETATM   34  O6  UNL     1      -0.280  50.319 -15.578  1.00  0.00    -0.390 OA
HETATM   35  H36 UNL     1      -0.953  50.711 -16.167  1.00  0.00     0.210 HD
ENDBRANCH  28  34
BRANCH  29  36
HETATM   36  O7  UNL     1      -0.361  49.336 -12.051  1.00  0.00    -0.390 OA
HETATM   37  H38 UNL     1      -1.046  48.660 -12.208  1.00  0.00     0.210 HD
ENDBRANCH  29  36
BRANCH  30  38
HETATM   38  O8  UNL     1       2.215  50.524 -14.384  1.00  0.00    -0.388 OA
HETATM   39  H40 UNL     1       1.570  50.641 -15.115  1.00  0.00     0.210 HD
ENDBRANCH  30  38
ENDBRANCH  24  25
ENDBRANCH   9  24
BRANCH   1  40
HETATM   40  C9  UNL     1       5.930  53.944  -5.876  1.00  0.00     0.162 A 
HETATM   41  C7  UNL     1       6.899  52.947  -5.226  1.00  0.00     0.087 A 
HETATM   42  C8  UNL     1       8.291  53.325  -4.801  1.00  0.00     0.049 C 
HETATM   43  O2  UNL     1       5.903  53.666  -4.480  1.00  0.00    -0.369 OA
BRANCH  41  44
HETATM   44  C6  UNL     1       6.593  51.469  -5.360  1.00  0.00     0.076 C 
BRANCH  44  45
HETATM   45  C5  UNL     1       7.594  50.681  -6.223  1.00  0.00     0.144 C 
BRANCH  45  46
HETATM   46  C4  UNL     1       6.997  50.026  -7.445  1.00  0.00     0.006 C 
HETATM   47  C2  UNL     1       6.669  50.525  -8.656  1.00  0.00    -0.089 C 
HETATM   48  C1  UNL     1       6.032  49.636  -9.695  1.00  0.00     0.042 C 
HETATM   49  C3  UNL     1       6.925  51.929  -9.129  1.00  0.00     0.042 C 
ENDBRANCH  45  46
BRANCH  45  50
HETATM   50  O1  UNL     1       8.335  49.769  -5.423  1.00  0.00    -0.392 OA
HETATM   51  H9  UNL     1       8.910  49.279  -6.035  1.00  0.00     0.210 HD
ENDBRANCH  45  50
ENDBRANCH  44  45
ENDBRANCH  41  44
ENDBRANCH   1  40
TORSDOF 12
ENDMDL
MODEL 3
REMARK minimizedAffinity -7.49214363
REMARK CNNscore 0.375830233
REMARK CNNaffinity 6.86910629
REMARK  12 active torsions:
REMARK  status: ('A' for Active; 'I' for Inactive)
REMARK    1  A    between atoms: C4_4  and  C5_5 
REMARK    2  A    between atoms: C5_5  and  O1_6 
REMARK    3  A    between atoms: C5_5  and  C6_7 
REMARK    4  A    between atoms: C6_7  and  C7_8 
REMARK    5  A    between atoms: C9_11  and  C10_12 
REMARK    6  A    between atoms: C18_20  and  O3_21 
REMARK    7  A    between atoms: O3_21  and  C19_22 
REMARK    8  A    between atoms: C20_24  and  C21_25 
REMARK    9  A    between atoms: C21_25  and  O5_26 
REMARK   10  A    between atoms: C22_27  and  O6_28 
REMARK   11  A    between atoms: C23_29  and  O7_30 
REMARK   12  A    between atoms: C24_31  and  O8_32 
ROOT
HETATM    1  C10 UNL     1       6.354  53.542  -7.412  1.00  0.00     0.029 C 
HETATM    2  C11 UNL     1       6.603  53.504  -8.954  1.00  0.00     0.009 C 
HETATM    3  C12 UNL     1       5.530  54.215  -9.801  1.00  0.00     0.007 C 
HETATM    4  C13 UNL     1       4.185  54.221  -9.068  1.00  0.00     0.003 C 
HETATM    5  C14 UNL     1       2.867  54.300  -9.941  1.00  0.00    -0.035 C 
HETATM    6  C15 UNL     1       2.754  55.649 -10.679  1.00  0.00     0.016 C 
HETATM    7  C16 UNL     1       2.886  53.176 -11.023  1.00  0.00     0.012 C 
HETATM    8  C17 UNL     1       1.543  52.945 -11.720  1.00  0.00     0.034 C 
HETATM    9  C18 UNL     1       0.402  52.665 -10.737  1.00  0.00     0.133 C 
HETATM   10  C25 UNL     1       0.269  53.765  -9.633  1.00  0.00    -0.017 C 
HETATM   11  C26 UNL     1      -0.753  53.239  -8.585  1.00  0.00     0.018 C 
HETATM   12  C27 UNL     1      -0.341  55.063 -10.203  1.00  0.00     0.018 C 
HETATM   13  C28 UNL     1       1.674  53.967  -8.960  1.00  0.00     0.004 C 
HETATM   14  C29 UNL     1       1.680  54.864  -7.705  1.00  0.00     0.007 C 
HETATM   15  C30 UNL     1       3.015  54.800  -6.938  1.00  0.00     0.011 C 
HETATM   16  C31 UNL     1       4.263  55.156  -7.797  1.00  0.00    -0.029 C 
HETATM   17  C32 UNL     1       4.144  56.668  -8.129  1.00  0.00     0.016 C 
HETATM   18  C33 UNL     1       5.658  54.909  -7.004  1.00  0.00     0.004 C 
HETATM   19  C34 UNL     1       5.538  55.116  -5.483  1.00  0.00     0.190 C 
HETATM   20  O9  UNL     1       6.866  55.331  -4.995  1.00  0.00    -0.321 OA
HETATM   21  C35 UNL     1       7.599  55.894  -5.996  1.00  0.00     0.259 C 
HETATM   22  O10 UNL     1       8.752  56.271  -5.884  1.00  0.00    -0.265 OA
HETATM   23  C36 UNL     1       6.749  56.006  -7.231  1.00  0.00     0.124 C 
ENDROOT
BRANCH   9  24
HETATM   24  O3  UNL     1      -0.853  52.547 -11.417  1.00  0.00    -0.352 OA
BRANCH  24  25
HETATM   25  C19 UNL     1      -0.869  51.624 -12.501  1.00  0.00     0.292 C 
HETATM   26  O4  UNL     1      -1.875  51.982 -13.455  1.00  0.00    -0.348 OA
HETATM   27  C20 UNL     1      -3.228  51.772 -13.029  1.00  0.00     0.179 C 
HETATM   28  C22 UNL     1      -3.466  50.309 -12.603  1.00  0.00     0.180 C 
HETATM   29  C23 UNL     1      -2.454  49.845 -11.544  1.00  0.00     0.183 C 
HETATM   30  C24 UNL     1      -1.020  50.171 -11.994  1.00  0.00     0.204 C 
BRANCH  27  31
HETATM   31  C21 UNL     1      -3.707  52.803 -12.000  1.00  0.00     0.198 C 
BRANCH  31  32
HETATM   32  O5  UNL     1      -4.136  53.994 -12.665  1.00  0.00    -0.398 OA
HETATM   33  H34 UNL     1      -4.394  54.619 -11.963  1.00  0.00     0.209 HD
ENDBRANCH  31  32
ENDBRANCH  27  31
BRANCH  28  34
HETATM   34  O6  UNL     1      -3.309  49.454 -13.755  1.00  0.00    -0.390 OA
HETATM   35  H36 UNL     1      -3.974  49.734 -14.413  1.00  0.00     0.210 HD
ENDBRANCH  28  34
BRANCH  29  36
HETATM   36  O7  UNL     1      -2.743  50.401 -10.263  1.00  0.00    -0.390 OA
HETATM   37  H38 UNL     1      -3.606  50.046  -9.980  1.00  0.00     0.210 HD
ENDBRANCH  29  36
BRANCH  30  38
HETATM   38  O8  UNL     1      -0.635  49.258 -13.045  1.00  0.00    -0.388 OA
HETATM   39  H40 UNL     1      -1.388  49.241 -13.674  1.00  0.00     0.210 HD
ENDBRANCH  30  38
ENDBRANCH  24  25
ENDBRANCH   9  24
BRANCH   1  40
HETATM   40  C9  UNL     1       5.676  52.248  -6.985  1.00  0.00     0.162 A 
HETATM   41  C7  UNL     1       6.258  50.869  -7.321  1.00  0.00     0.087 A 
HETATM   42  C8  UNL     1       7.636  50.687  -7.896  1.00  0.00     0.049 C 
HETATM   43  O2  UNL     1       6.306  51.434  -6.001  1.00  0.00    -0.369 OA
BRANCH  41  44
HETATM   44  C6  UNL     1       5.300  49.702  -7.437  1.00  0.00     0.076 C 
BRANCH  44  45
HETATM   45  C5  UNL     1       4.138  49.919  -8.422  1.00  0.00     0.144 C 
BRANCH  45  46
HETATM   46  C4  UNL     1       4.554  50.095  -9.862  1.00  0.00     0.006 C 
HETATM   47  C2  UNL     1       3.916  49.809 -11.017  1.00  0.00    -0.089 C 
HETATM   48  C1  UNL     1       4.599  50.051 -12.340  1.00  0.00     0.042 C 
HETATM   49  C3  UNL     1       2.508  49.298 -11.143  1.00  0.00     0.042 C 
ENDBRANCH  45  46
BRANCH  45  50
HETATM   50  O1  UNL     1       3.286  50.963  -7.969  1.00  0.00    -0.392 OA
HETATM   51  H9  UNL     1       2.606  51.073  -8.655  1.00  0.00     0.210 HD
ENDBRANCH  45  50
ENDBRANCH  44  45
ENDBRANCH  41  44
ENDBRANCH   1  40
TORSDOF 12
ENDMDL
MODEL 4
REMARK minimizedAffinity -7.40945244
REMARK CNNscore 0.345722049
REMARK CNNaffinity 6.65506411
REMARK  12 active torsions:
REMARK  status: ('A' for Active; 'I' for Inactive)
REMARK    1  A    between atoms: C4_4  and  C5_5 
REMARK    2  A    between atoms: C5_5  and  O1_6 
REMARK    3  A    between atoms: C5_5  and  C6_7 
REMARK    4  A    between atoms: C6_7  and  C7_8 
REMARK    5  A    between atoms: C9_11  and  C10_12 
REMARK    6  A    between atoms: C18_20  and  O3_21 
REMARK    7  A    between atoms: O3_21  and  C19_22 
REMARK    8  A    between atoms: C20_24  and  C21_25 
REMARK    9  A    between atoms: C21_25  and  O5_26 
REMARK   10  A    between atoms: C22_27  and  O6_28 
REMARK   11  A    between atoms: C23_29  and  O7_30 
REMARK   12  A    between atoms: C24_31  and  O8_32 
ROOT
HETATM    1  C10 UNL     1       3.871  56.112  -6.864  1.00  0.00     0.029 C 
HETATM    2  C11 UNL     1       3.903  56.666  -8.325  1.00  0.00     0.009 C 
HETATM    3  C12 UNL     1       2.561  56.582  -9.078  1.00  0.00     0.007 C 
HETATM    4  C13 UNL     1       1.708  55.435  -8.528  1.00  0.00     0.003 C 
HETATM    5  C14 UNL     1       0.647  54.772  -9.497  1.00  0.00    -0.035 C 
HETATM    6  C15 UNL     1      -0.476  55.760  -9.871  1.00  0.00     0.016 C 
HETATM    7  C16 UNL     1       1.346  54.336 -10.822  1.00  0.00     0.012 C 
HETATM    8  C17 UNL     1       0.507  53.408 -11.704  1.00  0.00     0.034 C 
HETATM    9  C18 UNL     1       0.027  52.156 -10.965  1.00  0.00     0.133 C 
HETATM   10  C25 UNL     1      -0.732  52.489  -9.638  1.00  0.00    -0.017 C 
HETATM   11  C26 UNL     1      -0.948  51.145  -8.885  1.00  0.00     0.018 C 
HETATM   12  C27 UNL     1      -2.143  53.046  -9.921  1.00  0.00     0.018 C 
HETATM   13  C28 UNL     1       0.168  53.449  -8.779  1.00  0.00     0.004 C 
HETATM   14  C29 UNL     1      -0.334  53.710  -7.343  1.00  0.00     0.007 C 
HETATM   15  C30 UNL     1       0.718  54.423  -6.470  1.00  0.00     0.011 C 
HETATM   16  C31 UNL     1       1.232  55.769  -7.059  1.00  0.00    -0.029 C 
HETATM   17  C32 UNL     1       0.032  56.753  -7.003  1.00  0.00     0.016 C 
HETATM   18  C33 UNL     1       2.458  56.398  -6.201  1.00  0.00     0.004 C 
HETATM   19  C34 UNL     1       2.393  56.052  -4.703  1.00  0.00     0.190 C 
HETATM   20  O9  UNL     1       3.209  57.013  -4.026  1.00  0.00    -0.321 OA
HETATM   21  C35 UNL     1       3.204  58.162  -4.757  1.00  0.00     0.259 C 
HETATM   22  O10 UNL     1       3.743  59.202  -4.421  1.00  0.00    -0.265 OA
HETATM   23  C36 UNL     1       2.402  57.949  -6.011  1.00  0.00     0.124 C 
ENDROOT
BRANCH   9  24
HETATM   24  O3  UNL     1      -0.830  51.360 -11.792  1.00  0.00    -0.352 OA
BRANCH  24  25
HETATM   25  C19 UNL     1      -0.923  51.782 -13.148  1.00  0.00     0.292 C 
HETATM   26  O4  UNL     1      -2.270  52.143 -13.474  1.00  0.00    -0.348 OA
HETATM   27  C20 UNL     1      -3.192  51.050 -13.570  1.00  0.00     0.179 C 
HETATM   28  C22 UNL     1      -2.716  49.995 -14.588  1.00  0.00     0.180 C 
HETATM   29  C23 UNL     1      -1.287  49.513 -14.294  1.00  0.00     0.183 C 
HETATM   30  C24 UNL     1      -0.344  50.714 -14.106  1.00  0.00     0.204 C 
BRANCH  27  31
HETATM   31  C21 UNL     1      -3.582  50.464 -12.207  1.00  0.00     0.198 C 
BRANCH  31  32
HETATM   32  O5  UNL     1      -4.235  49.205 -12.385  1.00  0.00    -0.398 OA
HETATM   33  H34 UNL     1      -4.487  48.902 -11.493  1.00  0.00     0.209 HD
ENDBRANCH  31  32
ENDBRANCH  27  31
BRANCH  28  34
HETATM   34  O6  UNL     1      -2.710  50.584 -15.906  1.00  0.00    -0.390 OA
HETATM   35  H36 UNL     1      -3.626  50.860 -16.100  1.00  0.00     0.210 HD
ENDBRANCH  28  34
BRANCH  29  36
HETATM   36  O7  UNL     1      -1.250  48.634 -13.171  1.00  0.00    -0.390 OA
HETATM   37  H38 UNL     1      -1.756  47.835 -13.410  1.00  0.00     0.210 HD
ENDBRANCH  29  36
BRANCH  30  38
HETATM   38  O8  UNL     1      -0.085  51.318 -15.392  1.00  0.00    -0.388 OA
HETATM   39  H40 UNL     1      -0.960  51.404 -15.828  1.00  0.00     0.210 HD
ENDBRANCH  30  38
ENDBRANCH  24  25
ENDBRANCH   9  24
BRANCH   1  40
HETATM   40  C9  UNL     1       4.375  54.676  -6.865  1.00  0.00     0.162 A 
HETATM   41  C7  UNL     1       5.866  54.331  -6.757  1.00  0.00     0.087 A 
HETATM   42  C8  UNL     1       6.915  55.355  -6.423  1.00  0.00     0.049 C 
HETATM   43  O2  UNL     1       4.942  54.145  -5.671  1.00  0.00    -0.369 OA
BRANCH  41  44
HETATM   44  C6  UNL     1       6.340  53.027  -7.366  1.00  0.00     0.076 C 
BRANCH  44  45
HETATM   45  C5  UNL     1       6.418  53.027  -8.903  1.00  0.00     0.144 C 
BRANCH  45  46
HETATM   46  C4  UNL     1       6.615  51.666  -9.526  1.00  0.00     0.006 C 
HETATM   47  C2  UNL     1       7.356  50.605  -9.139  1.00  0.00    -0.089 C 
HETATM   48  C1  UNL     1       7.405  49.363  -9.995  1.00  0.00     0.042 C 
HETATM   49  C3  UNL     1       8.140  50.496  -7.862  1.00  0.00     0.042 C 
ENDBRANCH  45  46
BRANCH  45  50
HETATM   50  O1  UNL     1       7.374  53.977  -9.355  1.00  0.00    -0.392 OA
HETATM   51  H9  UNL     1       7.402  53.891 -10.323  1.00  0.00     0.210 HD
ENDBRANCH  45  50
ENDBRANCH  44  45
ENDBRANCH  41  44
ENDBRANCH   1  40
TORSDOF 12
ENDMDL
MODEL 5
REMARK minimizedAffinity -8.88867664
REMARK CNNscore 0.339957714
REMARK CNNaffinity 6.89599085
REMARK  12 active torsions:
REMARK  status: ('A' for Active; 'I' for Inactive)
REMARK    1  A    between atoms: C4_4  and  C5_5 
REMARK    2  A    between atoms: C5_5  and  O1_6 
REMARK    3  A    between atoms: C5_5  and  C6_7 
REMARK    4  A    between atoms: C6_7  and  C7_8 
REMARK    5  A    between atoms: C9_11  and  C10_12 
REMARK    6  A    between atoms: C18_20  and  O3_21 
REMARK    7  A    between atoms: O3_21  and  C19_22 
REMARK    8  A    between atoms: C20_24  and  C21_25 
REMARK    9  A    between atoms: C21_25  and  O5_26 
REMARK   10  A    between atoms: C22_27  and  O6_28 
REMARK   11  A    between atoms: C23_29  and  O7_30 
REMARK   12  A    between atoms: C24_31  and  O8_32 
ROOT
HETATM    1  C10 UNL     1      -1.627  49.755 -21.506  1.00  0.00     0.029 C 
HETATM    2  C11 UNL     1      -1.561  48.193 -21.542  1.00  0.00     0.009 C 
HETATM    3  C12 UNL     1      -2.918  47.494 -21.750  1.00  0.00     0.007 C 
HETATM    4  C13 UNL     1      -4.061  48.373 -21.233  1.00  0.00     0.003 C 
HETATM    5  C14 UNL     1      -5.391  47.655 -20.763  1.00  0.00    -0.035 C 
HETATM    6  C15 UNL     1      -6.116  46.974 -21.941  1.00  0.00     0.016 C 
HETATM    7  C16 UNL     1      -5.050  46.546 -19.720  1.00  0.00     0.012 C 
HETATM    8  C17 UNL     1      -6.260  45.998 -18.960  1.00  0.00     0.034 C 
HETATM    9  C18 UNL     1      -7.075  47.094 -18.266  1.00  0.00     0.133 C 
HETATM   10  C25 UNL     1      -7.508  48.238 -19.242  1.00  0.00    -0.017 C 
HETATM   11  C26 UNL     1      -8.109  49.379 -18.372  1.00  0.00     0.018 C 
HETATM   12  C27 UNL     1      -8.645  47.778 -20.178  1.00  0.00     0.018 C 
HETATM   13  C28 UNL     1      -6.232  48.754 -20.000  1.00  0.00     0.004 C 
HETATM   14  C29 UNL     1      -6.441  50.026 -20.849  1.00  0.00     0.007 C 
HETATM   15  C30 UNL     1      -5.112  50.636 -21.336  1.00  0.00     0.011 C 
HETATM   16  C31 UNL     1      -4.217  49.653 -22.145  1.00  0.00    -0.029 C 
HETATM   17  C32 UNL     1      -4.965  49.380 -23.478  1.00  0.00     0.016 C 
HETATM   18  C33 UNL     1      -2.758  50.277 -22.489  1.00  0.00     0.004 C 
HETATM   19  C34 UNL     1      -2.776  51.807 -22.660  1.00  0.00     0.190 C 
HETATM   20  O9  UNL     1      -1.598  52.149 -23.395  1.00  0.00    -0.321 OA
HETATM   21  C35 UNL     1      -1.269  51.089 -24.185  1.00  0.00     0.259 C 
HETATM   22  O10 UNL     1      -0.357  51.081 -24.993  1.00  0.00    -0.265 OA
HETATM   23  C36 UNL     1      -2.228  49.961 -23.926  1.00  0.00     0.124 C 
ENDROOT
BRANCH   9  24
HETATM   24  O3  UNL     1      -8.248  46.557 -17.645  1.00  0.00    -0.352 OA
BRANCH  24  25
HETATM   25  C19 UNL     1      -8.008  45.532 -16.686  1.00  0.00     0.292 C 
HETATM   26  O4  UNL     1      -8.989  44.495 -16.799  1.00  0.00    -0.348 OA
HETATM   27  C20 UNL     1     -10.306  44.844 -16.352  1.00  0.00     0.179 C 
HETATM   28  C22 UNL     1     -10.296  45.341 -14.893  1.00  0.00     0.180 C 
HETATM   29  C23 UNL     1      -9.296  46.490 -14.682  1.00  0.00     0.183 C 
HETATM   30  C24 UNL     1      -7.920  46.115 -15.256  1.00  0.00     0.204 C 
BRANCH  27  31
HETATM   31  C21 UNL     1     -11.047  45.776 -17.319  1.00  0.00     0.198 C 
BRANCH  31  32
HETATM   32  O5  UNL     1     -12.028  46.536 -16.611  1.00  0.00    -0.398 OA
HETATM   33  H34 UNL     1     -12.485  47.080 -17.279  1.00  0.00     0.209 HD
ENDBRANCH  31  32
ENDBRANCH  27  31
BRANCH  28  34
HETATM   34  O6  UNL     1      -9.894  44.256 -14.031  1.00  0.00    -0.390 OA
HETATM   35  H36 UNL     1     -10.549  43.541 -14.146  1.00  0.00     0.210 HD
ENDBRANCH  28  34
BRANCH  29  36
HETATM   36  O7  UNL     1      -9.780  47.714 -15.232  1.00  0.00    -0.390 OA
HETATM   37  H38 UNL     1     -10.579  47.962 -14.731  1.00  0.00     0.210 HD
ENDBRANCH  29  36
BRANCH  30  38
HETATM   38  O8  UNL     1      -7.292  45.148 -14.386  1.00  0.00    -0.388 OA
HETATM   39  H40 UNL     1      -7.979  44.474 -14.195  1.00  0.00     0.210 HD
ENDBRANCH  30  38
ENDBRANCH  24  25
ENDBRANCH   9  24
BRANCH   1  40
HETATM   40  C9  UNL     1      -1.680  50.218 -20.058  1.00  0.00     0.162 A 
HETATM   41  C7  UNL     1      -0.685  51.237 -19.487  1.00  0.00     0.087 A 
HETATM   42  C8  UNL     1       0.269  52.014 -20.351  1.00  0.00     0.049 C 
HETATM   43  O2  UNL     1      -2.053  51.564 -19.779  1.00  0.00    -0.369 OA
BRANCH  41  44
HETATM   44  C6  UNL     1      -0.388  51.185 -18.002  1.00  0.00     0.076 C 
BRANCH  44  45
HETATM   45  C5  UNL     1       0.854  51.982 -17.567  1.00  0.00     0.144 C 
BRANCH  45  46
HETATM   46  C4  UNL     1       1.422  51.586 -16.225  1.00  0.00     0.006 C 
HETATM   47  C2  UNL     1       2.619  51.837 -15.652  1.00  0.00    -0.089 C 
HETATM   48  C1  UNL     1       2.943  51.266 -14.293  1.00  0.00     0.042 C 
HETATM   49  C3  UNL     1       3.704  52.706 -16.223  1.00  0.00     0.042 C 
ENDBRANCH  45  46
BRANCH  45  50
HETATM   50  O1  UNL     1       0.612  53.379 -17.664  1.00  0.00    -0.392 OA
HETATM   51  H9  UNL     1       1.416  53.816 -17.335  1.00  0.00     0.210 HD
ENDBRANCH  45  50
ENDBRANCH  44  45
ENDBRANCH  41  44
ENDBRANCH   1  40
TORSDOF 12
ENDMDL
MODEL 6
REMARK minimizedAffinity -9.11910152
REMARK CNNscore 0.236839265
REMARK CNNaffinity 6.59179163
REMARK  12 active torsions:
REMARK  status: ('A' for Active; 'I' for Inactive)
REMARK    1  A    between atoms: C4_4  and  C5_5 
REMARK    2  A    between atoms: C5_5  and  O1_6 
REMARK    3  A    between atoms: C5_5  and  C6_7 
REMARK    4  A    between atoms: C6_7  and  C7_8 
REMARK    5  A    between atoms: C9_11  and  C10_12 
REMARK    6  A    between atoms: C18_20  and  O3_21 
REMARK    7  A    between atoms: O3_21  and  C19_22 
REMARK    8  A    between atoms: C20_24  and  C21_25 
REMARK    9  A    between atoms: C21_25  and  O5_26 
REMARK   10  A    between atoms: C22_27  and  O6_28 
REMARK   11  A    between atoms: C23_29  and  O7_30 
REMARK   12  A    between atoms: C24_31  and  O8_32 
ROOT
HETATM    1  C10 UNL     1      -1.581  49.868 -21.861  1.00  0.00     0.029 C 
HETATM    2  C11 UNL     1      -1.487  48.308 -21.865  1.00  0.00     0.009 C 
HETATM    3  C12 UNL     1      -2.812  47.581 -22.166  1.00  0.00     0.007 C 
HETATM    4  C13 UNL     1      -4.006  48.447 -21.755  1.00  0.00     0.003 C 
HETATM    5  C14 UNL     1      -5.357  47.714 -21.378  1.00  0.00    -0.035 C 
HETATM    6  C15 UNL     1      -5.975  47.001 -22.597  1.00  0.00     0.016 C 
HETATM    7  C16 UNL     1      -5.080  46.628 -20.292  1.00  0.00     0.012 C 
HETATM    8  C17 UNL     1      -6.337  46.071 -19.619  1.00  0.00     0.034 C 
HETATM    9  C18 UNL     1      -7.222  47.164 -19.010  1.00  0.00     0.133 C 
HETATM   10  C25 UNL     1      -7.596  48.283 -20.038  1.00  0.00    -0.017 C 
HETATM   11  C26 UNL     1      -8.282  49.427 -19.238  1.00  0.00     0.018 C 
HETATM   12  C27 UNL     1      -8.648  47.788 -21.052  1.00  0.00     0.018 C 
HETATM   13  C28 UNL     1      -6.273  48.810 -20.703  1.00  0.00     0.004 C 
HETATM   14  C29 UNL     1      -6.436  50.064 -21.587  1.00  0.00     0.007 C 
HETATM   15  C30 UNL     1      -5.083  50.689 -21.980  1.00  0.00     0.011 C 
HETATM   16  C31 UNL     1      -4.111  49.709 -22.699  1.00  0.00    -0.029 C 
HETATM   17  C32 UNL     1      -4.748  49.401 -24.081  1.00  0.00     0.016 C 
HETATM   18  C33 UNL     1      -2.640  50.354 -22.939  1.00  0.00     0.004 C 
HETATM   19  C34 UNL     1      -2.669  51.880 -23.137  1.00  0.00     0.190 C 
HETATM   20  O9  UNL     1      -1.443  52.231 -23.784  1.00  0.00    -0.321 OA
HETATM   21  C35 UNL     1      -1.036  51.164 -24.527  1.00  0.00     0.259 C 
HETATM   22  O10 UNL     1      -0.063  51.160 -25.261  1.00  0.00    -0.265 OA
HETATM   23  C36 UNL     1      -1.994  50.024 -24.324  1.00  0.00     0.124 C 
ENDROOT
BRANCH   9  24
HETATM   24  O3  UNL     1      -8.431  46.616 -18.474  1.00  0.00    -0.352 OA
BRANCH  24  25
HETATM   25  C19 UNL     1      -9.532  47.517 -18.421  1.00  0.00     0.292 C 
HETATM   26  O4  UNL     1      -9.657  48.087 -17.113  1.00  0.00    -0.348 OA
HETATM   27  C20 UNL     1     -10.119  47.190 -16.095  1.00  0.00     0.179 C 
HETATM   28  C22 UNL     1     -11.471  46.552 -16.474  1.00  0.00     0.180 C 
HETATM   29  C23 UNL     1     -11.422  45.875 -17.853  1.00  0.00     0.183 C 
HETATM   30  C24 UNL     1     -10.835  46.836 -18.901  1.00  0.00     0.204 C 
BRANCH  27  31
HETATM   31  C21 UNL     1      -9.057  46.176 -15.652  1.00  0.00     0.198 C 
BRANCH  31  32
HETATM   32  O5  UNL     1      -7.808  46.837 -15.441  1.00  0.00    -0.398 OA
HETATM   33  H34 UNL     1      -7.170  46.142 -15.197  1.00  0.00     0.209 HD
ENDBRANCH  31  32
ENDBRANCH  27  31
BRANCH  28  34
HETATM   34  O6  UNL     1     -12.477  47.585 -16.535  1.00  0.00    -0.390 OA
HETATM   35  H36 UNL     1     -12.524  47.991 -15.648  1.00  0.00     0.210 HD
ENDBRANCH  28  34
BRANCH  29  36
HETATM   36  O7  UNL     1     -10.706  44.643 -17.808  1.00  0.00    -0.390 OA
HETATM   37  H38 UNL     1     -11.207  44.036 -17.232  1.00  0.00     0.210 HD
ENDBRANCH  29  36
BRANCH  30  38
HETATM   38  O8  UNL     1     -11.814  47.850 -19.215  1.00  0.00    -0.388 OA
HETATM   39  H40 UNL     1     -12.159  48.166 -18.352  1.00  0.00     0.210 HD
ENDBRANCH  30  38
ENDBRANCH  24  25
ENDBRANCH   9  24
BRANCH   1  40
HETATM   40  C9  UNL     1      -1.756  50.354 -20.430  1.00  0.00     0.162 A 
HETATM   41  C7  UNL     1      -0.815  51.387 -19.796  1.00  0.00     0.087 A 
HETATM   42  C8  UNL     1       0.202  52.157 -20.592  1.00  0.00     0.049 C 
HETATM   43  O2  UNL     1      -2.157  51.701 -20.205  1.00  0.00    -0.369 OA
BRANCH  41  44
HETATM   44  C6  UNL     1      -0.641  51.361 -18.291  1.00  0.00     0.076 C 
BRANCH  44  45
HETATM   45  C5  UNL     1       0.650  52.025 -17.781  1.00  0.00     0.144 C 
BRANCH  45  46
HETATM   46  C4  UNL     1       1.162  51.486 -16.467  1.00  0.00     0.006 C 
HETATM   47  C2  UNL     1       2.317  51.703 -15.803  1.00  0.00    -0.089 C 
HETATM   48  C1  UNL     1       2.593  50.982 -14.506  1.00  0.00     0.042 C 
HETATM   49  C3  UNL     1       3.397  52.669 -16.203  1.00  0.00     0.042 C 
ENDBRANCH  45  46
BRANCH  45  50
HETATM   50  O1  UNL     1       0.516  53.440 -17.775  1.00  0.00    -0.392 OA
HETATM   51  H9  UNL     1       1.344  53.788 -17.403  1.00  0.00     0.210 HD
ENDBRANCH  45  50
ENDBRANCH  44  45
ENDBRANCH  41  44
ENDBRANCH   1  40
TORSDOF 12
ENDMDL
MODEL 7
REMARK minimizedAffinity -7.42307234
REMARK CNNscore 0.229624435
REMARK CNNaffinity 6.04438639
REMARK  12 active torsions:
REMARK  status: ('A' for Active; 'I' for Inactive)
REMARK    1  A    between atoms: C4_4  and  C5_5 
REMARK    2  A    between atoms: C5_5  and  O1_6 
REMARK    3  A    between atoms: C5_5  and  C6_7 
REMARK    4  A    between atoms: C6_7  and  C7_8 
REMARK    5  A    between atoms: C9_11  and  C10_12 
REMARK    6  A    between atoms: C18_20  and  O3_21 
REMARK    7  A    between atoms: O3_21  and  C19_22 
REMARK    8  A    between atoms: C20_24  and  C21_25 
REMARK    9  A    between atoms: C21_25  and  O5_26 
REMARK   10  A    between atoms: C22_27  and  O6_28 
REMARK   11  A    between atoms: C23_29  and  O7_30 
REMARK   12  A    between atoms: C24_31  and  O8_32 
ROOT
HETATM    1  C10 UNL     1     -15.153  43.955 -25.922  1.00  0.00     0.029 C 
HETATM    2  C11 UNL     1     -13.938  42.979 -25.807  1.00  0.00     0.009 C 
HETATM    3  C12 UNL     1     -12.555  43.657 -25.881  1.00  0.00     0.007 C 
HETATM    4  C13 UNL     1     -12.639  44.962 -26.679  1.00  0.00     0.003 C 
HETATM    5  C14 UNL     1     -11.328  45.469 -27.406  1.00  0.00    -0.035 C 
HETATM    6  C15 UNL     1     -10.234  45.866 -26.394  1.00  0.00     0.016 C 
HETATM    7  C16 UNL     1     -10.747  44.329 -28.298  1.00  0.00     0.012 C 
HETATM    8  C17 UNL     1      -9.673  44.785 -29.288  1.00  0.00     0.034 C 
HETATM    9  C18 UNL     1     -10.141  45.929 -30.193  1.00  0.00     0.133 C 
HETATM   10  C25 UNL     1     -10.703  47.148 -29.387  1.00  0.00    -0.017 C 
HETATM   11  C26 UNL     1     -11.351  48.117 -30.417  1.00  0.00     0.018 C 
HETATM   12  C27 UNL     1      -9.568  47.946 -28.712  1.00  0.00     0.018 C 
HETATM   13  C28 UNL     1     -11.791  46.621 -28.383  1.00  0.00     0.004 C 
HETATM   14  C29 UNL     1     -12.600  47.716 -27.657  1.00  0.00     0.007 C 
HETATM   15  C30 UNL     1     -13.822  47.149 -26.908  1.00  0.00     0.011 C 
HETATM   16  C31 UNL     1     -13.480  46.033 -25.879  1.00  0.00    -0.029 C 
HETATM   17  C32 UNL     1     -12.683  46.724 -24.739  1.00  0.00     0.016 C 
HETATM   18  C33 UNL     1     -14.805  45.345 -25.241  1.00  0.00     0.004 C 
HETATM   19  C34 UNL     1     -16.003  46.307 -25.142  1.00  0.00     0.190 C 
HETATM   20  O9  UNL     1     -16.896  45.747 -24.175  1.00  0.00    -0.321 OA
HETATM   21  C35 UNL     1     -16.160  45.021 -23.289  1.00  0.00     0.259 C 
HETATM   22  O10 UNL     1     -16.608  44.475 -22.296  1.00  0.00    -0.265 OA
HETATM   23  C36 UNL     1     -14.717  45.039 -23.710  1.00  0.00     0.124 C 
ENDROOT
BRANCH   9  24
HETATM   24  O3  UNL     1      -9.083  46.391 -31.039  1.00  0.00    -0.352 OA
BRANCH  24  25
HETATM   25  C19 UNL     1      -7.988  46.997 -30.360  1.00  0.00     0.292 C 
HETATM   26  O4  UNL     1      -7.435  48.063 -31.141  1.00  0.00    -0.348 OA
HETATM   27  C20 UNL     1      -6.711  47.656 -32.309  1.00  0.00     0.179 C 
HETATM   28  C22 UNL     1      -5.573  46.677 -31.958  1.00  0.00     0.180 C 
HETATM   29  C23 UNL     1      -6.079  45.471 -31.150  1.00  0.00     0.183 C 
HETATM   30  C24 UNL     1      -6.929  45.943 -29.958  1.00  0.00     0.204 C 
BRANCH  27  31
HETATM   31  C21 UNL     1      -7.618  47.170 -33.446  1.00  0.00     0.198 C 
BRANCH  31  32
HETATM   32  O5  UNL     1      -7.307  47.870 -34.653  1.00  0.00    -0.398 OA
HETATM   33  H34 UNL     1      -7.933  47.546 -35.325  1.00  0.00     0.209 HD
ENDBRANCH  31  32
ENDBRANCH  27  31
BRANCH  28  34
HETATM   34  O6  UNL     1      -4.598  47.364 -31.144  1.00  0.00    -0.390 OA
HETATM   35  H36 UNL     1      -4.258  48.110 -31.673  1.00  0.00     0.210 HD
ENDBRANCH  28  34
BRANCH  29  36
HETATM   36  O7  UNL     1      -6.792  44.551 -31.973  1.00  0.00    -0.390 OA
HETATM   37  H38 UNL     1      -6.159  44.190 -32.621  1.00  0.00     0.210 HD
ENDBRANCH  29  36
BRANCH  30  38
HETATM   38  O8  UNL     1      -6.060  46.503 -28.949  1.00  0.00    -0.388 OA
HETATM   39  H40 UNL     1      -5.449  47.106 -29.426  1.00  0.00     0.210 HD
ENDBRANCH  30  38
ENDBRANCH  24  25
ENDBRANCH   9  24
BRANCH   1  40
HETATM   40  C9  UNL     1     -15.641  43.975 -27.363  1.00  0.00     0.162 A 
HETATM   41  C7  UNL     1     -17.091  43.643 -27.741  1.00  0.00     0.087 A 
HETATM   42  C8  UNL     1     -18.183  43.490 -26.720  1.00  0.00     0.049 C 
HETATM   43  O2  UNL     1     -16.567  44.982 -27.761  1.00  0.00    -0.369 OA
BRANCH  41  44
HETATM   44  C6  UNL     1     -17.354  43.086 -29.125  1.00  0.00     0.076 C 
BRANCH  44  45
HETATM   45  C5  UNL     1     -18.784  43.310 -29.648  1.00  0.00     0.144 C 
BRANCH  45  46
HETATM   46  C4  UNL     1     -19.541  42.048 -29.983  1.00  0.00     0.006 C 
HETATM   47  C2  UNL     1     -20.860  41.761 -29.947  1.00  0.00    -0.089 C 
HETATM   48  C1  UNL     1     -21.344  40.376 -30.298  1.00  0.00     0.042 C 
HETATM   49  C3  UNL     1     -21.964  42.730 -29.629  1.00  0.00     0.042 C 
ENDBRANCH  45  46
BRANCH  45  50
HETATM   50  O1  UNL     1     -18.784  44.246 -30.718  1.00  0.00    -0.392 OA
HETATM   51  H9  UNL     1     -19.705  44.305 -31.025  1.00  0.00     0.210 HD
ENDBRANCH  45  50
ENDBRANCH  44  45
ENDBRANCH  41  44
ENDBRANCH   1  40
TORSDOF 12
ENDMDL
MODEL 8
REMARK minimizedAffinity -8.31510735
REMARK CNNscore 0.217867807
REMARK CNNaffinity 6.84339952
REMARK  12 active torsions:
REMARK  status: ('A' for Active; 'I' for Inactive)
REMARK    1  A    between atoms: C4_4  and  C5_5 
REMARK    2  A    between atoms: C5_5  and  O1_6 
REMARK    3  A    between atoms: C5_5  and  C6_7 
REMARK    4  A    between atoms: C6_7  and  C7_8 
REMARK    5  A    between atoms: C9_11  and  C10_12 
REMARK    6  A    between atoms: C18_20  and  O3_21 
REMARK    7  A    between atoms: O3_21  and  C19_22 
REMARK    8  A    between atoms: C20_24  and  C21_25 
REMARK    9  A    between atoms: C21_25  and  O5_26 
REMARK   10  A    between atoms: C22_27  and  O6_28 
REMARK   11  A    between atoms: C23_29  and  O7_30 
REMARK   12  A    between atoms: C24_31  and  O8_32 
ROOT
HETATM    1  C10 UNL     1      -2.651  51.159 -21.926  1.00  0.00     0.029 C 
HETATM    2  C11 UNL     1      -3.930  51.930 -21.464  1.00  0.00     0.009 C 
HETATM    3  C12 UNL     1      -4.958  51.075 -20.697  1.00  0.00     0.007 C 
HETATM    4  C13 UNL     1      -4.847  49.604 -21.108  1.00  0.00     0.003 C 
HETATM    5  C14 UNL     1      -6.136  48.697 -20.965  1.00  0.00    -0.035 C 
HETATM    6  C15 UNL     1      -6.541  48.513 -19.489  1.00  0.00     0.016 C 
HETATM    7  C16 UNL     1      -7.336  49.371 -21.698  1.00  0.00     0.012 C 
HETATM    8  C17 UNL     1      -8.547  48.457 -21.904  1.00  0.00     0.034 C 
HETATM    9  C18 UNL     1      -8.194  47.155 -22.630  1.00  0.00     0.133 C 
HETATM   10  C25 UNL     1      -7.025  46.376 -21.942  1.00  0.00    -0.017 C 
HETATM   11  C26 UNL     1      -6.620  45.220 -22.901  1.00  0.00     0.018 C 
HETATM   12  C27 UNL     1      -7.491  45.698 -20.637  1.00  0.00     0.018 C 
HETATM   13  C28 UNL     1      -5.817  47.362 -21.747  1.00  0.00     0.004 C 
HETATM   14  C29 UNL     1      -4.503  46.706 -21.275  1.00  0.00     0.007 C 
HETATM   15  C30 UNL     1      -3.297  47.662 -21.370  1.00  0.00     0.011 C 
HETATM   16  C31 UNL     1      -3.480  48.999 -20.594  1.00  0.00    -0.029 C 
HETATM   17  C32 UNL     1      -3.492  48.628 -19.087  1.00  0.00     0.016 C 
HETATM   18  C33 UNL     1      -2.268  50.046 -20.861  1.00  0.00     0.004 C 
HETATM   19  C34 UNL     1      -0.920  49.358 -21.138  1.00  0.00     0.190 C 
HETATM   20  O9  UNL     1       0.096  50.334 -20.887  1.00  0.00    -0.321 OA
HETATM   21  C35 UNL     1      -0.375  51.203 -19.949  1.00  0.00     0.259 C 
HETATM   22  O10 UNL     1       0.271  52.112 -19.458  1.00  0.00    -0.265 OA
HETATM   23  C36 UNL     1      -1.790  50.836 -19.598  1.00  0.00     0.124 C 
ENDROOT
BRANCH   9  24
HETATM   24  O3  UNL     1      -9.329  46.286 -22.721  1.00  0.00    -0.352 OA
BRANCH  24  25
HETATM   25  C19 UNL     1      -9.970  46.261 -23.992  1.00  0.00     0.292 C 
HETATM   26  O4  UNL     1     -11.152  47.068 -23.979  1.00  0.00    -0.348 OA
HETATM   27  C20 UNL     1     -12.249  46.537 -23.222  1.00  0.00     0.179 C 
HETATM   28  C22 UNL     1     -12.635  45.124 -23.700  1.00  0.00     0.180 C 
HETATM   29  C23 UNL     1     -11.431  44.169 -23.709  1.00  0.00     0.183 C 
HETATM   30  C24 UNL     1     -10.245  44.809 -24.449  1.00  0.00     0.204 C 
BRANCH  27  31
HETATM   31  C21 UNL     1     -12.047  46.645 -21.706  1.00  0.00     0.198 C 
BRANCH  31  32
HETATM   32  O5  UNL     1     -13.233  47.154 -21.090  1.00  0.00    -0.398 OA
HETATM   33  H34 UNL     1     -13.033  47.232 -20.139  1.00  0.00     0.209 HD
ENDBRANCH  31  32
ENDBRANCH  27  31
BRANCH  28  34
HETATM   34  O6  UNL     1     -13.131  45.206 -25.054  1.00  0.00    -0.390 OA
HETATM   35  H36 UNL     1     -13.914  45.789 -25.037  1.00  0.00     0.210 HD
ENDBRANCH  28  34
BRANCH  29  36
HETATM   36  O7  UNL     1     -11.073  43.765 -22.390  1.00  0.00    -0.390 OA
HETATM   37  H38 UNL     1     -11.818  43.249 -22.030  1.00  0.00     0.210 HD
ENDBRANCH  29  36
BRANCH  30  38
HETATM   38  O8  UNL     1     -10.511  44.799 -25.868  1.00  0.00    -0.388 OA
HETATM   39  H40 UNL     1     -11.430  45.130 -25.971  1.00  0.00     0.210 HD
ENDBRANCH  30  38
ENDBRANCH  24  25
ENDBRANCH   9  24
BRANCH   1  40
HETATM   40  C9  UNL     1      -2.828  50.722 -23.373  1.00  0.00     0.162 A 
HETATM   41  C7  UNL     1      -2.144  51.450 -24.537  1.00  0.00     0.087 A 
HETATM   42  C8  UNL     1      -1.086  52.498 -24.332  1.00  0.00     0.049 C 
HETATM   43  O2  UNL     1      -1.715  50.163 -24.063  1.00  0.00    -0.369 OA
BRANCH  41  44
HETATM   44  C6  UNL     1      -2.808  51.394 -25.898  1.00  0.00     0.076 C 
BRANCH  44  45
HETATM   45  C5  UNL     1      -2.058  50.551 -26.945  1.00  0.00     0.144 C 
BRANCH  45  46
HETATM   46  C4  UNL     1      -0.571  50.800 -27.010  1.00  0.00     0.006 C 
HETATM   47  C2  UNL     1       0.139  51.849 -27.477  1.00  0.00    -0.089 C 
HETATM   48  C1  UNL     1       1.648  51.811 -27.461  1.00  0.00     0.042 C 
HETATM   49  C3  UNL     1      -0.431  53.140 -27.992  1.00  0.00     0.042 C 
ENDBRANCH  45  46
BRANCH  45  50
HETATM   50  O1  UNL     1      -2.685  50.658 -28.216  1.00  0.00    -0.392 OA
HETATM   51  H9  UNL     1      -2.138  50.140 -28.831  1.00  0.00     0.210 HD
ENDBRANCH  45  50
ENDBRANCH  44  45
ENDBRANCH  41  44
ENDBRANCH   1  40
TORSDOF 12
ENDMDL
MODEL 9
REMARK minimizedAffinity -7.75540686
REMARK CNNscore 0.217030779
REMARK CNNaffinity 6.48601151
REMARK  12 active torsions:
REMARK  status: ('A' for Active; 'I' for Inactive)
REMARK    1  A    between atoms: C4_4  and  C5_5 
REMARK    2  A    between atoms: C5_5  and  O1_6 
REMARK    3  A    between atoms: C5_5  and  C6_7 
REMARK    4  A    between atoms: C6_7  and  C7_8 
REMARK    5  A    between atoms: C9_11  and  C10_12 
REMARK    6  A    between atoms: C18_20  and  O3_21 
REMARK    7  A    between atoms: O3_21  and  C19_22 
REMARK    8  A    between atoms: C20_24  and  C21_25 
REMARK    9  A    between atoms: C21_25  and  O5_26 
REMARK   10  A    between atoms: C22_27  and  O6_28 
REMARK   11  A    between atoms: C23_29  and  O7_30 
REMARK   12  A    between atoms: C24_31  and  O8_32 
ROOT
HETATM    1  C10 UNL     1      -1.735  49.649 -21.696  1.00  0.00     0.029 C 
HETATM    2  C11 UNL     1      -1.694  48.089 -21.790  1.00  0.00     0.009 C 
HETATM    3  C12 UNL     1      -3.058  47.421 -22.051  1.00  0.00     0.007 C 
HETATM    4  C13 UNL     1      -4.196  48.300 -21.521  1.00  0.00     0.003 C 
HETATM    5  C14 UNL     1      -5.547  47.588 -21.105  1.00  0.00    -0.035 C 
HETATM    6  C15 UNL     1      -6.259  46.964 -22.322  1.00  0.00     0.016 C 
HETATM    7  C16 UNL     1      -5.245  46.434 -20.099  1.00  0.00     0.012 C 
HETATM    8  C17 UNL     1      -6.478  45.878 -19.384  1.00  0.00     0.034 C 
HETATM    9  C18 UNL     1      -7.288  46.961 -18.663  1.00  0.00     0.133 C 
HETATM   10  C25 UNL     1      -7.683  48.148 -19.603  1.00  0.00    -0.017 C 
HETATM   11  C26 UNL     1      -8.282  49.265 -18.701  1.00  0.00     0.018 C 
HETATM   12  C27 UNL     1      -8.809  47.743 -20.578  1.00  0.00     0.018 C 
HETATM   13  C28 UNL     1      -6.384  48.671 -20.316  1.00  0.00     0.004 C 
HETATM   14  C29 UNL     1      -6.556  49.977 -21.119  1.00  0.00     0.007 C 
HETATM   15  C30 UNL     1      -5.208  50.583 -21.558  1.00  0.00     0.011 C 
HETATM   16  C31 UNL     1      -4.313  49.616 -22.387  1.00  0.00    -0.029 C 
HETATM   17  C32 UNL     1      -5.039  49.407 -23.743  1.00  0.00     0.016 C 
HETATM   18  C33 UNL     1      -2.837  50.228 -22.679  1.00  0.00     0.004 C 
HETATM   19  C34 UNL     1      -2.827  51.763 -22.791  1.00  0.00     0.190 C 
HETATM   20  O9  UNL     1      -1.629  52.113 -23.490  1.00  0.00    -0.321 OA
HETATM   21  C35 UNL     1      -1.302  51.078 -24.314  1.00  0.00     0.259 C 
HETATM   22  O10 UNL     1      -0.375  51.085 -25.104  1.00  0.00    -0.265 OA
HETATM   23  C36 UNL     1      -2.285  49.957 -24.117  1.00  0.00     0.124 C 
ENDROOT
BRANCH   9  24
HETATM   24  O3  UNL     1      -8.482  46.420 -18.086  1.00  0.00    -0.352 OA
BRANCH  24  25
HETATM   25  C19 UNL     1      -8.274  45.500 -17.021  1.00  0.00     0.292 C 
HETATM   26  O4  UNL     1      -9.260  44.462 -17.049  1.00  0.00    -0.348 OA
HETATM   27  C20 UNL     1     -10.585  44.864 -16.674  1.00  0.00     0.179 C 
HETATM   28  C22 UNL     1     -10.606  45.510 -15.275  1.00  0.00     0.180 C 
HETATM   29  C23 UNL     1      -9.602  46.669 -15.160  1.00  0.00     0.183 C 
HETATM   30  C24 UNL     1      -8.215  46.228 -15.657  1.00  0.00     0.204 C 
BRANCH  27  31
HETATM   31  C21 UNL     1     -11.294  45.694 -17.751  1.00  0.00     0.198 C 
BRANCH  31  32
HETATM   32  O5  UNL     1     -12.282  44.899 -18.410  1.00  0.00    -0.398 OA
HETATM   33  H34 UNL     1     -12.672  45.465 -19.100  1.00  0.00     0.209 HD
ENDBRANCH  31  32
ENDBRANCH  27  31
BRANCH  28  34
HETATM   34  O6  UNL     1     -10.234  44.518 -14.294  1.00  0.00    -0.390 OA
HETATM   35  H36 UNL     1     -10.892  43.799 -14.351  1.00  0.00     0.210 HD
ENDBRANCH  28  34
BRANCH  29  36
HETATM   36  O7  UNL     1     -10.062  47.831 -15.845  1.00  0.00    -0.390 OA
HETATM   37  H38 UNL     1     -10.872  48.134 -15.394  1.00  0.00     0.210 HD
ENDBRANCH  29  36
BRANCH  30  38
HETATM   38  O8  UNL     1      -7.617  45.354 -14.676  1.00  0.00    -0.388 OA
HETATM   39  H40 UNL     1      -8.314  44.706 -14.433  1.00  0.00     0.210 HD
ENDBRANCH  30  38
ENDBRANCH  24  25
ENDBRANCH   9  24
BRANCH   1  40
HETATM   40  C9  UNL     1      -1.809  50.057 -20.231  1.00  0.00     0.162 A 
HETATM   41  C7  UNL     1      -0.807  51.036 -19.603  1.00  0.00     0.087 A 
HETATM   42  C8  UNL     1       0.176  51.829 -20.418  1.00  0.00     0.049 C 
HETATM   43  O2  UNL     1      -2.164  51.398 -19.909  1.00  0.00    -0.369 OA
BRANCH  41  44
HETATM   44  C6  UNL     1      -0.541  50.922 -18.116  1.00  0.00     0.076 C 
BRANCH  44  45
HETATM   45  C5  UNL     1      -1.757  50.493 -17.276  1.00  0.00     0.144 C 
BRANCH  45  46
HETATM   46  C4  UNL     1      -2.253  49.094 -17.549  1.00  0.00     0.006 C 
HETATM   47  C2  UNL     1      -2.628  48.100 -16.716  1.00  0.00    -0.089 C 
HETATM   48  C1  UNL     1      -3.045  46.761 -17.272  1.00  0.00     0.042 C 
HETATM   49  C3  UNL     1      -2.731  48.197 -15.220  1.00  0.00     0.042 C 
ENDBRANCH  45  46
BRANCH  45  50
HETATM   50  O1  UNL     1      -2.791  51.464 -17.360  1.00  0.00    -0.392 OA
HETATM   51  H9  UNL     1      -3.537  51.110 -16.846  1.00  0.00     0.210 HD
ENDBRANCH  45  50
ENDBRANCH  44  45
ENDBRANCH  41  44
ENDBRANCH   1  40
TORSDOF 12
ENDMDL
