MODEL 1
REMARK minimizedAffinity -8.62107086
REMARK CNNscore 0.700900733
REMARK CNNaffinity 6.99279404
REMARK  16 active torsions:
REMARK  status: ('A' for Active; 'I' for Inactive)
REMARK    1  A    between atoms: C2_2  and  C7_9 
REMARK    2  A    between atoms: C3_3  and  C4_4 
REMARK    3  A    between atoms: C4_4  and  C6_6 
REMARK    4  A    between atoms: C6_6  and  O2_8 
REMARK    5  A    between atoms: C7_9  and  C8_10 
REMARK    6  A    between atoms: C8_10  and  C9_11 
REMARK    7  A    between atoms: C9_11  and  O3_12 
REMARK    8  A    between atoms: C9_11  and  C10_13 
REMARK    9  A    between atoms: C10_13  and  C11_14 
REMARK   10  A    between atoms: C13_16  and  O4_17 
REMARK   11  A    between atoms: C17_23  and  C19_25 
REMARK   12  A    between atoms: C22_28  and  C24_30 
REMARK   13  A    between atoms: C25_32  and  C26_33 
REMARK   14  A    between atoms: C27_35  and  O9_36 
REMARK   15  A    between atoms: C27_35  and  C28_37 
REMARK   16  A    between atoms: C28_37  and  O10_38 
ROOT
HETATM    1  C11 UNL     1     -10.981  46.965 -22.136  1.00  0.00     0.130 C 
HETATM    2  C12 UNL     1     -10.819  46.210 -23.459  1.00  0.00     0.064 C 
HETATM    3  C13 UNL     1      -9.400  45.725 -23.679  1.00  0.00     0.129 C 
HETATM    4  C14 UNL     1      -8.417  46.842 -23.325  1.00  0.00     0.073 C 
HETATM    5  C15 UNL     1      -8.589  48.074 -24.238  1.00  0.00     0.018 C 
HETATM    6  C16 UNL     1      -8.546  47.162 -21.807  1.00  0.00     0.174 C 
HETATM    7  O5  UNL     1      -9.848  46.894 -21.277  1.00  0.00    -0.349 OA
HETATM    8  O6  UNL     1      -8.179  48.541 -21.595  1.00  0.00    -0.341 OA
HETATM    9  C17 UNL     1      -7.369  48.675 -20.417  1.00  0.00     0.087 C 
HETATM   10  C18 UNL     1      -8.296  48.976 -19.236  1.00  0.00     0.049 C 
HETATM   11  C37 UNL     1      -6.671  47.321 -20.251  1.00  0.00     0.050 C 
HETATM   12  C38 UNL     1      -7.546  46.309 -20.969  1.00  0.00     0.047 C 
HETATM   13  C39 UNL     1      -8.159  45.303 -19.982  1.00  0.00     0.015 C 
ENDROOT
BRANCH   9  14
HETATM   14  C19 UNL     1      -6.292  49.785 -20.564  1.00  0.00     0.157 C 
HETATM   15  C20 UNL     1      -5.033  49.610 -19.735  1.00  0.00     0.038 C 
HETATM   16  C21 UNL     1      -4.151  50.694 -20.322  1.00  0.00     0.043 C 
HETATM   17  C22 UNL     1      -4.560  50.729 -21.811  1.00  0.00     0.084 C 
HETATM   18  C23 UNL     1      -4.900  52.180 -22.189  1.00  0.00     0.049 C 
HETATM   19  O11 UNL     1      -5.777  49.947 -21.902  1.00  0.00    -0.370 OA
BRANCH  17  20
HETATM   20  C24 UNL     1      -3.442  50.102 -22.681  1.00  0.00     0.160 C 
HETATM   21  O7  UNL     1      -2.646  51.135 -23.313  1.00  0.00    -0.375 OA
HETATM   22  C25 UNL     1      -2.443  50.789 -24.700  1.00  0.00     0.152 C 
HETATM   23  C34 UNL     1      -2.643  49.277 -24.767  1.00  0.00     0.041 C 
HETATM   24  C35 UNL     1      -3.772  49.055 -23.766  1.00  0.00     0.016 C 
HETATM   25  C36 UNL     1      -5.115  49.135 -24.469  1.00  0.00     0.012 C 
BRANCH  22  26
HETATM   26  C26 UNL     1      -1.091  51.320 -25.233  1.00  0.00     0.158 C 
HETATM   27  O8  UNL     1      -1.309  52.059 -26.434  1.00  0.00    -0.345 OA
HETATM   28  C27 UNL     1      -0.128  52.390 -27.170  1.00  0.00     0.187 C 
HETATM   29  C29 UNL     1       1.046  52.825 -26.250  1.00  0.00     0.046 C 
HETATM   30  C30 UNL     1       2.147  51.768 -26.098  1.00  0.00     0.015 C 
HETATM   31  C31 UNL     1       0.508  53.281 -24.887  1.00  0.00     0.016 C 
HETATM   32  C32 UNL     1      -0.409  52.250 -24.206  1.00  0.00     0.014 C 
HETATM   33  C33 UNL     1       0.339  51.460 -23.125  1.00  0.00     0.012 C 
BRANCH  28  34
HETATM   34  O9  UNL     1       0.237  51.277 -27.973  1.00  0.00    -0.363 OA
HETATM   35  H41 UNL     1      -0.515  51.205 -28.594  1.00  0.00     0.213 HD
ENDBRANCH  28  34
BRANCH  28  36
HETATM   36  C28 UNL     1      -0.527  53.542 -28.134  1.00  0.00     0.232 C 
BRANCH  36  37
HETATM   37  O10 UNL     1      -1.957  53.723 -28.136  1.00  0.00    -0.396 OA
HETATM   38  H44 UNL     1      -2.127  54.618 -28.482  1.00  0.00     0.209 HD
ENDBRANCH  36  37
ENDBRANCH  28  36
ENDBRANCH  22  26
ENDBRANCH  17  20
ENDBRANCH   9  14
BRANCH   3  39
HETATM   39  O4  UNL     1      -9.253  45.316 -25.037  1.00  0.00    -0.395 OA
HETATM   40  H22 UNL     1      -8.354  44.956 -25.137  1.00  0.00     0.210 HD
ENDBRANCH   3  39
BRANCH   1  41
HETATM   41  C10 UNL     1     -12.210  46.452 -21.340  1.00  0.00     0.063 C 
BRANCH  41  42
HETATM   42  C9  UNL     1     -13.546  47.136 -21.680  1.00  0.00     0.120 C 
BRANCH  42  43
HETATM   43  C8  UNL     1     -14.714  46.155 -21.885  1.00  0.00     0.036 C 
BRANCH  43  44
HETATM   44  C7  UNL     1     -15.931  46.723 -22.633  1.00  0.00     0.036 C 
BRANCH  44  45
HETATM   45  C2  UNL     1     -17.269  46.104 -22.304  1.00  0.00    -0.087 C 
HETATM   46  C1  UNL     1     -17.884  45.258 -23.382  1.00  0.00     0.043 C 
HETATM   47  C3  UNL     1     -17.797  46.273 -21.072  1.00  0.00    -0.010 C 
BRANCH  47  48
HETATM   48  C4  UNL     1     -19.088  45.772 -20.464  1.00  0.00     0.102 C 
HETATM   49  C5  UNL     1     -19.102  44.325 -19.968  1.00  0.00     0.025 C 
BRANCH  48  50
HETATM   50  C6  UNL     1     -19.508  46.732 -19.361  1.00  0.00     0.147 C 
HETATM   51  O1  UNL     1     -19.268  47.924 -19.265  1.00  0.00    -0.650 OA
BRANCH  50  52
HETATM   52  O2  UNL     1     -20.264  46.134 -18.408  1.00  0.00    -0.776 OA
HETATM   53  H9  UNL     1     -20.494  46.873 -17.808  1.00  0.00     0.167 HD
ENDBRANCH  50  52
ENDBRANCH  48  50
ENDBRANCH  47  48
ENDBRANCH  44  45
ENDBRANCH  43  44
ENDBRANCH  42  43
BRANCH  42  54
HETATM   54  O3  UNL     1     -13.919  48.004 -20.608  1.00  0.00    -0.395 OA
HETATM   55  H15 UNL     1     -14.715  48.483 -20.890  1.00  0.00     0.210 HD
ENDBRANCH  42  54
ENDBRANCH  41  42
ENDBRANCH   1  41
TORSDOF 16
ENDMDL
MODEL 2
REMARK minimizedAffinity -10.425025
REMARK CNNscore 0.668359041
REMARK CNNaffinity 8.31340408
REMARK  16 active torsions:
REMARK  status: ('A' for Active; 'I' for Inactive)
REMARK    1  A    between atoms: C2_2  and  C7_9 
REMARK    2  A    between atoms: C3_3  and  C4_4 
REMARK    3  A    between atoms: C4_4  and  C6_6 
REMARK    4  A    between atoms: C6_6  and  O2_8 
REMARK    5  A    between atoms: C7_9  and  C8_10 
REMARK    6  A    between atoms: C8_10  and  C9_11 
REMARK    7  A    between atoms: C9_11  and  O3_12 
REMARK    8  A    between atoms: C9_11  and  C10_13 
REMARK    9  A    between atoms: C10_13  and  C11_14 
REMARK   10  A    between atoms: C13_16  and  O4_17 
REMARK   11  A    between atoms: C17_23  and  C19_25 
REMARK   12  A    between atoms: C22_28  and  C24_30 
REMARK   13  A    between atoms: C25_32  and  C26_33 
REMARK   14  A    between atoms: C27_35  and  O9_36 
REMARK   15  A    between atoms: C27_35  and  C28_37 
REMARK   16  A    between atoms: C28_37  and  O10_38 
ROOT
HETATM    1  C11 UNL     1      -3.525  48.621 -25.090  1.00  0.00     0.130 C 
HETATM    2  C12 UNL     1      -5.005  48.426 -25.437  1.00  0.00     0.064 C 
HETATM    3  C13 UNL     1      -5.923  49.212 -24.524  1.00  0.00     0.129 C 
HETATM    4  C14 UNL     1      -5.463  49.050 -23.074  1.00  0.00     0.073 C 
HETATM    5  C15 UNL     1      -5.549  47.584 -22.600  1.00  0.00     0.018 C 
HETATM    6  C16 UNL     1      -4.046  49.677 -22.924  1.00  0.00     0.174 C 
HETATM    7  O5  UNL     1      -3.279  49.644 -24.132  1.00  0.00    -0.349 OA
HETATM    8  O6  UNL     1      -3.353  48.997 -21.858  1.00  0.00    -0.341 OA
HETATM    9  C17 UNL     1      -2.636  49.935 -21.040  1.00  0.00     0.087 C 
HETATM   10  C18 UNL     1      -1.210  50.049 -21.589  1.00  0.00     0.049 C 
HETATM   11  C37 UNL     1      -3.396  51.258 -21.181  1.00  0.00     0.050 C 
HETATM   12  C38 UNL     1      -4.138  51.174 -22.503  1.00  0.00     0.047 C 
HETATM   13  C39 UNL     1      -3.602  52.207 -23.508  1.00  0.00     0.015 C 
ENDROOT
BRANCH   9  14
HETATM   14  C19 UNL     1      -2.615  49.521 -19.543  1.00  0.00     0.157 C 
HETATM   15  C20 UNL     1      -1.844  48.258 -19.209  1.00  0.00     0.038 C 
HETATM   16  C21 UNL     1      -1.827  48.325 -17.695  1.00  0.00     0.043 C 
HETATM   17  C22 UNL     1      -1.752  49.839 -17.399  1.00  0.00     0.084 C 
HETATM   18  C23 UNL     1      -2.876  50.200 -16.415  1.00  0.00     0.049 C 
HETATM   19  O11 UNL     1      -2.031  50.500 -18.659  1.00  0.00    -0.370 OA
BRANCH  17  20
HETATM   20  C24 UNL     1      -0.335  50.209 -16.892  1.00  0.00     0.160 C 
HETATM   21  O7  UNL     1      -0.390  50.677 -15.521  1.00  0.00    -0.375 OA
HETATM   22  C25 UNL     1       0.422  51.865 -15.398  1.00  0.00     0.152 C 
HETATM   23  C34 UNL     1       1.409  51.795 -16.560  1.00  0.00     0.041 C 
HETATM   24  C35 UNL     1       0.557  51.196 -17.673  1.00  0.00     0.016 C 
HETATM   25  C36 UNL     1      -0.109  52.300 -18.473  1.00  0.00     0.012 C 
BRANCH  22  26
HETATM   26  C26 UNL     1       1.042  51.994 -13.987  1.00  0.00     0.158 C 
HETATM   27  O8  UNL     1       0.013  52.276 -13.038  1.00  0.00    -0.345 OA
HETATM   28  C27 UNL     1       0.470  52.671 -11.742  1.00  0.00     0.187 C 
HETATM   29  C29 UNL     1       1.695  51.845 -11.264  1.00  0.00     0.046 C 
HETATM   30  C30 UNL     1       3.024  52.608 -11.317  1.00  0.00     0.015 C 
HETATM   31  C31 UNL     1       1.773  50.520 -12.034  1.00  0.00     0.016 C 
HETATM   32  C32 UNL     1       1.751  50.690 -13.563  1.00  0.00     0.014 C 
HETATM   33  C33 UNL     1       3.159  50.583 -14.160  1.00  0.00     0.012 C 
BRANCH  28  34
HETATM   34  O9  UNL     1       0.767  54.060 -11.765  1.00  0.00    -0.363 OA
HETATM   35  H41 UNL     1      -0.108  54.464 -11.932  1.00  0.00     0.213 HD
ENDBRANCH  28  34
BRANCH  28  36
HETATM   36  C28 UNL     1      -0.735  52.475 -10.780  1.00  0.00     0.232 C 
BRANCH  36  37
HETATM   37  O10 UNL     1      -0.922  53.647  -9.963  1.00  0.00    -0.396 OA
HETATM   38  H44 UNL     1      -1.836  53.612  -9.624  1.00  0.00     0.209 HD
ENDBRANCH  36  37
ENDBRANCH  28  36
ENDBRANCH  22  26
ENDBRANCH  17  20
ENDBRANCH   9  14
BRANCH   3  39
HETATM   39  O4  UNL     1      -7.261  48.749 -24.698  1.00  0.00    -0.395 OA
HETATM   40  H22 UNL     1      -7.836  49.307 -24.144  1.00  0.00     0.210 HD
ENDBRANCH   3  39
BRANCH   1  41
HETATM   41  C10 UNL     1      -2.687  48.946 -26.355  1.00  0.00     0.063 C 
BRANCH  41  42
HETATM   42  C9  UNL     1      -2.862  50.370 -26.911  1.00  0.00     0.120 C 
BRANCH  42  43
HETATM   43  C8  UNL     1      -1.553  51.012 -27.404  1.00  0.00     0.036 C 
BRANCH  43  44
HETATM   44  C7  UNL     1      -0.274  50.530 -26.701  1.00  0.00     0.036 C 
BRANCH  44  45
HETATM   45  C2  UNL     1       0.389  51.514 -25.765  1.00  0.00    -0.087 C 
HETATM   46  C1  UNL     1       1.856  51.744 -25.987  1.00  0.00     0.043 C 
HETATM   47  C3  UNL     1      -0.359  52.173 -24.853  1.00  0.00    -0.010 C 
BRANCH  47  48
HETATM   48  C4  UNL     1       0.019  53.203 -23.812  1.00  0.00     0.102 C 
HETATM   49  C5  UNL     1       0.952  52.741 -22.691  1.00  0.00     0.025 C 
BRANCH  48  50
HETATM   50  C6  UNL     1       0.581  54.425 -24.522  1.00  0.00     0.147 C 
HETATM   51  O1  UNL     1       0.211  54.927 -25.571  1.00  0.00    -0.650 OA
BRANCH  50  52
HETATM   52  O2  UNL     1       1.603  55.001 -23.843  1.00  0.00    -0.776 OA
HETATM   53  H9  UNL     1       1.821  55.785 -24.387  1.00  0.00     0.167 HD
ENDBRANCH  50  52
ENDBRANCH  48  50
ENDBRANCH  47  48
ENDBRANCH  44  45
ENDBRANCH  43  44
ENDBRANCH  42  43
BRANCH  42  54
HETATM   54  O3  UNL     1      -3.750  50.334 -28.031  1.00  0.00    -0.395 OA
HETATM   55  H15 UNL     1      -3.908  51.253 -28.302  1.00  0.00     0.210 HD
ENDBRANCH  42  54
ENDBRANCH  41  42
ENDBRANCH   1  41
TORSDOF 16
ENDMDL
MODEL 3
REMARK minimizedAffinity -9.93930435
REMARK CNNscore 0.503388762
REMARK CNNaffinity 7.45602942
REMARK  16 active torsions:
REMARK  status: ('A' for Active; 'I' for Inactive)
REMARK    1  A    between atoms: C2_2  and  C7_9 
REMARK    2  A    between atoms: C3_3  and  C4_4 
REMARK    3  A    between atoms: C4_4  and  C6_6 
REMARK    4  A    between atoms: C6_6  and  O2_8 
REMARK    5  A    between atoms: C7_9  and  C8_10 
REMARK    6  A    between atoms: C8_10  and  C9_11 
REMARK    7  A    between atoms: C9_11  and  O3_12 
REMARK    8  A    between atoms: C9_11  and  C10_13 
REMARK    9  A    between atoms: C10_13  and  C11_14 
REMARK   10  A    between atoms: C13_16  and  O4_17 
REMARK   11  A    between atoms: C17_23  and  C19_25 
REMARK   12  A    between atoms: C22_28  and  C24_30 
REMARK   13  A    between atoms: C25_32  and  C26_33 
REMARK   14  A    between atoms: C27_35  and  O9_36 
REMARK   15  A    between atoms: C27_35  and  C28_37 
REMARK   16  A    between atoms: C28_37  and  O10_38 
ROOT
HETATM    1  C11 UNL     1      -2.177  51.864 -22.233  1.00  0.00     0.130 C 
HETATM    2  C12 UNL     1      -0.779  52.464 -22.415  1.00  0.00     0.064 C 
HETATM    3  C13 UNL     1       0.272  51.741 -21.597  1.00  0.00     0.129 C 
HETATM    4  C14 UNL     1      -0.261  51.490 -20.186  1.00  0.00     0.073 C 
HETATM    5  C15 UNL     1      -0.549  52.807 -19.434  1.00  0.00     0.018 C 
HETATM    6  C16 UNL     1      -1.488  50.536 -20.275  1.00  0.00     0.174 C 
HETATM    7  O5  UNL     1      -2.200  50.638 -21.512  1.00  0.00    -0.349 OA
HETATM    8  O6  UNL     1      -2.359  50.802 -19.157  1.00  0.00    -0.341 OA
HETATM    9  C17 UNL     1      -2.854  49.576 -18.596  1.00  0.00     0.087 C 
HETATM   10  C18 UNL     1      -4.190  49.252 -19.270  1.00  0.00     0.049 C 
HETATM   11  C37 UNL     1      -1.791  48.524 -18.926  1.00  0.00     0.050 C 
HETATM   12  C38 UNL     1      -1.048  49.047 -20.142  1.00  0.00     0.047 C 
HETATM   13  C39 UNL     1      -1.284  48.148 -21.366  1.00  0.00     0.015 C 
ENDROOT
BRANCH   9  14
HETATM   14  C19 UNL     1      -3.024  49.658 -17.054  1.00  0.00     0.157 C 
HETATM   15  C20 UNL     1      -2.801  48.369 -16.286  1.00  0.00     0.038 C 
HETATM   16  C21 UNL     1      -2.791  48.884 -14.860  1.00  0.00     0.043 C 
HETATM   17  C22 UNL     1      -2.149  50.282 -14.982  1.00  0.00     0.084 C 
HETATM   18  C23 UNL     1      -3.071  51.303 -14.296  1.00  0.00     0.049 C 
HETATM   19  O11 UNL     1      -2.129  50.583 -16.401  1.00  0.00    -0.370 OA
BRANCH  17  20
HETATM   20  C24 UNL     1      -0.710  50.256 -14.410  1.00  0.00     0.160 C 
HETATM   21  O7  UNL     1      -0.555  51.256 -13.373  1.00  0.00    -0.375 OA
HETATM   22  C25 UNL     1       0.689  51.960 -13.583  1.00  0.00     0.152 C 
HETATM   23  C34 UNL     1       1.548  51.013 -14.416  1.00  0.00     0.041 C 
HETATM   24  C35 UNL     1       0.518  50.369 -15.338  1.00  0.00     0.016 C 
HETATM   25  C36 UNL     1       0.389  51.173 -16.619  1.00  0.00     0.012 C 
BRANCH  22  26
HETATM   26  C26 UNL     1       1.308  52.442 -12.249  1.00  0.00     0.158 C 
HETATM   27  O8  UNL     1       0.519  53.504 -11.713  1.00  0.00    -0.345 OA
HETATM   28  C27 UNL     1       1.111  54.213 -10.622  1.00  0.00     0.187 C 
HETATM   29  C29 UNL     1       1.839  53.272  -9.624  1.00  0.00     0.046 C 
HETATM   30  C30 UNL     1       3.369  53.323  -9.717  1.00  0.00     0.015 C 
HETATM   31  C31 UNL     1       1.312  51.838  -9.767  1.00  0.00     0.016 C 
HETATM   32  C32 UNL     1       1.361  51.302 -11.209  1.00  0.00     0.014 C 
HETATM   33  C33 UNL     1       2.569  50.383 -11.426  1.00  0.00     0.012 C 
BRANCH  28  34
HETATM   34  O9  UNL     1       1.998  55.194 -11.140  1.00  0.00    -0.363 OA
HETATM   35  H41 UNL     1       1.396  55.795 -11.622  1.00  0.00     0.213 HD
ENDBRANCH  28  34
BRANCH  28  36
HETATM   36  C28 UNL     1      -0.050  54.970  -9.917  1.00  0.00     0.232 C 
BRANCH  36  37
HETATM   37  O10 UNL     1      -1.160  55.141 -10.820  1.00  0.00    -0.396 OA
HETATM   38  H44 UNL     1      -1.945  55.319 -10.271  1.00  0.00     0.209 HD
ENDBRANCH  36  37
ENDBRANCH  28  36
ENDBRANCH  22  26
ENDBRANCH  17  20
ENDBRANCH   9  14
BRANCH   3  39
HETATM   39  O4  UNL     1       1.463  52.526 -21.570  1.00  0.00    -0.395 OA
HETATM   40  H22 UNL     1       2.137  52.015 -21.089  1.00  0.00     0.210 HD
ENDBRANCH   3  39
BRANCH   1  41
HETATM   41  C10 UNL     1      -2.870  51.622 -23.600  1.00  0.00     0.063 C 
BRANCH  41  42
HETATM   42  C9  UNL     1      -2.067  52.076 -24.833  1.00  0.00     0.120 C 
BRANCH  42  43
HETATM   43  C8  UNL     1      -1.321  50.934 -25.546  1.00  0.00     0.036 C 
BRANCH  43  44
HETATM   44  C7  UNL     1      -1.963  50.440 -26.853  1.00  0.00     0.036 C 
BRANCH  44  45
HETATM   45  C2  UNL     1      -2.915  49.273 -26.733  1.00  0.00    -0.087 C 
HETATM   46  C1  UNL     1      -2.798  48.458 -25.477  1.00  0.00     0.043 C 
HETATM   47  C3  UNL     1      -3.843  49.069 -27.693  1.00  0.00    -0.010 C 
BRANCH  47  48
HETATM   48  C4  UNL     1      -4.915  48.011 -27.834  1.00  0.00     0.102 C 
HETATM   49  C5  UNL     1      -6.015  47.997 -26.770  1.00  0.00     0.025 C 
BRANCH  48  50
HETATM   50  C6  UNL     1      -5.508  48.104 -29.231  1.00  0.00     0.147 C 
HETATM   51  O1  UNL     1      -5.012  47.748 -30.287  1.00  0.00    -0.650 OA
BRANCH  50  52
HETATM   52  O2  UNL     1      -6.756  48.633 -29.236  1.00  0.00    -0.776 OA
HETATM   53  H9  UNL     1      -7.017  48.582 -30.178  1.00  0.00     0.167 HD
ENDBRANCH  50  52
ENDBRANCH  48  50
ENDBRANCH  47  48
ENDBRANCH  44  45
ENDBRANCH  43  44
ENDBRANCH  42  43
BRANCH  42  54
HETATM   54  O3  UNL     1      -2.958  52.648 -25.792  1.00  0.00    -0.395 OA
HETATM   55  H15 UNL     1      -2.415  53.002 -26.514  1.00  0.00     0.210 HD
ENDBRANCH  42  54
ENDBRANCH  41  42
ENDBRANCH   1  41
TORSDOF 16
ENDMDL
MODEL 4
REMARK minimizedAffinity -9.36120892
REMARK CNNscore 0.481481493
REMARK CNNaffinity 7.57100534
REMARK  16 active torsions:
REMARK  status: ('A' for Active; 'I' for Inactive)
REMARK    1  A    between atoms: C2_2  and  C7_9 
REMARK    2  A    between atoms: C3_3  and  C4_4 
REMARK    3  A    between atoms: C4_4  and  C6_6 
REMARK    4  A    between atoms: C6_6  and  O2_8 
REMARK    5  A    between atoms: C7_9  and  C8_10 
REMARK    6  A    between atoms: C8_10  and  C9_11 
REMARK    7  A    between atoms: C9_11  and  O3_12 
REMARK    8  A    between atoms: C9_11  and  C10_13 
REMARK    9  A    between atoms: C10_13  and  C11_14 
REMARK   10  A    between atoms: C13_16  and  O4_17 
REMARK   11  A    between atoms: C17_23  and  C19_25 
REMARK   12  A    between atoms: C22_28  and  C24_30 
REMARK   13  A    between atoms: C25_32  and  C26_33 
REMARK   14  A    between atoms: C27_35  and  O9_36 
REMARK   15  A    between atoms: C27_35  and  C28_37 
REMARK   16  A    between atoms: C28_37  and  O10_38 
ROOT
HETATM    1  C11 UNL     1      -2.287  51.602 -21.499  1.00  0.00     0.130 C 
HETATM    2  C12 UNL     1      -0.945  52.171 -21.970  1.00  0.00     0.064 C 
HETATM    3  C13 UNL     1       0.233  51.557 -21.241  1.00  0.00     0.129 C 
HETATM    4  C14 UNL     1      -0.071  51.488 -19.744  1.00  0.00     0.073 C 
HETATM    5  C15 UNL     1      -0.264  52.890 -19.128  1.00  0.00     0.018 C 
HETATM    6  C16 UNL     1      -1.279  50.532 -19.520  1.00  0.00     0.174 C 
HETATM    7  O5  UNL     1      -2.175  50.477 -20.634  1.00  0.00    -0.349 OA
HETATM    8  O6  UNL     1      -1.972  50.940 -18.323  1.00  0.00    -0.341 OA
HETATM    9  C17 UNL     1      -2.351  49.796 -17.542  1.00  0.00     0.087 C 
HETATM   10  C18 UNL     1      -3.770  49.390 -17.953  1.00  0.00     0.049 C 
HETATM   11  C37 UNL     1      -1.333  48.709 -17.897  1.00  0.00     0.050 C 
HETATM   12  C38 UNL     1      -0.796  49.072 -19.271  1.00  0.00     0.047 C 
HETATM   13  C39 UNL     1      -1.202  48.024 -20.320  1.00  0.00     0.015 C 
ENDROOT
BRANCH   9  14
HETATM   14  C19 UNL     1      -2.283  50.074 -16.015  1.00  0.00     0.157 C 
HETATM   15  C20 UNL     1      -2.135  48.859 -15.119  1.00  0.00     0.038 C 
HETATM   16  C21 UNL     1      -1.846  49.520 -13.786  1.00  0.00     0.043 C 
HETATM   17  C22 UNL     1      -1.039  50.779 -14.170  1.00  0.00     0.084 C 
HETATM   18  C23 UNL     1      -1.698  52.001 -13.513  1.00  0.00     0.049 C 
HETATM   19  O11 UNL     1      -1.182  50.913 -15.607  1.00  0.00    -0.370 OA
BRANCH  17  20
HETATM   20  C24 UNL     1       0.450  50.590 -13.787  1.00  0.00     0.160 C 
HETATM   21  O7  UNL     1       0.725  51.189 -12.496  1.00  0.00    -0.375 OA
HETATM   22  C25 UNL     1       1.952  51.946 -12.582  1.00  0.00     0.152 C 
HETATM   23  C34 UNL     1       2.708  51.347 -13.765  1.00  0.00     0.041 C 
HETATM   24  C35 UNL     1       1.580  51.029 -14.741  1.00  0.00     0.016 C 
HETATM   25  C36 UNL     1       1.336  52.212 -15.660  1.00  0.00     0.012 C 
BRANCH  22  26
HETATM   26  C26 UNL     1       2.709  51.967 -11.233  1.00  0.00     0.158 C 
HETATM   27  O8  UNL     1       3.852  51.116 -11.314  1.00  0.00    -0.345 OA
HETATM   28  C27 UNL     1       4.498  50.841 -10.067  1.00  0.00     0.187 C 
HETATM   29  C29 UNL     1       4.586  52.093  -9.153  1.00  0.00     0.046 C 
HETATM   30  C30 UNL     1       3.605  52.077  -7.973  1.00  0.00     0.015 C 
HETATM   31  C31 UNL     1       4.443  53.372  -9.990  1.00  0.00     0.016 C 
HETATM   32  C32 UNL     1       3.188  53.392 -10.880  1.00  0.00     0.014 C 
HETATM   33  C33 UNL     1       2.069  54.234 -10.254  1.00  0.00     0.012 C 
BRANCH  28  34
HETATM   34  O9  UNL     1       3.810  49.781  -9.419  1.00  0.00    -0.363 OA
HETATM   35  H41 UNL     1       3.954  49.028 -10.026  1.00  0.00     0.213 HD
ENDBRANCH  28  34
BRANCH  28  36
HETATM   36  C28 UNL     1       5.918  50.318 -10.422  1.00  0.00     0.232 C 
BRANCH  36  37
HETATM   37  O10 UNL     1       6.897  50.874  -9.523  1.00  0.00    -0.396 OA
HETATM   38  H44 UNL     1       7.682  50.299  -9.570  1.00  0.00     0.209 HD
ENDBRANCH  36  37
ENDBRANCH  28  36
ENDBRANCH  22  26
ENDBRANCH  17  20
ENDBRANCH   9  14
BRANCH   3  39
HETATM   39  O4  UNL     1       1.399  52.337 -21.499  1.00  0.00    -0.395 OA
HETATM   40  H22 UNL     1       2.149  51.890 -21.068  1.00  0.00     0.210 HD
ENDBRANCH   3  39
BRANCH   1  41
HETATM   41  C10 UNL     1      -3.177  51.188 -22.700  1.00  0.00     0.063 C 
BRANCH  41  42
HETATM   42  C9  UNL     1      -3.788  52.354 -23.498  1.00  0.00     0.120 C 
BRANCH  42  43
HETATM   43  C8  UNL     1      -3.789  52.134 -25.021  1.00  0.00     0.036 C 
BRANCH  43  44
HETATM   44  C7  UNL     1      -3.186  50.803 -25.498  1.00  0.00     0.036 C 
BRANCH  44  45
HETATM   45  C2  UNL     1      -2.169  50.888 -26.613  1.00  0.00    -0.087 C 
HETATM   46  C1  UNL     1      -2.694  50.646 -27.999  1.00  0.00     0.043 C 
HETATM   47  C3  UNL     1      -0.896  51.239 -26.327  1.00  0.00    -0.010 C 
BRANCH  47  48
HETATM   48  C4  UNL     1       0.313  51.414 -27.220  1.00  0.00     0.102 C 
HETATM   49  C5  UNL     1       0.240  52.524 -28.270  1.00  0.00     0.025 C 
BRANCH  48  50
HETATM   50  C6  UNL     1       1.544  51.571 -26.342  1.00  0.00     0.147 C 
HETATM   51  O1  UNL     1       2.575  50.917 -26.362  1.00  0.00    -0.650 OA
BRANCH  50  52
HETATM   52  O2  UNL     1       1.434  52.599 -25.466  1.00  0.00    -0.776 OA
HETATM   53  H9  UNL     1       2.304  52.605 -25.017  1.00  0.00     0.167 HD
ENDBRANCH  50  52
ENDBRANCH  48  50
ENDBRANCH  47  48
ENDBRANCH  44  45
ENDBRANCH  43  44
ENDBRANCH  42  43
BRANCH  42  54
HETATM   54  O3  UNL     1      -5.151  52.532 -23.106  1.00  0.00    -0.395 OA
HETATM   55  H15 UNL     1      -5.479  53.325 -23.560  1.00  0.00     0.210 HD
ENDBRANCH  42  54
ENDBRANCH  41  42
ENDBRANCH   1  41
TORSDOF 16
ENDMDL
MODEL 5
REMARK minimizedAffinity -9.39295197
REMARK CNNscore 0.456848711
REMARK CNNaffinity 6.84847641
REMARK  16 active torsions:
REMARK  status: ('A' for Active; 'I' for Inactive)
REMARK    1  A    between atoms: C2_2  and  C7_9 
REMARK    2  A    between atoms: C3_3  and  C4_4 
REMARK    3  A    between atoms: C4_4  and  C6_6 
REMARK    4  A    between atoms: C6_6  and  O2_8 
REMARK    5  A    between atoms: C7_9  and  C8_10 
REMARK    6  A    between atoms: C8_10  and  C9_11 
REMARK    7  A    between atoms: C9_11  and  O3_12 
REMARK    8  A    between atoms: C9_11  and  C10_13 
REMARK    9  A    between atoms: C10_13  and  C11_14 
REMARK   10  A    between atoms: C13_16  and  O4_17 
REMARK   11  A    between atoms: C17_23  and  C19_25 
REMARK   12  A    between atoms: C22_28  and  C24_30 
REMARK   13  A    between atoms: C25_32  and  C26_33 
REMARK   14  A    between atoms: C27_35  and  O9_36 
REMARK   15  A    between atoms: C27_35  and  C28_37 
REMARK   16  A    between atoms: C28_37  and  O10_38 
ROOT
HETATM    1  C11 UNL     1     -12.155  47.091 -25.663  1.00  0.00     0.130 C 
HETATM    2  C12 UNL     1     -12.092  47.650 -27.089  1.00  0.00     0.064 C 
HETATM    3  C13 UNL     1     -10.715  47.512 -27.705  1.00  0.00     0.129 C 
HETATM    4  C14 UNL     1      -9.654  47.931 -26.686  1.00  0.00     0.073 C 
HETATM    5  C15 UNL     1      -9.791  49.415 -26.286  1.00  0.00     0.018 C 
HETATM    6  C16 UNL     1      -9.701  46.948 -25.480  1.00  0.00     0.174 C 
HETATM    7  O5  UNL     1     -10.993  46.373 -25.264  1.00  0.00    -0.349 OA
HETATM    8  O6  UNL     1      -9.246  47.644 -24.302  1.00  0.00    -0.341 OA
HETATM    9  C17 UNL     1      -8.380  46.806 -23.520  1.00  0.00     0.087 C 
HETATM   10  C18 UNL     1      -9.238  46.077 -22.482  1.00  0.00     0.049 C 
HETATM   11  C37 UNL     1      -7.757  45.825 -24.518  1.00  0.00     0.050 C 
HETATM   12  C38 UNL     1      -8.719  45.756 -25.692  1.00  0.00     0.047 C 
HETATM   13  C39 UNL     1      -9.348  44.359 -25.813  1.00  0.00     0.015 C 
ENDROOT
BRANCH   9  14
HETATM   14  C19 UNL     1      -7.247  47.610 -22.826  1.00  0.00     0.157 C 
HETATM   15  C20 UNL     1      -6.172  46.793 -22.135  1.00  0.00     0.038 C 
HETATM   16  C21 UNL     1      -5.150  47.868 -21.824  1.00  0.00     0.043 C 
HETATM   17  C22 UNL     1      -5.275  48.844 -23.014  1.00  0.00     0.084 C 
HETATM   18  C23 UNL     1      -5.475  50.264 -22.461  1.00  0.00     0.049 C 
HETATM   19  O11 UNL     1      -6.488  48.461 -23.710  1.00  0.00    -0.370 OA
BRANCH  17  20
HETATM   20  C24 UNL     1      -4.045  48.704 -23.945  1.00  0.00     0.160 C 
HETATM   21  O7  UNL     1      -3.329  49.961 -24.039  1.00  0.00    -0.375 OA
HETATM   22  C25 UNL     1      -3.006  50.214 -25.424  1.00  0.00     0.152 C 
HETATM   23  C34 UNL     1      -3.035  48.845 -26.097  1.00  0.00     0.041 C 
HETATM   24  C35 UNL     1      -4.192  48.156 -25.381  1.00  0.00     0.016 C 
HETATM   25  C36 UNL     1      -5.490  48.408 -26.125  1.00  0.00     0.012 C 
BRANCH  22  26
HETATM   26  C26 UNL     1      -1.690  51.015 -25.569  1.00  0.00     0.158 C 
HETATM   27  O8  UNL     1      -1.783  51.885 -26.696  1.00  0.00    -0.345 OA
HETATM   28  C27 UNL     1      -0.554  52.495 -27.100  1.00  0.00     0.187 C 
HETATM   29  C29 UNL     1       0.307  52.957 -25.892  1.00  0.00     0.046 C 
HETATM   30  C30 UNL     1       1.524  52.066 -25.614  1.00  0.00     0.015 C 
HETATM   31  C31 UNL     1      -0.574  53.118 -24.645  1.00  0.00     0.016 C 
HETATM   32  C32 UNL     1      -1.413  51.871 -24.315  1.00  0.00     0.014 C 
HETATM   33  C33 UNL     1      -0.776  51.048 -23.188  1.00  0.00     0.012 C 
BRANCH  28  34
HETATM   34  O9  UNL     1       0.162  51.583 -27.919  1.00  0.00    -0.363 OA
HETATM   35  H41 UNL     1      -0.420  51.493 -28.700  1.00  0.00     0.213 HD
ENDBRANCH  28  34
BRANCH  28  36
HETATM   36  C28 UNL     1      -0.945  53.707 -27.992  1.00  0.00     0.232 C 
BRANCH  36  37
HETATM   37  O10 UNL     1      -0.318  54.911 -27.507  1.00  0.00    -0.396 OA
HETATM   38  H44 UNL     1      -0.325  55.548 -28.244  1.00  0.00     0.209 HD
ENDBRANCH  36  37
ENDBRANCH  28  36
ENDBRANCH  22  26
ENDBRANCH  17  20
ENDBRANCH   9  14
BRANCH   3  39
HETATM   39  O4  UNL     1     -10.649  48.314 -28.882  1.00  0.00    -0.395 OA
HETATM   40  H22 UNL     1      -9.777  48.163 -29.288  1.00  0.00     0.210 HD
ENDBRANCH   3  39
BRANCH   1  41
HETATM   41  C10 UNL     1     -13.378  46.155 -25.477  1.00  0.00     0.063 C 
BRANCH  41  42
HETATM   42  C9  UNL     1     -13.803  45.913 -24.018  1.00  0.00     0.120 C 
BRANCH  42  43
HETATM   43  C8  UNL     1     -15.053  46.705 -23.593  1.00  0.00     0.036 C 
BRANCH  43  44
HETATM   44  C7  UNL     1     -15.209  46.933 -22.081  1.00  0.00     0.036 C 
BRANCH  44  45
HETATM   45  C2  UNL     1     -16.583  46.682 -21.504  1.00  0.00    -0.087 C 
HETATM   46  C1  UNL     1     -17.636  46.246 -22.482  1.00  0.00     0.043 C 
HETATM   47  C3  UNL     1     -16.774  46.785 -20.170  1.00  0.00    -0.010 C 
BRANCH  47  48
HETATM   48  C4  UNL     1     -18.011  46.584 -19.323  1.00  0.00     0.102 C 
HETATM   49  C5  UNL     1     -19.139  47.603 -19.497  1.00  0.00     0.025 C 
BRANCH  48  50
HETATM   50  C6  UNL     1     -18.518  45.166 -19.534  1.00  0.00     0.147 C 
HETATM   51  O1  UNL     1     -17.908  44.118 -19.402  1.00  0.00    -0.650 OA
BRANCH  50  52
HETATM   52  O2  UNL     1     -19.826  45.126 -19.888  1.00  0.00    -0.776 OA
HETATM   53  H9  UNL     1     -20.015  44.166 -19.937  1.00  0.00     0.167 HD
ENDBRANCH  50  52
ENDBRANCH  48  50
ENDBRANCH  47  48
ENDBRANCH  44  45
ENDBRANCH  43  44
ENDBRANCH  42  43
BRANCH  42  54
HETATM   54  O3  UNL     1     -14.113  44.529 -23.839  1.00  0.00    -0.395 OA
HETATM   55  H15 UNL     1     -14.292  44.394 -22.894  1.00  0.00     0.210 HD
ENDBRANCH  42  54
ENDBRANCH  41  42
ENDBRANCH   1  41
TORSDOF 16
ENDMDL
MODEL 6
REMARK minimizedAffinity -8.96464539
REMARK CNNscore 0.449503332
REMARK CNNaffinity 6.93818808
REMARK  16 active torsions:
REMARK  status: ('A' for Active; 'I' for Inactive)
REMARK    1  A    between atoms: C2_2  and  C7_9 
REMARK    2  A    between atoms: C3_3  and  C4_4 
REMARK    3  A    between atoms: C4_4  and  C6_6 
REMARK    4  A    between atoms: C6_6  and  O2_8 
REMARK    5  A    between atoms: C7_9  and  C8_10 
REMARK    6  A    between atoms: C8_10  and  C9_11 
REMARK    7  A    between atoms: C9_11  and  O3_12 
REMARK    8  A    between atoms: C9_11  and  C10_13 
REMARK    9  A    between atoms: C10_13  and  C11_14 
REMARK   10  A    between atoms: C13_16  and  O4_17 
REMARK   11  A    between atoms: C17_23  and  C19_25 
REMARK   12  A    between atoms: C22_28  and  C24_30 
REMARK   13  A    between atoms: C25_32  and  C26_33 
REMARK   14  A    between atoms: C27_35  and  O9_36 
REMARK   15  A    between atoms: C27_35  and  C28_37 
REMARK   16  A    between atoms: C28_37  and  O10_38 
ROOT
HETATM    1  C11 UNL     1      -1.159  49.142 -17.161  1.00  0.00     0.130 C 
HETATM    2  C12 UNL     1      -1.943  47.829 -17.061  1.00  0.00     0.064 C 
HETATM    3  C13 UNL     1      -2.678  47.693 -15.743  1.00  0.00     0.129 C 
HETATM    4  C14 UNL     1      -1.756  48.107 -14.597  1.00  0.00     0.073 C 
HETATM    5  C15 UNL     1      -0.521  47.188 -14.488  1.00  0.00     0.018 C 
HETATM    6  C16 UNL     1      -1.404  49.616 -14.754  1.00  0.00     0.174 C 
HETATM    7  O5  UNL     1      -1.428  50.066 -16.112  1.00  0.00    -0.349 OA
HETATM    8  O6  UNL     1      -0.113  49.852 -14.157  1.00  0.00    -0.341 OA
HETATM    9  C17 UNL     1      -0.118  51.076 -13.406  1.00  0.00     0.087 C 
HETATM   10  C18 UNL     1       0.356  52.201 -14.331  1.00  0.00     0.049 C 
HETATM   11  C37 UNL     1      -1.575  51.281 -12.977  1.00  0.00     0.050 C 
HETATM   12  C38 UNL     1      -2.417  50.509 -13.977  1.00  0.00     0.047 C 
HETATM   13  C39 UNL     1      -3.287  51.456 -14.819  1.00  0.00     0.015 C 
ENDROOT
BRANCH   9  14
HETATM   14  C19 UNL     1       0.776  50.996 -12.139  1.00  0.00     0.157 C 
HETATM   15  C20 UNL     1       2.269  50.875 -12.379  1.00  0.00     0.038 C 
HETATM   16  C21 UNL     1       2.803  51.085 -10.976  1.00  0.00     0.043 C 
HETATM   17  C22 UNL     1       1.810  52.092 -10.356  1.00  0.00     0.084 C 
HETATM   18  C23 UNL     1       1.313  51.525  -9.017  1.00  0.00     0.049 C 
HETATM   19  O11 UNL     1       0.682  52.141 -11.265  1.00  0.00    -0.370 OA
BRANCH  17  20
HETATM   20  C24 UNL     1       2.475  53.486 -10.236  1.00  0.00     0.160 C 
HETATM   21  O7  UNL     1       2.978  53.698  -8.894  1.00  0.00    -0.375 OA
HETATM   22  C25 UNL     1       2.605  55.023  -8.457  1.00  0.00     0.152 C 
HETATM   23  C34 UNL     1       2.361  55.812  -9.740  1.00  0.00     0.041 C 
HETATM   24  C35 UNL     1       1.718  54.767 -10.645  1.00  0.00     0.016 C 
HETATM   25  C36 UNL     1       0.208  54.799 -10.489  1.00  0.00     0.012 C 
BRANCH  22  26
HETATM   26  C26 UNL     1       3.646  55.620  -7.480  1.00  0.00     0.158 C 
HETATM   27  O8  UNL     1       4.951  55.167  -7.838  1.00  0.00    -0.345 OA
HETATM   28  C27 UNL     1       5.974  55.431  -6.874  1.00  0.00     0.187 C 
HETATM   29  C29 UNL     1       5.843  56.842  -6.238  1.00  0.00     0.046 C 
HETATM   30  C30 UNL     1       5.312  56.833  -4.799  1.00  0.00     0.015 C 
HETATM   31  C31 UNL     1       5.006  57.756  -7.143  1.00  0.00     0.016 C 
HETATM   32  C32 UNL     1       3.638  57.163  -7.526  1.00  0.00     0.014 C 
HETATM   33  C33 UNL     1       2.511  57.756  -6.671  1.00  0.00     0.012 C 
BRANCH  28  34
HETATM   34  O9  UNL     1       5.942  54.417  -5.881  1.00  0.00    -0.363 OA
HETATM   35  H41 UNL     1       6.180  53.614  -6.386  1.00  0.00     0.213 HD
ENDBRANCH  28  34
BRANCH  28  36
HETATM   36  C28 UNL     1       7.326  55.293  -7.630  1.00  0.00     0.232 C 
BRANCH  36  37
HETATM   37  O10 UNL     1       7.100  55.178  -9.048  1.00  0.00    -0.396 OA
HETATM   38  H44 UNL     1       7.938  55.409  -9.487  1.00  0.00     0.209 HD
ENDBRANCH  36  37
ENDBRANCH  28  36
ENDBRANCH  22  26
ENDBRANCH  17  20
ENDBRANCH   9  14
BRANCH   3  39
HETATM   39  O4  UNL     1      -3.119  46.345 -15.593  1.00  0.00    -0.395 OA
HETATM   40  H22 UNL     1      -3.637  46.298 -14.770  1.00  0.00     0.210 HD
ENDBRANCH   3  39
BRANCH   1  41
HETATM   41  C10 UNL     1      -1.434  49.863 -18.508  1.00  0.00     0.063 C 
BRANCH  41  42
HETATM   42  C9  UNL     1      -1.409  51.400 -18.447  1.00  0.00     0.120 C 
BRANCH  42  43
HETATM   43  C8  UNL     1      -0.447  52.048 -19.459  1.00  0.00     0.036 C 
BRANCH  43  44
HETATM   44  C7  UNL     1      -0.701  51.695 -20.933  1.00  0.00     0.036 C 
BRANCH  44  45
HETATM   45  C2  UNL     1       0.121  52.448 -21.954  1.00  0.00    -0.087 C 
HETATM   46  C1  UNL     1       1.046  53.497 -21.407  1.00  0.00     0.043 C 
HETATM   47  C3  UNL     1       0.042  52.102 -23.258  1.00  0.00    -0.010 C 
BRANCH  47  48
HETATM   48  C4  UNL     1       0.740  52.658 -24.479  1.00  0.00     0.102 C 
HETATM   49  C5  UNL     1       1.142  51.654 -25.561  1.00  0.00     0.025 C 
BRANCH  48  50
HETATM   50  C6  UNL     1      -0.113  53.774 -25.060  1.00  0.00     0.147 C 
HETATM   51  O1  UNL     1       0.247  54.863 -25.478  1.00  0.00    -0.650 OA
BRANCH  50  52
HETATM   52  O2  UNL     1      -1.428  53.450 -25.118  1.00  0.00    -0.776 OA
HETATM   53  H9  UNL     1      -1.832  54.230 -25.551  1.00  0.00     0.167 HD
ENDBRANCH  50  52
ENDBRANCH  48  50
ENDBRANCH  47  48
ENDBRANCH  44  45
ENDBRANCH  43  44
ENDBRANCH  42  43
BRANCH  42  54
HETATM   54  O3  UNL     1      -2.713  51.906 -18.737  1.00  0.00    -0.395 OA
HETATM   55  H15 UNL     1      -2.685  52.868 -18.606  1.00  0.00     0.210 HD
ENDBRANCH  42  54
ENDBRANCH  41  42
ENDBRANCH   1  41
TORSDOF 16
ENDMDL
MODEL 7
REMARK minimizedAffinity -9.43784046
REMARK CNNscore 0.447449684
REMARK CNNaffinity 7.29240084
REMARK  16 active torsions:
REMARK  status: ('A' for Active; 'I' for Inactive)
REMARK    1  A    between atoms: C2_2  and  C7_9 
REMARK    2  A    between atoms: C3_3  and  C4_4 
REMARK    3  A    between atoms: C4_4  and  C6_6 
REMARK    4  A    between atoms: C6_6  and  O2_8 
REMARK    5  A    between atoms: C7_9  and  C8_10 
REMARK    6  A    between atoms: C8_10  and  C9_11 
REMARK    7  A    between atoms: C9_11  and  O3_12 
REMARK    8  A    between atoms: C9_11  and  C10_13 
REMARK    9  A    between atoms: C10_13  and  C11_14 
REMARK   10  A    between atoms: C13_16  and  O4_17 
REMARK   11  A    between atoms: C17_23  and  C19_25 
REMARK   12  A    between atoms: C22_28  and  C24_30 
REMARK   13  A    between atoms: C25_32  and  C26_33 
REMARK   14  A    between atoms: C27_35  and  O9_36 
REMARK   15  A    between atoms: C27_35  and  C28_37 
REMARK   16  A    between atoms: C28_37  and  O10_38 
ROOT
HETATM    1  C11 UNL     1      -5.730  47.398 -29.474  1.00  0.00     0.130 C 
HETATM    2  C12 UNL     1      -4.653  47.890 -30.447  1.00  0.00     0.064 C 
HETATM    3  C13 UNL     1      -5.229  48.317 -31.781  1.00  0.00     0.129 C 
HETATM    4  C14 UNL     1      -6.250  47.281 -32.253  1.00  0.00     0.073 C 
HETATM    5  C15 UNL     1      -5.605  45.900 -32.493  1.00  0.00     0.018 C 
HETATM    6  C16 UNL     1      -7.438  47.253 -31.246  1.00  0.00     0.174 C 
HETATM    7  O5  UNL     1      -7.064  47.623 -29.915  1.00  0.00    -0.349 OA
HETATM    8  O6  UNL     1      -8.027  45.937 -31.267  1.00  0.00    -0.341 OA
HETATM    9  C17 UNL     1      -9.460  46.022 -31.240  1.00  0.00     0.087 C 
HETATM   10  C18 UNL     1      -9.911  45.954 -29.778  1.00  0.00     0.049 C 
HETATM   11  C37 UNL     1      -9.796  47.379 -31.866  1.00  0.00     0.050 C 
HETATM   12  C38 UNL     1      -8.561  48.243 -31.679  1.00  0.00     0.047 C 
HETATM   13  C39 UNL     1      -8.844  49.420 -30.732  1.00  0.00     0.015 C 
ENDROOT
BRANCH   9  14
HETATM   14  C19 UNL     1     -10.135  44.899 -32.074  1.00  0.00     0.157 C 
HETATM   15  C20 UNL     1     -11.387  45.290 -32.836  1.00  0.00     0.038 C 
HETATM   16  C21 UNL     1     -11.592  44.062 -33.700  1.00  0.00     0.043 C 
HETATM   17  C22 UNL     1     -10.155  43.587 -34.004  1.00  0.00     0.084 C 
HETATM   18  C23 UNL     1     -10.047  42.097 -33.642  1.00  0.00     0.049 C 
HETATM   19  O11 UNL     1      -9.297  44.329 -33.101  1.00  0.00    -0.370 OA
BRANCH  17  20
HETATM   20  C24 UNL     1      -9.795  43.900 -35.478  1.00  0.00     0.160 C 
HETATM   21  O7  UNL     1     -10.555  45.036 -35.959  1.00  0.00    -0.375 OA
HETATM   22  C25 UNL     1     -11.076  44.731 -37.272  1.00  0.00     0.152 C 
HETATM   23  C34 UNL     1     -10.168  43.631 -37.815  1.00  0.00     0.041 C 
HETATM   24  C35 UNL     1      -9.874  42.807 -36.566  1.00  0.00     0.016 C 
HETATM   25  C36 UNL     1     -10.905  41.704 -36.414  1.00  0.00     0.012 C 
BRANCH  22  26
HETATM   26  C26 UNL     1     -11.205  45.999 -38.148  1.00  0.00     0.158 C 
HETATM   27  O8  UNL     1     -12.544  46.489 -38.083  1.00  0.00    -0.345 OA
HETATM   28  C27 UNL     1     -12.871  47.502 -39.039  1.00  0.00     0.187 C 
HETATM   29  C29 UNL     1     -11.726  48.534 -39.228  1.00  0.00     0.046 C 
HETATM   30  C30 UNL     1     -10.950  48.375 -40.541  1.00  0.00     0.015 C 
HETATM   31  C31 UNL     1     -10.790  48.516 -38.011  1.00  0.00     0.016 C 
HETATM   32  C32 UNL     1     -10.255  47.115 -37.664  1.00  0.00     0.014 C 
HETATM   33  C33 UNL     1      -8.825  46.916 -38.182  1.00  0.00     0.012 C 
BRANCH  28  34
HETATM   34  O9  UNL     1     -13.206  46.878 -40.270  1.00  0.00    -0.363 OA
HETATM   35  H41 UNL     1     -14.016  46.380 -40.044  1.00  0.00     0.213 HD
ENDBRANCH  28  34
BRANCH  28  36
HETATM   36  C28 UNL     1     -14.157  48.197 -38.510  1.00  0.00     0.232 C 
BRANCH  36  37
HETATM   37  O10 UNL     1     -13.945  49.617 -38.384  1.00  0.00    -0.396 OA
HETATM   38  H44 UNL     1     -14.826  50.033 -38.364  1.00  0.00     0.209 HD
ENDBRANCH  36  37
ENDBRANCH  28  36
ENDBRANCH  22  26
ENDBRANCH  17  20
ENDBRANCH   9  14
BRANCH   3  39
HETATM   39  O4  UNL     1      -4.166  48.463 -32.722  1.00  0.00    -0.395 OA
HETATM   40  H22 UNL     1      -4.555  48.792 -33.551  1.00  0.00     0.210 HD
ENDBRANCH   3  39
BRANCH   1  41
HETATM   41  C10 UNL     1      -5.576  48.058 -28.079  1.00  0.00     0.063 C 
BRANCH  41  42
HETATM   42  C9  UNL     1      -4.247  48.798 -27.846  1.00  0.00     0.120 C 
BRANCH  42  43
HETATM   43  C8  UNL     1      -4.117  49.420 -26.444  1.00  0.00     0.036 C 
BRANCH  43  44
HETATM   44  C7  UNL     1      -2.680  49.583 -25.923  1.00  0.00     0.036 C 
BRANCH  44  45
HETATM   45  C2  UNL     1      -1.853  50.673 -26.566  1.00  0.00    -0.087 C 
HETATM   46  C1  UNL     1      -2.618  51.701 -27.348  1.00  0.00     0.043 C 
HETATM   47  C3  UNL     1      -0.520  50.710 -26.352  1.00  0.00    -0.010 C 
BRANCH  47  48
HETATM   48  C4  UNL     1       0.541  51.670 -26.846  1.00  0.00     0.102 C 
HETATM   49  C5  UNL     1       0.497  52.044 -28.328  1.00  0.00     0.025 C 
BRANCH  48  50
HETATM   50  C6  UNL     1       0.518  52.911 -25.968  1.00  0.00     0.147 C 
HETATM   51  O1  UNL     1       1.137  53.119 -24.937  1.00  0.00    -0.650 OA
BRANCH  50  52
HETATM   52  O2  UNL     1      -0.290  53.883 -26.458  1.00  0.00    -0.776 OA
HETATM   53  H9  UNL     1      -0.163  54.620 -25.825  1.00  0.00     0.167 HD
ENDBRANCH  50  52
ENDBRANCH  48  50
ENDBRANCH  47  48
ENDBRANCH  44  45
ENDBRANCH  43  44
ENDBRANCH  42  43
BRANCH  42  54
HETATM   54  O3  UNL     1      -3.162  47.879 -27.990  1.00  0.00    -0.395 OA
HETATM   55  H15 UNL     1      -2.340  48.391 -27.925  1.00  0.00     0.210 HD
ENDBRANCH  42  54
ENDBRANCH  41  42
ENDBRANCH   1  41
TORSDOF 16
ENDMDL
MODEL 8
REMARK minimizedAffinity -8.93082619
REMARK CNNscore 0.419248283
REMARK CNNaffinity 7.30423021
REMARK  16 active torsions:
REMARK  status: ('A' for Active; 'I' for Inactive)
REMARK    1  A    between atoms: C2_2  and  C7_9 
REMARK    2  A    between atoms: C3_3  and  C4_4 
REMARK    3  A    between atoms: C4_4  and  C6_6 
REMARK    4  A    between atoms: C6_6  and  O2_8 
REMARK    5  A    between atoms: C7_9  and  C8_10 
REMARK    6  A    between atoms: C8_10  and  C9_11 
REMARK    7  A    between atoms: C9_11  and  O3_12 
REMARK    8  A    between atoms: C9_11  and  C10_13 
REMARK    9  A    between atoms: C10_13  and  C11_14 
REMARK   10  A    between atoms: C13_16  and  O4_17 
REMARK   11  A    between atoms: C17_23  and  C19_25 
REMARK   12  A    between atoms: C22_28  and  C24_30 
REMARK   13  A    between atoms: C25_32  and  C26_33 
REMARK   14  A    between atoms: C27_35  and  O9_36 
REMARK   15  A    between atoms: C27_35  and  C28_37 
REMARK   16  A    between atoms: C28_37  and  O10_38 
ROOT
HETATM    1  C11 UNL     1      -2.110  51.619 -22.154  1.00  0.00     0.130 C 
HETATM    2  C12 UNL     1      -0.728  52.255 -22.335  1.00  0.00     0.064 C 
HETATM    3  C13 UNL     1       0.329  51.597 -21.472  1.00  0.00     0.129 C 
HETATM    4  C14 UNL     1      -0.221  51.383 -20.062  1.00  0.00     0.073 C 
HETATM    5  C15 UNL     1      -0.563  52.718 -19.367  1.00  0.00     0.018 C 
HETATM    6  C16 UNL     1      -1.417  50.388 -20.135  1.00  0.00     0.174 C 
HETATM    7  O5  UNL     1      -2.109  50.421 -21.387  1.00  0.00    -0.349 OA
HETATM    8  O6  UNL     1      -2.316  50.670 -19.043  1.00  0.00    -0.341 OA
HETATM    9  C17 UNL     1      -2.783  49.451 -18.444  1.00  0.00     0.087 C 
HETATM   10  C18 UNL     1      -4.097  49.060 -19.128  1.00  0.00     0.049 C 
HETATM   11  C37 UNL     1      -1.683  48.420 -18.714  1.00  0.00     0.050 C 
HETATM   12  C38 UNL     1      -0.934  48.920 -19.937  1.00  0.00     0.047 C 
HETATM   13  C39 UNL     1      -1.120  47.968 -21.129  1.00  0.00     0.015 C 
ENDROOT
BRANCH   9  14
HETATM   14  C19 UNL     1      -2.984  49.587 -16.909  1.00  0.00     0.157 C 
HETATM   15  C20 UNL     1      -2.810  48.318 -16.097  1.00  0.00     0.038 C 
HETATM   16  C21 UNL     1      -2.818  48.877 -14.688  1.00  0.00     0.043 C 
HETATM   17  C22 UNL     1      -2.139  50.255 -14.839  1.00  0.00     0.084 C 
HETATM   18  C23 UNL     1      -3.050  51.319 -14.206  1.00  0.00     0.049 C 
HETATM   19  O11 UNL     1      -2.081  50.510 -16.266  1.00  0.00    -0.370 OA
BRANCH  17  20
HETATM   20  C24 UNL     1      -0.714  50.213 -14.235  1.00  0.00     0.160 C 
HETATM   21  O7  UNL     1      -0.541  51.271 -13.259  1.00  0.00    -0.375 OA
HETATM   22  C25 UNL     1       0.733  51.914 -13.485  1.00  0.00     0.152 C 
HETATM   23  C34 UNL     1       1.571  50.885 -14.238  1.00  0.00     0.041 C 
HETATM   24  C35 UNL     1       0.536  50.222 -15.141  1.00  0.00     0.016 C 
HETATM   25  C36 UNL     1       0.462  50.948 -16.472  1.00  0.00     0.012 C 
BRANCH  22  26
HETATM   26  C26 UNL     1       1.343  52.457 -12.171  1.00  0.00     0.158 C 
HETATM   27  O8  UNL     1       0.559  53.551 -11.698  1.00  0.00    -0.345 OA
HETATM   28  C27 UNL     1       1.147  54.309 -10.637  1.00  0.00     0.187 C 
HETATM   29  C29 UNL     1       1.856  53.412  -9.585  1.00  0.00     0.046 C 
HETATM   30  C30 UNL     1       3.387  53.445  -9.665  1.00  0.00     0.015 C 
HETATM   31  C31 UNL     1       1.315  51.978  -9.662  1.00  0.00     0.016 C 
HETATM   32  C32 UNL     1       1.374  51.370 -11.075  1.00  0.00     0.014 C 
HETATM   33  C33 UNL     1       2.575  50.430 -11.233  1.00  0.00     0.012 C 
BRANCH  28  34
HETATM   34  O9  UNL     1       2.048  55.254 -11.194  1.00  0.00    -0.363 OA
HETATM   35  H41 UNL     1       1.457  55.836 -11.712  1.00  0.00     0.213 HD
ENDBRANCH  28  34
BRANCH  28  36
HETATM   36  C28 UNL     1      -0.014  55.111  -9.983  1.00  0.00     0.232 C 
BRANCH  36  37
HETATM   37  O10 UNL     1       0.246  55.319  -8.581  1.00  0.00    -0.396 OA
HETATM   38  H44 UNL     1      -0.314  56.064  -8.298  1.00  0.00     0.209 HD
ENDBRANCH  36  37
ENDBRANCH  28  36
ENDBRANCH  22  26
ENDBRANCH  17  20
ENDBRANCH   9  14
BRANCH   3  39
HETATM   39  O4  UNL     1       1.495  52.419 -21.455  1.00  0.00    -0.395 OA
HETATM   40  H22 UNL     1       2.176  51.948 -20.943  1.00  0.00     0.210 HD
ENDBRANCH   3  39
BRANCH   1  41
HETATM   41  C10 UNL     1      -2.770  51.303 -23.523  1.00  0.00     0.063 C 
BRANCH  41  42
HETATM   42  C9  UNL     1      -2.654  49.840 -23.985  1.00  0.00     0.120 C 
BRANCH  42  43
HETATM   43  C8  UNL     1      -3.969  49.046 -23.875  1.00  0.00     0.036 C 
BRANCH  43  44
HETATM   44  C7  UNL     1      -4.563  48.562 -25.208  1.00  0.00     0.036 C 
BRANCH  44  45
HETATM   45  C2  UNL     1      -5.956  47.980 -25.148  1.00  0.00    -0.087 C 
HETATM   46  C1  UNL     1      -6.511  47.746 -23.773  1.00  0.00     0.043 C 
HETATM   47  C3  UNL     1      -6.641  47.773 -26.295  1.00  0.00    -0.010 C 
BRANCH  47  48
HETATM   48  C4  UNL     1      -8.029  47.224 -26.540  1.00  0.00     0.102 C 
HETATM   49  C5  UNL     1      -8.371  45.890 -25.875  1.00  0.00     0.025 C 
BRANCH  48  50
HETATM   50  C6  UNL     1      -9.045  48.294 -26.172  1.00  0.00     0.147 C 
HETATM   51  O1  UNL     1      -9.789  48.329 -25.206  1.00  0.00    -0.650 OA
BRANCH  50  52
HETATM   52  O2  UNL     1      -9.061  49.325 -27.052  1.00  0.00    -0.776 OA
HETATM   53  H9  UNL     1      -9.713  49.943 -26.662  1.00  0.00     0.167 HD
ENDBRANCH  50  52
ENDBRANCH  48  50
ENDBRANCH  47  48
ENDBRANCH  44  45
ENDBRANCH  43  44
ENDBRANCH  42  43
BRANCH  42  54
HETATM   54  O3  UNL     1      -2.268  49.808 -25.361  1.00  0.00    -0.395 OA
HETATM   55  H15 UNL     1      -2.119  48.878 -25.596  1.00  0.00     0.210 HD
ENDBRANCH  42  54
ENDBRANCH  41  42
ENDBRANCH   1  41
TORSDOF 16
ENDMDL
MODEL 9
REMARK minimizedAffinity -9.71341133
REMARK CNNscore 0.418708086
REMARK CNNaffinity 7.0394578
REMARK  16 active torsions:
REMARK  status: ('A' for Active; 'I' for Inactive)
REMARK    1  A    between atoms: C2_2  and  C7_9 
REMARK    2  A    between atoms: C3_3  and  C4_4 
REMARK    3  A    between atoms: C4_4  and  C6_6 
REMARK    4  A    between atoms: C6_6  and  O2_8 
REMARK    5  A    between atoms: C7_9  and  C8_10 
REMARK    6  A    between atoms: C8_10  and  C9_11 
REMARK    7  A    between atoms: C9_11  and  O3_12 
REMARK    8  A    between atoms: C9_11  and  C10_13 
REMARK    9  A    between atoms: C10_13  and  C11_14 
REMARK   10  A    between atoms: C13_16  and  O4_17 
REMARK   11  A    between atoms: C17_23  and  C19_25 
REMARK   12  A    between atoms: C22_28  and  C24_30 
REMARK   13  A    between atoms: C25_32  and  C26_33 
REMARK   14  A    between atoms: C27_35  and  O9_36 
REMARK   15  A    between atoms: C27_35  and  C28_37 
REMARK   16  A    between atoms: C28_37  and  O10_38 
ROOT
HETATM    1  C11 UNL     1      -5.756  47.365 -29.992  1.00  0.00     0.130 C 
HETATM    2  C12 UNL     1      -5.269  47.056 -31.412  1.00  0.00     0.064 C 
HETATM    3  C13 UNL     1      -6.373  47.177 -32.441  1.00  0.00     0.129 C 
HETATM    4  C14 UNL     1      -7.640  46.499 -31.917  1.00  0.00     0.073 C 
HETATM    5  C15 UNL     1      -7.435  44.986 -31.693  1.00  0.00     0.018 C 
HETATM    6  C16 UNL     1      -8.129  47.261 -30.650  1.00  0.00     0.174 C 
HETATM    7  O5  UNL     1      -7.072  47.901 -29.928  1.00  0.00    -0.349 OA
HETATM    8  O6  UNL     1      -8.843  46.336 -29.805  1.00  0.00    -0.341 OA
HETATM    9  C17 UNL     1     -10.025  46.950 -29.267  1.00  0.00     0.087 C 
HETATM   10  C18 UNL     1      -9.665  47.562 -27.910  1.00  0.00     0.049 C 
HETATM   11  C37 UNL     1     -10.417  48.029 -30.281  1.00  0.00     0.050 C 
HETATM   12  C38 UNL     1      -9.143  48.381 -31.029  1.00  0.00     0.047 C 
HETATM   13  C39 UNL     1      -8.712  49.828 -30.741  1.00  0.00     0.015 C 
ENDROOT
BRANCH   9  14
HETATM   14  C19 UNL     1     -11.198  45.943 -29.119  1.00  0.00     0.157 C 
HETATM   15  C20 UNL     1     -10.856  44.600 -28.503  1.00  0.00     0.038 C 
HETATM   16  C21 UNL     1     -12.241  44.022 -28.288  1.00  0.00     0.043 C 
HETATM   17  C22 UNL     1     -13.104  45.258 -27.959  1.00  0.00     0.084 C 
HETATM   18  C23 UNL     1     -14.328  45.260 -28.888  1.00  0.00     0.049 C 
HETATM   19  O11 UNL     1     -12.287  46.408 -28.295  1.00  0.00    -0.370 OA
BRANCH  17  20
HETATM   20  C24 UNL     1     -13.463  45.267 -26.452  1.00  0.00     0.160 C 
HETATM   21  O7  UNL     1     -14.877  45.525 -26.265  1.00  0.00    -0.375 OA
HETATM   22  C25 UNL     1     -15.040  46.502 -25.213  1.00  0.00     0.152 C 
HETATM   23  C34 UNL     1     -13.760  46.417 -24.388  1.00  0.00     0.041 C 
HETATM   24  C35 UNL     1     -12.701  46.168 -25.457  1.00  0.00     0.016 C 
HETATM   25  C36 UNL     1     -12.141  47.488 -25.954  1.00  0.00     0.012 C 
BRANCH  22  26
HETATM   26  C26 UNL     1     -16.363  46.295 -24.439  1.00  0.00     0.158 C 
HETATM   27  O8  UNL     1     -17.426  46.062 -25.362  1.00  0.00    -0.345 OA
HETATM   28  C27 UNL     1     -18.741  46.108 -24.803  1.00  0.00     0.187 C 
HETATM   29  C29 UNL     1     -18.823  45.423 -23.412  1.00  0.00     0.046 C 
HETATM   30  C30 UNL     1     -18.928  46.402 -22.236  1.00  0.00     0.015 C 
HETATM   31  C31 UNL     1     -17.651  44.448 -23.233  1.00  0.00     0.016 C 
HETATM   32  C32 UNL     1     -16.273  45.084 -23.485  1.00  0.00     0.014 C 
HETATM   33  C33 UNL     1     -15.569  45.441 -22.170  1.00  0.00     0.012 C 
BRANCH  28  34
HETATM   34  O9  UNL     1     -19.161  47.463 -24.732  1.00  0.00    -0.363 OA
HETATM   35  H41 UNL     1     -19.205  47.724 -25.673  1.00  0.00     0.213 HD
ENDBRANCH  28  34
BRANCH  28  36
HETATM   36  C28 UNL     1     -19.670  45.393 -25.824  1.00  0.00     0.232 C 
BRANCH  36  37
HETATM   37  O10 UNL     1     -18.897  44.845 -26.910  1.00  0.00    -0.396 OA
HETATM   38  H44 UNL     1     -19.449  44.162 -27.333  1.00  0.00     0.209 HD
ENDBRANCH  36  37
ENDBRANCH  28  36
ENDBRANCH  22  26
ENDBRANCH  17  20
ENDBRANCH   9  14
BRANCH   3  39
HETATM   39  O4  UNL     1      -5.937  46.586 -33.664  1.00  0.00    -0.395 OA
HETATM   40  H22 UNL     1      -6.640  46.728 -34.323  1.00  0.00     0.210 HD
ENDBRANCH   3  39
BRANCH   1  41
HETATM   41  C10 UNL     1      -4.805  48.358 -29.273  1.00  0.00     0.063 C 
BRANCH  41  42
HETATM   42  C9  UNL     1      -4.634  48.127 -27.761  1.00  0.00     0.120 C 
BRANCH  42  43
HETATM   43  C8  UNL     1      -3.623  49.077 -27.095  1.00  0.00     0.036 C 
BRANCH  43  44
HETATM   44  C7  UNL     1      -3.356  48.819 -25.603  1.00  0.00     0.036 C 
BRANCH  44  45
HETATM   45  C2  UNL     1      -2.462  49.814 -24.900  1.00  0.00    -0.087 C 
HETATM   46  C1  UNL     1      -2.277  49.602 -23.425  1.00  0.00     0.043 C 
HETATM   47  C3  UNL     1      -1.834  50.770 -25.620  1.00  0.00    -0.010 C 
BRANCH  47  48
HETATM   48  C4  UNL     1      -0.889  51.873 -25.199  1.00  0.00     0.102 C 
HETATM   49  C5  UNL     1      -0.657  52.047 -23.697  1.00  0.00     0.025 C 
BRANCH  48  50
HETATM   50  C6  UNL     1       0.428  51.692 -25.938  1.00  0.00     0.147 C 
HETATM   51  O1  UNL     1       0.919  50.659 -26.363  1.00  0.00    -0.650 OA
BRANCH  50  52
HETATM   52  O2  UNL     1       1.079  52.863 -26.143  1.00  0.00    -0.776 OA
HETATM   53  H9  UNL     1       1.864  52.595 -26.662  1.00  0.00     0.167 HD
ENDBRANCH  50  52
ENDBRANCH  48  50
ENDBRANCH  47  48
ENDBRANCH  44  45
ENDBRANCH  43  44
ENDBRANCH  42  43
BRANCH  42  54
HETATM   54  O3  UNL     1      -5.888  48.335 -27.107  1.00  0.00    -0.395 OA
HETATM   55  H15 UNL     1      -5.768  48.098 -26.173  1.00  0.00     0.210 HD
ENDBRANCH  42  54
ENDBRANCH  41  42
ENDBRANCH   1  41
TORSDOF 16
ENDMDL
