MODEL 1
REMARK minimizedAffinity -8.77632713
REMARK CNNscore 0.615202188
REMARK CNNaffinity 7.32210302
REMARK  10 active torsions:
REMARK  status: ('A' for Active; 'I' for Inactive)
REMARK    1  A    between atoms: C3_3  and  O1_4 
REMARK    2  A    between atoms: N1_14  and  O2_16 
REMARK    3  A    between atoms: O2_16  and  C13_17 
REMARK    4  A    between atoms: C13_17  and  C14_18 
REMARK       I    between atoms: C14_18  and  N2_20 
REMARK    5  A    between atoms: N2_20  and  C15_21 
REMARK    6  A    between atoms: C15_21  and  C16_22 
REMARK       I    between atoms: C16_22  and  N3_24 
REMARK    7  A    between atoms: N3_24  and  C17_25 
REMARK    8  A    between atoms: C17_25  and  C18_26 
REMARK    9  A    between atoms: C17_25  and  C19_29 
REMARK   10  A    between atoms: C18_26  and  O6_28 
ROOT
HETATM    1  C1  UNL     1      -8.948   7.768  16.297  1.00  0.00     0.015 C 
HETATM    2  C2  UNL     1      -7.937   7.271  15.876  1.00  0.00    -0.078 C 
HETATM    3  C3  UNL     1      -6.686   6.665  15.390  1.00  0.00     0.128 C 
HETATM    4  C4  UNL     1      -6.672   5.150  15.581  1.00  0.00     0.052 C 
HETATM    5  C5  UNL     1      -5.470   4.725  14.748  1.00  0.00     0.010 C 
HETATM    6  C6  UNL     1      -5.518   5.607  13.484  1.00  0.00     0.002 C 
HETATM    7  C7  UNL     1      -4.138   5.968  12.873  1.00  0.00    -0.004 C 
HETATM    8  C8  UNL     1      -3.258   4.713  12.726  1.00  0.00     0.010 C 
HETATM    9  C9  UNL     1      -1.896   5.028  12.126  1.00  0.00     0.035 C 
HETATM   10  C10 UNL     1      -1.180   6.101  12.913  1.00  0.00    -0.069 C 
HETATM   11  C11 UNL     1       0.076   5.893  13.349  1.00  0.00     0.030 C 
HETATM   12  C12 UNL     1       0.860   6.968  14.012  1.00  0.00     0.032 C 
HETATM   13  N1  UNL     1       2.026   6.655  14.499  1.00  0.00    -0.271 N 
ATOM     14  H1  UNL     1       2.422   5.715  14.472  1.00  0.00     0.194 HD
HETATM   15  C22 UNL     1       0.267   8.362  14.016  1.00  0.00     0.060 C 
HETATM   16  C23 UNL     1      -1.242   8.283  14.199  1.00  0.00     0.020 C 
HETATM   17  C24 UNL     1      -1.957   7.402  13.133  1.00  0.00    -0.016 C 
HETATM   18  C25 UNL     1      -1.977   8.152  11.778  1.00  0.00     0.020 C 
HETATM   19  C26 UNL     1      -3.409   7.076  13.668  1.00  0.00     0.002 C 
HETATM   20  C27 UNL     1      -4.284   8.338  13.841  1.00  0.00     0.007 C 
HETATM   21  C28 UNL     1      -5.757   8.172  13.467  1.00  0.00     0.014 C 
HETATM   22  C29 UNL     1      -6.415   6.835  13.856  1.00  0.00     0.003 C 
HETATM   23  C30 UNL     1      -7.730   6.722  13.034  1.00  0.00     0.020 C 
ENDROOT
BRANCH   3  24
HETATM   24  O1  UNL     1      -5.612   7.198  16.163  1.00  0.00    -0.377 OA
HETATM   25  H2  UNL     1      -5.878   7.157  17.100  1.00  0.00     0.211 HD
ENDBRANCH   3  24
BRANCH  13  26
HETATM   26  O2  UNL     1       2.676   7.763  15.067  1.00  0.00    -0.271 OA
BRANCH  26  27
HETATM   27  C13 UNL     1       2.146   8.007  16.366  1.00  0.00     0.303 C 
BRANCH  27  28
HETATM   28  C14 UNL     1       2.520   9.380  16.921  1.00  0.00     0.244 C 
HETATM   29  O3  UNL     1       3.442  10.049  16.453  1.00  0.00    -0.271 OA
HETATM   30  N2  UNL     1       1.739   9.812  17.966  1.00  0.00    -0.350 N 
HETATM   31  H16 UNL     1       1.134   9.115  18.399  1.00  0.00     0.163 HD
BRANCH  30  32
HETATM   32  C15 UNL     1       2.086  10.993  18.727  1.00  0.00     0.225 C 
BRANCH  32  33
HETATM   33  C16 UNL     1       3.086  10.615  19.825  1.00  0.00     0.236 C 
HETATM   34  O4  UNL     1       4.303  10.698  19.663  1.00  0.00    -0.272 OA
HETATM   35  N3  UNL     1       2.508  10.235  21.017  1.00  0.00    -0.345 N 
HETATM   36  H19 UNL     1       1.522   9.994  21.002  1.00  0.00     0.163 HD
BRANCH  35  37
HETATM   37  C17 UNL     1       3.308   9.731  22.138  1.00  0.00     0.185 C 
BRANCH  37  38
HETATM   38  C18 UNL     1       2.486   8.658  22.859  1.00  0.00     0.163 C 
HETATM   39  O5  UNL     1       1.880   7.733  22.332  1.00  0.00    -0.648 OA
BRANCH  38  40
HETATM   40  O6  UNL     1       2.443   8.822  24.195  1.00  0.00    -0.775 OA
HETATM   41  H21 UNL     1       1.909   8.065  24.515  1.00  0.00     0.167 HD
ENDBRANCH  38  40
ENDBRANCH  37  38
BRANCH  37  42
HETATM   42  C19 UNL     1       3.739  10.891  23.063  1.00  0.00     0.010 C 
HETATM   43  C20 UNL     1       2.943  12.169  22.779  1.00  0.00     0.012 C 
HETATM   44  C21 UNL     1       5.238  11.198  23.016  1.00  0.00     0.012 C 
ENDBRANCH  37  42
ENDBRANCH  35  37
ENDBRANCH  32  33
ENDBRANCH  30  32
ENDBRANCH  27  28
ENDBRANCH  26  27
ENDBRANCH  13  26
TORSDOF 10
ENDMDL
MODEL 2
REMARK minimizedAffinity -7.08491135
REMARK CNNscore 0.429623604
REMARK CNNaffinity 6.84845877
REMARK  10 active torsions:
REMARK  status: ('A' for Active; 'I' for Inactive)
REMARK    1  A    between atoms: C3_3  and  O1_4 
REMARK    2  A    between atoms: N1_14  and  O2_16 
REMARK    3  A    between atoms: O2_16  and  C13_17 
REMARK    4  A    between atoms: C13_17  and  C14_18 
REMARK       I    between atoms: C14_18  and  N2_20 
REMARK    5  A    between atoms: N2_20  and  C15_21 
REMARK    6  A    between atoms: C15_21  and  C16_22 
REMARK       I    between atoms: C16_22  and  N3_24 
REMARK    7  A    between atoms: N3_24  and  C17_25 
REMARK    8  A    between atoms: C17_25  and  C18_26 
REMARK    9  A    between atoms: C17_25  and  C19_29 
REMARK   10  A    between atoms: C18_26  and  O6_28 
ROOT
HETATM    1  C1  UNL     1      -4.172   4.311  13.285  1.00  0.00     0.015 C 
HETATM    2  C2  UNL     1      -5.222   4.894  13.239  1.00  0.00    -0.078 C 
HETATM    3  C3  UNL     1      -6.493   5.633  13.166  1.00  0.00     0.128 C 
HETATM    4  C4  UNL     1      -7.272   5.309  11.892  1.00  0.00     0.052 C 
HETATM    5  C5  UNL     1      -8.639   5.915  12.178  1.00  0.00     0.010 C 
HETATM    6  C6  UNL     1      -8.916   5.611  13.664  1.00  0.00     0.002 C 
HETATM    7  C7  UNL     1      -9.760   6.675  14.415  1.00  0.00    -0.004 C 
HETATM    8  C8  UNL     1     -11.017   7.048  13.607  1.00  0.00     0.010 C 
HETATM    9  C9  UNL     1     -11.873   8.087  14.314  1.00  0.00     0.035 C 
HETATM   10  C10 UNL     1     -11.069   9.319  14.661  1.00  0.00    -0.069 C 
HETATM   11  C11 UNL     1     -11.509  10.537  14.294  1.00  0.00     0.030 C 
HETATM   12  C12 UNL     1     -10.819  11.780  14.728  1.00  0.00     0.032 C 
HETATM   13  N1  UNL     1     -11.244  12.911  14.242  1.00  0.00    -0.271 N 
ATOM     14  H1  UNL     1     -12.006  12.991  13.568  1.00  0.00     0.194 HD
HETATM   15  C22 UNL     1      -9.709  11.641  15.750  1.00  0.00     0.060 C 
HETATM   16  C23 UNL     1      -8.915  10.370  15.483  1.00  0.00     0.020 C 
HETATM   17  C24 UNL     1      -9.787   9.080  15.462  1.00  0.00    -0.016 C 
HETATM   18  C25 UNL     1     -10.216   8.728  16.909  1.00  0.00     0.020 C 
HETATM   19  C26 UNL     1      -8.937   7.932  14.784  1.00  0.00     0.002 C 
HETATM   20  C27 UNL     1      -7.661   7.577  15.580  1.00  0.00     0.007 C 
HETATM   21  C28 UNL     1      -7.298   6.092  15.610  1.00  0.00     0.014 C 
HETATM   22  C29 UNL     1      -7.520   5.306  14.304  1.00  0.00     0.003 C 
HETATM   23  C30 UNL     1      -7.493   3.796  14.674  1.00  0.00     0.020 C 
ENDROOT
BRANCH   3  24
HETATM   24  O1  UNL     1      -6.190   7.026  13.133  1.00  0.00    -0.377 OA
HETATM   25  H2  UNL     1      -5.478   7.154  12.479  1.00  0.00     0.211 HD
ENDBRANCH   3  24
BRANCH  13  26
HETATM   26  O2  UNL     1     -10.531  14.007  14.754  1.00  0.00    -0.271 OA
BRANCH  26  27
HETATM   27  C13 UNL     1      -9.967  14.748  13.677  1.00  0.00     0.303 C 
BRANCH  27  28
HETATM   28  C14 UNL     1     -10.922  15.790  13.097  1.00  0.00     0.244 C 
HETATM   29  O3  UNL     1     -11.473  16.638  13.798  1.00  0.00    -0.271 OA
HETATM   30  N2  UNL     1     -11.101  15.714  11.736  1.00  0.00    -0.350 N 
HETATM   31  H16 UNL     1     -10.756  14.870  11.280  1.00  0.00     0.163 HD
BRANCH  30  32
HETATM   32  C15 UNL     1     -12.118  16.495  11.067  1.00  0.00     0.225 C 
BRANCH  32  33
HETATM   33  C16 UNL     1     -12.860  15.608  10.060  1.00  0.00     0.236 C 
HETATM   34  O4  UNL     1     -13.210  14.459  10.329  1.00  0.00    -0.272 OA
HETATM   35  N3  UNL     1     -13.150  16.225   8.863  1.00  0.00    -0.345 N 
HETATM   36  H19 UNL     1     -12.653  17.083   8.646  1.00  0.00     0.163 HD
BRANCH  35  37
HETATM   37  C17 UNL     1     -13.753  15.494   7.742  1.00  0.00     0.185 C 
BRANCH  37  38
HETATM   38  C18 UNL     1     -12.860  15.694   6.514  1.00  0.00     0.163 C 
HETATM   39  O5  UNL     1     -12.992  16.555   5.654  1.00  0.00    -0.648 OA
BRANCH  38  40
HETATM   40  O6  UNL     1     -11.871  14.785   6.416  1.00  0.00    -0.775 OA
HETATM   41  H21 UNL     1     -11.382  15.046   5.608  1.00  0.00     0.167 HD
ENDBRANCH  38  40
ENDBRANCH  37  38
BRANCH  37  42
HETATM   42  C19 UNL     1     -15.211  15.951   7.517  1.00  0.00     0.010 C 
HETATM   43  C20 UNL     1     -15.426  17.402   7.960  1.00  0.00     0.012 C 
HETATM   44  C21 UNL     1     -16.255  15.049   8.182  1.00  0.00     0.012 C 
ENDBRANCH  37  42
ENDBRANCH  35  37
ENDBRANCH  32  33
ENDBRANCH  30  32
ENDBRANCH  27  28
ENDBRANCH  26  27
ENDBRANCH  13  26
TORSDOF 10
ENDMDL
MODEL 3
REMARK minimizedAffinity -7.9162879
REMARK CNNscore 0.428067714
REMARK CNNaffinity 7.2009201
REMARK  10 active torsions:
REMARK  status: ('A' for Active; 'I' for Inactive)
REMARK    1  A    between atoms: C3_3  and  O1_4 
REMARK    2  A    between atoms: N1_14  and  O2_16 
REMARK    3  A    between atoms: O2_16  and  C13_17 
REMARK    4  A    between atoms: C13_17  and  C14_18 
REMARK       I    between atoms: C14_18  and  N2_20 
REMARK    5  A    between atoms: N2_20  and  C15_21 
REMARK    6  A    between atoms: C15_21  and  C16_22 
REMARK       I    between atoms: C16_22  and  N3_24 
REMARK    7  A    between atoms: N3_24  and  C17_25 
REMARK    8  A    between atoms: C17_25  and  C18_26 
REMARK    9  A    between atoms: C17_25  and  C19_29 
REMARK   10  A    between atoms: C18_26  and  O6_28 
ROOT
HETATM    1  C1  UNL     1      -5.971   2.599  12.100  1.00  0.00     0.015 C 
HETATM    2  C2  UNL     1      -6.684   3.310  12.757  1.00  0.00    -0.078 C 
HETATM    3  C3  UNL     1      -7.579   4.156  13.564  1.00  0.00     0.128 C 
HETATM    4  C4  UNL     1      -7.350   3.967  15.062  1.00  0.00     0.052 C 
HETATM    5  C5  UNL     1      -8.129   5.130  15.663  1.00  0.00     0.010 C 
HETATM    6  C6  UNL     1      -7.873   6.322  14.721  1.00  0.00     0.002 C 
HETATM    7  C7  UNL     1      -9.041   7.336  14.597  1.00  0.00    -0.004 C 
HETATM    8  C8  UNL     1      -9.566   7.739  15.988  1.00  0.00     0.010 C 
HETATM    9  C9  UNL     1     -10.712   8.736  15.907  1.00  0.00     0.035 C 
HETATM   10  C10 UNL     1     -11.833   8.219  15.035  1.00  0.00    -0.069 C 
HETATM   11  C11 UNL     1     -13.094   8.195  15.502  1.00  0.00     0.030 C 
HETATM   12  C12 UNL     1     -14.242   7.818  14.635  1.00  0.00     0.032 C 
HETATM   13  N1  UNL     1     -15.414   7.715  15.190  1.00  0.00    -0.271 N 
ATOM     14  H1  UNL     1     -15.587   7.856  16.186  1.00  0.00     0.194 HD
HETATM   15  C22 UNL     1     -13.967   7.640  13.155  1.00  0.00     0.060 C 
HETATM   16  C23 UNL     1     -12.603   6.995  12.954  1.00  0.00     0.020 C 
HETATM   17  C24 UNL     1     -11.436   7.779  13.623  1.00  0.00    -0.016 C 
HETATM   18  C25 UNL     1     -11.151   9.067  12.811  1.00  0.00     0.020 C 
HETATM   19  C26 UNL     1     -10.183   6.816  13.694  1.00  0.00     0.002 C 
HETATM   20  C27 UNL     1      -9.673   6.389  12.299  1.00  0.00     0.007 C 
HETATM   21  C28 UNL     1      -8.153   6.284  12.160  1.00  0.00     0.014 C 
HETATM   22  C29 UNL     1      -7.395   5.700  13.366  1.00  0.00     0.003 C 
HETATM   23  C30 UNL     1      -5.896   6.071  13.181  1.00  0.00     0.020 C 
ENDROOT
BRANCH   3  24
HETATM   24  O1  UNL     1      -8.922   3.761  13.289  1.00  0.00    -0.377 OA
HETATM   25  H2  UNL     1      -8.954   2.786  13.329  1.00  0.00     0.211 HD
ENDBRANCH   3  24
BRANCH  13  26
HETATM   26  O2  UNL     1     -16.413   7.387  14.260  1.00  0.00    -0.271 OA
BRANCH  26  27
HETATM   27  C13 UNL     1     -16.401   5.982  14.030  1.00  0.00     0.303 C 
BRANCH  27  28
HETATM   28  C14 UNL     1     -17.216   5.197  15.057  1.00  0.00     0.244 C 
HETATM   29  O3  UNL     1     -17.094   5.377  16.269  1.00  0.00    -0.271 OA
HETATM   30  N2  UNL     1     -18.102   4.293  14.521  1.00  0.00    -0.350 N 
HETATM   31  H16 UNL     1     -17.993   4.084  13.529  1.00  0.00     0.163 HD
BRANCH  30  32
HETATM   32  C15 UNL     1     -18.799   3.338  15.355  1.00  0.00     0.225 C 
BRANCH  32  33
HETATM   33  C16 UNL     1     -17.942   2.076  15.509  1.00  0.00     0.236 C 
HETATM   34  O4  UNL     1     -18.047   1.326  16.479  1.00  0.00    -0.272 OA
HETATM   35  N3  UNL     1     -17.097   1.828  14.449  1.00  0.00    -0.345 N 
HETATM   36  H19 UNL     1     -16.922   2.590  13.802  1.00  0.00     0.163 HD
BRANCH  35  37
HETATM   37  C17 UNL     1     -16.125   0.730  14.477  1.00  0.00     0.185 C 
BRANCH  37  38
HETATM   38  C18 UNL     1     -14.883   1.219  15.228  1.00  0.00     0.163 C 
HETATM   39  O5  UNL     1     -14.276   0.611  16.100  1.00  0.00    -0.648 OA
BRANCH  38  40
HETATM   40  O6  UNL     1     -14.490   2.456  14.867  1.00  0.00    -0.775 OA
HETATM   41  H21 UNL     1     -13.690   2.624  15.407  1.00  0.00     0.167 HD
ENDBRANCH  38  40
ENDBRANCH  37  38
BRANCH  37  42
HETATM   42  C19 UNL     1     -15.817   0.240  13.044  1.00  0.00     0.010 C 
HETATM   43  C20 UNL     1     -16.924   0.631  12.061  1.00  0.00     0.012 C 
HETATM   44  C21 UNL     1     -15.549  -1.264  12.946  1.00  0.00     0.012 C 
ENDBRANCH  37  42
ENDBRANCH  35  37
ENDBRANCH  32  33
ENDBRANCH  30  32
ENDBRANCH  27  28
ENDBRANCH  26  27
ENDBRANCH  13  26
TORSDOF 10
ENDMDL
MODEL 4
REMARK minimizedAffinity -9.12386608
REMARK CNNscore 0.400742888
REMARK CNNaffinity 7.11358309
REMARK  10 active torsions:
REMARK  status: ('A' for Active; 'I' for Inactive)
REMARK    1  A    between atoms: C3_3  and  O1_4 
REMARK    2  A    between atoms: N1_14  and  O2_16 
REMARK    3  A    between atoms: O2_16  and  C13_17 
REMARK    4  A    between atoms: C13_17  and  C14_18 
REMARK       I    between atoms: C14_18  and  N2_20 
REMARK    5  A    between atoms: N2_20  and  C15_21 
REMARK    6  A    between atoms: C15_21  and  C16_22 
REMARK       I    between atoms: C16_22  and  N3_24 
REMARK    7  A    between atoms: N3_24  and  C17_25 
REMARK    8  A    between atoms: C17_25  and  C18_26 
REMARK    9  A    between atoms: C17_25  and  C19_29 
REMARK   10  A    between atoms: C18_26  and  O6_28 
ROOT
HETATM    1  C1  UNL     1       3.165   5.162   6.826  1.00  0.00     0.015 C 
HETATM    2  C2  UNL     1       2.920   5.576   7.927  1.00  0.00    -0.078 C 
HETATM    3  C3  UNL     1       2.611   6.054   9.285  1.00  0.00     0.128 C 
HETATM    4  C4  UNL     1       3.810   5.928  10.223  1.00  0.00     0.052 C 
HETATM    5  C5  UNL     1       3.370   6.746  11.430  1.00  0.00     0.010 C 
HETATM    6  C6  UNL     1       2.639   7.971  10.847  1.00  0.00     0.002 C 
HETATM    7  C7  UNL     1       1.481   8.530  11.716  1.00  0.00    -0.004 C 
HETATM    8  C8  UNL     1       1.928   8.706  13.179  1.00  0.00     0.010 C 
HETATM    9  C9  UNL     1       0.818   9.257  14.061  1.00  0.00     0.035 C 
HETATM   10  C10 UNL     1      -0.428   8.406  13.976  1.00  0.00    -0.069 C 
HETATM   11  C11 UNL     1      -1.009   7.946  15.099  1.00  0.00     0.030 C 
HETATM   12  C12 UNL     1      -2.305   7.217  15.067  1.00  0.00     0.032 C 
HETATM   13  N1  UNL     1      -2.745   6.713  16.183  1.00  0.00    -0.271 N 
ATOM     14  H1  UNL     1      -2.245   6.769  17.070  1.00  0.00     0.194 HD
HETATM   15  C22 UNL     1      -3.044   7.170  13.745  1.00  0.00     0.060 C 
HETATM   16  C23 UNL     1      -2.051   7.030  12.600  1.00  0.00     0.020 C 
HETATM   17  C24 UNL     1      -0.971   8.151  12.567  1.00  0.00    -0.016 C 
HETATM   18  C25 UNL     1      -1.620   9.474  12.087  1.00  0.00     0.020 C 
HETATM   19  C26 UNL     1       0.200   7.669  11.620  1.00  0.00     0.002 C 
HETATM   20  C27 UNL     1      -0.256   7.466  10.156  1.00  0.00     0.007 C 
HETATM   21  C28 UNL     1       0.757   7.885   9.090  1.00  0.00     0.014 C 
HETATM   22  C29 UNL     1       2.235   7.572   9.388  1.00  0.00     0.003 C 
HETATM   23  C30 UNL     1       3.086   8.432   8.412  1.00  0.00     0.020 C 
ENDROOT
BRANCH   3  24
HETATM   24  O1  UNL     1       1.572   5.231   9.814  1.00  0.00    -0.377 OA
HETATM   25  H2  UNL     1       1.814   4.303   9.632  1.00  0.00     0.211 HD
ENDBRANCH   3  24
BRANCH  13  26
HETATM   26  O2  UNL     1      -3.989   6.082  16.023  1.00  0.00    -0.271 OA
BRANCH  26  27
HETATM   27  C13 UNL     1      -5.028   7.047  16.153  1.00  0.00     0.303 C 
BRANCH  27  28
HETATM   28  C14 UNL     1      -6.158   6.854  15.144  1.00  0.00     0.244 C 
HETATM   29  O3  UNL     1      -6.386   7.666  14.247  1.00  0.00    -0.271 OA
HETATM   30  N2  UNL     1      -6.885   5.698  15.306  1.00  0.00    -0.350 N 
HETATM   31  H16 UNL     1      -6.743   5.193  16.181  1.00  0.00     0.163 HD
BRANCH  30  32
HETATM   32  C15 UNL     1      -8.104   5.465  14.563  1.00  0.00     0.225 C 
BRANCH  32  33
HETATM   33  C16 UNL     1      -7.755   5.003  13.144  1.00  0.00     0.236 C 
HETATM   34  O4  UNL     1      -8.361   5.409  12.153  1.00  0.00    -0.272 OA
HETATM   35  N3  UNL     1      -6.675   4.150  13.072  1.00  0.00    -0.345 N 
HETATM   36  H19 UNL     1      -6.371   3.707  13.933  1.00  0.00     0.163 HD
BRANCH  35  37
HETATM   37  C17 UNL     1      -6.272   3.519  11.811  1.00  0.00     0.185 C 
BRANCH  37  38
HETATM   38  C18 UNL     1      -6.628   2.031  11.893  1.00  0.00     0.163 C 
HETATM   39  O5  UNL     1      -6.037   1.113  11.341  1.00  0.00    -0.648 OA
BRANCH  38  40
HETATM   40  O6  UNL     1      -7.722   1.782  12.638  1.00  0.00    -0.775 OA
HETATM   41  H21 UNL     1      -7.814   0.807  12.614  1.00  0.00     0.167 HD
ENDBRANCH  38  40
ENDBRANCH  37  38
BRANCH  37  42
HETATM   42  C19 UNL     1      -4.773   3.773  11.531  1.00  0.00     0.010 C 
HETATM   43  C20 UNL     1      -4.382   3.350  10.112  1.00  0.00     0.012 C 
HETATM   44  C21 UNL     1      -3.832   3.113  12.543  1.00  0.00     0.012 C 
ENDBRANCH  37  42
ENDBRANCH  35  37
ENDBRANCH  32  33
ENDBRANCH  30  32
ENDBRANCH  27  28
ENDBRANCH  26  27
ENDBRANCH  13  26
TORSDOF 10
ENDMDL
MODEL 5
REMARK minimizedAffinity -8.38214493
REMARK CNNscore 0.356956124
REMARK CNNaffinity 5.61135435
REMARK  10 active torsions:
REMARK  status: ('A' for Active; 'I' for Inactive)
REMARK    1  A    between atoms: C3_3  and  O1_4 
REMARK    2  A    between atoms: N1_14  and  O2_16 
REMARK    3  A    between atoms: O2_16  and  C13_17 
REMARK    4  A    between atoms: C13_17  and  C14_18 
REMARK       I    between atoms: C14_18  and  N2_20 
REMARK    5  A    between atoms: N2_20  and  C15_21 
REMARK    6  A    between atoms: C15_21  and  C16_22 
REMARK       I    between atoms: C16_22  and  N3_24 
REMARK    7  A    between atoms: N3_24  and  C17_25 
REMARK    8  A    between atoms: C17_25  and  C18_26 
REMARK    9  A    between atoms: C17_25  and  C19_29 
REMARK   10  A    between atoms: C18_26  and  O6_28 
ROOT
HETATM    1  C1  UNL     1      -4.063  -9.951   9.384  1.00  0.00     0.015 C 
HETATM    2  C2  UNL     1      -4.035  -9.912   8.183  1.00  0.00    -0.078 C 
HETATM    3  C3  UNL     1      -4.018  -9.836   6.713  1.00  0.00     0.128 C 
HETATM    4  C4  UNL     1      -2.805  -9.065   6.194  1.00  0.00     0.052 C 
HETATM    5  C5  UNL     1      -2.827  -9.381   4.704  1.00  0.00     0.010 C 
HETATM    6  C6  UNL     1      -3.225 -10.867   4.609  1.00  0.00     0.002 C 
HETATM    7  C7  UNL     1      -4.047 -11.256   3.351  1.00  0.00    -0.004 C 
HETATM    8  C8  UNL     1      -3.391 -10.701   2.074  1.00  0.00     0.010 C 
HETATM    9  C9  UNL     1      -4.168 -11.066   0.819  1.00  0.00     0.035 C 
HETATM   10  C10 UNL     1      -5.612 -10.630   0.917  1.00  0.00    -0.069 C 
HETATM   11  C11 UNL     1      -6.160  -9.887  -0.061  1.00  0.00     0.030 C 
HETATM   12  C12 UNL     1      -7.608  -9.549  -0.067  1.00  0.00     0.032 C 
HETATM   13  N1  UNL     1      -8.037  -8.737  -0.990  1.00  0.00    -0.271 N 
ATOM     14  H1  UNL     1      -7.438  -8.305  -1.693  1.00  0.00     0.194 HD
HETATM   15  C22 UNL     1      -8.485 -10.223   0.968  1.00  0.00     0.060 C 
HETATM   16  C23 UNL     1      -7.728 -10.356   2.282  1.00  0.00     0.020 C 
HETATM   17  C24 UNL     1      -6.376 -11.116   2.152  1.00  0.00    -0.016 C 
HETATM   18  C25 UNL     1      -6.654 -12.626   1.948  1.00  0.00     0.020 C 
HETATM   19  C26 UNL     1      -5.529 -10.824   3.455  1.00  0.00     0.002 C 
HETATM   20  C27 UNL     1      -6.201 -11.357   4.741  1.00  0.00     0.007 C 
HETATM   21  C28 UNL     1      -5.249 -11.945   5.784  1.00  0.00     0.014 C 
HETATM   22  C29 UNL     1      -3.907 -11.214   5.975  1.00  0.00     0.003 C 
HETATM   23  C30 UNL     1      -2.965 -12.189   6.736  1.00  0.00     0.020 C 
ENDROOT
BRANCH   3  24
HETATM   24  O1  UNL     1      -5.181  -9.123   6.297  1.00  0.00    -0.377 OA
HETATM   25  H2  UNL     1      -5.251  -8.327   6.857  1.00  0.00     0.211 HD
ENDBRANCH   3  24
BRANCH  13  26
HETATM   26  O2  UNL     1      -9.423  -8.526  -0.904  1.00  0.00    -0.271 OA
BRANCH  26  27
HETATM   27  C13 UNL     1      -9.721  -7.187  -1.286  1.00  0.00     0.303 C 
BRANCH  27  28
HETATM   28  C14 UNL     1      -9.632  -6.957  -2.794  1.00  0.00     0.244 C 
HETATM   29  O3  UNL     1      -9.815  -7.861  -3.609  1.00  0.00    -0.271 OA
HETATM   30  N2  UNL     1      -9.351  -5.663  -3.164  1.00  0.00    -0.350 N 
HETATM   31  H16 UNL     1      -9.033  -5.038  -2.424  1.00  0.00     0.163 HD
BRANCH  30  32
HETATM   32  C15 UNL     1      -9.040  -5.324  -4.535  1.00  0.00     0.225 C 
BRANCH  32  33
HETATM   33  C16 UNL     1      -9.654  -3.962  -4.875  1.00  0.00     0.236 C 
HETATM   34  O4  UNL     1     -10.810  -3.846  -5.282  1.00  0.00    -0.272 OA
HETATM   35  N3  UNL     1      -8.828  -2.887  -4.631  1.00  0.00    -0.345 N 
HETATM   36  H19 UNL     1      -7.840  -3.076  -4.500  1.00  0.00     0.163 HD
BRANCH  35  37
HETATM   37  C17 UNL     1      -9.208  -1.519  -5.004  1.00  0.00     0.185 C 
BRANCH  37  38
HETATM   38  C18 UNL     1     -10.715  -1.371  -4.778  1.00  0.00     0.163 C 
HETATM   39  O5  UNL     1     -11.558  -1.141  -5.635  1.00  0.00    -0.648 OA
BRANCH  38  40
HETATM   40  O6  UNL     1     -11.078  -1.488  -3.486  1.00  0.00    -0.775 OA
HETATM   41  H21 UNL     1     -12.053  -1.391  -3.498  1.00  0.00     0.167 HD
ENDBRANCH  38  40
ENDBRANCH  37  38
BRANCH  37  42
HETATM   42  C19 UNL     1      -8.776  -1.212  -6.456  1.00  0.00     0.010 C 
HETATM   43  C20 UNL     1      -7.433  -1.864  -6.798  1.00  0.00     0.012 C 
HETATM   44  C21 UNL     1      -8.721   0.283  -6.784  1.00  0.00     0.012 C 
ENDBRANCH  37  42
ENDBRANCH  35  37
ENDBRANCH  32  33
ENDBRANCH  30  32
ENDBRANCH  27  28
ENDBRANCH  26  27
ENDBRANCH  13  26
TORSDOF 10
ENDMDL
MODEL 6
REMARK minimizedAffinity -7.35065699
REMARK CNNscore 0.355676174
REMARK CNNaffinity 6.16370249
REMARK  10 active torsions:
REMARK  status: ('A' for Active; 'I' for Inactive)
REMARK    1  A    between atoms: C3_3  and  O1_4 
REMARK    2  A    between atoms: N1_14  and  O2_16 
REMARK    3  A    between atoms: O2_16  and  C13_17 
REMARK    4  A    between atoms: C13_17  and  C14_18 
REMARK       I    between atoms: C14_18  and  N2_20 
REMARK    5  A    between atoms: N2_20  and  C15_21 
REMARK    6  A    between atoms: C15_21  and  C16_22 
REMARK       I    between atoms: C16_22  and  N3_24 
REMARK    7  A    between atoms: N3_24  and  C17_25 
REMARK    8  A    between atoms: C17_25  and  C18_26 
REMARK    9  A    between atoms: C17_25  and  C19_29 
REMARK   10  A    between atoms: C18_26  and  O6_28 
ROOT
HETATM    1  C1  UNL     1       3.645   5.095   9.737  1.00  0.00     0.015 C 
HETATM    2  C2  UNL     1       2.821   5.857  10.167  1.00  0.00    -0.078 C 
HETATM    3  C3  UNL     1       1.835   6.816  10.692  1.00  0.00     0.128 C 
HETATM    4  C4  UNL     1       1.037   7.486   9.574  1.00  0.00     0.052 C 
HETATM    5  C5  UNL     1      -0.092   8.165  10.338  1.00  0.00     0.010 C 
HETATM    6  C6  UNL     1      -0.497   7.167  11.440  1.00  0.00     0.002 C 
HETATM    7  C7  UNL     1      -1.005   7.803  12.762  1.00  0.00    -0.004 C 
HETATM    8  C8  UNL     1      -2.064   8.884  12.477  1.00  0.00     0.010 C 
HETATM    9  C9  UNL     1      -2.588   9.529  13.751  1.00  0.00     0.035 C 
HETATM   10  C10 UNL     1      -1.463  10.085  14.592  1.00  0.00    -0.069 C 
HETATM   11  C11 UNL     1      -1.503  11.361  15.015  1.00  0.00     0.030 C 
HETATM   12  C12 UNL     1      -0.484  11.907  15.950  1.00  0.00     0.032 C 
HETATM   13  N1  UNL     1      -0.532  13.178  16.225  1.00  0.00    -0.271 N 
ATOM     14  H1  UNL     1      -1.212  13.823  15.822  1.00  0.00     0.194 HD
HETATM   15  C22 UNL     1       0.498  10.927  16.559  1.00  0.00     0.060 C 
HETATM   16  C23 UNL     1       0.880   9.870  15.533  1.00  0.00     0.020 C 
HETATM   17  C24 UNL     1      -0.339   9.105  14.940  1.00  0.00    -0.016 C 
HETATM   18  C25 UNL     1      -0.901   8.130  16.005  1.00  0.00     0.020 C 
HETATM   19  C26 UNL     1       0.147   8.360  13.631  1.00  0.00     0.002 C 
HETATM   20  C27 UNL     1       1.230   7.294  13.913  1.00  0.00     0.007 C 
HETATM   21  C28 UNL     1       1.127   6.017  13.077  1.00  0.00     0.014 C 
HETATM   22  C29 UNL     1       0.721   6.195  11.603  1.00  0.00     0.003 C 
HETATM   23  C30 UNL     1       0.280   4.798  11.083  1.00  0.00     0.020 C 
ENDROOT
BRANCH   3  24
HETATM   24  O1  UNL     1       2.545   7.845  11.379  1.00  0.00    -0.377 OA
HETATM   25  H2  UNL     1       3.284   8.122  10.806  1.00  0.00     0.211 HD
ENDBRANCH   3  24
BRANCH  13  26
HETATM   26  O2  UNL     1       0.460  13.559  17.142  1.00  0.00    -0.271 OA
BRANCH  26  27
HETATM   27  C13 UNL     1      -0.156  14.068  18.320  1.00  0.00     0.303 C 
BRANCH  27  28
HETATM   28  C14 UNL     1       0.295  13.352  19.593  1.00  0.00     0.244 C 
HETATM   29  O3  UNL     1       0.562  13.960  20.630  1.00  0.00    -0.271 OA
HETATM   30  N2  UNL     1       0.360  11.982  19.492  1.00  0.00    -0.350 N 
HETATM   31  H16 UNL     1       0.305  11.594  18.551  1.00  0.00     0.163 HD
BRANCH  30  32
HETATM   32  C15 UNL     1       0.955  11.179  20.537  1.00  0.00     0.225 C 
BRANCH  32  33
HETATM   33  C16 UNL     1       2.481  11.204  20.393  1.00  0.00     0.236 C 
HETATM   34  O4  UNL     1       3.085  10.418  19.664  1.00  0.00    -0.272 OA
HETATM   35  N3  UNL     1       3.103  12.213  21.096  1.00  0.00    -0.345 N 
HETATM   36  H19 UNL     1       2.568  12.676  21.823  1.00  0.00     0.163 HD
BRANCH  35  37
HETATM   37  C17 UNL     1       4.565  12.318  21.166  1.00  0.00     0.185 C 
BRANCH  37  38
HETATM   38  C18 UNL     1       5.121  12.104  19.754  1.00  0.00     0.163 C 
HETATM   39  O5  UNL     1       4.997  12.865  18.803  1.00  0.00    -0.648 OA
BRANCH  38  40
HETATM   40  O6  UNL     1       5.772  10.935  19.606  1.00  0.00    -0.775 OA
HETATM   41  H21 UNL     1       6.081  10.946  18.676  1.00  0.00     0.167 HD
ENDBRANCH  38  40
ENDBRANCH  37  38
BRANCH  37  42
HETATM   42  C19 UNL     1       5.133  11.322  22.202  1.00  0.00     0.010 C 
HETATM   43  C20 UNL     1       4.045  10.805  23.147  1.00  0.00     0.012 C 
HETATM   44  C21 UNL     1       6.304  11.877  23.019  1.00  0.00     0.012 C 
ENDBRANCH  37  42
ENDBRANCH  35  37
ENDBRANCH  32  33
ENDBRANCH  30  32
ENDBRANCH  27  28
ENDBRANCH  26  27
ENDBRANCH  13  26
TORSDOF 10
ENDMDL
MODEL 7
REMARK minimizedAffinity -7.08207035
REMARK CNNscore 0.304398566
REMARK CNNaffinity 5.96161699
REMARK  10 active torsions:
REMARK  status: ('A' for Active; 'I' for Inactive)
REMARK    1  A    between atoms: C3_3  and  O1_4 
REMARK    2  A    between atoms: N1_14  and  O2_16 
REMARK    3  A    between atoms: O2_16  and  C13_17 
REMARK    4  A    between atoms: C13_17  and  C14_18 
REMARK       I    between atoms: C14_18  and  N2_20 
REMARK    5  A    between atoms: N2_20  and  C15_21 
REMARK    6  A    between atoms: C15_21  and  C16_22 
REMARK       I    between atoms: C16_22  and  N3_24 
REMARK    7  A    between atoms: N3_24  and  C17_25 
REMARK    8  A    between atoms: C17_25  and  C18_26 
REMARK    9  A    between atoms: C17_25  and  C19_29 
REMARK   10  A    between atoms: C18_26  and  O6_28 
ROOT
HETATM    1  C1  UNL     1       2.572   6.403   8.094  1.00  0.00     0.015 C 
HETATM    2  C2  UNL     1       1.985   6.961   8.983  1.00  0.00    -0.078 C 
HETATM    3  C3  UNL     1       1.283   7.672  10.064  1.00  0.00     0.128 C 
HETATM    4  C4  UNL     1       0.008   8.353   9.568  1.00  0.00     0.052 C 
HETATM    5  C5  UNL     1      -0.687   8.736  10.868  1.00  0.00     0.010 C 
HETATM    6  C6  UNL     1      -0.454   7.546  11.820  1.00  0.00     0.002 C 
HETATM    7  C7  UNL     1      -0.339   7.910  13.325  1.00  0.00    -0.004 C 
HETATM    8  C8  UNL     1      -1.490   8.838  13.754  1.00  0.00     0.010 C 
HETATM    9  C9  UNL     1      -1.412   9.214  15.225  1.00  0.00     0.035 C 
HETATM   10  C10 UNL     1      -0.072   9.821  15.570  1.00  0.00    -0.069 C 
HETATM   11  C11 UNL     1      -0.011  11.007  16.203  1.00  0.00     0.030 C 
HETATM   12  C12 UNL     1       1.279  11.575  16.675  1.00  0.00     0.032 C 
HETATM   13  N1  UNL     1       1.264  12.774  17.182  1.00  0.00    -0.271 N 
ATOM     14  H1  UNL     1       0.427  13.352  17.255  1.00  0.00     0.194 HD
HETATM   15  C22 UNL     1       2.505  10.690  16.585  1.00  0.00     0.060 C 
HETATM   16  C23 UNL     1       2.448   9.854  15.313  1.00  0.00     0.020 C 
HETATM   17  C24 UNL     1       1.157   8.993  15.187  1.00  0.00    -0.016 C 
HETATM   18  C25 UNL     1       1.232   7.808  16.181  1.00  0.00     0.020 C 
HETATM   19  C26 UNL     1       1.037   8.518  13.683  1.00  0.00     0.002 C 
HETATM   20  C27 UNL     1       2.207   7.609  13.244  1.00  0.00     0.007 C 
HETATM   21  C28 UNL     1       1.828   6.457  12.312  1.00  0.00     0.014 C 
HETATM   22  C29 UNL     1       0.772   6.766  11.235  1.00  0.00     0.003 C 
HETATM   23  C30 UNL     1       0.251   5.400  10.707  1.00  0.00     0.020 C 
ENDROOT
BRANCH   3  24
HETATM   24  O1  UNL     1       2.148   8.698  10.549  1.00  0.00    -0.377 OA
HETATM   25  H2  UNL     1       2.513   9.163   9.773  1.00  0.00     0.211 HD
ENDBRANCH   3  24
BRANCH  13  26
HETATM   26  O2  UNL     1       2.536  13.179  17.618  1.00  0.00    -0.271 OA
BRANCH  26  27
HETATM   27  C13 UNL     1       2.564  13.194  19.042  1.00  0.00     0.303 C 
BRANCH  27  28
HETATM   28  C14 UNL     1       3.845  12.599  19.625  1.00  0.00     0.244 C 
HETATM   29  O3  UNL     1       4.956  12.835  19.149  1.00  0.00    -0.271 OA
HETATM   30  N2  UNL     1       3.660  11.799  20.727  1.00  0.00    -0.350 N 
HETATM   31  H16 UNL     1       2.701  11.516  20.926  1.00  0.00     0.163 HD
BRANCH  30  32
HETATM   32  C15 UNL     1       4.741  11.008  21.272  1.00  0.00     0.225 C 
BRANCH  32  33
HETATM   33  C16 UNL     1       5.678  11.914  22.079  1.00  0.00     0.236 C 
HETATM   34  O4  UNL     1       5.387  12.328  23.200  1.00  0.00    -0.272 OA
HETATM   35  N3  UNL     1       6.887  12.171  21.469  1.00  0.00    -0.345 N 
HETATM   36  H19 UNL     1       6.962  11.971  20.477  1.00  0.00     0.163 HD
BRANCH  35  37
HETATM   37  C17 UNL     1       7.858  13.109  22.042  1.00  0.00     0.185 C 
BRANCH  37  38
HETATM   38  C18 UNL     1       8.676  12.355  23.095  1.00  0.00     0.163 C 
HETATM   39  O5  UNL     1       8.689  11.144  23.273  1.00  0.00    -0.648 OA
BRANCH  38  40
HETATM   40  O6  UNL     1       9.408  13.164  23.886  1.00  0.00    -0.775 OA
HETATM   41  H21 UNL     1       9.883  12.551  24.485  1.00  0.00     0.167 HD
ENDBRANCH  38  40
ENDBRANCH  37  38
BRANCH  37  42
HETATM   42  C19 UNL     1       7.141  14.357  22.606  1.00  0.00     0.010 C 
HETATM   43  C20 UNL     1       6.747  15.335  21.495  1.00  0.00     0.012 C 
HETATM   44  C21 UNL     1       7.938  15.096  23.685  1.00  0.00     0.012 C 
ENDBRANCH  37  42
ENDBRANCH  35  37
ENDBRANCH  32  33
ENDBRANCH  30  32
ENDBRANCH  27  28
ENDBRANCH  26  27
ENDBRANCH  13  26
TORSDOF 10
ENDMDL
MODEL 8
REMARK minimizedAffinity -8.68302155
REMARK CNNscore 0.270019442
REMARK CNNaffinity 7.16458273
REMARK  10 active torsions:
REMARK  status: ('A' for Active; 'I' for Inactive)
REMARK    1  A    between atoms: C3_3  and  O1_4 
REMARK    2  A    between atoms: N1_14  and  O2_16 
REMARK    3  A    between atoms: O2_16  and  C13_17 
REMARK    4  A    between atoms: C13_17  and  C14_18 
REMARK       I    between atoms: C14_18  and  N2_20 
REMARK    5  A    between atoms: N2_20  and  C15_21 
REMARK    6  A    between atoms: C15_21  and  C16_22 
REMARK       I    between atoms: C16_22  and  N3_24 
REMARK    7  A    between atoms: N3_24  and  C17_25 
REMARK    8  A    between atoms: C17_25  and  C18_26 
REMARK    9  A    between atoms: C17_25  and  C19_29 
REMARK   10  A    between atoms: C18_26  and  O6_28 
ROOT
HETATM    1  C1  UNL     1     -10.301   7.288  15.144  1.00  0.00     0.015 C 
HETATM    2  C2  UNL     1      -9.186   6.851  15.037  1.00  0.00    -0.078 C 
HETATM    3  C3  UNL     1      -7.815   6.323  14.938  1.00  0.00     0.128 C 
HETATM    4  C4  UNL     1      -7.746   4.840  15.297  1.00  0.00     0.052 C 
HETATM    5  C5  UNL     1      -6.348   4.454  14.831  1.00  0.00     0.010 C 
HETATM    6  C6  UNL     1      -6.140   5.207  13.502  1.00  0.00     0.002 C 
HETATM    7  C7  UNL     1      -4.679   5.637  13.203  1.00  0.00    -0.004 C 
HETATM    8  C8  UNL     1      -3.707   4.462  13.415  1.00  0.00     0.010 C 
HETATM    9  C9  UNL     1      -2.264   4.847  13.128  1.00  0.00     0.035 C 
HETATM   10  C10 UNL     1      -1.841   6.051  13.938  1.00  0.00    -0.069 C 
HETATM   11  C11 UNL     1      -0.722   6.003  14.683  1.00  0.00     0.030 C 
HETATM   12  C12 UNL     1      -0.202   7.204  15.389  1.00  0.00     0.032 C 
HETATM   13  N1  UNL     1       0.824   7.049  16.175  1.00  0.00    -0.271 N 
ATOM     14  H1  UNL     1       1.277   6.152  16.350  1.00  0.00     0.194 HD
HETATM   15  C22 UNL     1      -0.872   8.531  15.093  1.00  0.00     0.060 C 
HETATM   16  C23 UNL     1      -2.370   8.327  14.916  1.00  0.00     0.020 C 
HETATM   17  C24 UNL     1      -2.735   7.288  13.816  1.00  0.00    -0.016 C 
HETATM   18  C25 UNL     1      -2.468   7.903  12.419  1.00  0.00     0.020 C 
HETATM   19  C26 UNL     1      -4.249   6.878  14.020  1.00  0.00     0.002 C 
HETATM   20  C27 UNL     1      -5.223   8.063  13.833  1.00  0.00     0.007 C 
HETATM   21  C28 UNL     1      -6.542   7.725  13.137  1.00  0.00     0.014 C 
HETATM   22  C29 UNL     1      -7.184   6.374  13.505  1.00  0.00     0.003 C 
HETATM   23  C30 UNL     1      -8.241   6.062  12.409  1.00  0.00     0.020 C 
ENDROOT
BRANCH   3  24
HETATM   24  O1  UNL     1      -7.006   7.024  15.881  1.00  0.00    -0.377 OA
HETATM   25  H2  UNL     1      -7.494   7.046  16.726  1.00  0.00     0.211 HD
ENDBRANCH   3  24
BRANCH  13  26
HETATM   26  O2  UNL     1       1.235   8.261  16.752  1.00  0.00    -0.271 OA
BRANCH  26  27
HETATM   27  C13 UNL     1       2.557   8.565  16.320  1.00  0.00     0.303 C 
BRANCH  27  28
HETATM   28  C14 UNL     1       2.596   9.373  15.024  1.00  0.00     0.244 C 
HETATM   29  O3  UNL     1       2.311  10.570  14.987  1.00  0.00    -0.271 OA
HETATM   30  N2  UNL     1       2.989   8.664  13.914  1.00  0.00    -0.350 N 
HETATM   31  H16 UNL     1       3.018   7.650  14.011  1.00  0.00     0.163 HD
BRANCH  30  32
HETATM   32  C15 UNL     1       2.887   9.229  12.586  1.00  0.00     0.225 C 
BRANCH  32  33
HETATM   33  C16 UNL     1       2.065   8.291  11.696  1.00  0.00     0.236 C 
HETATM   34  O4  UNL     1       1.056   7.716  12.103  1.00  0.00    -0.272 OA
HETATM   35  N3  UNL     1       2.516   8.197  10.397  1.00  0.00    -0.345 N 
HETATM   36  H19 UNL     1       3.455   8.528  10.203  1.00  0.00     0.163 HD
BRANCH  35  37
HETATM   37  C17 UNL     1       1.920   7.259   9.438  1.00  0.00     0.185 C 
BRANCH  37  38
HETATM   38  C18 UNL     1       2.662   5.925   9.561  1.00  0.00     0.163 C 
HETATM   39  O5  UNL     1       3.685   5.607   8.968  1.00  0.00    -0.648 OA
BRANCH  38  40
HETATM   40  O6  UNL     1       2.064   5.053  10.395  1.00  0.00    -0.775 OA
HETATM   41  H21 UNL     1       2.651   4.268  10.387  1.00  0.00     0.167 HD
ENDBRANCH  38  40
ENDBRANCH  37  38
BRANCH  37  42
HETATM   42  C19 UNL     1       1.956   7.847   8.010  1.00  0.00     0.010 C 
HETATM   43  C20 UNL     1       1.982   6.748   6.944  1.00  0.00     0.012 C 
HETATM   44  C21 UNL     1       3.109   8.826   7.769  1.00  0.00     0.012 C 
ENDBRANCH  37  42
ENDBRANCH  35  37
ENDBRANCH  32  33
ENDBRANCH  30  32
ENDBRANCH  27  28
ENDBRANCH  26  27
ENDBRANCH  13  26
TORSDOF 10
ENDMDL
MODEL 9
REMARK minimizedAffinity -7.81666994
REMARK CNNscore 0.266256273
REMARK CNNaffinity 6.05945158
REMARK  10 active torsions:
REMARK  status: ('A' for Active; 'I' for Inactive)
REMARK    1  A    between atoms: C3_3  and  O1_4 
REMARK    2  A    between atoms: N1_14  and  O2_16 
REMARK    3  A    between atoms: O2_16  and  C13_17 
REMARK    4  A    between atoms: C13_17  and  C14_18 
REMARK       I    between atoms: C14_18  and  N2_20 
REMARK    5  A    between atoms: N2_20  and  C15_21 
REMARK    6  A    between atoms: C15_21  and  C16_22 
REMARK       I    between atoms: C16_22  and  N3_24 
REMARK    7  A    between atoms: N3_24  and  C17_25 
REMARK    8  A    between atoms: C17_25  and  C18_26 
REMARK    9  A    between atoms: C17_25  and  C19_29 
REMARK   10  A    between atoms: C18_26  and  O6_28 
ROOT
HETATM    1  C1  UNL     1      -6.776   5.463  14.838  1.00  0.00     0.015 C 
HETATM    2  C2  UNL     1      -5.686   5.968  14.866  1.00  0.00    -0.078 C 
HETATM    3  C3  UNL     1      -4.343   6.569  14.927  1.00  0.00     0.128 C 
HETATM    4  C4  UNL     1      -3.317   5.759  14.137  1.00  0.00     0.052 C 
HETATM    5  C5  UNL     1      -2.124   6.705  14.080  1.00  0.00     0.010 C 
HETATM    6  C6  UNL     1      -2.727   8.107  13.859  1.00  0.00     0.002 C 
HETATM    7  C7  UNL     1      -1.936   9.279  14.498  1.00  0.00    -0.004 C 
HETATM    8  C8  UNL     1      -0.438   9.181  14.157  1.00  0.00     0.010 C 
HETATM    9  C9  UNL     1       0.369  10.317  14.765  1.00  0.00     0.035 C 
HETATM   10  C10 UNL     1       0.161  10.405  16.260  1.00  0.00    -0.069 C 
HETATM   11  C11 UNL     1       1.220  10.425  17.089  1.00  0.00     0.030 C 
HETATM   12  C12 UNL     1       1.063  10.641  18.551  1.00  0.00     0.032 C 
HETATM   13  N1  UNL     1       2.126  10.539  19.297  1.00  0.00    -0.271 N 
ATOM     14  H1  UNL     1       3.051  10.300  18.940  1.00  0.00     0.194 HD
HETATM   15  C22 UNL     1      -0.314  11.022  19.056  1.00  0.00     0.060 C 
HETATM   16  C23 UNL     1      -1.380  10.275  18.267  1.00  0.00     0.020 C 
HETATM   17  C24 UNL     1      -1.294  10.501  16.729  1.00  0.00    -0.016 C 
HETATM   18  C25 UNL     1      -1.784  11.931  16.391  1.00  0.00     0.020 C 
HETATM   19  C26 UNL     1      -2.159   9.379  16.026  1.00  0.00     0.002 C 
HETATM   20  C27 UNL     1      -3.659   9.461  16.390  1.00  0.00     0.007 C 
HETATM   21  C28 UNL     1      -4.629   9.146  15.250  1.00  0.00     0.014 C 
HETATM   22  C29 UNL     1      -4.225   8.001  14.303  1.00  0.00     0.003 C 
HETATM   23  C30 UNL     1      -5.104   8.137  13.028  1.00  0.00     0.020 C 
ENDROOT
BRANCH   3  24
HETATM   24  O1  UNL     1      -3.923   6.567  16.290  1.00  0.00    -0.377 OA
HETATM   25  H2  UNL     1      -4.112   5.681  16.653  1.00  0.00     0.211 HD
ENDBRANCH   3  24
BRANCH  13  26
HETATM   26  O2  UNL     1       1.849  10.797  20.649  1.00  0.00    -0.271 OA
BRANCH  26  27
HETATM   27  C13 UNL     1       2.984  11.408  21.254  1.00  0.00     0.303 C 
BRANCH  27  28
HETATM   28  C14 UNL     1       4.162  11.573  20.296  1.00  0.00     0.244 C 
HETATM   29  O3  UNL     1       4.789  10.610  19.853  1.00  0.00    -0.271 OA
HETATM   30  N2  UNL     1       4.452  12.873  19.957  1.00  0.00    -0.350 N 
HETATM   31  H16 UNL     1       4.005  13.598  20.517  1.00  0.00     0.163 HD
BRANCH  30  32
HETATM   32  C15 UNL     1       5.653  13.209  19.223  1.00  0.00     0.225 C 
BRANCH  32  33
HETATM   33  C16 UNL     1       6.868  13.084  20.149  1.00  0.00     0.236 C 
HETATM   34  O4  UNL     1       7.714  12.202  20.007  1.00  0.00    -0.272 OA
HETATM   35  N3  UNL     1       6.958  14.071  21.107  1.00  0.00    -0.345 N 
HETATM   36  H19 UNL     1       6.128  14.625  21.288  1.00  0.00     0.163 HD
BRANCH  35  37
HETATM   37  C17 UNL     1       7.991  14.044  22.149  1.00  0.00     0.185 C 
BRANCH  37  38
HETATM   38  C18 UNL     1       9.344  13.827  21.465  1.00  0.00     0.163 C 
HETATM   39  O5  UNL     1      10.194  13.005  21.783  1.00  0.00    -0.648 OA
BRANCH  38  40
HETATM   40  O6  UNL     1       9.570  14.674  20.442  1.00  0.00    -0.775 OA
HETATM   41  H21 UNL     1      10.448  14.408  20.097  1.00  0.00     0.167 HD
ENDBRANCH  38  40
ENDBRANCH  37  38
BRANCH  37  42
HETATM   42  C19 UNL     1       7.665  12.968  23.209  1.00  0.00     0.010 C 
HETATM   43  C20 UNL     1       8.653  11.800  23.155  1.00  0.00     0.012 C 
HETATM   44  C21 UNL     1       6.232  12.434  23.132  1.00  0.00     0.012 C 
ENDBRANCH  37  42
ENDBRANCH  35  37
ENDBRANCH  32  33
ENDBRANCH  30  32
ENDBRANCH  27  28
ENDBRANCH  26  27
ENDBRANCH  13  26
TORSDOF 10
ENDMDL
