MODEL 1
REMARK minimizedAffinity -9.78186703
REMARK  6 active torsions:
REMARK  status: ('A' for Active; 'I' for Inactive)
REMARK    1  A    between atoms: C4_4  and  C5_5 
REMARK    2  A    between atoms: C5_5  and  C6_6 
REMARK    3  A    between atoms: C6_6  and  C7_7 
REMARK    4  A    between atoms: C7_7  and  C9_9 
REMARK    5  A    between atoms: C12_12  and  C13_13 
REMARK    6  A    between atoms: C13_13  and  O2_15 
ROOT
HETATM    1  C9  UNL     1      -1.436  51.911 -23.301  1.00  0.00    -0.001 C 
HETATM    2  C10 UNL     1      -0.819  51.395 -24.624  1.00  0.00     0.007 C 
HETATM    3  C11 UNL     1      -1.839  50.399 -25.222  1.00  0.00     0.026 C 
HETATM    4  C12 UNL     1      -3.139  50.630 -24.413  1.00  0.00     0.076 C 
HETATM    5  C14 UNL     1      -4.208  49.549 -24.364  1.00  0.00    -0.057 C 
HETATM    6  C15 UNL     1      -5.030  49.429 -23.292  1.00  0.00    -0.067 C 
HETATM    7  C16 UNL     1      -4.880  50.387 -22.090  1.00  0.00     0.036 C 
HETATM    8  C17 UNL     1      -3.636  51.305 -22.021  1.00  0.00     0.015 C 
HETATM    9  C18 UNL     1      -2.533  50.855 -22.981  1.00  0.00    -0.018 C 
HETATM   10  C19 UNL     1      -1.907  49.565 -22.365  1.00  0.00     0.017 C 
HETATM   11  C20 UNL     1      -6.100  48.294 -23.181  1.00  0.00    -0.015 C 
HETATM   12  C21 UNL     1      -5.578  47.322 -22.084  1.00  0.00     0.020 C 
HETATM   13  C22 UNL     1      -7.467  48.865 -22.706  1.00  0.00     0.021 C 
HETATM   14  C23 UNL     1      -8.364  49.275 -23.858  1.00  0.00     0.080 C 
HETATM   15  C24 UNL     1      -8.761  48.058 -24.662  1.00  0.00     0.135 C 
HETATM   16  O3  UNL     1      -9.867  48.011 -25.205  1.00  0.00    -0.297 OA
HETATM   17  C25 UNL     1      -7.752  46.907 -24.774  1.00  0.00     0.018 C 
HETATM   18  C26 UNL     1      -8.155  45.809 -23.769  1.00  0.00     0.023 C 
HETATM   19  C27 UNL     1      -7.899  46.276 -26.180  1.00  0.00     0.023 C 
HETATM   20  C28 UNL     1      -6.286  47.441 -24.520  1.00  0.00     0.013 C 
HETATM   21  C29 UNL     1      -5.750  48.186 -25.761  1.00  0.00     0.011 C 
HETATM   22  C30 UNL     1      -4.327  48.672 -25.569  1.00  0.00     0.036 C 
ENDROOT
BRANCH   1  23
HETATM   23  C7  UNL     1      -0.439  52.328 -22.181  1.00  0.00    -0.014 C 
HETATM   24  C8  UNL     1       0.865  52.799 -22.853  1.00  0.00     0.010 C 
BRANCH  23  25
HETATM   25  C6  UNL     1      -0.120  51.233 -21.133  1.00  0.00     0.008 C 
BRANCH  25  26
HETATM   26  C5  UNL     1      -0.695  51.499 -19.731  1.00  0.00     0.028 C 
BRANCH  26  27
HETATM   27  C4  UNL     1       0.275  52.146 -18.782  1.00  0.00    -0.025 C 
HETATM   28  C2  UNL     1       0.691  51.702 -17.579  1.00  0.00    -0.091 C 
HETATM   29  C1  UNL     1       0.245  50.430 -16.912  1.00  0.00     0.042 C 
HETATM   30  C3  UNL     1       1.682  52.503 -16.772  1.00  0.00     0.042 C 
ENDBRANCH  26  27
ENDBRANCH  25  26
ENDBRANCH  23  25
ENDBRANCH   1  23
BRANCH   4  31
HETATM   31  C13 UNL     1      -3.884  51.857 -25.023  1.00  0.00     0.153 C 
HETATM   32  O1  UNL     1      -3.429  52.733 -25.744  1.00  0.00    -0.649 OA
BRANCH  31  33
HETATM   33  O2  UNL     1      -5.170  51.971 -24.624  1.00  0.00    -0.776 OA
HETATM   34  H21 UNL     1      -5.462  52.808 -25.042  1.00  0.00     0.167 HD
ENDBRANCH  31  33
ENDBRANCH   4  31
TORSDOF 6
ENDMDL
MODEL 2
REMARK minimizedAffinity -9.21059322
REMARK  6 active torsions:
REMARK  status: ('A' for Active; 'I' for Inactive)
REMARK    1  A    between atoms: C4_4  and  C5_5 
REMARK    2  A    between atoms: C5_5  and  C6_6 
REMARK    3  A    between atoms: C6_6  and  C7_7 
REMARK    4  A    between atoms: C7_7  and  C9_9 
REMARK    5  A    between atoms: C12_12  and  C13_13 
REMARK    6  A    between atoms: C13_13  and  O2_15 
ROOT
HETATM    1  C9  UNL     1      -0.129  51.001 -21.090  1.00  0.00    -0.001 C 
HETATM    2  C10 UNL     1      -0.254  51.414 -19.602  1.00  0.00     0.007 C 
HETATM    3  C11 UNL     1      -1.594  50.829 -19.099  1.00  0.00     0.026 C 
HETATM    4  C12 UNL     1      -2.026  49.826 -20.196  1.00  0.00     0.076 C 
HETATM    5  C14 UNL     1      -3.483  49.406 -20.315  1.00  0.00    -0.057 C 
HETATM    6  C15 UNL     1      -4.008  49.037 -21.510  1.00  0.00    -0.067 C 
HETATM    7  C16 UNL     1      -3.128  49.052 -22.780  1.00  0.00     0.036 C 
HETATM    8  C17 UNL     1      -1.736  49.724 -22.712  1.00  0.00     0.015 C 
HETATM    9  C18 UNL     1      -1.586  50.618 -21.479  1.00  0.00    -0.018 C 
HETATM   10  C19 UNL     1      -2.449  51.891 -21.746  1.00  0.00     0.017 C 
HETATM   11  C20 UNL     1      -5.515  48.658 -21.681  1.00  0.00    -0.015 C 
HETATM   12  C21 UNL     1      -6.160  49.825 -22.481  1.00  0.00     0.020 C 
HETATM   13  C22 UNL     1      -5.667  47.357 -22.521  1.00  0.00     0.021 C 
HETATM   14  C23 UNL     1      -5.693  46.105 -21.665  1.00  0.00     0.080 C 
HETATM   15  C24 UNL     1      -6.928  46.099 -20.796  1.00  0.00     0.135 C 
HETATM   16  O3  UNL     1      -7.473  45.031 -20.504  1.00  0.00    -0.297 OA
HETATM   17  C25 UNL     1      -7.466  47.447 -20.297  1.00  0.00     0.018 C 
HETATM   18  C26 UNL     1      -8.655  47.855 -21.190  1.00  0.00     0.023 C 
HETATM   19  C27 UNL     1      -8.050  47.235 -18.878  1.00  0.00     0.023 C 
HETATM   20  C28 UNL     1      -6.315  48.528 -20.302  1.00  0.00     0.013 C 
HETATM   21  C29 UNL     1      -5.367  48.330 -19.099  1.00  0.00     0.011 C 
HETATM   22  C30 UNL     1      -4.277  49.381 -19.048  1.00  0.00     0.036 C 
ENDROOT
BRANCH   1  23
HETATM   23  C7  UNL     1       0.674  51.961 -22.016  1.00  0.00    -0.014 C 
HETATM   24  C8  UNL     1       1.060  53.205 -21.194  1.00  0.00     0.010 C 
BRANCH  23  25
HETATM   25  C6  UNL     1      -0.054  52.397 -23.311  1.00  0.00     0.008 C 
BRANCH  25  26
HETATM   26  C5  UNL     1       0.871  52.930 -24.419  1.00  0.00     0.028 C 
BRANCH  26  27
HETATM   27  C4  UNL     1       0.434  52.570 -25.811  1.00  0.00    -0.025 C 
HETATM   28  C2  UNL     1       1.139  51.942 -26.774  1.00  0.00    -0.091 C 
HETATM   29  C1  UNL     1       2.561  51.468 -26.650  1.00  0.00     0.042 C 
HETATM   30  C3  UNL     1       0.514  51.667 -28.119  1.00  0.00     0.042 C 
ENDBRANCH  26  27
ENDBRANCH  25  26
ENDBRANCH  23  25
ENDBRANCH   1  23
BRANCH   4  31
HETATM   31  C13 UNL     1      -1.275  48.481 -19.952  1.00  0.00     0.153 C 
HETATM   32  O1  UNL     1      -0.814  47.713 -20.784  1.00  0.00    -0.649 OA
BRANCH  31  33
HETATM   33  O2  UNL     1      -1.209  48.118 -18.652  1.00  0.00    -0.776 OA
HETATM   34  H21 UNL     1      -0.770  47.242 -18.685  1.00  0.00     0.167 HD
ENDBRANCH  31  33
ENDBRANCH   4  31
TORSDOF 6
ENDMDL
MODEL 3
REMARK minimizedAffinity -9.03857803
REMARK  6 active torsions:
REMARK  status: ('A' for Active; 'I' for Inactive)
REMARK    1  A    between atoms: C4_4  and  C5_5 
REMARK    2  A    between atoms: C5_5  and  C6_6 
REMARK    3  A    between atoms: C6_6  and  C7_7 
REMARK    4  A    between atoms: C7_7  and  C9_9 
REMARK    5  A    between atoms: C12_12  and  C13_13 
REMARK    6  A    between atoms: C13_13  and  O2_15 
ROOT
HETATM    1  C9  UNL     1      -1.437  51.513 -20.658  1.00  0.00    -0.001 C 
HETATM    2  C10 UNL     1      -0.539  51.292 -21.901  1.00  0.00     0.007 C 
HETATM    3  C11 UNL     1      -1.405  50.535 -22.935  1.00  0.00     0.026 C 
HETATM    4  C12 UNL     1      -2.852  50.647 -22.397  1.00  0.00     0.076 C 
HETATM    5  C14 UNL     1      -3.913  49.656 -22.852  1.00  0.00    -0.057 C 
HETATM    6  C15 UNL     1      -4.957  49.334 -22.049  1.00  0.00    -0.067 C 
HETATM    7  C16 UNL     1      -5.077  49.963 -20.644  1.00  0.00     0.036 C 
HETATM    8  C17 UNL     1      -3.874  50.757 -20.080  1.00  0.00     0.015 C 
HETATM    9  C18 UNL     1      -2.585  50.482 -20.858  1.00  0.00    -0.018 C 
HETATM   10  C19 UNL     1      -2.125  49.045 -20.460  1.00  0.00     0.017 C 
HETATM   11  C20 UNL     1      -6.033  48.275 -22.460  1.00  0.00    -0.015 C 
HETATM   12  C21 UNL     1      -5.780  47.038 -21.552  1.00  0.00     0.020 C 
HETATM   13  C22 UNL     1      -7.468  48.801 -22.167  1.00  0.00     0.021 C 
HETATM   14  C23 UNL     1      -8.077  49.532 -23.348  1.00  0.00     0.080 C 
HETATM   15  C24 UNL     1      -8.290  48.572 -24.495  1.00  0.00     0.135 C 
HETATM   16  O3  UNL     1      -9.245  48.727 -25.261  1.00  0.00    -0.297 OA
HETATM   17  C25 UNL     1      -7.291  47.420 -24.667  1.00  0.00     0.018 C 
HETATM   18  C26 UNL     1      -7.919  46.141 -24.080  1.00  0.00     0.023 C 
HETATM   19  C27 UNL     1      -7.119  47.156 -26.183  1.00  0.00     0.023 C 
HETATM   20  C28 UNL     1      -5.917  47.783 -23.976  1.00  0.00     0.013 C 
HETATM   21  C29 UNL     1      -5.107  48.769 -24.845  1.00  0.00     0.011 C 
HETATM   22  C30 UNL     1      -3.762  49.104 -24.233  1.00  0.00     0.036 C 
ENDROOT
BRANCH   1  23
HETATM   23  C7  UNL     1      -0.716  51.584 -19.280  1.00  0.00    -0.014 C 
HETATM   24  C8  UNL     1      -1.777  51.412 -18.176  1.00  0.00     0.010 C 
BRANCH  23  25
HETATM   25  C6  UNL     1       0.098  52.876 -19.022  1.00  0.00     0.008 C 
BRANCH  25  26
HETATM   26  C5  UNL     1       1.473  52.649 -18.370  1.00  0.00     0.028 C 
BRANCH  26  27
HETATM   27  C4  UNL     1       1.407  52.184 -16.942  1.00  0.00    -0.025 C 
HETATM   28  C2  UNL     1       2.392  52.160 -16.023  1.00  0.00    -0.091 C 
HETATM   29  C1  UNL     1       3.813  52.599 -16.250  1.00  0.00     0.042 C 
HETATM   30  C3  UNL     1       2.121  51.654 -14.629  1.00  0.00     0.042 C 
ENDBRANCH  26  27
ENDBRANCH  25  26
ENDBRANCH  23  25
ENDBRANCH   1  23
BRANCH   4  31
HETATM   31  C13 UNL     1      -3.430  52.029 -22.830  1.00  0.00     0.153 C 
HETATM   32  O1  UNL     1      -2.911  52.872 -23.546  1.00  0.00    -0.649 OA
BRANCH  31  33
HETATM   33  O2  UNL     1      -4.621  52.327 -22.265  1.00  0.00    -0.776 OA
HETATM   34  H21 UNL     1      -4.804  53.233 -22.590  1.00  0.00     0.167 HD
ENDBRANCH  31  33
ENDBRANCH   4  31
TORSDOF 6
ENDMDL
MODEL 4
REMARK minimizedAffinity -8.62790775
REMARK  6 active torsions:
REMARK  status: ('A' for Active; 'I' for Inactive)
REMARK    1  A    between atoms: C4_4  and  C5_5 
REMARK    2  A    between atoms: C5_5  and  C6_6 
REMARK    3  A    between atoms: C6_6  and  C7_7 
REMARK    4  A    between atoms: C7_7  and  C9_9 
REMARK    5  A    between atoms: C12_12  and  C13_13 
REMARK    6  A    between atoms: C13_13  and  O2_15 
ROOT
HETATM    1  C9  UNL     1      -1.667  51.333 -22.536  1.00  0.00    -0.001 C 
HETATM    2  C10 UNL     1      -2.982  52.141 -22.663  1.00  0.00     0.007 C 
HETATM    3  C11 UNL     1      -4.014  51.442 -21.748  1.00  0.00     0.026 C 
HETATM    4  C12 UNL     1      -3.177  50.476 -20.874  1.00  0.00     0.076 C 
HETATM    5  C14 UNL     1      -3.845  49.288 -20.198  1.00  0.00    -0.057 C 
HETATM    6  C15 UNL     1      -3.151  48.154 -19.934  1.00  0.00    -0.067 C 
HETATM    7  C16 UNL     1      -1.663  48.046 -20.334  1.00  0.00     0.036 C 
HETATM    8  C17 UNL     1      -1.058  49.137 -21.250  1.00  0.00     0.015 C 
HETATM    9  C18 UNL     1      -2.138  49.975 -21.939  1.00  0.00    -0.018 C 
HETATM   10  C19 UNL     1      -2.769  49.067 -23.041  1.00  0.00     0.017 C 
HETATM   11  C20 UNL     1      -3.819  46.893 -19.295  1.00  0.00    -0.015 C 
HETATM   12  C21 UNL     1      -3.887  45.827 -20.425  1.00  0.00     0.020 C 
HETATM   13  C22 UNL     1      -2.938  46.320 -18.147  1.00  0.00     0.021 C 
HETATM   14  C23 UNL     1      -3.289  46.903 -16.792  1.00  0.00     0.080 C 
HETATM   15  C24 UNL     1      -4.685  46.483 -16.394  1.00  0.00     0.135 C 
HETATM   16  O3  UNL     1      -4.960  46.298 -15.206  1.00  0.00    -0.297 OA
HETATM   17  C25 UNL     1      -5.727  46.302 -17.506  1.00  0.00     0.018 C 
HETATM   18  C26 UNL     1      -5.854  44.795 -17.811  1.00  0.00     0.023 C 
HETATM   19  C27 UNL     1      -7.103  46.743 -16.951  1.00  0.00     0.023 C 
HETATM   20  C28 UNL     1      -5.314  47.137 -18.782  1.00  0.00     0.013 C 
HETATM   21  C29 UNL     1      -5.620  48.637 -18.581  1.00  0.00     0.011 C 
HETATM   22  C30 UNL     1      -5.278  49.462 -19.804  1.00  0.00     0.036 C 
ENDROOT
BRANCH   1  23
HETATM   23  C7  UNL     1      -0.727  51.329 -23.776  1.00  0.00    -0.014 C 
HETATM   24  C8  UNL     1       0.346  52.414 -23.567  1.00  0.00     0.010 C 
BRANCH  23  25
HETATM   25  C6  UNL     1      -1.427  51.543 -25.141  1.00  0.00     0.008 C 
BRANCH  25  26
HETATM   26  C5  UNL     1      -0.913  50.640 -26.276  1.00  0.00     0.028 C 
BRANCH  26  27
HETATM   27  C4  UNL     1       0.548  50.812 -26.585  1.00  0.00    -0.025 C 
HETATM   28  C2  UNL     1       1.128  51.691 -27.427  1.00  0.00    -0.091 C 
HETATM   29  C1  UNL     1       0.404  52.706 -28.268  1.00  0.00     0.042 C 
HETATM   30  C3  UNL     1       2.626  51.707 -27.597  1.00  0.00     0.042 C 
ENDBRANCH  26  27
ENDBRANCH  25  26
ENDBRANCH  23  25
ENDBRANCH   1  23
BRANCH   4  31
HETATM   31  C13 UNL     1      -2.577  51.287 -19.685  1.00  0.00     0.153 C 
HETATM   32  O1  UNL     1      -3.167  51.787 -18.739  1.00  0.00    -0.649 OA
BRANCH  31  33
HETATM   33  O2  UNL     1      -1.247  51.505 -19.786  1.00  0.00    -0.776 OA
HETATM   34  H21 UNL     1      -1.051  52.066 -19.007  1.00  0.00     0.167 HD
ENDBRANCH  31  33
ENDBRANCH   4  31
TORSDOF 6
ENDMDL
MODEL 5
REMARK minimizedAffinity -8.57707405
REMARK  6 active torsions:
REMARK  status: ('A' for Active; 'I' for Inactive)
REMARK    1  A    between atoms: C4_4  and  C5_5 
REMARK    2  A    between atoms: C5_5  and  C6_6 
REMARK    3  A    between atoms: C6_6  and  C7_7 
REMARK    4  A    between atoms: C7_7  and  C9_9 
REMARK    5  A    between atoms: C12_12  and  C13_13 
REMARK    6  A    between atoms: C13_13  and  O2_15 
ROOT
HETATM    1  C9  UNL     1      -0.988  50.590 -22.676  1.00  0.00    -0.001 C 
HETATM    2  C10 UNL     1      -0.651  51.243 -21.313  1.00  0.00     0.007 C 
HETATM    3  C11 UNL     1      -1.784  50.836 -20.343  1.00  0.00     0.026 C 
HETATM    4  C12 UNL     1      -2.541  49.700 -21.072  1.00  0.00     0.076 C 
HETATM    5  C14 UNL     1      -3.972  49.363 -20.681  1.00  0.00    -0.057 C 
HETATM    6  C15 UNL     1      -4.839  48.842 -21.583  1.00  0.00    -0.067 C 
HETATM    7  C16 UNL     1      -4.385  48.594 -23.039  1.00  0.00     0.036 C 
HETATM    8  C17 UNL     1      -3.028  49.177 -23.504  1.00  0.00     0.015 C 
HETATM    9  C18 UNL     1      -2.500  50.245 -22.545  1.00  0.00    -0.018 C 
HETATM   10  C19 UNL     1      -3.385  51.512 -22.760  1.00  0.00     0.017 C 
HETATM   11  C20 UNL     1      -6.332  48.539 -21.232  1.00  0.00    -0.015 C 
HETATM   12  C21 UNL     1      -7.173  49.602 -21.995  1.00  0.00     0.020 C 
HETATM   13  C22 UNL     1      -6.750  47.132 -21.752  1.00  0.00     0.021 C 
HETATM   14  C23 UNL     1      -6.532  46.039 -20.723  1.00  0.00     0.080 C 
HETATM   15  C24 UNL     1      -7.446  46.253 -19.540  1.00  0.00     0.135 C 
HETATM   16  O3  UNL     1      -7.892  45.284 -18.921  1.00  0.00    -0.297 OA
HETATM   17  C25 UNL     1      -7.789  47.696 -19.146  1.00  0.00     0.018 C 
HETATM   18  C26 UNL     1      -9.187  48.032 -19.704  1.00  0.00     0.023 C 
HETATM   19  C27 UNL     1      -7.919  47.754 -17.604  1.00  0.00     0.023 C 
HETATM   20  C28 UNL     1      -6.679  48.686 -19.678  1.00  0.00     0.013 C 
HETATM   21  C29 UNL     1      -5.415  48.622 -18.795  1.00  0.00     0.011 C 
HETATM   22  C30 UNL     1      -4.345  49.593 -19.251  1.00  0.00     0.036 C 
ENDROOT
BRANCH   1  23
HETATM   23  C7  UNL     1      -0.490  51.334 -23.949  1.00  0.00    -0.014 C 
HETATM   24  C8  UNL     1      -0.148  52.783 -23.554  1.00  0.00     0.010 C 
BRANCH  23  25
HETATM   25  C6  UNL     1      -1.476  51.339 -25.144  1.00  0.00     0.008 C 
BRANCH  25  26
HETATM   26  C5  UNL     1      -0.975  50.591 -26.392  1.00  0.00     0.028 C 
BRANCH  26  27
HETATM   27  C4  UNL     1       0.482  50.803 -26.693  1.00  0.00    -0.025 C 
HETATM   28  C2  UNL     1       1.056  51.804 -27.390  1.00  0.00    -0.091 C 
HETATM   29  C1  UNL     1       0.327  52.947 -28.043  1.00  0.00     0.042 C 
HETATM   30  C3  UNL     1       2.551  51.840 -27.580  1.00  0.00     0.042 C 
ENDBRANCH  26  27
ENDBRANCH  25  26
ENDBRANCH  23  25
ENDBRANCH   1  23
BRANCH   4  31
HETATM   31  C13 UNL     1      -1.770  48.365 -20.832  1.00  0.00     0.153 C 
HETATM   32  O1  UNL     1      -1.677  47.404 -21.581  1.00  0.00    -0.649 OA
BRANCH  31  33
HETATM   33  O2  UNL     1      -1.211  48.269 -19.606  1.00  0.00    -0.776 OA
HETATM   34  H21 UNL     1      -0.829  47.366 -19.603  1.00  0.00     0.167 HD
ENDBRANCH  31  33
ENDBRANCH   4  31
TORSDOF 6
ENDMDL
MODEL 6
REMARK minimizedAffinity -8.1911869
REMARK  6 active torsions:
REMARK  status: ('A' for Active; 'I' for Inactive)
REMARK    1  A    between atoms: C4_4  and  C5_5 
REMARK    2  A    between atoms: C5_5  and  C6_6 
REMARK    3  A    between atoms: C6_6  and  C7_7 
REMARK    4  A    between atoms: C7_7  and  C9_9 
REMARK    5  A    between atoms: C12_12  and  C13_13 
REMARK    6  A    between atoms: C13_13  and  O2_15 
ROOT
HETATM    1  C9  UNL     1      -3.269  50.435 -24.666  1.00  0.00    -0.001 C 
HETATM    2  C10 UNL     1      -3.676  49.348 -25.690  1.00  0.00     0.007 C 
HETATM    3  C11 UNL     1      -4.548  48.329 -24.921  1.00  0.00     0.026 C 
HETATM    4  C12 UNL     1      -4.893  49.032 -23.585  1.00  0.00     0.076 C 
HETATM    5  C14 UNL     1      -5.319  48.210 -22.379  1.00  0.00    -0.057 C 
HETATM    6  C15 UNL     1      -5.079  48.644 -21.117  1.00  0.00    -0.067 C 
HETATM    7  C16 UNL     1      -4.350  49.986 -20.887  1.00  0.00     0.036 C 
HETATM    8  C17 UNL     1      -3.686  50.689 -22.095  1.00  0.00     0.015 C 
HETATM    9  C18 UNL     1      -3.527  49.750 -23.293  1.00  0.00    -0.018 C 
HETATM   10  C19 UNL     1      -2.374  48.762 -22.933  1.00  0.00     0.017 C 
HETATM   11  C20 UNL     1      -5.450  47.799 -19.855  1.00  0.00    -0.015 C 
HETATM   12  C21 UNL     1      -4.099  47.309 -19.259  1.00  0.00     0.020 C 
HETATM   13  C22 UNL     1      -6.156  48.680 -18.785  1.00  0.00     0.021 C 
HETATM   14  C23 UNL     1      -7.665  48.686 -18.933  1.00  0.00     0.080 C 
HETATM   15  C24 UNL     1      -8.217  47.306 -18.660  1.00  0.00     0.135 C 
HETATM   16  O3  UNL     1      -9.328  47.177 -18.140  1.00  0.00    -0.297 OA
HETATM   17  C25 UNL     1      -7.357  46.096 -19.049  1.00  0.00     0.018 C 
HETATM   18  C26 UNL     1      -6.659  45.569 -17.780  1.00  0.00     0.023 C 
HETATM   19  C27 UNL     1      -8.305  44.964 -19.517  1.00  0.00     0.023 C 
HETATM   20  C28 UNL     1      -6.325  46.500 -20.175  1.00  0.00     0.013 C 
HETATM   21  C29 UNL     1      -7.021  46.595 -21.550  1.00  0.00     0.011 C 
HETATM   22  C30 UNL     1      -6.050  46.936 -22.663  1.00  0.00     0.036 C 
ENDROOT
BRANCH   1  23
HETATM   23  C7  UNL     1      -1.908  51.150 -24.909  1.00  0.00    -0.014 C 
HETATM   24  C8  UNL     1      -1.292  50.579 -26.201  1.00  0.00     0.010 C 
BRANCH  23  25
HETATM   25  C6  UNL     1      -0.884  51.042 -23.752  1.00  0.00     0.008 C 
BRANCH  25  26
HETATM   26  C5  UNL     1      -0.446  52.390 -23.154  1.00  0.00     0.028 C 
BRANCH  26  27
HETATM   27  C4  UNL     1      -0.344  52.393 -21.654  1.00  0.00    -0.025 C 
HETATM   28  C2  UNL     1       0.476  53.123 -20.872  1.00  0.00    -0.091 C 
HETATM   29  C1  UNL     1       1.501  54.110 -21.359  1.00  0.00     0.042 C 
HETATM   30  C3  UNL     1       0.422  52.982 -19.371  1.00  0.00     0.042 C 
ENDBRANCH  26  27
ENDBRANCH  25  26
ENDBRANCH  23  25
ENDBRANCH   1  23
BRANCH   4  31
HETATM   31  C13 UNL     1      -6.107  49.980 -23.831  1.00  0.00     0.153 C 
HETATM   32  O1  UNL     1      -7.295  49.697 -23.839  1.00  0.00    -0.649 OA
BRANCH  31  33
HETATM   33  O2  UNL     1      -5.758  51.248 -24.143  1.00  0.00    -0.776 OA
HETATM   34  H21 UNL     1      -6.618  51.681 -24.321  1.00  0.00     0.167 HD
ENDBRANCH  31  33
ENDBRANCH   4  31
TORSDOF 6
ENDMDL
MODEL 7
REMARK minimizedAffinity -8.17606926
REMARK  6 active torsions:
REMARK  status: ('A' for Active; 'I' for Inactive)
REMARK    1  A    between atoms: C4_4  and  C5_5 
REMARK    2  A    between atoms: C5_5  and  C6_6 
REMARK    3  A    between atoms: C6_6  and  C7_7 
REMARK    4  A    between atoms: C7_7  and  C9_9 
REMARK    5  A    between atoms: C12_12  and  C13_13 
REMARK    6  A    between atoms: C13_13  and  O2_15 
ROOT
HETATM    1  C9  UNL     1      -1.210  50.717 -23.628  1.00  0.00    -0.001 C 
HETATM    2  C10 UNL     1      -0.972  51.743 -22.494  1.00  0.00     0.007 C 
HETATM    3  C11 UNL     1      -2.064  51.479 -21.431  1.00  0.00     0.026 C 
HETATM    4  C12 UNL     1      -2.672  50.110 -21.820  1.00  0.00     0.076 C 
HETATM    5  C14 UNL     1      -4.059  49.725 -21.328  1.00  0.00    -0.057 C 
HETATM    6  C15 UNL     1      -4.846  48.885 -22.045  1.00  0.00    -0.067 C 
HETATM    7  C16 UNL     1      -4.345  48.315 -23.391  1.00  0.00     0.036 C 
HETATM    8  C17 UNL     1      -3.059  48.906 -24.017  1.00  0.00     0.015 C 
HETATM    9  C18 UNL     1      -2.673  50.245 -23.384  1.00  0.00    -0.018 C 
HETATM   10  C19 UNL     1      -3.697  51.297 -23.914  1.00  0.00     0.017 C 
HETATM   11  C20 UNL     1      -6.298  48.514 -21.601  1.00  0.00    -0.015 C 
HETATM   12  C21 UNL     1      -7.246  49.231 -22.605  1.00  0.00     0.020 C 
HETATM   13  C22 UNL     1      -6.541  46.982 -21.721  1.00  0.00     0.021 C 
HETATM   14  C23 UNL     1      -6.212  46.234 -20.444  1.00  0.00     0.080 C 
HETATM   15  C24 UNL     1      -7.162  46.647 -19.344  1.00  0.00     0.135 C 
HETATM   16  O3  UNL     1      -7.501  45.832 -18.482  1.00  0.00    -0.297 OA
HETATM   17  C25 UNL     1      -7.677  48.092 -19.341  1.00  0.00     0.018 C 
HETATM   18  C26 UNL     1      -9.096  48.103 -19.945  1.00  0.00     0.023 C 
HETATM   19  C27 UNL     1      -7.836  48.542 -17.868  1.00  0.00     0.023 C 
HETATM   20  C28 UNL     1      -6.682  49.027 -20.136  1.00  0.00     0.013 C 
HETATM   21  C29 UNL     1      -5.433  49.348 -19.289  1.00  0.00     0.011 C 
HETATM   22  C30 UNL     1      -4.477  50.281 -20.005  1.00  0.00     0.036 C 
ENDROOT
BRANCH   1  23
HETATM   23  C7  UNL     1      -0.784  51.148 -25.062  1.00  0.00    -0.014 C 
HETATM   24  C8  UNL     1       0.412  52.111 -24.936  1.00  0.00     0.010 C 
BRANCH  23  25
HETATM   25  C6  UNL     1      -1.896  51.807 -25.916  1.00  0.00     0.008 C 
BRANCH  25  26
HETATM   26  C5  UNL     1      -1.934  51.349 -27.384  1.00  0.00     0.028 C 
BRANCH  26  27
HETATM   27  C4  UNL     1      -3.157  50.556 -27.749  1.00  0.00    -0.025 C 
HETATM   28  C2  UNL     1      -3.393  49.243 -27.553  1.00  0.00    -0.091 C 
HETATM   29  C1  UNL     1      -2.441  48.268 -26.916  1.00  0.00     0.042 C 
HETATM   30  C3  UNL     1      -4.698  48.629 -27.993  1.00  0.00     0.042 C 
ENDBRANCH  26  27
ENDBRANCH  25  26
ENDBRANCH  23  25
ENDBRANCH   1  23
BRANCH   4  31
HETATM   31  C13 UNL     1      -1.754  48.986 -21.247  1.00  0.00     0.153 C 
HETATM   32  O1  UNL     1      -1.589  47.855 -21.678  1.00  0.00    -0.649 OA
BRANCH  31  33
HETATM   33  O2  UNL     1      -1.137  49.319 -20.092  1.00  0.00    -0.776 OA
HETATM   34  H21 UNL     1      -0.661  48.498 -19.847  1.00  0.00     0.167 HD
ENDBRANCH  31  33
ENDBRANCH   4  31
TORSDOF 6
ENDMDL
MODEL 8
REMARK minimizedAffinity -8.08830357
REMARK  6 active torsions:
REMARK  status: ('A' for Active; 'I' for Inactive)
REMARK    1  A    between atoms: C4_4  and  C5_5 
REMARK    2  A    between atoms: C5_5  and  C6_6 
REMARK    3  A    between atoms: C6_6  and  C7_7 
REMARK    4  A    between atoms: C7_7  and  C9_9 
REMARK    5  A    between atoms: C12_12  and  C13_13 
REMARK    6  A    between atoms: C13_13  and  O2_15 
ROOT
HETATM    1  C9  UNL     1      -1.838  51.441 -23.311  1.00  0.00    -0.001 C 
HETATM    2  C10 UNL     1      -2.005  50.969 -24.776  1.00  0.00     0.007 C 
HETATM    3  C11 UNL     1      -3.160  49.942 -24.775  1.00  0.00     0.026 C 
HETATM    4  C12 UNL     1      -3.837  50.110 -23.392  1.00  0.00     0.076 C 
HETATM    5  C14 UNL     1      -4.689  48.987 -22.819  1.00  0.00    -0.057 C 
HETATM    6  C15 UNL     1      -4.813  48.819 -21.479  1.00  0.00    -0.067 C 
HETATM    7  C16 UNL     1      -4.072  49.766 -20.509  1.00  0.00     0.036 C 
HETATM    8  C17 UNL     1      -3.006  50.731 -21.080  1.00  0.00     0.015 C 
HETATM    9  C18 UNL     1      -2.570  50.338 -22.493  1.00  0.00    -0.018 C 
HETATM   10  C19 UNL     1      -1.679  49.065 -22.346  1.00  0.00     0.017 C 
HETATM   11  C20 UNL     1      -5.630  47.642 -20.856  1.00  0.00    -0.015 C 
HETATM   12  C21 UNL     1      -4.581  46.676 -20.235  1.00  0.00     0.020 C 
HETATM   13  C22 UNL     1      -6.551  48.152 -19.709  1.00  0.00     0.021 C 
HETATM   14  C23 UNL     1      -7.933  48.542 -20.196  1.00  0.00     0.080 C 
HETATM   15  C24 UNL     1      -8.664  47.323 -20.706  1.00  0.00     0.135 C 
HETATM   16  O3  UNL     1      -9.889  47.240 -20.582  1.00  0.00    -0.297 OA
HETATM   17  C25 UNL     1      -7.840  46.214 -21.374  1.00  0.00     0.018 C 
HETATM   18  C26 UNL     1      -7.619  45.087 -20.346  1.00  0.00     0.023 C 
HETATM   19  C27 UNL     1      -8.695  45.597 -22.509  1.00  0.00     0.023 C 
HETATM   20  C28 UNL     1      -6.478  46.801 -21.919  1.00  0.00     0.013 C 
HETATM   21  C29 UNL     1      -6.702  47.585 -23.230  1.00  0.00     0.011 C 
HETATM   22  C30 UNL     1      -5.408  48.123 -23.806  1.00  0.00     0.036 C 
ENDROOT
BRANCH   1  23
HETATM   23  C7  UNL     1      -0.409  51.882 -22.877  1.00  0.00    -0.014 C 
HETATM   24  C8  UNL     1      -0.491  52.413 -21.433  1.00  0.00     0.010 C 
BRANCH  23  25
HETATM   25  C6  UNL     1       0.264  52.940 -23.785  1.00  0.00     0.008 C 
BRANCH  25  26
HETATM   26  C5  UNL     1       1.497  52.435 -24.555  1.00  0.00     0.028 C 
BRANCH  26  27
HETATM   27  C4  UNL     1       1.185  51.877 -25.916  1.00  0.00    -0.025 C 
HETATM   28  C2  UNL     1       0.554  52.480 -26.944  1.00  0.00    -0.091 C 
HETATM   29  C1  UNL     1       0.003  53.879 -26.933  1.00  0.00     0.042 C 
HETATM   30  C3  UNL     1       0.339  51.744 -28.242  1.00  0.00     0.042 C 
ENDBRANCH  26  27
ENDBRANCH  25  26
ENDBRANCH  23  25
ENDBRANCH   1  23
BRANCH   4  31
HETATM   31  C13 UNL     1      -4.824  51.315 -23.474  1.00  0.00     0.153 C 
HETATM   32  O1  UNL     1      -4.957  52.235 -22.680  1.00  0.00    -0.649 OA
BRANCH  31  33
HETATM   33  O2  UNL     1      -5.668  51.262 -24.528  1.00  0.00    -0.776 OA
HETATM   34  H21 UNL     1      -6.244  52.044 -24.394  1.00  0.00     0.167 HD
ENDBRANCH  31  33
ENDBRANCH   4  31
TORSDOF 6
ENDMDL
MODEL 9
REMARK minimizedAffinity -8.01457691
REMARK  6 active torsions:
REMARK  status: ('A' for Active; 'I' for Inactive)
REMARK    1  A    between atoms: C4_4  and  C5_5 
REMARK    2  A    between atoms: C5_5  and  C6_6 
REMARK    3  A    between atoms: C6_6  and  C7_7 
REMARK    4  A    between atoms: C7_7  and  C9_9 
REMARK    5  A    between atoms: C12_12  and  C13_13 
REMARK    6  A    between atoms: C13_13  and  O2_15 
ROOT
HETATM    1  C9  UNL     1      -0.943  49.564 -16.520  1.00  0.00    -0.001 C 
HETATM    2  C10 UNL     1      -2.175  50.289 -15.923  1.00  0.00     0.007 C 
HETATM    3  C11 UNL     1      -3.021  50.772 -17.124  1.00  0.00     0.026 C 
HETATM    4  C12 UNL     1      -2.436  50.024 -18.346  1.00  0.00     0.076 C 
HETATM    5  C14 UNL     1      -2.663  50.564 -19.750  1.00  0.00    -0.057 C 
HETATM    6  C15 UNL     1      -1.766  50.334 -20.740  1.00  0.00    -0.067 C 
HETATM    7  C16 UNL     1      -0.482  49.525 -20.449  1.00  0.00     0.036 C 
HETATM    8  C17 UNL     1      -0.122  49.205 -18.979  1.00  0.00     0.015 C 
HETATM    9  C18 UNL     1      -0.907  50.071 -17.991  1.00  0.00    -0.018 C 
HETATM   10  C19 UNL     1      -0.296  51.505 -18.076  1.00  0.00     0.017 C 
HETATM   11  C20 UNL     1      -1.936  50.923 -22.178  1.00  0.00    -0.015 C 
HETATM   12  C21 UNL     1      -0.847  52.024 -22.320  1.00  0.00     0.020 C 
HETATM   13  C22 UNL     1      -1.664  49.836 -23.259  1.00  0.00     0.021 C 
HETATM   14  C23 UNL     1      -2.919  49.091 -23.670  1.00  0.00     0.080 C 
HETATM   15  C24 UNL     1      -3.875  50.033 -24.364  1.00  0.00     0.135 C 
HETATM   16  O3  UNL     1      -4.607  49.617 -25.266  1.00  0.00    -0.297 OA
HETATM   17  C25 UNL     1      -3.901  51.499 -23.909  1.00  0.00     0.018 C 
HETATM   18  C26 UNL     1      -3.075  52.331 -24.910  1.00  0.00     0.023 C 
HETATM   19  C27 UNL     1      -5.357  52.012 -24.026  1.00  0.00     0.023 C 
HETATM   20  C28 UNL     1      -3.352  51.621 -22.433  1.00  0.00     0.013 C 
HETATM   21  C29 UNL     1      -4.415  51.164 -21.411  1.00  0.00     0.011 C 
HETATM   22  C30 UNL     1      -3.938  51.312 -19.981  1.00  0.00     0.036 C 
ENDROOT
BRANCH   1  23
HETATM   23  C7  UNL     1       0.365  49.599 -15.677  1.00  0.00    -0.014 C 
HETATM   24  C8  UNL     1       0.742  48.148 -15.321  1.00  0.00     0.010 C 
BRANCH  23  25
HETATM   25  C6  UNL     1       0.301  50.452 -14.386  1.00  0.00     0.008 C 
BRANCH  25  26
HETATM   26  C5  UNL     1       0.977  51.831 -14.494  1.00  0.00     0.028 C 
BRANCH  26  27
HETATM   27  C4  UNL     1       2.449  51.772 -14.788  1.00  0.00    -0.025 C 
HETATM   28  C2  UNL     1       3.108  52.249 -15.863  1.00  0.00    -0.091 C 
HETATM   29  C1  UNL     1       2.479  52.951 -17.035  1.00  0.00     0.042 C 
HETATM   30  C3  UNL     1       4.604  52.091 -15.972  1.00  0.00     0.042 C 
ENDBRANCH  26  27
ENDBRANCH  25  26
ENDBRANCH  23  25
ENDBRANCH   1  23
BRANCH   4  31
HETATM   31  C13 UNL     1      -3.067  48.598 -18.395  1.00  0.00     0.153 C 
HETATM   32  O1  UNL     1      -3.972  48.150 -17.707  1.00  0.00    -0.649 OA
BRANCH  31  33
HETATM   33  O2  UNL     1      -2.462  47.760 -19.267  1.00  0.00    -0.776 OA
HETATM   34  H21 UNL     1      -2.933  46.913 -19.128  1.00  0.00     0.167 HD
ENDBRANCH  31  33
ENDBRANCH   4  31
TORSDOF 6
ENDMDL
