MODEL 1
REMARK minimizedAffinity -6.56493378
REMARK CNNscore 0.615463495
REMARK CNNaffinity 6.92808485
REMARK  18 active torsions:
REMARK  status: ('A' for Active; 'I' for Inactive)
REMARK    1  A    between atoms: C2_2  and  C3_3 
REMARK    2  A    between atoms: C2_2  and  C27_33 
REMARK    3  A    between atoms: C4_4  and  C5_5 
REMARK    4  A    between atoms: C6_6  and  C7_7 
REMARK    5  A    between atoms: C6_6  and  C10_12 
REMARK    6  A    between atoms: C7_7  and  O1_8 
REMARK    7  A    between atoms: O1_8  and  C8_9 
REMARK    8  A    between atoms: C8_9  and  C9_10 
REMARK    9  A    between atoms: C9_10  and  O2_11 
REMARK   10  A    between atoms: C14_16  and  O3_17 
REMARK   11  A    between atoms: C15_18  and  C16_19 
REMARK   12  A    between atoms: C16_19  and  C17_20 
REMARK   13  A    between atoms: C17_20  and  C18_21 
REMARK   14  A    between atoms: C18_21  and  O4_22 
REMARK   15  A    between atoms: C20_24  and  C22_26 
REMARK   16  A    between atoms: C25_30  and  O6_32 
REMARK   17  A    between atoms: C27_33  and  C28_34 
REMARK   18  A    between atoms: C28_34  and  C29_35 
ROOT
HETATM    1  C10 UNL     1       0.984  52.827 -11.788  1.00  0.00     0.046 C 
HETATM    2  C11 UNL     1       2.402  52.247 -11.878  1.00  0.00     0.013 C 
HETATM    3  C12 UNL     1       3.165  53.086 -10.861  1.00  0.00     0.017 C 
HETATM    4  C13 UNL     1       2.238  53.154  -9.608  1.00  0.00     0.024 C 
HETATM    5  C14 UNL     1       0.846  53.338 -10.314  1.00  0.00     0.138 C 
HETATM    6  C15 UNL     1       2.577  54.393  -8.667  1.00  0.00     0.029 C 
HETATM    7  C19 UNL     1       1.639  54.347  -7.442  1.00  0.00    -0.066 C 
HETATM    8  C20 UNL     1       0.566  55.117  -7.134  1.00  0.00    -0.021 C 
HETATM    9  C21 UNL     1      -0.319  54.939  -5.931  1.00  0.00     0.052 C 
HETATM   10  C23 UNL     1       1.990  53.154  -6.577  1.00  0.00     0.038 C 
HETATM   11  C24 UNL     1       1.634  51.898  -7.360  1.00  0.00     0.042 C 
HETATM   12  C25 UNL     1       2.348  51.806  -8.734  1.00  0.00     0.065 C 
HETATM   13  C26 UNL     1       3.812  51.379  -8.469  1.00  0.00     0.047 C 
ENDROOT
BRANCH   1  14
HETATM   14  C6  UNL     1      -0.189  52.043 -12.368  1.00  0.00    -0.050 C 
HETATM   15  C5  UNL     1      -0.168  51.475 -13.595  1.00  0.00     0.005 C 
BRANCH  15  16
HETATM   16  C4  UNL     1       0.952  51.454 -14.517  1.00  0.00     0.001 C 
HETATM   17  C3  UNL     1       1.158  52.403 -15.446  1.00  0.00     0.006 C 
BRANCH  17  18
HETATM   18  C2  UNL     1       2.228  52.420 -16.437  1.00  0.00    -0.067 C 
HETATM   19  C1  UNL     1       3.496  52.600 -16.035  1.00  0.00     0.019 C 
BRANCH  18  20
HETATM   20  C27 UNL     1       1.919  52.295 -17.921  1.00  0.00     0.041 C 
BRANCH  20  21
HETATM   21  C28 UNL     1       0.507  52.765 -18.311  1.00  0.00     0.032 C 
BRANCH  21  22
HETATM   22  C29 UNL     1       0.109  52.299 -19.685  1.00  0.00    -0.024 C 
HETATM   23  C30 UNL     1       0.419  52.859 -20.869  1.00  0.00    -0.091 C 
HETATM   24  C31 UNL     1       1.224  54.116 -21.049  1.00  0.00     0.042 C 
HETATM   25  C32 UNL     1      -0.049  52.231 -22.158  1.00  0.00     0.042 C 
ENDBRANCH  21  22
ENDBRANCH  20  21
ENDBRANCH  18  20
ENDBRANCH  17  18
ENDBRANCH  15  16
BRANCH  14  26
HETATM   26  C7  UNL     1      -1.441  51.930 -11.524  1.00  0.00     0.202 C 
BRANCH  26  27
HETATM   27  O1  UNL     1      -2.490  51.351 -12.294  1.00  0.00    -0.385 OA
BRANCH  27  28
HETATM   28  C8  UNL     1      -3.807  51.783 -11.952  1.00  0.00     0.194 C 
BRANCH  28  29
HETATM   29  C9  UNL     1      -3.944  53.307 -11.940  1.00  0.00     0.190 C 
BRANCH  29  30
HETATM   30  O2  UNL     1      -4.266  53.786 -13.243  1.00  0.00    -0.399 OA
HETATM   31  H12 UNL     1      -3.946  54.702 -13.305  1.00  0.00     0.209 HD
ENDBRANCH  29  30
ENDBRANCH  28  29
ENDBRANCH  27  28
ENDBRANCH  26  27
ENDBRANCH  14  26
ENDBRANCH   1  14
BRANCH   5  32
HETATM   32  O3  UNL     1      -0.245  52.803  -9.580  1.00  0.00    -0.394 OA
HETATM   33  H19 UNL     1      -1.027  52.817 -10.159  1.00  0.00     0.210 HD
ENDBRANCH   5  32
BRANCH   6  34
HETATM   34  C16 UNL     1       2.749  55.771  -9.365  1.00  0.00     0.012 C 
BRANCH  34  35
HETATM   35  C17 UNL     1       3.863  56.633  -8.742  1.00  0.00     0.027 C 
BRANCH  35  36
HETATM   36  C18 UNL     1       5.152  55.848  -8.525  1.00  0.00     0.164 C 
BRANCH  36  37
HETATM   37  O4  UNL     1       5.650  55.337  -9.756  1.00  0.00    -0.401 OA
HETATM   38  H27 UNL     1       6.046  56.082 -10.239  1.00  0.00     0.209 HD
ENDBRANCH  36  37
ENDBRANCH  35  36
ENDBRANCH  34  35
ENDBRANCH   6  34
BRANCH  12  39
HETATM   39  O6  UNL     1       1.765  50.699  -9.435  1.00  0.00    -0.389 OA
HETATM   40  H39 UNL     1       1.715  49.943  -8.826  1.00  0.00     0.210 HD
ENDBRANCH  12  39
BRANCH   8  41
HETATM   41  C22 UNL     1       0.032  56.148  -8.055  1.00  0.00     0.265 C 
HETATM   42  O5  UNL     1      -0.545  57.155  -7.667  1.00  0.00    -0.302 OA
ENDBRANCH   8  41
TORSDOF 18
ENDMDL
MODEL 2
REMARK minimizedAffinity -7.29537582
REMARK CNNscore 0.507646859
REMARK CNNaffinity 6.35802031
REMARK  18 active torsions:
REMARK  status: ('A' for Active; 'I' for Inactive)
REMARK    1  A    between atoms: C2_2  and  C3_3 
REMARK    2  A    between atoms: C2_2  and  C27_33 
REMARK    3  A    between atoms: C4_4  and  C5_5 
REMARK    4  A    between atoms: C6_6  and  C7_7 
REMARK    5  A    between atoms: C6_6  and  C10_12 
REMARK    6  A    between atoms: C7_7  and  O1_8 
REMARK    7  A    between atoms: O1_8  and  C8_9 
REMARK    8  A    between atoms: C8_9  and  C9_10 
REMARK    9  A    between atoms: C9_10  and  O2_11 
REMARK   10  A    between atoms: C14_16  and  O3_17 
REMARK   11  A    between atoms: C15_18  and  C16_19 
REMARK   12  A    between atoms: C16_19  and  C17_20 
REMARK   13  A    between atoms: C17_20  and  C18_21 
REMARK   14  A    between atoms: C18_21  and  O4_22 
REMARK   15  A    between atoms: C20_24  and  C22_26 
REMARK   16  A    between atoms: C25_30  and  O6_32 
REMARK   17  A    between atoms: C27_33  and  C28_34 
REMARK   18  A    between atoms: C28_34  and  C29_35 
ROOT
HETATM    1  C10 UNL     1      -6.600  47.148 -27.356  1.00  0.00     0.046 C 
HETATM    2  C11 UNL     1      -5.884  48.142 -28.280  1.00  0.00     0.013 C 
HETATM    3  C12 UNL     1      -6.091  47.519 -29.655  1.00  0.00     0.017 C 
HETATM    4  C13 UNL     1      -7.590  47.091 -29.691  1.00  0.00     0.024 C 
HETATM    5  C14 UNL     1      -7.743  46.529 -28.230  1.00  0.00     0.138 C 
HETATM    6  C15 UNL     1      -7.875  45.961 -30.776  1.00  0.00     0.029 C 
HETATM    7  C19 UNL     1      -9.385  45.639 -30.762  1.00  0.00    -0.066 C 
HETATM    8  C20 UNL     1     -10.043  44.559 -30.275  1.00  0.00    -0.021 C 
HETATM    9  C21 UNL     1     -11.536  44.380 -30.261  1.00  0.00     0.052 C 
HETATM   10  C23 UNL     1     -10.163  46.827 -31.290  1.00  0.00     0.038 C 
HETATM   11  C24 UNL     1     -10.018  47.958 -30.281  1.00  0.00     0.042 C 
HETATM   12  C25 UNL     1      -8.543  48.350 -30.003  1.00  0.00     0.065 C 
HETATM   13  C26 UNL     1      -8.053  49.191 -31.206  1.00  0.00     0.047 C 
ENDROOT
BRANCH   1  14
HETATM   14  C6  UNL     1      -6.958  47.564 -25.932  1.00  0.00    -0.050 C 
HETATM   15  C5  UNL     1      -6.066  48.104 -25.070  1.00  0.00     0.005 C 
BRANCH  15  16
HETATM   16  C4  UNL     1      -4.681  48.430 -25.355  1.00  0.00     0.001 C 
HETATM   17  C3  UNL     1      -3.992  49.365 -24.679  1.00  0.00     0.006 C 
BRANCH  17  18
HETATM   18  C2  UNL     1      -2.619  49.783 -24.943  1.00  0.00    -0.067 C 
HETATM   19  C1  UNL     1      -1.881  50.292 -23.943  1.00  0.00     0.019 C 
BRANCH  18  20
HETATM   20  C27 UNL     1      -2.036  49.703 -26.345  1.00  0.00     0.041 C 
BRANCH  20  21
HETATM   21  C28 UNL     1      -1.391  51.013 -26.833  1.00  0.00     0.032 C 
BRANCH  21  22
HETATM   22  C29 UNL     1       0.105  50.906 -26.941  1.00  0.00    -0.024 C 
HETATM   23  C30 UNL     1       1.036  51.560 -26.220  1.00  0.00    -0.091 C 
HETATM   24  C31 UNL     1       0.745  52.577 -25.152  1.00  0.00     0.042 C 
HETATM   25  C32 UNL     1       2.503  51.302 -26.451  1.00  0.00     0.042 C 
ENDBRANCH  21  22
ENDBRANCH  20  21
ENDBRANCH  18  20
ENDBRANCH  17  18
ENDBRANCH  15  16
BRANCH  14  26
HETATM   26  C7  UNL     1      -8.381  47.329 -25.471  1.00  0.00     0.202 C 
BRANCH  26  27
HETATM   27  O1  UNL     1      -8.394  46.358 -24.430  1.00  0.00    -0.385 OA
BRANCH  27  28
HETATM   28  C8  UNL     1      -8.489  45.000 -24.864  1.00  0.00     0.194 C 
BRANCH  28  29
HETATM   29  C9  UNL     1      -9.926  44.478 -24.854  1.00  0.00     0.190 C 
BRANCH  29  30
HETATM   30  O2  UNL     1     -10.512  44.616 -26.146  1.00  0.00    -0.399 OA
HETATM   31  H12 UNL     1     -11.475  44.682 -26.024  1.00  0.00     0.209 HD
ENDBRANCH  29  30
ENDBRANCH  28  29
ENDBRANCH  27  28
ENDBRANCH  26  27
ENDBRANCH  14  26
ENDBRANCH   1  14
BRANCH   5  32
HETATM   32  O3  UNL     1      -9.054  46.654 -27.701  1.00  0.00    -0.394 OA
HETATM   33  H19 UNL     1      -9.014  46.435 -26.754  1.00  0.00     0.210 HD
ENDBRANCH   5  32
BRANCH   6  34
HETATM   34  C16 UNL     1      -6.902  44.750 -30.793  1.00  0.00     0.012 C 
BRANCH  34  35
HETATM   35  C17 UNL     1      -5.986  44.723 -32.031  1.00  0.00     0.027 C 
BRANCH  35  36
HETATM   36  C18 UNL     1      -5.561  43.307 -32.408  1.00  0.00     0.164 C 
BRANCH  36  37
HETATM   37  O4  UNL     1      -6.163  42.349 -31.546  1.00  0.00    -0.401 OA
HETATM   38  H27 UNL     1      -7.094  42.265 -31.812  1.00  0.00     0.209 HD
ENDBRANCH  36  37
ENDBRANCH  35  36
ENDBRANCH  34  35
ENDBRANCH   6  34
BRANCH  12  39
HETATM   39  O6  UNL     1      -8.555  49.264 -28.898  1.00  0.00    -0.389 OA
HETATM   40  H39 UNL     1      -9.246  49.928 -29.056  1.00  0.00     0.210 HD
ENDBRANCH  12  39
BRANCH   8  41
HETATM   41  C22 UNL     1      -9.357  43.472 -29.537  1.00  0.00     0.265 C 
HETATM   42  O5  UNL     1      -9.166  43.503 -28.328  1.00  0.00    -0.302 OA
ENDBRANCH   8  41
TORSDOF 18
ENDMDL
MODEL 3
REMARK minimizedAffinity -7.35332632
REMARK CNNscore 0.44492659
REMARK CNNaffinity 6.18850327
REMARK  18 active torsions:
REMARK  status: ('A' for Active; 'I' for Inactive)
REMARK    1  A    between atoms: C2_2  and  C3_3 
REMARK    2  A    between atoms: C2_2  and  C27_33 
REMARK    3  A    between atoms: C4_4  and  C5_5 
REMARK    4  A    between atoms: C6_6  and  C7_7 
REMARK    5  A    between atoms: C6_6  and  C10_12 
REMARK    6  A    between atoms: C7_7  and  O1_8 
REMARK    7  A    between atoms: O1_8  and  C8_9 
REMARK    8  A    between atoms: C8_9  and  C9_10 
REMARK    9  A    between atoms: C9_10  and  O2_11 
REMARK   10  A    between atoms: C14_16  and  O3_17 
REMARK   11  A    between atoms: C15_18  and  C16_19 
REMARK   12  A    between atoms: C16_19  and  C17_20 
REMARK   13  A    between atoms: C17_20  and  C18_21 
REMARK   14  A    between atoms: C18_21  and  O4_22 
REMARK   15  A    between atoms: C20_24  and  C22_26 
REMARK   16  A    between atoms: C25_30  and  O6_32 
REMARK   17  A    between atoms: C27_33  and  C28_34 
REMARK   18  A    between atoms: C28_34  and  C29_35 
ROOT
HETATM    1  C10 UNL     1      -6.752  46.098 -29.449  1.00  0.00     0.046 C 
HETATM    2  C11 UNL     1      -6.839  44.793 -30.251  1.00  0.00     0.013 C 
HETATM    3  C12 UNL     1      -8.068  44.120 -29.652  1.00  0.00     0.017 C 
HETATM    4  C13 UNL     1      -9.140  45.247 -29.542  1.00  0.00     0.024 C 
HETATM    5  C14 UNL     1      -8.231  46.436 -29.059  1.00  0.00     0.138 C 
HETATM    6  C15 UNL     1     -10.269  44.911 -28.471  1.00  0.00     0.029 C 
HETATM    7  C19 UNL     1     -11.299  46.062 -28.469  1.00  0.00    -0.066 C 
HETATM    8  C20 UNL     1     -11.507  47.046 -27.559  1.00  0.00    -0.021 C 
HETATM    9  C21 UNL     1     -12.508  48.160 -27.694  1.00  0.00     0.052 C 
HETATM   10  C23 UNL     1     -12.059  46.066 -29.779  1.00  0.00     0.038 C 
HETATM   11  C24 UNL     1     -11.079  46.452 -30.879  1.00  0.00     0.042 C 
HETATM   12  C25 UNL     1      -9.848  45.511 -30.964  1.00  0.00     0.065 C 
HETATM   13  C26 UNL     1     -10.309  44.206 -31.657  1.00  0.00     0.047 C 
ENDROOT
BRANCH   1  14
HETATM   14  C6  UNL     1      -5.886  47.244 -29.963  1.00  0.00    -0.050 C 
HETATM   15  C5  UNL     1      -5.257  48.122 -29.150  1.00  0.00     0.005 C 
BRANCH  15  16
HETATM   16  C4  UNL     1      -5.240  48.094 -27.699  1.00  0.00     0.001 C 
HETATM   17  C3  UNL     1      -4.216  48.565 -26.966  1.00  0.00     0.006 C 
BRANCH  17  18
HETATM   18  C2  UNL     1      -4.106  48.521 -25.512  1.00  0.00    -0.067 C 
HETATM   19  C1  UNL     1      -5.199  48.257 -24.777  1.00  0.00     0.019 C 
BRANCH  18  20
HETATM   20  C27 UNL     1      -2.788  48.826 -24.820  1.00  0.00     0.041 C 
BRANCH  20  21
HETATM   21  C28 UNL     1      -2.795  48.555 -23.305  1.00  0.00     0.032 C 
BRANCH  21  22
HETATM   22  C29 UNL     1      -1.914  49.512 -22.550  1.00  0.00    -0.024 C 
HETATM   23  C30 UNL     1      -1.141  49.255 -21.478  1.00  0.00    -0.091 C 
HETATM   24  C31 UNL     1      -1.030  47.922 -20.791  1.00  0.00     0.042 C 
HETATM   25  C32 UNL     1      -0.297  50.343 -20.865  1.00  0.00     0.042 C 
ENDBRANCH  21  22
ENDBRANCH  20  21
ENDBRANCH  18  20
ENDBRANCH  17  18
ENDBRANCH  15  16
BRANCH  14  26
HETATM   26  C7  UNL     1      -5.759  47.406 -31.464  1.00  0.00     0.202 C 
BRANCH  26  27
HETATM   27  O1  UNL     1      -4.422  47.126 -31.865  1.00  0.00    -0.385 OA
BRANCH  27  28
HETATM   28  C8  UNL     1      -4.232  46.951 -33.270  1.00  0.00     0.194 C 
BRANCH  28  29
HETATM   29  C9  UNL     1      -4.550  48.215 -34.070  1.00  0.00     0.190 C 
BRANCH  29  30
HETATM   30  O2  UNL     1      -5.703  48.010 -34.882  1.00  0.00    -0.399 OA
HETATM   31  H12 UNL     1      -5.637  48.615 -35.641  1.00  0.00     0.209 HD
ENDBRANCH  29  30
ENDBRANCH  28  29
ENDBRANCH  27  28
ENDBRANCH  26  27
ENDBRANCH  14  26
ENDBRANCH   1  14
BRANCH   5  32
HETATM   32  O3  UNL     1      -8.694  47.715 -29.466  1.00  0.00    -0.394 OA
HETATM   33  H19 UNL     1      -7.995  48.361 -29.265  1.00  0.00     0.210 HD
ENDBRANCH   5  32
BRANCH   6  34
HETATM   34  C16 UNL     1      -9.785  44.404 -27.085  1.00  0.00     0.012 C 
BRANCH  34  35
HETATM   35  C17 UNL     1     -10.678  43.295 -26.498  1.00  0.00     0.027 C 
BRANCH  35  36
HETATM   36  C18 UNL     1      -9.868  42.120 -25.961  1.00  0.00     0.164 C 
BRANCH  36  37
HETATM   37  O4  UNL     1     -10.327  40.891 -26.514  1.00  0.00    -0.401 OA
HETATM   38  H27 UNL     1     -10.004  40.848 -27.430  1.00  0.00     0.209 HD
ENDBRANCH  36  37
ENDBRANCH  35  36
ENDBRANCH  34  35
ENDBRANCH   6  34
BRANCH  12  39
HETATM   39  O6  UNL     1      -8.927  46.110 -31.886  1.00  0.00    -0.389 OA
HETATM   40  H39 UNL     1      -9.421  46.389 -32.675  1.00  0.00     0.210 HD
ENDBRANCH  12  39
BRANCH   8  41
HETATM   41  C22 UNL     1     -10.640  47.232 -26.372  1.00  0.00     0.265 C 
HETATM   42  O5  UNL     1     -10.478  48.316 -25.828  1.00  0.00    -0.302 OA
ENDBRANCH   8  41
TORSDOF 18
ENDMDL
MODEL 4
REMARK minimizedAffinity -7.14819717
REMARK CNNscore 0.42613104
REMARK CNNaffinity 6.77534723
REMARK  18 active torsions:
REMARK  status: ('A' for Active; 'I' for Inactive)
REMARK    1  A    between atoms: C2_2  and  C3_3 
REMARK    2  A    between atoms: C2_2  and  C27_33 
REMARK    3  A    between atoms: C4_4  and  C5_5 
REMARK    4  A    between atoms: C6_6  and  C7_7 
REMARK    5  A    between atoms: C6_6  and  C10_12 
REMARK    6  A    between atoms: C7_7  and  O1_8 
REMARK    7  A    between atoms: O1_8  and  C8_9 
REMARK    8  A    between atoms: C8_9  and  C9_10 
REMARK    9  A    between atoms: C9_10  and  O2_11 
REMARK   10  A    between atoms: C14_16  and  O3_17 
REMARK   11  A    between atoms: C15_18  and  C16_19 
REMARK   12  A    between atoms: C16_19  and  C17_20 
REMARK   13  A    between atoms: C17_20  and  C18_21 
REMARK   14  A    between atoms: C18_21  and  O4_22 
REMARK   15  A    between atoms: C20_24  and  C22_26 
REMARK   16  A    between atoms: C25_30  and  O6_32 
REMARK   17  A    between atoms: C27_33  and  C28_34 
REMARK   18  A    between atoms: C28_34  and  C29_35 
ROOT
HETATM    1  C10 UNL     1      -3.981  50.694 -22.659  1.00  0.00     0.046 C 
HETATM    2  C11 UNL     1      -3.591  51.441 -21.377  1.00  0.00     0.013 C 
HETATM    3  C12 UNL     1      -4.467  50.770 -20.326  1.00  0.00     0.017 C 
HETATM    4  C13 UNL     1      -4.354  49.241 -20.613  1.00  0.00     0.024 C 
HETATM    5  C14 UNL     1      -4.396  49.259 -22.185  1.00  0.00     0.138 C 
HETATM    6  C15 UNL     1      -5.576  48.416 -20.013  1.00  0.00     0.029 C 
HETATM    7  C19 UNL     1      -5.349  46.918 -20.312  1.00  0.00    -0.066 C 
HETATM    8  C20 UNL     1      -5.960  46.105 -21.208  1.00  0.00    -0.021 C 
HETATM    9  C21 UNL     1      -5.610  44.664 -21.457  1.00  0.00     0.052 C 
HETATM   10  C23 UNL     1      -4.167  46.413 -19.510  1.00  0.00     0.038 C 
HETATM   11  C24 UNL     1      -2.918  47.090 -20.055  1.00  0.00     0.042 C 
HETATM   12  C25 UNL     1      -2.987  48.640 -20.009  1.00  0.00     0.065 C 
HETATM   13  C26 UNL     1      -2.736  49.072 -18.545  1.00  0.00     0.047 C 
ENDROOT
BRANCH   1  14
HETATM   14  C6  UNL     1      -3.086  50.791 -23.890  1.00  0.00    -0.050 C 
HETATM   15  C5  UNL     1      -1.765  51.076 -23.828  1.00  0.00     0.005 C 
BRANCH  15  16
HETATM   16  C4  UNL     1      -0.982  51.269 -22.622  1.00  0.00     0.001 C 
HETATM   17  C3  UNL     1      -0.364  52.424 -22.324  1.00  0.00     0.006 C 
BRANCH  17  18
HETATM   18  C2  UNL     1       0.482  52.674 -21.162  1.00  0.00    -0.067 C 
HETATM   19  C1  UNL     1       1.436  53.617 -21.232  1.00  0.00     0.019 C 
BRANCH  18  20
HETATM   20  C27 UNL     1       0.336  51.842 -19.897  1.00  0.00     0.041 C 
BRANCH  20  21
HETATM   21  C28 UNL     1       0.320  52.669 -18.600  1.00  0.00     0.032 C 
BRANCH  21  22
HETATM   22  C29 UNL     1       1.675  52.735 -17.949  1.00  0.00    -0.024 C 
HETATM   23  C30 UNL     1       1.996  52.436 -16.676  1.00  0.00    -0.091 C 
HETATM   24  C31 UNL     1       1.023  51.992 -15.619  1.00  0.00     0.042 C 
HETATM   25  C32 UNL     1       3.424  52.536 -16.204  1.00  0.00     0.042 C 
ENDBRANCH  21  22
ENDBRANCH  20  21
ENDBRANCH  18  20
ENDBRANCH  17  18
ENDBRANCH  15  16
BRANCH  14  26
HETATM   26  C7  UNL     1      -3.732  50.580 -25.244  1.00  0.00     0.202 C 
BRANCH  26  27
HETATM   27  O1  UNL     1      -3.904  49.187 -25.483  1.00  0.00    -0.385 OA
BRANCH  27  28
HETATM   28  C8  UNL     1      -3.201  48.671 -26.614  1.00  0.00     0.194 C 
BRANCH  28  29
HETATM   29  C9  UNL     1      -4.120  48.402 -27.806  1.00  0.00     0.190 C 
BRANCH  29  30
HETATM   30  O2  UNL     1      -4.073  49.491 -28.724  1.00  0.00    -0.399 OA
HETATM   31  H12 UNL     1      -4.915  49.501 -29.210  1.00  0.00     0.209 HD
ENDBRANCH  29  30
ENDBRANCH  28  29
ENDBRANCH  27  28
ENDBRANCH  26  27
ENDBRANCH  14  26
ENDBRANCH   1  14
BRANCH   5  32
HETATM   32  O3  UNL     1      -3.690  48.187 -22.791  1.00  0.00    -0.394 OA
HETATM   33  H19 UNL     1      -3.634  48.370 -23.745  1.00  0.00     0.210 HD
ENDBRANCH   5  32
BRANCH   6  34
HETATM   34  C16 UNL     1      -6.998  48.977 -20.291  1.00  0.00     0.012 C 
BRANCH  34  35
HETATM   35  C17 UNL     1      -7.830  49.186 -19.011  1.00  0.00     0.027 C 
BRANCH  35  36
HETATM   36  C18 UNL     1      -8.084  47.880 -18.264  1.00  0.00     0.164 C 
BRANCH  36  37
HETATM   37  O4  UNL     1      -8.128  48.099 -16.859  1.00  0.00    -0.401 OA
HETATM   38  H27 UNL     1      -8.982  48.517 -16.658  1.00  0.00     0.209 HD
ENDBRANCH  36  37
ENDBRANCH  35  36
ENDBRANCH  34  35
ENDBRANCH   6  34
BRANCH  12  39
HETATM   39  O6  UNL     1      -1.853  49.131 -20.735  1.00  0.00    -0.389 OA
HETATM   40  H39 UNL     1      -1.066  48.639 -20.445  1.00  0.00     0.210 HD
ENDBRANCH  12  39
BRANCH   8  41
HETATM   41  C22 UNL     1      -6.961  46.599 -22.183  1.00  0.00     0.265 C 
HETATM   42  O5  UNL     1      -8.107  46.172 -22.237  1.00  0.00    -0.302 OA
ENDBRANCH   8  41
TORSDOF 18
ENDMDL
MODEL 5
REMARK minimizedAffinity -7.88157225
REMARK CNNscore 0.420796037
REMARK CNNaffinity 6.14053869
REMARK  18 active torsions:
REMARK  status: ('A' for Active; 'I' for Inactive)
REMARK    1  A    between atoms: C2_2  and  C3_3 
REMARK    2  A    between atoms: C2_2  and  C27_33 
REMARK    3  A    between atoms: C4_4  and  C5_5 
REMARK    4  A    between atoms: C6_6  and  C7_7 
REMARK    5  A    between atoms: C6_6  and  C10_12 
REMARK    6  A    between atoms: C7_7  and  O1_8 
REMARK    7  A    between atoms: O1_8  and  C8_9 
REMARK    8  A    between atoms: C8_9  and  C9_10 
REMARK    9  A    between atoms: C9_10  and  O2_11 
REMARK   10  A    between atoms: C14_16  and  O3_17 
REMARK   11  A    between atoms: C15_18  and  C16_19 
REMARK   12  A    between atoms: C16_19  and  C17_20 
REMARK   13  A    between atoms: C17_20  and  C18_21 
REMARK   14  A    between atoms: C18_21  and  O4_22 
REMARK   15  A    between atoms: C20_24  and  C22_26 
REMARK   16  A    between atoms: C25_30  and  O6_32 
REMARK   17  A    between atoms: C27_33  and  C28_34 
REMARK   18  A    between atoms: C28_34  and  C29_35 
ROOT
HETATM    1  C10 UNL     1      -6.929  46.094 -29.144  1.00  0.00     0.046 C 
HETATM    2  C11 UNL     1      -6.987  44.643 -29.639  1.00  0.00     0.013 C 
HETATM    3  C12 UNL     1      -8.171  44.079 -28.863  1.00  0.00     0.017 C 
HETATM    4  C13 UNL     1      -9.283  45.168 -28.963  1.00  0.00     0.024 C 
HETATM    5  C14 UNL     1      -8.408  46.462 -28.784  1.00  0.00     0.138 C 
HETATM    6  C15 UNL     1     -10.368  45.039 -27.804  1.00  0.00     0.029 C 
HETATM    7  C19 UNL     1     -11.441  46.129 -28.016  1.00  0.00    -0.066 C 
HETATM    8  C20 UNL     1     -11.662  47.281 -27.336  1.00  0.00    -0.021 C 
HETATM    9  C21 UNL     1     -12.709  48.306 -27.674  1.00  0.00     0.052 C 
HETATM   10  C23 UNL     1     -12.238  45.822 -29.267  1.00  0.00     0.038 C 
HETATM   11  C24 UNL     1     -11.305  45.987 -30.459  1.00  0.00     0.042 C 
HETATM   12  C25 UNL     1     -10.041  45.091 -30.382  1.00  0.00     0.065 C 
HETATM   13  C26 UNL     1     -10.470  43.652 -30.756  1.00  0.00     0.047 C 
ENDROOT
BRANCH   1  14
HETATM   14  C6  UNL     1      -6.123  47.126 -29.927  1.00  0.00    -0.050 C 
HETATM   15  C5  UNL     1      -5.320  48.043 -29.340  1.00  0.00     0.005 C 
BRANCH  15  16
HETATM   16  C4  UNL     1      -5.042  48.162 -27.921  1.00  0.00     0.001 C 
HETATM   17  C3  UNL     1      -3.904  48.687 -27.436  1.00  0.00     0.006 C 
BRANCH  17  18
HETATM   18  C2  UNL     1      -3.533  48.789 -26.029  1.00  0.00    -0.067 C 
HETATM   19  C1  UNL     1      -4.431  48.460 -25.086  1.00  0.00     0.019 C 
BRANCH  18  20
HETATM   20  C27 UNL     1      -2.168  49.316 -25.618  1.00  0.00     0.041 C 
BRANCH  20  21
HETATM   21  C28 UNL     1      -1.548  50.305 -26.621  1.00  0.00     0.032 C 
BRANCH  21  22
HETATM   22  C29 UNL     1      -0.104  50.596 -26.317  1.00  0.00    -0.024 C 
HETATM   23  C30 UNL     1       0.756  51.350 -27.028  1.00  0.00    -0.091 C 
HETATM   24  C31 UNL     1       0.432  52.045 -28.321  1.00  0.00     0.042 C 
HETATM   25  C32 UNL     1       2.171  51.553 -26.551  1.00  0.00     0.042 C 
ENDBRANCH  21  22
ENDBRANCH  20  21
ENDBRANCH  18  20
ENDBRANCH  17  18
ENDBRANCH  15  16
BRANCH  14  26
HETATM   26  C7  UNL     1      -6.264  47.126 -31.435  1.00  0.00     0.202 C 
BRANCH  26  27
HETATM   27  O1  UNL     1      -5.076  47.642 -32.028  1.00  0.00    -0.385 OA
BRANCH  27  28
HETATM   28  C8  UNL     1      -4.990  47.495 -33.446  1.00  0.00     0.194 C 
BRANCH  28  29
HETATM   29  C9  UNL     1      -3.834  48.294 -34.051  1.00  0.00     0.190 C 
BRANCH  29  30
HETATM   30  O2  UNL     1      -2.611  47.971 -33.396  1.00  0.00    -0.399 OA
HETATM   31  H12 UNL     1      -2.019  48.737 -33.487  1.00  0.00     0.209 HD
ENDBRANCH  29  30
ENDBRANCH  28  29
ENDBRANCH  27  28
ENDBRANCH  26  27
ENDBRANCH  14  26
ENDBRANCH   1  14
BRANCH   5  32
HETATM   32  O3  UNL     1      -8.932  47.605 -29.443  1.00  0.00    -0.394 OA
HETATM   33  H19 UNL     1      -8.253  48.301 -29.413  1.00  0.00     0.210 HD
ENDBRANCH   5  32
BRANCH   6  34
HETATM   34  C16 UNL     1      -9.825  44.864 -26.359  1.00  0.00     0.012 C 
BRANCH  34  35
HETATM   35  C17 UNL     1      -8.615  45.766 -26.051  1.00  0.00     0.027 C 
BRANCH  35  36
HETATM   36  C18 UNL     1      -8.038  45.509 -24.662  1.00  0.00     0.164 C 
BRANCH  36  37
HETATM   37  O4  UNL     1      -7.339  46.651 -24.183  1.00  0.00    -0.401 OA
HETATM   38  H27 UNL     1      -8.005  47.306 -23.913  1.00  0.00     0.209 HD
ENDBRANCH  36  37
ENDBRANCH  35  36
ENDBRANCH  34  35
ENDBRANCH   6  34
BRANCH  12  39
HETATM   39  O6  UNL     1      -9.171  45.502 -31.445  1.00  0.00    -0.389 OA
HETATM   40  H39 UNL     1      -9.698  45.585 -32.257  1.00  0.00     0.210 HD
ENDBRANCH  12  39
BRANCH   8  41
HETATM   41  C22 UNL     1     -10.770  47.750 -26.250  1.00  0.00     0.265 C 
HETATM   42  O5  UNL     1     -10.539  48.934 -26.041  1.00  0.00    -0.302 OA
ENDBRANCH   8  41
TORSDOF 18
ENDMDL
MODEL 6
REMARK minimizedAffinity -6.68598938
REMARK CNNscore 0.384966224
REMARK CNNaffinity 6.44196701
REMARK  18 active torsions:
REMARK  status: ('A' for Active; 'I' for Inactive)
REMARK    1  A    between atoms: C2_2  and  C3_3 
REMARK    2  A    between atoms: C2_2  and  C27_33 
REMARK    3  A    between atoms: C4_4  and  C5_5 
REMARK    4  A    between atoms: C6_6  and  C7_7 
REMARK    5  A    between atoms: C6_6  and  C10_12 
REMARK    6  A    between atoms: C7_7  and  O1_8 
REMARK    7  A    between atoms: O1_8  and  C8_9 
REMARK    8  A    between atoms: C8_9  and  C9_10 
REMARK    9  A    between atoms: C9_10  and  O2_11 
REMARK   10  A    between atoms: C14_16  and  O3_17 
REMARK   11  A    between atoms: C15_18  and  C16_19 
REMARK   12  A    between atoms: C16_19  and  C17_20 
REMARK   13  A    between atoms: C17_20  and  C18_21 
REMARK   14  A    between atoms: C18_21  and  O4_22 
REMARK   15  A    between atoms: C20_24  and  C22_26 
REMARK   16  A    between atoms: C25_30  and  O6_32 
REMARK   17  A    between atoms: C27_33  and  C28_34 
REMARK   18  A    between atoms: C28_34  and  C29_35 
ROOT
HETATM    1  C10 UNL     1      -7.567  47.532 -28.133  1.00  0.00     0.046 C 
HETATM    2  C11 UNL     1      -8.678  48.506 -28.548  1.00  0.00     0.013 C 
HETATM    3  C12 UNL     1      -8.559  48.513 -30.067  1.00  0.00     0.017 C 
HETATM    4  C13 UNL     1      -8.401  47.015 -30.473  1.00  0.00     0.024 C 
HETATM    5  C14 UNL     1      -7.439  46.527 -29.328  1.00  0.00     0.138 C 
HETATM    6  C15 UNL     1      -7.728  46.840 -31.905  1.00  0.00     0.029 C 
HETATM    7  C19 UNL     1      -7.656  45.332 -32.230  1.00  0.00    -0.066 C 
HETATM    8  C20 UNL     1      -6.592  44.491 -32.242  1.00  0.00    -0.021 C 
HETATM    9  C21 UNL     1      -6.652  43.014 -32.516  1.00  0.00     0.052 C 
HETATM   10  C23 UNL     1      -9.055  44.789 -32.439  1.00  0.00     0.038 C 
HETATM   11  C24 UNL     1      -9.774  44.843 -31.099  1.00  0.00     0.042 C 
HETATM   12  C25 UNL     1      -9.826  46.266 -30.484  1.00  0.00     0.065 C 
HETATM   13  C26 UNL     1     -10.916  47.060 -31.243  1.00  0.00     0.047 C 
ENDROOT
BRANCH   1  14
HETATM   14  C6  UNL     1      -7.566  46.946 -26.725  1.00  0.00    -0.050 C 
HETATM   15  C5  UNL     1      -6.719  47.354 -25.752  1.00  0.00     0.005 C 
BRANCH  15  16
HETATM   16  C4  UNL     1      -5.743  48.423 -25.851  1.00  0.00     0.001 C 
HETATM   17  C3  UNL     1      -4.469  48.223 -26.228  1.00  0.00     0.006 C 
BRANCH  17  18
HETATM   18  C2  UNL     1      -3.422  49.237 -26.298  1.00  0.00    -0.067 C 
HETATM   19  C1  UNL     1      -2.679  49.493 -25.209  1.00  0.00     0.019 C 
BRANCH  18  20
HETATM   20  C27 UNL     1      -3.202  50.045 -27.567  1.00  0.00     0.041 C 
BRANCH  20  21
HETATM   21  C28 UNL     1      -2.472  51.381 -27.343  1.00  0.00     0.032 C 
BRANCH  21  22
HETATM   22  C29 UNL     1      -1.033  51.324 -27.776  1.00  0.00    -0.024 C 
HETATM   23  C30 UNL     1      -0.003  52.063 -27.322  1.00  0.00    -0.091 C 
HETATM   24  C31 UNL     1      -0.104  53.143 -26.281  1.00  0.00     0.042 C 
HETATM   25  C32 UNL     1       1.389  51.846 -27.859  1.00  0.00     0.042 C 
ENDBRANCH  21  22
ENDBRANCH  20  21
ENDBRANCH  18  20
ENDBRANCH  17  18
ENDBRANCH  15  16
BRANCH  14  26
HETATM   26  C7  UNL     1      -8.551  45.835 -26.428  1.00  0.00     0.202 C 
BRANCH  26  27
HETATM   27  O1  UNL     1      -7.846  44.659 -26.043  1.00  0.00    -0.385 OA
BRANCH  27  28
HETATM   28  C8  UNL     1      -8.659  43.598 -25.539  1.00  0.00     0.194 C 
BRANCH  28  29
HETATM   29  C9  UNL     1      -7.934  42.743 -24.499  1.00  0.00     0.190 C 
BRANCH  29  30
HETATM   30  O2  UNL     1      -7.985  41.367 -24.867  1.00  0.00    -0.399 OA
HETATM   31  H12 UNL     1      -7.911  40.843 -24.051  1.00  0.00     0.209 HD
ENDBRANCH  29  30
ENDBRANCH  28  29
ENDBRANCH  27  28
ENDBRANCH  26  27
ENDBRANCH  14  26
ENDBRANCH   1  14
BRANCH   5  32
HETATM   32  O3  UNL     1      -7.594  45.156 -28.994  1.00  0.00    -0.394 OA
HETATM   33  H19 UNL     1      -7.084  44.990 -28.182  1.00  0.00     0.210 HD
ENDBRANCH   5  32
BRANCH   6  34
HETATM   34  C16 UNL     1      -6.448  47.676 -32.181  1.00  0.00     0.012 C 
BRANCH  34  35
HETATM   35  C17 UNL     1      -6.153  47.859 -33.681  1.00  0.00     0.027 C 
BRANCH  35  36
HETATM   36  C18 UNL     1      -4.660  47.983 -33.969  1.00  0.00     0.164 C 
BRANCH  36  37
HETATM   37  O4  UNL     1      -3.953  48.410 -32.810  1.00  0.00    -0.401 OA
HETATM   38  H27 UNL     1      -3.894  47.647 -32.210  1.00  0.00     0.209 HD
ENDBRANCH  36  37
ENDBRANCH  35  36
ENDBRANCH  34  35
ENDBRANCH   6  34
BRANCH  12  39
HETATM   39  O6  UNL     1     -10.336  46.128 -29.150  1.00  0.00    -0.389 OA
HETATM   40  H39 UNL     1     -11.115  45.547 -29.179  1.00  0.00     0.210 HD
ENDBRANCH  12  39
BRANCH   8  41
HETATM   41  C22 UNL     1      -5.236  44.913 -31.818  1.00  0.00     0.265 C 
HETATM   42  O5  UNL     1      -4.248  44.798 -32.531  1.00  0.00    -0.302 OA
ENDBRANCH   8  41
TORSDOF 18
ENDMDL
MODEL 7
REMARK minimizedAffinity -6.69896507
REMARK CNNscore 0.335036337
REMARK CNNaffinity 5.84203482
REMARK  18 active torsions:
REMARK  status: ('A' for Active; 'I' for Inactive)
REMARK    1  A    between atoms: C2_2  and  C3_3 
REMARK    2  A    between atoms: C2_2  and  C27_33 
REMARK    3  A    between atoms: C4_4  and  C5_5 
REMARK    4  A    between atoms: C6_6  and  C7_7 
REMARK    5  A    between atoms: C6_6  and  C10_12 
REMARK    6  A    between atoms: C7_7  and  O1_8 
REMARK    7  A    between atoms: O1_8  and  C8_9 
REMARK    8  A    between atoms: C8_9  and  C9_10 
REMARK    9  A    between atoms: C9_10  and  O2_11 
REMARK   10  A    between atoms: C14_16  and  O3_17 
REMARK   11  A    between atoms: C15_18  and  C16_19 
REMARK   12  A    between atoms: C16_19  and  C17_20 
REMARK   13  A    between atoms: C17_20  and  C18_21 
REMARK   14  A    between atoms: C18_21  and  O4_22 
REMARK   15  A    between atoms: C20_24  and  C22_26 
REMARK   16  A    between atoms: C25_30  and  O6_32 
REMARK   17  A    between atoms: C27_33  and  C28_34 
REMARK   18  A    between atoms: C28_34  and  C29_35 
ROOT
HETATM    1  C10 UNL     1      -7.140  45.553 -29.229  1.00  0.00     0.046 C 
HETATM    2  C11 UNL     1      -7.341  44.074 -29.586  1.00  0.00     0.013 C 
HETATM    3  C12 UNL     1      -8.514  43.678 -28.699  1.00  0.00     0.017 C 
HETATM    4  C13 UNL     1      -9.543  44.843 -28.835  1.00  0.00     0.024 C 
HETATM    5  C14 UNL     1      -8.561  46.071 -28.822  1.00  0.00     0.138 C 
HETATM    6  C15 UNL     1     -10.559  44.903 -27.611  1.00  0.00     0.029 C 
HETATM    7  C19 UNL     1     -11.556  46.056 -27.860  1.00  0.00    -0.066 C 
HETATM    8  C20 UNL     1     -11.644  47.276 -27.276  1.00  0.00    -0.021 C 
HETATM    9  C21 UNL     1     -12.628  48.351 -27.646  1.00  0.00     0.052 C 
HETATM   10  C23 UNL     1     -12.451  45.709 -29.032  1.00  0.00     0.038 C 
HETATM   11  C24 UNL     1     -11.585  45.695 -30.284  1.00  0.00     0.042 C 
HETATM   12  C25 UNL     1     -10.392  44.707 -30.196  1.00  0.00     0.065 C 
HETATM   13  C26 UNL     1     -10.953  43.282 -30.415  1.00  0.00     0.047 C 
ENDROOT
BRANCH   1  14
HETATM   14  C6  UNL     1      -6.308  46.444 -30.146  1.00  0.00    -0.050 C 
HETATM   15  C5  UNL     1      -5.615  47.520 -29.706  1.00  0.00     0.005 C 
BRANCH  15  16
HETATM   16  C4  UNL     1      -5.491  47.962 -28.330  1.00  0.00     0.001 C 
HETATM   17  C3  UNL     1      -4.308  48.137 -27.717  1.00  0.00     0.006 C 
BRANCH  17  18
HETATM   18  C2  UNL     1      -4.108  48.526 -26.325  1.00  0.00    -0.067 C 
HETATM   19  C1  UNL     1      -5.140  48.457 -25.468  1.00  0.00     0.019 C 
BRANCH  18  20
HETATM   20  C27 UNL     1      -2.767  49.061 -25.850  1.00  0.00     0.041 C 
BRANCH  20  21
HETATM   21  C28 UNL     1      -2.778  49.590 -24.404  1.00  0.00     0.032 C 
BRANCH  21  22
HETATM   22  C29 UNL     1      -2.686  48.482 -23.391  1.00  0.00    -0.024 C 
HETATM   23  C30 UNL     1      -2.047  48.496 -22.206  1.00  0.00    -0.091 C 
HETATM   24  C31 UNL     1      -1.252  49.652 -21.665  1.00  0.00     0.042 C 
HETATM   25  C32 UNL     1      -2.086  47.291 -21.302  1.00  0.00     0.042 C 
ENDBRANCH  21  22
ENDBRANCH  20  21
ENDBRANCH  18  20
ENDBRANCH  17  18
ENDBRANCH  15  16
BRANCH  14  26
HETATM   26  C7  UNL     1      -6.290  46.108 -31.622  1.00  0.00     0.202 C 
BRANCH  26  27
HETATM   27  O1  UNL     1      -5.139  45.325 -31.923  1.00  0.00    -0.385 OA
BRANCH  27  28
HETATM   28  C8  UNL     1      -5.407  44.018 -32.432  1.00  0.00     0.194 C 
BRANCH  28  29
HETATM   29  C9  UNL     1      -4.152  43.326 -32.968  1.00  0.00     0.190 C 
BRANCH  29  30
HETATM   30  O2  UNL     1      -3.968  42.067 -32.326  1.00  0.00    -0.399 OA
HETATM   31  H12 UNL     1      -3.018  41.860 -32.356  1.00  0.00     0.209 HD
ENDBRANCH  29  30
ENDBRANCH  28  29
ENDBRANCH  27  28
ENDBRANCH  26  27
ENDBRANCH  14  26
ENDBRANCH   1  14
BRANCH   5  32
HETATM   32  O3  UNL     1      -9.035  47.193 -29.551  1.00  0.00    -0.394 OA
HETATM   33  H19 UNL     1      -8.304  47.830 -29.622  1.00  0.00     0.210 HD
ENDBRANCH   5  32
BRANCH   6  34
HETATM   34  C16 UNL     1      -9.942  44.808 -26.188  1.00  0.00     0.012 C 
BRANCH  34  35
HETATM   35  C17 UNL     1     -10.686  43.822 -25.268  1.00  0.00     0.027 C 
BRANCH  35  36
HETATM   36  C18 UNL     1     -10.591  44.215 -23.797  1.00  0.00     0.164 C 
BRANCH  36  37
HETATM   37  O4  UNL     1     -10.013  45.507 -23.653  1.00  0.00    -0.401 OA
HETATM   38  H27 UNL     1     -10.691  46.157 -23.904  1.00  0.00     0.209 HD
ENDBRANCH  36  37
ENDBRANCH  35  36
ENDBRANCH  34  35
ENDBRANCH   6  34
BRANCH  12  39
HETATM   39  O6  UNL     1      -9.561  44.953 -31.339  1.00  0.00    -0.389 OA
HETATM   40  H39 UNL     1     -10.129  45.009 -32.125  1.00  0.00     0.210 HD
ENDBRANCH  12  39
BRANCH   8  41
HETATM   41  C22 UNL     1     -10.652  47.762 -26.288  1.00  0.00     0.265 C 
HETATM   42  O5  UNL     1     -10.909  47.904 -25.099  1.00  0.00    -0.302 OA
ENDBRANCH   8  41
TORSDOF 18
ENDMDL
MODEL 8
REMARK minimizedAffinity -7.67659855
REMARK CNNscore 0.307572812
REMARK CNNaffinity 6.08334398
REMARK  18 active torsions:
REMARK  status: ('A' for Active; 'I' for Inactive)
REMARK    1  A    between atoms: C2_2  and  C3_3 
REMARK    2  A    between atoms: C2_2  and  C27_33 
REMARK    3  A    between atoms: C4_4  and  C5_5 
REMARK    4  A    between atoms: C6_6  and  C7_7 
REMARK    5  A    between atoms: C6_6  and  C10_12 
REMARK    6  A    between atoms: C7_7  and  O1_8 
REMARK    7  A    between atoms: O1_8  and  C8_9 
REMARK    8  A    between atoms: C8_9  and  C9_10 
REMARK    9  A    between atoms: C9_10  and  O2_11 
REMARK   10  A    between atoms: C14_16  and  O3_17 
REMARK   11  A    between atoms: C15_18  and  C16_19 
REMARK   12  A    between atoms: C16_19  and  C17_20 
REMARK   13  A    between atoms: C17_20  and  C18_21 
REMARK   14  A    between atoms: C18_21  and  O4_22 
REMARK   15  A    between atoms: C20_24  and  C22_26 
REMARK   16  A    between atoms: C25_30  and  O6_32 
REMARK   17  A    between atoms: C27_33  and  C28_34 
REMARK   18  A    between atoms: C28_34  and  C29_35 
ROOT
HETATM    1  C10 UNL     1      -6.647  47.004 -27.559  1.00  0.00     0.046 C 
HETATM    2  C11 UNL     1      -5.896  48.048 -28.395  1.00  0.00     0.013 C 
HETATM    3  C12 UNL     1      -5.994  47.474 -29.803  1.00  0.00     0.017 C 
HETATM    4  C13 UNL     1      -7.476  47.014 -29.956  1.00  0.00     0.024 C 
HETATM    5  C14 UNL     1      -7.713  46.393 -28.531  1.00  0.00     0.138 C 
HETATM    6  C15 UNL     1      -7.660  45.921 -31.099  1.00  0.00     0.029 C 
HETATM    7  C19 UNL     1      -9.159  45.566 -31.199  1.00  0.00    -0.066 C 
HETATM    8  C20 UNL     1      -9.821  44.452 -30.798  1.00  0.00    -0.021 C 
HETATM    9  C21 UNL     1     -11.307  44.240 -30.892  1.00  0.00     0.052 C 
HETATM   10  C23 UNL     1      -9.929  46.755 -31.734  1.00  0.00     0.038 C 
HETATM   11  C24 UNL     1      -9.881  47.849 -30.677  1.00  0.00     0.042 C 
HETATM   12  C25 UNL     1      -8.438  48.263 -30.285  1.00  0.00     0.065 C 
HETATM   13  C26 UNL     1      -7.889  49.161 -31.420  1.00  0.00     0.047 C 
ENDROOT
BRANCH   1  14
HETATM   14  C6  UNL     1      -7.109  47.357 -26.149  1.00  0.00    -0.050 C 
HETATM   15  C5  UNL     1      -6.316  47.969 -25.239  1.00  0.00     0.005 C 
BRANCH  15  16
HETATM   16  C4  UNL     1      -4.960  48.438 -25.454  1.00  0.00     0.001 C 
HETATM   17  C3  UNL     1      -4.122  48.750 -24.451  1.00  0.00     0.006 C 
BRANCH  17  18
HETATM   18  C2  UNL     1      -2.769  49.277 -24.591  1.00  0.00    -0.067 C 
HETATM   19  C1  UNL     1      -2.150  49.795 -23.518  1.00  0.00     0.019 C 
BRANCH  18  20
HETATM   20  C27 UNL     1      -2.077  49.300 -25.945  1.00  0.00     0.041 C 
BRANCH  20  21
HETATM   21  C28 UNL     1      -1.620  50.699 -26.394  1.00  0.00     0.032 C 
BRANCH  21  22
HETATM   22  C29 UNL     1      -0.140  50.759 -26.657  1.00  0.00    -0.024 C 
HETATM   23  C30 UNL     1       0.800  51.413 -25.950  1.00  0.00    -0.091 C 
HETATM   24  C31 UNL     1       0.536  52.262 -24.737  1.00  0.00     0.042 C 
HETATM   25  C32 UNL     1       2.251  51.336 -26.351  1.00  0.00     0.042 C 
ENDBRANCH  21  22
ENDBRANCH  20  21
ENDBRANCH  18  20
ENDBRANCH  17  18
ENDBRANCH  15  16
BRANCH  14  26
HETATM   26  C7  UNL     1      -8.520  46.972 -25.757  1.00  0.00     0.202 C 
BRANCH  26  27
HETATM   27  O1  UNL     1      -9.375  48.105 -25.865  1.00  0.00    -0.385 OA
BRANCH  27  28
HETATM   28  C8  UNL     1     -10.760  47.850 -25.626  1.00  0.00     0.194 C 
BRANCH  28  29
HETATM   29  C9  UNL     1     -11.577  47.770 -26.916  1.00  0.00     0.190 C 
BRANCH  29  30
HETATM   30  O2  UNL     1     -12.345  48.958 -27.090  1.00  0.00    -0.399 OA
HETATM   31  H12 UNL     1     -13.119  48.729 -27.633  1.00  0.00     0.209 HD
ENDBRANCH  29  30
ENDBRANCH  28  29
ENDBRANCH  27  28
ENDBRANCH  26  27
ENDBRANCH  14  26
ENDBRANCH   1  14
BRANCH   5  32
HETATM   32  O3  UNL     1      -9.059  46.469 -28.087  1.00  0.00    -0.394 OA
HETATM   33  H19 UNL     1      -9.077  46.214 -27.149  1.00  0.00     0.210 HD
ENDBRANCH   5  32
BRANCH   6  34
HETATM   34  C16 UNL     1      -6.659  44.734 -31.095  1.00  0.00     0.012 C 
BRANCH  34  35
HETATM   35  C17 UNL     1      -5.919  44.557 -32.434  1.00  0.00     0.027 C 
BRANCH  35  36
HETATM   36  C18 UNL     1      -4.602  45.326 -32.476  1.00  0.00     0.164 C 
BRANCH  36  37
HETATM   37  O4  UNL     1      -4.656  46.376 -33.434  1.00  0.00    -0.401 OA
HETATM   38  H27 UNL     1      -5.195  47.089 -33.052  1.00  0.00     0.209 HD
ENDBRANCH  36  37
ENDBRANCH  35  36
ENDBRANCH  34  35
ENDBRANCH   6  34
BRANCH  12  39
HETATM   39  O6  UNL     1      -8.546  49.133 -29.150  1.00  0.00    -0.389 OA
HETATM   40  H39 UNL     1      -9.241  49.787 -29.331  1.00  0.00     0.210 HD
ENDBRANCH  12  39
BRANCH   8  41
HETATM   41  C22 UNL     1      -9.159  43.354 -30.056  1.00  0.00     0.265 C 
HETATM   42  O5  UNL     1      -9.644  42.835 -29.058  1.00  0.00    -0.302 OA
ENDBRANCH   8  41
TORSDOF 18
ENDMDL
MODEL 9
REMARK minimizedAffinity -7.05090237
REMARK CNNscore 0.301891565
REMARK CNNaffinity 5.88905096
REMARK  18 active torsions:
REMARK  status: ('A' for Active; 'I' for Inactive)
REMARK    1  A    between atoms: C2_2  and  C3_3 
REMARK    2  A    between atoms: C2_2  and  C27_33 
REMARK    3  A    between atoms: C4_4  and  C5_5 
REMARK    4  A    between atoms: C6_6  and  C7_7 
REMARK    5  A    between atoms: C6_6  and  C10_12 
REMARK    6  A    between atoms: C7_7  and  O1_8 
REMARK    7  A    between atoms: O1_8  and  C8_9 
REMARK    8  A    between atoms: C8_9  and  C9_10 
REMARK    9  A    between atoms: C9_10  and  O2_11 
REMARK   10  A    between atoms: C14_16  and  O3_17 
REMARK   11  A    between atoms: C15_18  and  C16_19 
REMARK   12  A    between atoms: C16_19  and  C17_20 
REMARK   13  A    between atoms: C17_20  and  C18_21 
REMARK   14  A    between atoms: C18_21  and  O4_22 
REMARK   15  A    between atoms: C20_24  and  C22_26 
REMARK   16  A    between atoms: C25_30  and  O6_32 
REMARK   17  A    between atoms: C27_33  and  C28_34 
REMARK   18  A    between atoms: C28_34  and  C29_35 
ROOT
HETATM    1  C10 UNL     1      -6.387  47.154 -27.829  1.00  0.00     0.046 C 
HETATM    2  C11 UNL     1      -5.881  48.203 -28.828  1.00  0.00     0.013 C 
HETATM    3  C12 UNL     1      -6.411  47.676 -30.155  1.00  0.00     0.017 C 
HETATM    4  C13 UNL     1      -7.887  47.259 -29.872  1.00  0.00     0.024 C 
HETATM    5  C14 UNL     1      -7.713  46.602 -28.455  1.00  0.00     0.138 C 
HETATM    6  C15 UNL     1      -8.437  46.207 -30.934  1.00  0.00     0.029 C 
HETATM    7  C19 UNL     1      -9.910  45.894 -30.593  1.00  0.00    -0.066 C 
HETATM    8  C20 UNL     1     -10.461  44.787 -30.038  1.00  0.00    -0.021 C 
HETATM    9  C21 UNL     1     -11.915  44.616 -29.692  1.00  0.00     0.052 C 
HETATM   10  C23 UNL     1     -10.763  47.119 -30.850  1.00  0.00     0.038 C 
HETATM   11  C24 UNL     1     -10.367  48.178 -29.831  1.00  0.00     0.042 C 
HETATM   12  C25 UNL     1      -8.859  48.542 -29.876  1.00  0.00     0.065 C 
HETATM   13  C26 UNL     1      -8.640  49.460 -31.103  1.00  0.00     0.047 C 
ENDROOT
BRANCH   1  14
HETATM   14  C6  UNL     1      -6.400  47.476 -26.338  1.00  0.00    -0.050 C 
HETATM   15  C5  UNL     1      -5.417  48.170 -25.720  1.00  0.00     0.005 C 
BRANCH  15  16
HETATM   16  C4  UNL     1      -4.254  48.764 -26.351  1.00  0.00     0.001 C 
HETATM   17  C3  UNL     1      -3.535  49.750 -25.787  1.00  0.00     0.006 C 
BRANCH  17  18
HETATM   18  C2  UNL     1      -2.390  50.431 -26.384  1.00  0.00    -0.067 C 
HETATM   19  C1  UNL     1      -2.409  50.726 -27.694  1.00  0.00     0.019 C 
BRANCH  18  20
HETATM   20  C27 UNL     1      -1.157  50.756 -25.556  1.00  0.00     0.041 C 
BRANCH  20  21
HETATM   21  C28 UNL     1      -1.437  51.652 -24.336  1.00  0.00     0.032 C 
BRANCH  21  22
HETATM   22  C29 UNL     1      -1.145  50.954 -23.036  1.00  0.00    -0.024 C 
HETATM   23  C30 UNL     1      -0.355  51.374 -22.031  1.00  0.00    -0.091 C 
HETATM   24  C31 UNL     1       0.437  52.652 -22.029  1.00  0.00     0.042 C 
HETATM   25  C32 UNL     1      -0.202  50.546 -20.780  1.00  0.00     0.042 C 
ENDBRANCH  21  22
ENDBRANCH  20  21
ENDBRANCH  18  20
ENDBRANCH  17  18
ENDBRANCH  15  16
BRANCH  14  26
HETATM   26  C7  UNL     1      -7.566  46.961 -25.521  1.00  0.00     0.202 C 
BRANCH  26  27
HETATM   27  O1  UNL     1      -8.397  48.050 -25.131  1.00  0.00    -0.385 OA
BRANCH  27  28
HETATM   28  C8  UNL     1      -9.243  47.799 -24.008  1.00  0.00     0.194 C 
BRANCH  28  29
HETATM   29  C9  UNL     1     -10.315  46.749 -24.301  1.00  0.00     0.190 C 
BRANCH  29  30
HETATM   30  O2  UNL     1     -11.493  47.370 -24.808  1.00  0.00    -0.399 OA
HETATM   31  H12 UNL     1     -12.245  46.792 -24.594  1.00  0.00     0.209 HD
ENDBRANCH  29  30
ENDBRANCH  28  29
ENDBRANCH  27  28
ENDBRANCH  26  27
ENDBRANCH  14  26
ENDBRANCH   1  14
BRANCH   5  32
HETATM   32  O3  UNL     1      -8.865  46.699 -27.631  1.00  0.00    -0.394 OA
HETATM   33  H19 UNL     1      -8.614  46.416 -26.735  1.00  0.00     0.210 HD
ENDBRANCH   5  32
BRANCH   6  34
HETATM   34  C16 UNL     1      -7.520  44.994 -31.251  1.00  0.00     0.012 C 
BRANCH  34  35
HETATM   35  C17 UNL     1      -7.126  44.902 -32.738  1.00  0.00     0.027 C 
BRANCH  35  36
HETATM   36  C18 UNL     1      -8.324  44.621 -33.639  1.00  0.00     0.164 C 
BRANCH  36  37
HETATM   37  O4  UNL     1      -7.959  43.770 -34.719  1.00  0.00    -0.401 OA
HETATM   38  H27 UNL     1      -7.869  42.871 -34.361  1.00  0.00     0.209 HD
ENDBRANCH  36  37
ENDBRANCH  35  36
ENDBRANCH  34  35
ENDBRANCH   6  34
BRANCH  12  39
HETATM   39  O6  UNL     1      -8.598  49.380 -28.741  1.00  0.00    -0.389 OA
HETATM   40  H39 UNL     1      -9.293  50.057 -28.693  1.00  0.00     0.210 HD
ENDBRANCH  12  39
BRANCH   8  41
HETATM   41  C22 UNL     1      -9.647  43.649 -29.549  1.00  0.00     0.265 C 
HETATM   42  O5  UNL     1     -10.105  42.751 -28.854  1.00  0.00    -0.302 OA
ENDBRANCH   8  41
TORSDOF 18
ENDMDL
