MODEL 1
REMARK minimizedAffinity -9.39321709
REMARK  4 active torsions:
REMARK  status: ('A' for Active; 'I' for Inactive)
REMARK    1  A    between atoms: C4_4  and  C5_5 
REMARK    2  A    between atoms: C5_5  and  C6_6 
REMARK    3  A    between atoms: C6_6  and  C7_7 
REMARK    4  A    between atoms: C7_7  and  C9_9 
ROOT
HETATM    1  C9  UNL     1      -5.764   6.434  14.867  1.00  0.00    -0.001 C 
HETATM    2  C10 UNL     1      -6.380   7.319  13.754  1.00  0.00     0.007 C 
HETATM    3  C11 UNL     1      -5.203   7.877  12.922  1.00  0.00     0.024 C 
HETATM    4  C12 UNL     1      -3.971   7.204  13.492  1.00  0.00     0.092 C 
HETATM    5  C13 UNL     1      -3.671   5.850  12.791  1.00  0.00     0.272 C 
HETATM    6  O1  UNL     1      -4.453   5.124  12.201  1.00  0.00    -0.264 OA
HETATM    7  O2  UNL     1      -2.323   5.571  12.937  1.00  0.00    -0.305 OA
HETATM    8  C14 UNL     1      -1.698   6.657  13.660  1.00  0.00     0.113 C 
HETATM    9  C15 UNL     1      -1.835   6.313  15.182  1.00  0.00     0.043 C 
HETATM   10  C16 UNL     1      -3.291   5.972  15.608  1.00  0.00     0.014 C 
HETATM   11  C17 UNL     1      -4.309   6.971  15.006  1.00  0.00    -0.020 C 
HETATM   12  C18 UNL     1      -4.238   8.279  15.826  1.00  0.00     0.017 C 
HETATM   13  C19 UNL     1      -2.626   7.792  13.328  1.00  0.00     0.137 A 
HETATM   14  O3  UNL     1      -2.330   9.128  13.689  1.00  0.00    -0.364 OA
HETATM   15  C20 UNL     1      -2.290   8.832  12.279  1.00  0.00     0.162 A 
HETATM   16  C21 UNL     1      -0.922   8.855  11.664  1.00  0.00     0.042 C 
HETATM   17  C22 UNL     1      -0.319   7.435  11.661  1.00  0.00     0.014 C 
HETATM   18  C23 UNL     1       0.954   7.247  10.768  1.00  0.00     0.018 C 
HETATM   19  C24 UNL     1       0.633   7.611   9.301  1.00  0.00     0.023 C 
HETATM   20  C25 UNL     1       2.177   8.063  11.205  1.00  0.00     0.023 C 
HETATM   21  C26 UNL     1       1.355   5.763  10.785  1.00  0.00     0.135 C 
HETATM   22  O4  UNL     1       2.228   5.317  10.039  1.00  0.00    -0.297 OA
HETATM   23  C27 UNL     1       0.628   4.850  11.744  1.00  0.00     0.080 C 
HETATM   24  C28 UNL     1       0.560   5.509  13.113  1.00  0.00     0.020 C 
HETATM   25  C29 UNL     1      -0.223   6.860  13.135  1.00  0.00    -0.004 C 
HETATM   26  C30 UNL     1       0.531   7.802  14.111  1.00  0.00     0.019 C 
ENDROOT
BRANCH   1  27
HETATM   27  C7  UNL     1      -6.643   6.096  16.101  1.00  0.00    -0.014 C 
HETATM   28  C8  UNL     1      -7.420   4.789  15.834  1.00  0.00     0.010 C 
BRANCH  27  29
HETATM   29  C6  UNL     1      -7.602   7.132  16.728  1.00  0.00     0.008 C 
BRANCH  29  30
HETATM   30  C5  UNL     1      -8.453   7.977  15.779  1.00  0.00     0.028 C 
BRANCH  30  31
HETATM   31  C4  UNL     1      -9.707   7.239  15.387  1.00  0.00    -0.025 C 
HETATM   32  C2  UNL     1     -10.763   7.699  14.689  1.00  0.00    -0.091 C 
HETATM   33  C1  UNL     1     -11.925   6.793  14.377  1.00  0.00     0.042 C 
HETATM   34  C3  UNL     1     -10.914   9.096  14.154  1.00  0.00     0.042 C 
ENDBRANCH  30  31
ENDBRANCH  29  30
ENDBRANCH  27  29
ENDBRANCH   1  27
TORSDOF 4
ENDMDL
MODEL 2
REMARK minimizedAffinity -9.28040314
REMARK  4 active torsions:
REMARK  status: ('A' for Active; 'I' for Inactive)
REMARK    1  A    between atoms: C4_4  and  C5_5 
REMARK    2  A    between atoms: C5_5  and  C6_6 
REMARK    3  A    between atoms: C6_6  and  C7_7 
REMARK    4  A    between atoms: C7_7  and  C9_9 
ROOT
HETATM    1  C9  UNL     1      -3.700   7.702  14.357  1.00  0.00    -0.001 C 
HETATM    2  C10 UNL     1      -2.977   8.480  15.485  1.00  0.00     0.007 C 
HETATM    3  C11 UNL     1      -1.461   8.378  15.198  1.00  0.00     0.024 C 
HETATM    4  C12 UNL     1      -1.366   7.667  13.863  1.00  0.00     0.092 C 
HETATM    5  C13 UNL     1      -1.406   8.662  12.670  1.00  0.00     0.272 C 
HETATM    6  O1  UNL     1      -1.886   9.781  12.646  1.00  0.00    -0.264 OA
HETATM    7  O2  UNL     1      -0.788   8.067  11.584  1.00  0.00    -0.305 OA
HETATM    8  C14 UNL     1      -0.311   6.758  11.978  1.00  0.00     0.113 C 
HETATM    9  C15 UNL     1      -1.495   5.762  11.726  1.00  0.00     0.043 C 
HETATM   10  C16 UNL     1      -2.831   6.216  12.379  1.00  0.00     0.014 C 
HETATM   11  C17 UNL     1      -2.615   6.719  13.827  1.00  0.00    -0.020 C 
HETATM   12  C18 UNL     1      -2.437   5.486  14.741  1.00  0.00     0.017 C 
HETATM   13  C19 UNL     1      -0.139   6.951  13.458  1.00  0.00     0.137 A 
HETATM   14  O3  UNL     1       0.473   5.970  14.272  1.00  0.00    -0.364 OA
HETATM   15  C20 UNL     1       1.217   7.191  14.090  1.00  0.00     0.162 A 
HETATM   16  C21 UNL     1       2.460   7.060  13.261  1.00  0.00     0.042 C 
HETATM   17  C22 UNL     1       2.150   7.396  11.787  1.00  0.00     0.014 C 
HETATM   18  C23 UNL     1       3.401   7.617  10.871  1.00  0.00     0.018 C 
HETATM   19  C24 UNL     1       4.273   8.764  11.428  1.00  0.00     0.023 C 
HETATM   20  C25 UNL     1       4.295   6.383  10.688  1.00  0.00     0.023 C 
HETATM   21  C26 UNL     1       2.921   8.055   9.477  1.00  0.00     0.135 C 
HETATM   22  O4  UNL     1       3.707   8.445   8.612  1.00  0.00    -0.297 OA
HETATM   23  C27 UNL     1       1.437   8.006   9.197  1.00  0.00     0.080 C 
HETATM   24  C28 UNL     1       0.879   6.675   9.677  1.00  0.00     0.020 C 
HETATM   25  C29 UNL     1       1.031   6.433  11.212  1.00  0.00    -0.004 C 
HETATM   26  C30 UNL     1       1.363   4.928  11.400  1.00  0.00     0.019 C 
ENDROOT
BRANCH   1  27
HETATM   27  C7  UNL     1      -5.169   7.260  14.601  1.00  0.00    -0.014 C 
HETATM   28  C8  UNL     1      -5.228   6.334  15.834  1.00  0.00     0.010 C 
BRANCH  27  29
HETATM   29  C6  UNL     1      -6.036   6.655  13.475  1.00  0.00     0.008 C 
BRANCH  29  30
HETATM   30  C5  UNL     1      -6.562   5.232  13.671  1.00  0.00     0.028 C 
BRANCH  30  31
HETATM   31  C4  UNL     1      -5.871   4.274  12.736  1.00  0.00    -0.025 C 
HETATM   32  C2  UNL     1      -6.286   3.060  12.328  1.00  0.00    -0.091 C 
HETATM   33  C1  UNL     1      -5.455   2.253  11.365  1.00  0.00     0.042 C 
HETATM   34  C3  UNL     1      -7.563   2.387  12.748  1.00  0.00     0.042 C 
ENDBRANCH  30  31
ENDBRANCH  29  30
ENDBRANCH  27  29
ENDBRANCH   1  27
TORSDOF 4
ENDMDL
MODEL 3
REMARK minimizedAffinity -9.27060223
REMARK  4 active torsions:
REMARK  status: ('A' for Active; 'I' for Inactive)
REMARK    1  A    between atoms: C4_4  and  C5_5 
REMARK    2  A    between atoms: C5_5  and  C6_6 
REMARK    3  A    between atoms: C6_6  and  C7_7 
REMARK    4  A    between atoms: C7_7  and  C9_9 
ROOT
HETATM    1  C9  UNL     1       1.067   7.798  11.870  1.00  0.00    -0.001 C 
HETATM    2  C10 UNL     1       0.577   7.049  10.606  1.00  0.00     0.007 C 
HETATM    3  C11 UNL     1      -0.813   6.463  10.944  1.00  0.00     0.024 C 
HETATM    4  C12 UNL     1      -1.132   6.993  12.326  1.00  0.00     0.092 C 
HETATM    5  C13 UNL     1      -1.856   8.367  12.270  1.00  0.00     0.272 C 
HETATM    6  O1  UNL     1      -1.822   9.194  11.375  1.00  0.00    -0.264 OA
HETATM    7  O2  UNL     1      -2.582   8.527  13.438  1.00  0.00    -0.305 OA
HETATM    8  C14 UNL     1      -2.418   7.344  14.255  1.00  0.00     0.113 C 
HETATM    9  C15 UNL     1      -1.141   7.585  15.130  1.00  0.00     0.043 C 
HETATM   10  C16 UNL     1       0.104   8.007  14.300  1.00  0.00     0.014 C 
HETATM   11  C17 UNL     1       0.262   7.139  13.029  1.00  0.00    -0.020 C 
HETATM   12  C18 UNL     1       0.847   5.772  13.452  1.00  0.00     0.017 C 
HETATM   13  C19 UNL     1      -2.106   6.314  13.206  1.00  0.00     0.137 A 
HETATM   14  O3  UNL     1      -2.021   4.936  13.515  1.00  0.00    -0.364 OA
HETATM   15  C20 UNL     1      -3.144   5.331  12.703  1.00  0.00     0.162 A 
HETATM   16  C21 UNL     1      -4.479   5.246  13.381  1.00  0.00     0.042 C 
HETATM   17  C22 UNL     1      -4.846   6.610  14.001  1.00  0.00     0.014 C 
HETATM   18  C23 UNL     1      -6.337   6.762  14.456  1.00  0.00     0.018 C 
HETATM   19  C24 UNL     1      -7.285   6.535  13.257  1.00  0.00     0.023 C 
HETATM   20  C25 UNL     1      -6.768   5.822  15.589  1.00  0.00     0.023 C 
HETATM   21  C26 UNL     1      -6.563   8.205  14.937  1.00  0.00     0.135 C 
HETATM   22  O4  UNL     1      -7.687   8.634  15.201  1.00  0.00    -0.297 OA
HETATM   23  C27 UNL     1      -5.351   9.099  15.067  1.00  0.00     0.080 C 
HETATM   24  C28 UNL     1      -4.246   8.348  15.793  1.00  0.00     0.020 C 
HETATM   25  C29 UNL     1      -3.751   7.065  15.052  1.00  0.00    -0.004 C 
HETATM   26  C30 UNL     1      -3.469   5.996  16.143  1.00  0.00     0.019 C 
ENDROOT
BRANCH   1  27
HETATM   27  C7  UNL     1       2.584   8.112  11.990  1.00  0.00    -0.014 C 
HETATM   28  C8  UNL     1       2.772   9.454  12.728  1.00  0.00     0.010 C 
BRANCH  27  29
HETATM   29  C6  UNL     1       3.523   8.076  10.765  1.00  0.00     0.008 C 
BRANCH  29  30
HETATM   30  C5  UNL     1       3.903   6.705  10.202  1.00  0.00     0.028 C 
BRANCH  30  31
HETATM   31  C4  UNL     1       3.124   6.410   8.946  1.00  0.00    -0.025 C 
HETATM   32  C2  UNL     1       2.773   7.260   7.963  1.00  0.00    -0.091 C 
HETATM   33  C1  UNL     1       2.004   6.766   6.765  1.00  0.00     0.042 C 
HETATM   34  C3  UNL     1       3.088   8.730   7.925  1.00  0.00     0.042 C 
ENDBRANCH  30  31
ENDBRANCH  29  30
ENDBRANCH  27  29
ENDBRANCH   1  27
TORSDOF 4
ENDMDL
MODEL 4
REMARK minimizedAffinity -9.0145874
REMARK  4 active torsions:
REMARK  status: ('A' for Active; 'I' for Inactive)
REMARK    1  A    between atoms: C4_4  and  C5_5 
REMARK    2  A    between atoms: C5_5  and  C6_6 
REMARK    3  A    between atoms: C6_6  and  C7_7 
REMARK    4  A    between atoms: C7_7  and  C9_9 
ROOT
HETATM    1  C9  UNL     1      -5.594   7.042  14.566  1.00  0.00    -0.001 C 
HETATM    2  C10 UNL     1      -5.342   8.304  15.428  1.00  0.00     0.007 C 
HETATM    3  C11 UNL     1      -3.822   8.582  15.381  1.00  0.00     0.024 C 
HETATM    4  C12 UNL     1      -3.271   7.565  14.403  1.00  0.00     0.092 C 
HETATM    5  C13 UNL     1      -3.294   8.092  12.941  1.00  0.00     0.272 C 
HETATM    6  O1  UNL     1      -4.015   8.952  12.468  1.00  0.00    -0.264 OA
HETATM    7  O2  UNL     1      -2.330   7.412  12.216  1.00  0.00    -0.305 OA
HETATM    8  C14 UNL     1      -1.646   6.491  13.099  1.00  0.00     0.113 C 
HETATM    9  C15 UNL     1      -2.469   5.158  13.071  1.00  0.00     0.043 C 
HETATM   10  C16 UNL     1      -3.983   5.363  13.356  1.00  0.00     0.014 C 
HETATM   11  C17 UNL     1      -4.214   6.320  14.549  1.00  0.00    -0.020 C 
HETATM   12  C18 UNL     1      -3.943   5.535  15.853  1.00  0.00     0.017 C 
HETATM   13  C19 UNL     1      -1.849   7.165  14.427  1.00  0.00     0.137 A 
HETATM   14  O3  UNL     1      -1.207   6.708  15.601  1.00  0.00    -0.364 OA
HETATM   15  C20 UNL     1      -0.761   7.981  15.094  1.00  0.00     0.162 A 
HETATM   16  C21 UNL     1       0.625   7.987  14.521  1.00  0.00     0.042 C 
HETATM   17  C22 UNL     1       0.567   7.752  12.996  1.00  0.00     0.014 C 
HETATM   18  C23 UNL     1       1.894   8.052  12.220  1.00  0.00     0.018 C 
HETATM   19  C24 UNL     1       2.320   9.521  12.441  1.00  0.00     0.023 C 
HETATM   20  C25 UNL     1       3.079   7.151  12.592  1.00  0.00     0.023 C 
HETATM   21  C26 UNL     1       1.634   7.883  10.714  1.00  0.00     0.135 C 
HETATM   22  O4  UNL     1       2.469   8.211   9.870  1.00  0.00    -0.297 OA
HETATM   23  C27 UNL     1       0.303   7.306  10.291  1.00  0.00     0.080 C 
HETATM   24  C28 UNL     1      -0.005   6.079  11.136  1.00  0.00     0.020 C 
HETATM   25  C29 UNL     1      -0.133   6.370  12.664  1.00  0.00    -0.004 C 
HETATM   26  C30 UNL     1       0.507   5.166  13.407  1.00  0.00     0.019 C 
ENDROOT
BRANCH   1  27
HETATM   27  C7  UNL     1      -6.928   6.273  14.769  1.00  0.00    -0.014 C 
HETATM   28  C8  UNL     1      -7.361   6.380  16.246  1.00  0.00     0.010 C 
BRANCH  27  29
HETATM   29  C6  UNL     1      -7.108   4.813  14.297  1.00  0.00     0.008 C 
BRANCH  29  30
HETATM   30  C5  UNL     1      -7.163   4.557  12.790  1.00  0.00     0.028 C 
BRANCH  30  31
HETATM   31  C4  UNL     1      -6.885   3.108  12.485  1.00  0.00    -0.025 C 
HETATM   32  C2  UNL     1      -6.081   2.594  11.535  1.00  0.00    -0.091 C 
HETATM   33  C1  UNL     1      -5.917   1.102  11.398  1.00  0.00     0.042 C 
HETATM   34  C3  UNL     1      -5.280   3.392  10.544  1.00  0.00     0.042 C 
ENDBRANCH  30  31
ENDBRANCH  29  30
ENDBRANCH  27  29
ENDBRANCH   1  27
TORSDOF 4
ENDMDL
MODEL 5
REMARK minimizedAffinity -8.87878799
REMARK  4 active torsions:
REMARK  status: ('A' for Active; 'I' for Inactive)
REMARK    1  A    between atoms: C4_4  and  C5_5 
REMARK    2  A    between atoms: C5_5  and  C6_6 
REMARK    3  A    between atoms: C6_6  and  C7_7 
REMARK    4  A    between atoms: C7_7  and  C9_9 
ROOT
HETATM    1  C9  UNL     1      -2.049   6.777  13.442  1.00  0.00    -0.001 C 
HETATM    2  C10 UNL     1      -1.960   5.901  12.168  1.00  0.00     0.007 C 
HETATM    3  C11 UNL     1      -0.562   6.143  11.555  1.00  0.00     0.024 C 
HETATM    4  C12 UNL     1       0.149   7.037  12.550  1.00  0.00     0.092 C 
HETATM    5  C13 UNL     1       0.898   6.217  13.637  1.00  0.00     0.272 C 
HETATM    6  O1  UNL     1       0.661   5.082  14.012  1.00  0.00    -0.264 OA
HETATM    7  O2  UNL     1       1.921   6.997  14.146  1.00  0.00    -0.305 OA
HETATM    8  C14 UNL     1       1.928   8.268  13.453  1.00  0.00     0.113 C 
HETATM    9  C15 UNL     1       0.952   9.206  14.242  1.00  0.00     0.043 C 
HETATM   10  C16 UNL     1      -0.449   8.577  14.480  1.00  0.00     0.014 C 
HETATM   11  C17 UNL     1      -0.992   7.894  13.202  1.00  0.00    -0.020 C 
HETATM   12  C18 UNL     1      -1.506   8.998  12.250  1.00  0.00     0.017 C 
HETATM   13  C19 UNL     1       1.291   7.883  12.147  1.00  0.00     0.137 A 
HETATM   14  O3  UNL     1       1.225   8.782  11.057  1.00  0.00    -0.364 OA
HETATM   15  C20 UNL     1       2.102   7.651  10.889  1.00  0.00     0.162 A 
HETATM   16  C21 UNL     1       3.565   7.979  10.874  1.00  0.00     0.042 C 
HETATM   17  C22 UNL     1       4.155   7.830  12.292  1.00  0.00     0.014 C 
HETATM   18  C23 UNL     1       5.719   7.823  12.372  1.00  0.00     0.018 C 
HETATM   19  C24 UNL     1       6.291   6.672  11.515  1.00  0.00     0.023 C 
HETATM   20  C25 UNL     1       6.395   9.128  11.930  1.00  0.00     0.023 C 
HETATM   21  C26 UNL     1       6.139   7.551  13.826  1.00  0.00     0.135 C 
HETATM   22  O4  UNL     1       7.312   7.339  14.135  1.00  0.00    -0.297 OA
HETATM   23  C27 UNL     1       5.056   7.538  14.879  1.00  0.00     0.080 C 
HETATM   24  C28 UNL     1       4.155   8.749  14.689  1.00  0.00     0.020 C 
HETATM   25  C29 UNL     1       3.413   8.785  13.315  1.00  0.00    -0.004 C 
HETATM   26  C30 UNL     1       3.386  10.269  12.858  1.00  0.00     0.019 C 
ENDROOT
BRANCH   1  27
HETATM   27  C7  UNL     1      -3.457   7.080  14.023  1.00  0.00    -0.014 C 
HETATM   28  C8  UNL     1      -3.547   6.532  15.463  1.00  0.00     0.010 C 
BRANCH  27  29
HETATM   29  C6  UNL     1      -4.750   6.711  13.262  1.00  0.00     0.008 C 
BRANCH  29  30
HETATM   30  C5  UNL     1      -5.494   5.448  13.700  1.00  0.00     0.028 C 
BRANCH  30  31
HETATM   31  C4  UNL     1      -5.260   4.325  12.723  1.00  0.00    -0.025 C 
HETATM   32  C2  UNL     1      -6.079   3.302  12.416  1.00  0.00    -0.091 C 
HETATM   33  C1  UNL     1      -5.671   2.279  11.388  1.00  0.00     0.042 C 
HETATM   34  C3  UNL     1      -7.436   3.058  13.017  1.00  0.00     0.042 C 
ENDBRANCH  30  31
ENDBRANCH  29  30
ENDBRANCH  27  29
ENDBRANCH   1  27
TORSDOF 4
ENDMDL
MODEL 6
REMARK minimizedAffinity -8.86224842
REMARK  4 active torsions:
REMARK  status: ('A' for Active; 'I' for Inactive)
REMARK    1  A    between atoms: C4_4  and  C5_5 
REMARK    2  A    between atoms: C5_5  and  C6_6 
REMARK    3  A    between atoms: C6_6  and  C7_7 
REMARK    4  A    between atoms: C7_7  and  C9_9 
ROOT
HETATM    1  C9  UNL     1      -2.519   7.218  12.913  1.00  0.00    -0.001 C 
HETATM    2  C10 UNL     1      -3.047   8.653  13.158  1.00  0.00     0.007 C 
HETATM    3  C11 UNL     1      -1.817   9.535  13.472  1.00  0.00     0.024 C 
HETATM    4  C12 UNL     1      -0.624   8.623  13.273  1.00  0.00     0.092 C 
HETATM    5  C13 UNL     1      -0.116   8.642  11.805  1.00  0.00     0.272 C 
HETATM    6  O1  UNL     1      -0.743   8.928  10.800  1.00  0.00    -0.264 OA
HETATM    7  O2  UNL     1       1.217   8.269  11.799  1.00  0.00    -0.305 OA
HETATM    8  C14 UNL     1       1.641   8.033  13.162  1.00  0.00     0.113 C 
HETATM    9  C15 UNL     1       1.323   6.530  13.471  1.00  0.00     0.043 C 
HETATM   10  C16 UNL     1      -0.144   6.132  13.144  1.00  0.00     0.014 C 
HETATM   11  C17 UNL     1      -1.148   7.194  13.651  1.00  0.00    -0.020 C 
HETATM   12  C18 UNL     1      -1.303   7.016  15.179  1.00  0.00     0.017 C 
HETATM   13  C19 UNL     1       0.676   8.903  13.916  1.00  0.00     0.137 A 
HETATM   14  O3  UNL     1       0.804   9.130  15.307  1.00  0.00    -0.364 OA
HETATM   15  C20 UNL     1       1.066  10.264  14.457  1.00  0.00     0.162 A 
HETATM   16  C21 UNL     1       2.499  10.703  14.407  1.00  0.00     0.042 C 
HETATM   17  C22 UNL     1       3.215  10.039  13.213  1.00  0.00     0.014 C 
HETATM   18  C23 UNL     1       4.610  10.645  12.844  1.00  0.00     0.018 C 
HETATM   19  C24 UNL     1       4.467  12.148  12.513  1.00  0.00     0.023 C 
HETATM   20  C25 UNL     1       5.687  10.496  13.927  1.00  0.00     0.023 C 
HETATM   21  C26 UNL     1       5.130   9.954  11.572  1.00  0.00     0.135 C 
HETATM   22  O4  UNL     1       6.133  10.353  10.980  1.00  0.00    -0.297 OA
HETATM   23  C27 UNL     1       4.356   8.764  11.055  1.00  0.00     0.080 C 
HETATM   24  C28 UNL     1       4.043   7.826  12.210  1.00  0.00     0.020 C 
HETATM   25  C29 UNL     1       3.153   8.460  13.325  1.00  0.00    -0.004 C 
HETATM   26  C30 UNL     1       3.681   7.922  14.683  1.00  0.00     0.019 C 
ENDROOT
BRANCH   1  27
HETATM   27  C7  UNL     1      -3.530   6.042  13.005  1.00  0.00    -0.014 C 
HETATM   28  C8  UNL     1      -4.199   6.050  14.396  1.00  0.00     0.010 C 
BRANCH  27  29
HETATM   29  C6  UNL     1      -3.131   4.594  12.646  1.00  0.00     0.008 C 
BRANCH  29  30
HETATM   30  C5  UNL     1      -4.010   3.843  11.645  1.00  0.00     0.028 C 
BRANCH  30  31
HETATM   31  C4  UNL     1      -5.396   3.638  12.200  1.00  0.00    -0.025 C 
HETATM   32  C2  UNL     1      -6.206   2.573  12.050  1.00  0.00    -0.091 C 
HETATM   33  C1  UNL     1      -7.562   2.547  12.706  1.00  0.00     0.042 C 
HETATM   34  C3  UNL     1      -5.884   1.335  11.259  1.00  0.00     0.042 C 
ENDBRANCH  30  31
ENDBRANCH  29  30
ENDBRANCH  27  29
ENDBRANCH   1  27
TORSDOF 4
ENDMDL
MODEL 7
REMARK minimizedAffinity -8.83278084
REMARK  4 active torsions:
REMARK  status: ('A' for Active; 'I' for Inactive)
REMARK    1  A    between atoms: C4_4  and  C5_5 
REMARK    2  A    between atoms: C5_5  and  C6_6 
REMARK    3  A    between atoms: C6_6  and  C7_7 
REMARK    4  A    between atoms: C7_7  and  C9_9 
ROOT
HETATM    1  C9  UNL     1      -4.898   5.998  14.247  1.00  0.00    -0.001 C 
HETATM    2  C10 UNL     1      -4.376   5.191  13.032  1.00  0.00     0.007 C 
HETATM    3  C11 UNL     1      -3.035   5.834  12.611  1.00  0.00     0.024 C 
HETATM    4  C12 UNL     1      -2.765   6.893  13.660  1.00  0.00     0.092 C 
HETATM    5  C13 UNL     1      -1.976   6.323  14.872  1.00  0.00     0.272 C 
HETATM    6  O1  UNL     1      -1.925   5.167  15.254  1.00  0.00    -0.264 OA
HETATM    7  O2  UNL     1      -1.307   7.367  15.487  1.00  0.00    -0.305 OA
HETATM    8  C14 UNL     1      -1.569   8.586  14.753  1.00  0.00     0.113 C 
HETATM    9  C15 UNL     1      -2.879   9.196  15.361  1.00  0.00     0.043 C 
HETATM   10  C16 UNL     1      -4.057   8.184  15.426  1.00  0.00     0.014 C 
HETATM   11  C17 UNL     1      -4.187   7.376  14.112  1.00  0.00    -0.020 C 
HETATM   12  C18 UNL     1      -4.856   8.285  13.056  1.00  0.00     0.017 C 
HETATM   13  C19 UNL     1      -1.872   8.037  13.388  1.00  0.00     0.137 A 
HETATM   14  O3  UNL     1      -2.037   8.881  12.264  1.00  0.00    -0.364 OA
HETATM   15  C20 UNL     1      -0.855   8.057  12.264  1.00  0.00     0.162 A 
HETATM   16  C21 UNL     1       0.436   8.798  12.441  1.00  0.00     0.042 C 
HETATM   17  C22 UNL     1       0.833   8.823  13.932  1.00  0.00     0.014 C 
HETATM   18  C23 UNL     1       2.303   9.274  14.228  1.00  0.00     0.018 C 
HETATM   19  C24 UNL     1       3.301   8.343  13.505  1.00  0.00     0.023 C 
HETATM   20  C25 UNL     1       2.628  10.720  13.834  1.00  0.00     0.023 C 
HETATM   21  C26 UNL     1       2.569   9.131  15.737  1.00  0.00     0.135 C 
HETATM   22  O4  UNL     1       3.696   9.270  16.214  1.00  0.00    -0.297 OA
HETATM   23  C27 UNL     1       1.395   8.798  16.628  1.00  0.00     0.080 C 
HETATM   24  C28 UNL     1       0.220   9.693  16.267  1.00  0.00     0.020 C 
HETATM   25  C29 UNL     1      -0.294   9.516  14.804  1.00  0.00    -0.004 C 
HETATM   26  C30 UNL     1      -0.684  10.928  14.289  1.00  0.00     0.019 C 
ENDROOT
BRANCH   1  27
HETATM   27  C7  UNL     1      -6.402   5.874  14.614  1.00  0.00    -0.014 C 
HETATM   28  C8  UNL     1      -6.567   5.984  16.144  1.00  0.00     0.010 C 
BRANCH  27  29
HETATM   29  C6  UNL     1      -7.275   4.709  14.096  1.00  0.00     0.008 C 
BRANCH  29  30
HETATM   30  C5  UNL     1      -7.244   4.413  12.595  1.00  0.00     0.028 C 
BRANCH  30  31
HETATM   31  C4  UNL     1      -6.911   2.965  12.345  1.00  0.00    -0.025 C 
HETATM   32  C2  UNL     1      -6.123   2.444  11.385  1.00  0.00    -0.091 C 
HETATM   33  C1  UNL     1      -5.893   0.957  11.309  1.00  0.00     0.042 C 
HETATM   34  C3  UNL     1      -5.402   3.230  10.325  1.00  0.00     0.042 C 
ENDBRANCH  30  31
ENDBRANCH  29  30
ENDBRANCH  27  29
ENDBRANCH   1  27
TORSDOF 4
ENDMDL
MODEL 8
REMARK minimizedAffinity -8.45588207
REMARK  4 active torsions:
REMARK  status: ('A' for Active; 'I' for Inactive)
REMARK    1  A    between atoms: C4_4  and  C5_5 
REMARK    2  A    between atoms: C5_5  and  C6_6 
REMARK    3  A    between atoms: C6_6  and  C7_7 
REMARK    4  A    between atoms: C7_7  and  C9_9 
ROOT
HETATM    1  C9  UNL     1      -2.721   4.255  12.517  1.00  0.00    -0.001 C 
HETATM    2  C10 UNL     1      -2.265   4.356  11.040  1.00  0.00     0.007 C 
HETATM    3  C11 UNL     1      -1.220   5.493  10.971  1.00  0.00     0.024 C 
HETATM    4  C12 UNL     1      -1.013   5.918  12.411  1.00  0.00     0.092 C 
HETATM    5  C13 UNL     1       0.104   5.092  13.106  1.00  0.00     0.272 C 
HETATM    6  O1  UNL     1       0.500   3.976  12.816  1.00  0.00    -0.264 OA
HETATM    7  O2  UNL     1       0.613   5.840  14.154  1.00  0.00    -0.305 OA
HETATM    8  C14 UNL     1      -0.066   7.117  14.187  1.00  0.00     0.113 C 
HETATM    9  C15 UNL     1      -1.341   6.919  15.076  1.00  0.00     0.043 C 
HETATM   10  C16 UNL     1      -2.211   5.707  14.641  1.00  0.00     0.014 C 
HETATM   11  C17 UNL     1      -2.396   5.660  13.105  1.00  0.00    -0.020 C 
HETATM   12  C18 UNL     1      -3.450   6.721  12.716  1.00  0.00     0.017 C 
HETATM   13  C19 UNL     1      -0.485   7.255  12.751  1.00  0.00     0.137 A 
HETATM   14  O3  UNL     1      -1.057   8.449  12.251  1.00  0.00    -0.364 OA
HETATM   15  C20 UNL     1       0.264   8.133  11.770  1.00  0.00     0.162 A 
HETATM   16  C21 UNL     1       1.353   9.040  12.262  1.00  0.00     0.042 C 
HETATM   17  C22 UNL     1       2.010   8.442  13.524  1.00  0.00     0.014 C 
HETATM   18  C23 UNL     1       3.360   9.105  13.957  1.00  0.00     0.018 C 
HETATM   19  C24 UNL     1       4.394   9.005  12.812  1.00  0.00     0.023 C 
HETATM   20  C25 UNL     1       3.253  10.577  14.375  1.00  0.00     0.023 C 
HETATM   21  C26 UNL     1       3.936   8.323  15.149  1.00  0.00     0.135 C 
HETATM   22  O4  UNL     1       5.068   8.540  15.584  1.00  0.00    -0.297 OA
HETATM   23  C27 UNL     1       3.067   7.256  15.774  1.00  0.00     0.080 C 
HETATM   24  C28 UNL     1       1.666   7.810  15.987  1.00  0.00     0.020 C 
HETATM   25  C29 UNL     1       0.939   8.235  14.673  1.00  0.00    -0.004 C 
HETATM   26  C30 UNL     1       0.135   9.523  14.999  1.00  0.00     0.019 C 
ENDROOT
BRANCH   1  27
HETATM   27  C7  UNL     1      -4.055   3.519  12.821  1.00  0.00    -0.014 C 
HETATM   28  C8  UNL     1      -4.249   2.371  11.808  1.00  0.00     0.010 C 
BRANCH  27  29
HETATM   29  C6  UNL     1      -5.389   4.282  12.978  1.00  0.00     0.008 C 
BRANCH  29  30
HETATM   30  C5  UNL     1      -6.521   3.941  12.007  1.00  0.00     0.028 C 
BRANCH  30  31
HETATM   31  C4  UNL     1      -7.808   4.596  12.436  1.00  0.00    -0.025 C 
HETATM   32  C2  UNL     1      -7.971   5.735  13.135  1.00  0.00    -0.091 C 
HETATM   33  C1  UNL     1      -9.353   6.244  13.453  1.00  0.00     0.042 C 
HETATM   34  C3  UNL     1      -6.863   6.607  13.658  1.00  0.00     0.042 C 
ENDBRANCH  30  31
ENDBRANCH  29  30
ENDBRANCH  27  29
ENDBRANCH   1  27
TORSDOF 4
ENDMDL
MODEL 9
REMARK minimizedAffinity -8.39633369
REMARK  4 active torsions:
REMARK  status: ('A' for Active; 'I' for Inactive)
REMARK    1  A    between atoms: C4_4  and  C5_5 
REMARK    2  A    between atoms: C5_5  and  C6_6 
REMARK    3  A    between atoms: C6_6  and  C7_7 
REMARK    4  A    between atoms: C7_7  and  C9_9 
ROOT
HETATM    1  C9  UNL     1      -4.053   7.669  14.560  1.00  0.00    -0.001 C 
HETATM    2  C10 UNL     1      -3.371   8.526  15.656  1.00  0.00     0.007 C 
HETATM    3  C11 UNL     1      -1.849   8.458  15.395  1.00  0.00     0.024 C 
HETATM    4  C12 UNL     1      -1.711   7.682  14.101  1.00  0.00     0.092 C 
HETATM    5  C13 UNL     1      -1.764   8.612  12.857  1.00  0.00     0.272 C 
HETATM    6  O1  UNL     1      -2.278   9.714  12.769  1.00  0.00    -0.264 OA
HETATM    7  O2  UNL     1      -1.111   7.982  11.812  1.00  0.00    -0.305 OA
HETATM    8  C14 UNL     1      -0.600   6.711  12.280  1.00  0.00     0.113 C 
HETATM    9  C15 UNL     1      -1.748   5.667  12.064  1.00  0.00     0.043 C 
HETATM   10  C16 UNL     1      -3.107   6.111  12.674  1.00  0.00     0.014 C 
HETATM   11  C17 UNL     1      -2.930   6.695  14.096  1.00  0.00    -0.020 C 
HETATM   12  C18 UNL     1      -2.728   5.517  15.076  1.00  0.00     0.017 C 
HETATM   13  C19 UNL     1      -0.457   6.986  13.751  1.00  0.00     0.137 A 
HETATM   14  O3  UNL     1       0.173   6.067  14.623  1.00  0.00    -0.364 OA
HETATM   15  C20 UNL     1       0.881   7.300  14.388  1.00  0.00     0.162 A 
HETATM   16  C21 UNL     1       2.140   7.166  13.584  1.00  0.00     0.042 C 
HETATM   17  C22 UNL     1       1.843   7.416  12.090  1.00  0.00     0.014 C 
HETATM   18  C23 UNL     1       3.100   7.629  11.182  1.00  0.00     0.018 C 
HETATM   19  C24 UNL     1       3.928   8.830  11.690  1.00  0.00     0.023 C 
HETATM   20  C25 UNL     1       4.035   6.417  11.075  1.00  0.00     0.023 C 
HETATM   21  C26 UNL     1       2.629   7.979   9.760  1.00  0.00     0.135 C 
HETATM   22  O4  UNL     1       3.416   8.349   8.887  1.00  0.00    -0.297 OA
HETATM   23  C27 UNL     1       1.152   7.869   9.463  1.00  0.00     0.080 C 
HETATM   24  C28 UNL     1       0.627   6.548  10.003  1.00  0.00     0.020 C 
HETATM   25  C29 UNL     1       0.763   6.390  11.551  1.00  0.00    -0.004 C 
HETATM   26  C30 UNL     1       1.138   4.908  11.822  1.00  0.00     0.019 C 
ENDROOT
BRANCH   1  27
HETATM   27  C7  UNL     1      -5.511   7.194  14.807  1.00  0.00    -0.014 C 
HETATM   28  C8  UNL     1      -6.001   6.390  13.585  1.00  0.00     0.010 C 
BRANCH  27  29
HETATM   29  C6  UNL     1      -6.624   8.171  15.245  1.00  0.00     0.008 C 
BRANCH  29  30
HETATM   30  C5  UNL     1      -8.073   7.773  14.957  1.00  0.00     0.028 C 
BRANCH  30  31
HETATM   31  C4  UNL     1      -8.980   8.215  16.075  1.00  0.00    -0.025 C 
HETATM   32  C2  UNL     1      -9.832   9.258  16.096  1.00  0.00    -0.091 C 
HETATM   33  C1  UNL     1     -10.677   9.528  17.314  1.00  0.00     0.042 C 
HETATM   34  C3  UNL     1     -10.047  10.232  14.972  1.00  0.00     0.042 C 
ENDBRANCH  30  31
ENDBRANCH  29  30
ENDBRANCH  27  29
ENDBRANCH   1  27
TORSDOF 4
ENDMDL
