MODEL 1
REMARK minimizedAffinity -8.14377022
REMARK CNNscore 0.262952328
REMARK CNNaffinity 6.42774391
REMARK  19 active torsions:
REMARK  status: ('A' for Active; 'I' for Inactive)
REMARK    1  A    between atoms: O1_2  and  C2_3 
REMARK    2  A    between atoms: C2_3  and  C3_4 
REMARK    3  A    between atoms: C2_3  and  C28_36 
REMARK    4  A    between atoms: C3_4  and  C4_5 
REMARK    5  A    between atoms: C4_5  and  C6_7 
REMARK    6  A    between atoms: C6_7  and  O2_8 
REMARK    7  A    between atoms: C6_7  and  C7_9 
REMARK    8  A    between atoms: C8_10  and  C9_11 
REMARK    9  A    between atoms: C10_12  and  C11_13 
REMARK   10  A    between atoms: C11_13  and  N1_14 
REMARK       I    between atoms: N1_14  and  C12_15 
REMARK   11  A    between atoms: C12_15  and  C13_17 
REMARK   12  A    between atoms: C13_17  and  C16_20 
REMARK   13  A    between atoms: C16_20  and  O4_21 
REMARK   14  A    between atoms: C16_20  and  C17_22 
REMARK   15  A    between atoms: C19_24  and  C20_25 
REMARK   16  A    between atoms: C21_26  and  C22_27 
REMARK   17  A    between atoms: C23_28  and  C24_29 
REMARK   18  A    between atoms: C26_31  and  N2_33 
REMARK   19  A    between atoms: C28_36  and  O7_37 
ROOT
HETATM    1  C9  UNL     1      -3.830  48.431 -27.272  1.00  0.00    -0.003 C 
HETATM    2  C10 UNL     1      -4.677  48.429 -28.311  1.00  0.00    -0.007 C 
ENDROOT
BRANCH   1   3
HETATM    3  C8  UNL     1      -2.874  49.484 -27.027  1.00  0.00    -0.002 C 
HETATM    4  C7  UNL     1      -3.255  50.706 -26.633  1.00  0.00     0.005 C 
BRANCH   4   5
HETATM    5  C6  UNL     1      -2.292  51.805 -26.286  1.00  0.00     0.144 C 
BRANCH   5   6
HETATM    6  C4  UNL     1      -1.453  51.475 -25.027  1.00  0.00     0.016 C 
HETATM    7  C5  UNL     1       0.022  51.893 -25.143  1.00  0.00     0.013 C 
BRANCH   6   8
HETATM    8  C3  UNL     1      -2.110  51.951 -23.706  1.00  0.00     0.042 C 
BRANCH   8   9
HETATM    9  C2  UNL     1      -1.874  51.118 -22.410  1.00  0.00     0.159 C 
BRANCH   9  10
HETATM   10  O1  UNL     1      -1.278  51.988 -21.435  1.00  0.00    -0.388 OA
HETATM   11  C1  UNL     1       0.138  51.911 -21.315  1.00  0.00     0.202 C 
ENDBRANCH   9  10
BRANCH   9  12
HETATM   12  C28 UNL     1      -3.234  50.637 -21.820  1.00  0.00     0.133 C 
HETATM   13  C29 UNL     1      -4.101  49.719 -22.734  1.00  0.00     0.114 C 
HETATM   14  C30 UNL     1      -3.370  48.587 -23.445  1.00  0.00     0.023 C 
HETATM   15  C31 UNL     1      -5.101  49.141 -21.750  1.00  0.00     0.227 C 
HETATM   16  O8  UNL     1      -6.181  48.661 -22.044  1.00  0.00    -0.273 OA
HETATM   17  N3  UNL     1      -4.535  49.198 -20.488  1.00  0.00    -0.332 N 
HETATM   18  C32 UNL     1      -5.307  48.997 -19.286  1.00  0.00     0.154 C 
HETATM   19  C33 UNL     1      -3.178  49.841 -20.496  1.00  0.00     0.183 C 
HETATM   20  C34 UNL     1      -2.720  50.660 -19.245  1.00  0.00     0.294 C 
HETATM   21  C35 UNL     1      -2.104  48.832 -19.930  1.00  0.00     0.169 C 
HETATM   22  O9  UNL     1      -3.042  51.668 -18.657  1.00  0.00    -0.262 OA
HETATM   23  O10 UNL     1      -1.675  49.831 -18.963  1.00  0.00    -0.311 OA
HETATM   24  C36 UNL     1      -0.917  48.232 -20.656  1.00  0.00     0.043 C 
BRANCH  12  25
HETATM   25  O7  UNL     1      -4.059  51.824 -21.631  1.00  0.00    -0.383 OA
HETATM   26  H42 UNL     1      -3.693  52.346 -20.881  1.00  0.00     0.210 HD
ENDBRANCH  12  25
ENDBRANCH   9  12
ENDBRANCH   8   9
ENDBRANCH   6   8
ENDBRANCH   5   6
BRANCH   5  27
HETATM   27  O2  UNL     1      -3.073  52.977 -26.063  1.00  0.00    -0.391 OA
HETATM   28  H12 UNL     1      -3.648  52.819 -25.297  1.00  0.00     0.210 HD
ENDBRANCH   5  27
ENDBRANCH   4   5
ENDBRANCH   1   3
BRANCH   2  29
HETATM   29  C11 UNL     1      -5.684  47.373 -28.669  1.00  0.00     0.149 C 
BRANCH  29  30
HETATM   30  N1  UNL     1      -6.942  47.948 -29.071  1.00  0.00    -0.357 N 
HETATM   31  C12 UNL     1      -7.780  47.303 -29.949  1.00  0.00     0.228 C 
HETATM   32  O3  UNL     1      -7.486  46.206 -30.417  1.00  0.00    -0.273 OA
HETATM   33  H19 UNL     1      -7.091  48.931 -28.888  1.00  0.00     0.162 HD
BRANCH  31  34
HETATM   34  C13 UNL     1      -9.147  47.970 -30.199  1.00  0.00     0.063 C 
HETATM   35  C14 UNL     1      -9.920  47.294 -31.348  1.00  0.00     0.028 C 
HETATM   36  C15 UNL     1      -8.842  49.435 -30.595  1.00  0.00     0.028 C 
BRANCH  34  37
HETATM   37  C16 UNL     1     -10.020  47.980 -28.899  1.00  0.00     0.164 C 
BRANCH  37  38
HETATM   38  O4  UNL     1      -9.539  48.911 -27.925  1.00  0.00    -0.390 OA
HETATM   39  H27 UNL     1      -8.593  48.702 -27.779  1.00  0.00     0.210 HD
ENDBRANCH  37  38
BRANCH  37  40
HETATM   40  C17 UNL     1     -10.292  46.639 -28.215  1.00  0.00    -0.054 C 
HETATM   41  C18 UNL     1      -9.218  46.125 -27.283  1.00  0.00     0.046 C 
HETATM   42  C19 UNL     1     -11.414  45.897 -28.366  1.00  0.00     0.005 C 
BRANCH  42  43
HETATM   43  C20 UNL     1     -12.566  46.195 -29.199  1.00  0.00     0.000 C 
HETATM   44  C21 UNL     1     -13.861  46.185 -28.835  1.00  0.00     0.000 C 
BRANCH  44  45
HETATM   45  C22 UNL     1     -14.416  45.870 -27.536  1.00  0.00     0.001 C 
HETATM   46  C23 UNL     1     -15.682  45.453 -27.378  1.00  0.00     0.009 C 
BRANCH  46  47
HETATM   47  C24 UNL     1     -16.330  45.114 -26.103  1.00  0.00    -0.034 C 
HETATM   48  C25 UNL     1     -16.470  46.261 -25.115  1.00  0.00     0.050 C 
HETATM   49  C26 UNL     1     -16.700  43.835 -25.847  1.00  0.00     0.082 C 
HETATM   50  C27 UNL     1     -16.628  42.603 -26.686  1.00  0.00     0.075 C 
BRANCH  49  51
HETATM   51  N2  UNL     1     -17.331  43.561 -24.575  1.00  0.00    -0.120 N 
HETATM   52  O5  UNL     1     -16.647  43.726 -23.555  1.00  0.00    -0.532 OA
HETATM   53  O6  UNL     1     -18.515  43.205 -24.607  1.00  0.00    -0.532 OA
ENDBRANCH  49  51
ENDBRANCH  46  47
ENDBRANCH  44  45
ENDBRANCH  42  43
ENDBRANCH  37  40
ENDBRANCH  34  37
ENDBRANCH  31  34
ENDBRANCH  29  30
ENDBRANCH   2  29
TORSDOF 19
ENDMDL
MODEL 2
REMARK minimizedAffinity -8.00341606
REMARK CNNscore 0.257914484
REMARK CNNaffinity 6.47802162
REMARK  19 active torsions:
REMARK  status: ('A' for Active; 'I' for Inactive)
REMARK    1  A    between atoms: O1_2  and  C2_3 
REMARK    2  A    between atoms: C2_3  and  C3_4 
REMARK    3  A    between atoms: C2_3  and  C28_36 
REMARK    4  A    between atoms: C3_4  and  C4_5 
REMARK    5  A    between atoms: C4_5  and  C6_7 
REMARK    6  A    between atoms: C6_7  and  O2_8 
REMARK    7  A    between atoms: C6_7  and  C7_9 
REMARK    8  A    between atoms: C8_10  and  C9_11 
REMARK    9  A    between atoms: C10_12  and  C11_13 
REMARK   10  A    between atoms: C11_13  and  N1_14 
REMARK       I    between atoms: N1_14  and  C12_15 
REMARK   11  A    between atoms: C12_15  and  C13_17 
REMARK   12  A    between atoms: C13_17  and  C16_20 
REMARK   13  A    between atoms: C16_20  and  O4_21 
REMARK   14  A    between atoms: C16_20  and  C17_22 
REMARK   15  A    between atoms: C19_24  and  C20_25 
REMARK   16  A    between atoms: C21_26  and  C22_27 
REMARK   17  A    between atoms: C23_28  and  C24_29 
REMARK   18  A    between atoms: C26_31  and  N2_33 
REMARK   19  A    between atoms: C28_36  and  O7_37 
ROOT
HETATM    1  C9  UNL     1      -3.215  48.484 -26.752  1.00  0.00    -0.003 C 
HETATM    2  C10 UNL     1      -4.494  48.506 -27.151  1.00  0.00    -0.007 C 
ENDROOT
BRANCH   1   3
HETATM    3  C8  UNL     1      -2.801  48.736 -25.392  1.00  0.00    -0.002 C 
HETATM    4  C7  UNL     1      -2.640  49.979 -24.923  1.00  0.00     0.005 C 
BRANCH   4   5
HETATM    5  C6  UNL     1      -2.292  50.289 -23.495  1.00  0.00     0.144 C 
BRANCH   5   6
HETATM    6  C4  UNL     1      -3.178  51.415 -22.905  1.00  0.00     0.016 C 
HETATM    7  C5  UNL     1      -4.627  51.390 -23.416  1.00  0.00     0.013 C 
BRANCH   6   8
HETATM    8  C3  UNL     1      -3.086  51.525 -21.361  1.00  0.00     0.042 C 
BRANCH   8   9
HETATM    9  C2  UNL     1      -3.782  50.436 -20.491  1.00  0.00     0.159 C 
BRANCH   9  10
HETATM   10  O1  UNL     1      -3.650  49.180 -21.174  1.00  0.00    -0.388 OA
HETATM   11  C1  UNL     1      -4.863  48.567 -21.592  1.00  0.00     0.202 C 
ENDBRANCH   9  10
BRANCH   9  12
HETATM   12  C28 UNL     1      -3.054  50.289 -19.121  1.00  0.00     0.133 C 
HETATM   13  C29 UNL     1      -3.788  49.449 -18.032  1.00  0.00     0.114 C 
HETATM   14  C30 UNL     1      -4.388  48.125 -18.489  1.00  0.00     0.023 C 
HETATM   15  C31 UNL     1      -2.678  49.186 -17.031  1.00  0.00     0.227 C 
HETATM   16  O8  UNL     1      -2.843  48.885 -15.861  1.00  0.00    -0.273 OA
HETATM   17  N3  UNL     1      -1.471  49.283 -17.701  1.00  0.00    -0.332 N 
HETATM   18  C32 UNL     1      -0.209  49.371 -17.007  1.00  0.00     0.154 C 
HETATM   19  C33 UNL     1      -1.644  49.656 -19.144  1.00  0.00     0.183 C 
HETATM   20  C34 UNL     1      -0.539  50.515 -19.843  1.00  0.00     0.294 C 
HETATM   21  C35 UNL     1      -1.018  48.538 -20.066  1.00  0.00     0.169 C 
HETATM   22  O9  UNL     1      -0.069  51.627 -19.755  1.00  0.00    -0.262 OA
HETATM   23  O10 UNL     1      -0.216  49.544 -20.743  1.00  0.00    -0.311 OA
HETATM   24  C36 UNL     1      -1.730  47.646 -21.062  1.00  0.00     0.043 C 
BRANCH  12  25
HETATM   25  O7  UNL     1      -2.972  51.623 -18.539  1.00  0.00    -0.383 OA
HETATM   26  H42 UNL     1      -2.319  52.151 -19.052  1.00  0.00     0.210 HD
ENDBRANCH  12  25
ENDBRANCH   9  12
ENDBRANCH   8   9
ENDBRANCH   6   8
ENDBRANCH   5   6
BRANCH   5  27
HETATM   27  O2  UNL     1      -0.922  50.684 -23.484  1.00  0.00    -0.391 OA
HETATM   28  H12 UNL     1      -0.835  51.499 -24.005  1.00  0.00     0.210 HD
ENDBRANCH   5  27
ENDBRANCH   4   5
ENDBRANCH   1   3
BRANCH   2  29
HETATM   29  C11 UNL     1      -5.024  48.286 -28.539  1.00  0.00     0.149 C 
BRANCH  29  30
HETATM   30  N1  UNL     1      -6.459  48.408 -28.590  1.00  0.00    -0.357 N 
HETATM   31  C12 UNL     1      -7.254  47.373 -29.023  1.00  0.00     0.228 C 
HETATM   32  O3  UNL     1      -6.765  46.303 -29.376  1.00  0.00    -0.273 OA
HETATM   33  H19 UNL     1      -6.856  49.336 -28.531  1.00  0.00     0.162 HD
BRANCH  31  34
HETATM   34  C13 UNL     1      -8.775  47.593 -28.910  1.00  0.00     0.063 C 
HETATM   35  C14 UNL     1      -9.326  48.437 -30.076  1.00  0.00     0.028 C 
HETATM   36  C15 UNL     1      -9.001  48.361 -27.586  1.00  0.00     0.028 C 
BRANCH  34  37
HETATM   37  C16 UNL     1      -9.542  46.229 -28.829  1.00  0.00     0.164 C 
BRANCH  37  38
HETATM   38  O4  UNL     1     -10.917  46.397 -28.471  1.00  0.00    -0.390 OA
HETATM   39  H27 UNL     1     -10.932  46.923 -27.645  1.00  0.00     0.210 HD
ENDBRANCH  37  38
BRANCH  37  40
HETATM   40  C17 UNL     1      -8.934  45.122 -27.965  1.00  0.00    -0.054 C 
HETATM   41  C18 UNL     1      -8.421  45.532 -26.603  1.00  0.00     0.046 C 
HETATM   42  C19 UNL     1      -8.839  43.818 -28.318  1.00  0.00     0.005 C 
BRANCH  42  43
HETATM   43  C20 UNL     1      -9.266  43.205 -29.563  1.00  0.00     0.000 C 
HETATM   44  C21 UNL     1      -8.619  43.216 -30.742  1.00  0.00     0.000 C 
BRANCH  44  45
HETATM   45  C22 UNL     1      -7.351  43.841 -31.054  1.00  0.00     0.001 C 
HETATM   46  C23 UNL     1      -7.201  44.680 -32.091  1.00  0.00     0.009 C 
BRANCH  46  47
HETATM   47  C24 UNL     1      -5.957  45.358 -32.484  1.00  0.00    -0.034 C 
HETATM   48  C25 UNL     1      -4.712  44.486 -32.495  1.00  0.00     0.050 C 
HETATM   49  C26 UNL     1      -5.960  46.689 -32.745  1.00  0.00     0.082 C 
HETATM   50  C27 UNL     1      -7.073  47.684 -32.769  1.00  0.00     0.075 C 
BRANCH  49  51
HETATM   51  N2  UNL     1      -4.707  47.301 -33.124  1.00  0.00    -0.120 N 
HETATM   52  O5  UNL     1      -4.563  47.609 -34.315  1.00  0.00    -0.532 OA
HETATM   53  O6  UNL     1      -3.884  47.490 -32.219  1.00  0.00    -0.532 OA
ENDBRANCH  49  51
ENDBRANCH  46  47
ENDBRANCH  44  45
ENDBRANCH  42  43
ENDBRANCH  37  40
ENDBRANCH  34  37
ENDBRANCH  31  34
ENDBRANCH  29  30
ENDBRANCH   2  29
TORSDOF 19
ENDMDL
MODEL 3
REMARK minimizedAffinity -8.35015011
REMARK CNNscore 0.241294399
REMARK CNNaffinity 6.66954947
REMARK  19 active torsions:
REMARK  status: ('A' for Active; 'I' for Inactive)
REMARK    1  A    between atoms: O1_2  and  C2_3 
REMARK    2  A    between atoms: C2_3  and  C3_4 
REMARK    3  A    between atoms: C2_3  and  C28_36 
REMARK    4  A    between atoms: C3_4  and  C4_5 
REMARK    5  A    between atoms: C4_5  and  C6_7 
REMARK    6  A    between atoms: C6_7  and  O2_8 
REMARK    7  A    between atoms: C6_7  and  C7_9 
REMARK    8  A    between atoms: C8_10  and  C9_11 
REMARK    9  A    between atoms: C10_12  and  C11_13 
REMARK   10  A    between atoms: C11_13  and  N1_14 
REMARK       I    between atoms: N1_14  and  C12_15 
REMARK   11  A    between atoms: C12_15  and  C13_17 
REMARK   12  A    between atoms: C13_17  and  C16_20 
REMARK   13  A    between atoms: C16_20  and  O4_21 
REMARK   14  A    between atoms: C16_20  and  C17_22 
REMARK   15  A    between atoms: C19_24  and  C20_25 
REMARK   16  A    between atoms: C21_26  and  C22_27 
REMARK   17  A    between atoms: C23_28  and  C24_29 
REMARK   18  A    between atoms: C26_31  and  N2_33 
REMARK   19  A    between atoms: C28_36  and  O7_37 
ROOT
HETATM    1  C9  UNL     1      -4.689  48.078 -27.939  1.00  0.00    -0.003 C 
HETATM    2  C10 UNL     1      -4.089  48.412 -26.788  1.00  0.00    -0.007 C 
ENDROOT
BRANCH   1   3
HETATM    3  C8  UNL     1      -6.089  47.742 -28.039  1.00  0.00    -0.002 C 
HETATM    4  C7  UNL     1      -6.635  47.327 -29.188  1.00  0.00     0.005 C 
BRANCH   4   5
HETATM    5  C6  UNL     1      -8.065  46.887 -29.318  1.00  0.00     0.144 C 
BRANCH   5   6
HETATM    6  C4  UNL     1      -9.057  48.071 -29.203  1.00  0.00     0.016 C 
HETATM    7  C5  UNL     1      -9.602  48.553 -30.558  1.00  0.00     0.013 C 
BRANCH   6   8
HETATM    8  C3  UNL     1     -10.176  47.837 -28.155  1.00  0.00     0.042 C 
BRANCH   8   9
HETATM    9  C2  UNL     1     -11.511  47.182 -28.618  1.00  0.00     0.159 C 
BRANCH   9  10
HETATM   10  O1  UNL     1     -11.218  45.837 -29.028  1.00  0.00    -0.388 OA
HETATM   11  C1  UNL     1     -11.349  45.567 -30.419  1.00  0.00     0.202 C 
ENDBRANCH   9  10
BRANCH   9  12
HETATM   12  C28 UNL     1     -12.511  47.087 -27.427  1.00  0.00     0.133 C 
HETATM   13  C29 UNL     1     -13.951  46.594 -27.767  1.00  0.00     0.114 C 
HETATM   14  C30 UNL     1     -14.051  45.376 -28.676  1.00  0.00     0.023 C 
HETATM   15  C31 UNL     1     -14.503  46.253 -26.395  1.00  0.00     0.227 C 
HETATM   16  O8  UNL     1     -15.685  46.171 -26.114  1.00  0.00    -0.273 OA
HETATM   17  N3  UNL     1     -13.431  45.990 -25.560  1.00  0.00    -0.332 N 
HETATM   18  C32 UNL     1     -13.571  45.908 -24.126  1.00  0.00     0.154 C 
HETATM   19  C33 UNL     1     -12.109  46.172 -26.247  1.00  0.00     0.183 C 
HETATM   20  C34 UNL     1     -10.881  46.663 -25.412  1.00  0.00     0.294 C 
HETATM   21  C35 UNL     1     -11.292  44.822 -26.207  1.00  0.00     0.169 C 
HETATM   22  O9  UNL     1     -10.542  47.649 -24.798  1.00  0.00    -0.262 OA
HETATM   23  O10 UNL     1     -10.163  45.523 -25.617  1.00  0.00    -0.311 OA
HETATM   24  C36 UNL     1     -10.852  43.965 -27.376  1.00  0.00     0.043 C 
BRANCH  12  25
HETATM   25  O7  UNL     1     -12.713  48.444 -26.934  1.00  0.00    -0.383 OA
HETATM   26  H42 UNL     1     -11.892  48.739 -26.477  1.00  0.00     0.210 HD
ENDBRANCH  12  25
ENDBRANCH   9  12
ENDBRANCH   8   9
ENDBRANCH   6   8
ENDBRANCH   5   6
BRANCH   5  27
HETATM   27  O2  UNL     1      -8.300  45.946 -28.274  1.00  0.00    -0.391 OA
HETATM   28  H12 UNL     1      -8.195  46.401 -27.423  1.00  0.00     0.210 HD
ENDBRANCH   5  27
ENDBRANCH   4   5
ENDBRANCH   1   3
BRANCH   2  29
HETATM   29  C11 UNL     1      -2.641  48.750 -26.574  1.00  0.00     0.149 C 
BRANCH  29  30
HETATM   30  N1  UNL     1      -2.477  49.838 -25.645  1.00  0.00    -0.357 N 
HETATM   31  C12 UNL     1      -2.634  49.659 -24.292  1.00  0.00     0.228 C 
HETATM   32  O3  UNL     1      -2.914  48.558 -23.826  1.00  0.00    -0.273 OA
HETATM   33  H19 UNL     1      -2.479  50.779 -26.016  1.00  0.00     0.162 HD
BRANCH  31  34
HETATM   34  C13 UNL     1      -2.309  50.876 -23.403  1.00  0.00     0.063 C 
HETATM   35  C14 UNL     1      -3.285  52.043 -23.642  1.00  0.00     0.028 C 
HETATM   36  C15 UNL     1      -0.883  51.327 -23.799  1.00  0.00     0.028 C 
BRANCH  34  37
HETATM   37  C16 UNL     1      -2.302  50.486 -21.886  1.00  0.00     0.164 C 
BRANCH  37  38
HETATM   38  O4  UNL     1      -2.902  51.491 -21.062  1.00  0.00    -0.390 OA
HETATM   39  H27 UNL     1      -2.447  52.333 -21.268  1.00  0.00     0.210 HD
ENDBRANCH  37  38
BRANCH  37  40
HETATM   40  C17 UNL     1      -0.969  50.064 -21.265  1.00  0.00    -0.054 C 
HETATM   41  C18 UNL     1      -0.764  48.582 -21.049  1.00  0.00     0.046 C 
HETATM   42  C19 UNL     1       0.033  50.905 -20.917  1.00  0.00     0.005 C 
BRANCH  42  43
HETATM   43  C20 UNL     1       0.055  52.353 -21.038  1.00  0.00     0.000 C 
HETATM   44  C21 UNL     1       0.192  53.252 -20.047  1.00  0.00     0.000 C 
BRANCH  44  45
HETATM   45  C22 UNL     1       0.343  52.997 -18.631  1.00  0.00     0.001 C 
HETATM   46  C23 UNL     1       0.657  51.784 -18.148  1.00  0.00     0.009 C 
BRANCH  46  47
HETATM   47  C24 UNL     1       0.828  51.433 -16.732  1.00  0.00    -0.034 C 
HETATM   48  C25 UNL     1       1.569  52.458 -15.888  1.00  0.00     0.050 C 
HETATM   49  C26 UNL     1       0.395  50.233 -16.271  1.00  0.00     0.082 C 
HETATM   50  C27 UNL     1      -0.331  49.121 -16.952  1.00  0.00     0.075 C 
BRANCH  49  51
HETATM   51  N2  UNL     1       0.593  49.942 -14.868  1.00  0.00    -0.120 N 
HETATM   52  O5  UNL     1      -0.293  50.305 -14.083  1.00  0.00    -0.532 OA
HETATM   53  O6  UNL     1       1.626  49.331 -14.568  1.00  0.00    -0.532 OA
ENDBRANCH  49  51
ENDBRANCH  46  47
ENDBRANCH  44  45
ENDBRANCH  42  43
ENDBRANCH  37  40
ENDBRANCH  34  37
ENDBRANCH  31  34
ENDBRANCH  29  30
ENDBRANCH   2  29
TORSDOF 19
ENDMDL
MODEL 4
REMARK minimizedAffinity -8.14353752
REMARK CNNscore 0.219095886
REMARK CNNaffinity 6.0227561
REMARK  19 active torsions:
REMARK  status: ('A' for Active; 'I' for Inactive)
REMARK    1  A    between atoms: O1_2  and  C2_3 
REMARK    2  A    between atoms: C2_3  and  C3_4 
REMARK    3  A    between atoms: C2_3  and  C28_36 
REMARK    4  A    between atoms: C3_4  and  C4_5 
REMARK    5  A    between atoms: C4_5  and  C6_7 
REMARK    6  A    between atoms: C6_7  and  O2_8 
REMARK    7  A    between atoms: C6_7  and  C7_9 
REMARK    8  A    between atoms: C8_10  and  C9_11 
REMARK    9  A    between atoms: C10_12  and  C11_13 
REMARK   10  A    between atoms: C11_13  and  N1_14 
REMARK       I    between atoms: N1_14  and  C12_15 
REMARK   11  A    between atoms: C12_15  and  C13_17 
REMARK   12  A    between atoms: C13_17  and  C16_20 
REMARK   13  A    between atoms: C16_20  and  O4_21 
REMARK   14  A    between atoms: C16_20  and  C17_22 
REMARK   15  A    between atoms: C19_24  and  C20_25 
REMARK   16  A    between atoms: C21_26  and  C22_27 
REMARK   17  A    between atoms: C23_28  and  C24_29 
REMARK   18  A    between atoms: C26_31  and  N2_33 
REMARK   19  A    between atoms: C28_36  and  O7_37 
ROOT
HETATM    1  C9  UNL     1      -4.404  48.719 -28.405  1.00  0.00    -0.003 C 
HETATM    2  C10 UNL     1      -5.452  47.884 -28.424  1.00  0.00    -0.007 C 
ENDROOT
BRANCH   1   3
HETATM    3  C8  UNL     1      -3.513  48.853 -27.277  1.00  0.00    -0.002 C 
HETATM    4  C7  UNL     1      -2.676  49.891 -27.159  1.00  0.00     0.005 C 
BRANCH   4   5
HETATM    5  C6  UNL     1      -1.794  50.115 -25.964  1.00  0.00     0.144 C 
BRANCH   5   6
HETATM    6  C4  UNL     1      -2.372  51.177 -24.996  1.00  0.00     0.016 C 
HETATM    7  C5  UNL     1      -3.202  52.264 -25.700  1.00  0.00     0.013 C 
BRANCH   6   8
HETATM    8  C3  UNL     1      -3.100  50.563 -23.773  1.00  0.00     0.042 C 
BRANCH   8   9
HETATM    9  C2  UNL     1      -2.438  50.688 -22.368  1.00  0.00     0.159 C 
BRANCH   9  10
HETATM   10  O1  UNL     1      -2.077  52.065 -22.176  1.00  0.00    -0.388 OA
HETATM   11  C1  UNL     1      -0.685  52.335 -22.066  1.00  0.00     0.202 C 
ENDBRANCH   9  10
BRANCH   9  12
HETATM   12  C28 UNL     1      -3.462  50.326 -21.251  1.00  0.00     0.133 C 
HETATM   13  C29 UNL     1      -4.567  49.293 -21.631  1.00  0.00     0.114 C 
HETATM   14  C30 UNL     1      -4.102  48.053 -22.384  1.00  0.00     0.023 C 
HETATM   15  C31 UNL     1      -5.107  48.890 -20.271  1.00  0.00     0.227 C 
HETATM   16  O8  UNL     1      -6.199  48.389 -20.069  1.00  0.00    -0.273 OA
HETATM   17  N3  UNL     1      -4.119  49.131 -19.333  1.00  0.00    -0.332 N 
HETATM   18  C32 UNL     1      -4.384  49.130 -17.915  1.00  0.00     0.154 C 
HETATM   19  C33 UNL     1      -2.889  49.743 -19.939  1.00  0.00     0.183 C 
HETATM   20  C34 UNL     1      -2.036  50.737 -19.085  1.00  0.00     0.294 C 
HETATM   21  C35 UNL     1      -1.640  48.815 -19.669  1.00  0.00     0.169 C 
HETATM   22  O9  UNL     1      -2.161  51.828 -18.577  1.00  0.00    -0.262 OA
HETATM   23  O10 UNL     1      -0.928  49.944 -19.090  1.00  0.00    -0.311 OA
HETATM   24  C36 UNL     1      -0.781  48.091 -20.685  1.00  0.00     0.043 C 
BRANCH  12  25
HETATM   25  O7  UNL     1      -4.208  51.542 -20.949  1.00  0.00    -0.383 OA
HETATM   26  H42 UNL     1      -3.614  52.167 -20.475  1.00  0.00     0.210 HD
ENDBRANCH  12  25
ENDBRANCH   9  12
ENDBRANCH   8   9
ENDBRANCH   6   8
ENDBRANCH   5   6
BRANCH   5  27
HETATM   27  O2  UNL     1      -0.529  50.543 -26.464  1.00  0.00    -0.391 OA
HETATM   28  H12 UNL     1      -0.651  51.392 -26.919  1.00  0.00     0.210 HD
ENDBRANCH   5  27
ENDBRANCH   4   5
ENDBRANCH   1   3
BRANCH   2  29
HETATM   29  C11 UNL     1      -6.449  47.691 -29.531  1.00  0.00     0.149 C 
BRANCH  29  30
HETATM   30  N1  UNL     1      -7.520  46.812 -29.139  1.00  0.00    -0.357 N 
HETATM   31  C12 UNL     1      -8.728  47.300 -28.700  1.00  0.00     0.228 C 
HETATM   32  O3  UNL     1      -8.938  48.508 -28.633  1.00  0.00    -0.273 OA
HETATM   33  H19 UNL     1      -7.294  45.842 -28.964  1.00  0.00     0.162 HD
BRANCH  31  34
HETATM   34  C13 UNL     1      -9.826  46.252 -28.430  1.00  0.00     0.063 C 
HETATM   35  C14 UNL     1     -10.087  46.062 -26.924  1.00  0.00     0.028 C 
HETATM   36  C15 UNL     1      -9.303  44.921 -29.019  1.00  0.00     0.028 C 
BRANCH  34  37
HETATM   37  C16 UNL     1     -11.161  46.627 -29.160  1.00  0.00     0.164 C 
BRANCH  37  38
HETATM   38  O4  UNL     1     -10.963  47.594 -30.195  1.00  0.00    -0.390 OA
HETATM   39  H27 UNL     1     -10.495  48.352 -29.787  1.00  0.00     0.210 HD
ENDBRANCH  37  38
BRANCH  37  40
HETATM   40  C17 UNL     1     -12.348  47.057 -28.297  1.00  0.00    -0.054 C 
HETATM   41  C18 UNL     1     -12.244  48.410 -27.631  1.00  0.00     0.046 C 
HETATM   42  C19 UNL     1     -13.476  46.334 -28.101  1.00  0.00     0.005 C 
BRANCH  42  43
HETATM   43  C20 UNL     1     -13.790  45.022 -28.641  1.00  0.00     0.000 C 
HETATM   44  C21 UNL     1     -14.970  44.379 -28.586  1.00  0.00     0.000 C 
BRANCH  44  45
HETATM   45  C22 UNL     1     -16.202  44.832 -27.975  1.00  0.00     0.001 C 
HETATM   46  C23 UNL     1     -16.395  44.808 -26.647  1.00  0.00     0.009 C 
BRANCH  46  47
HETATM   47  C24 UNL     1     -17.608  45.245 -25.941  1.00  0.00    -0.034 C 
HETATM   48  C25 UNL     1     -18.901  44.583 -26.390  1.00  0.00     0.050 C 
HETATM   49  C26 UNL     1     -17.536  46.223 -25.004  1.00  0.00     0.082 C 
HETATM   50  C27 UNL     1     -16.369  46.976 -24.457  1.00  0.00     0.075 C 
BRANCH  49  51
HETATM   51  N2  UNL     1     -18.762  46.612 -24.344  1.00  0.00    -0.120 N 
HETATM   52  O5  UNL     1     -19.596  47.231 -25.017  1.00  0.00    -0.532 OA
HETATM   53  O6  UNL     1     -18.888  46.272 -23.161  1.00  0.00    -0.532 OA
ENDBRANCH  49  51
ENDBRANCH  46  47
ENDBRANCH  44  45
ENDBRANCH  42  43
ENDBRANCH  37  40
ENDBRANCH  34  37
ENDBRANCH  31  34
ENDBRANCH  29  30
ENDBRANCH   2  29
TORSDOF 19
ENDMDL
MODEL 5
REMARK minimizedAffinity -8.02057362
REMARK CNNscore 0.209284723
REMARK CNNaffinity 5.48308754
REMARK  19 active torsions:
REMARK  status: ('A' for Active; 'I' for Inactive)
REMARK    1  A    between atoms: O1_2  and  C2_3 
REMARK    2  A    between atoms: C2_3  and  C3_4 
REMARK    3  A    between atoms: C2_3  and  C28_36 
REMARK    4  A    between atoms: C3_4  and  C4_5 
REMARK    5  A    between atoms: C4_5  and  C6_7 
REMARK    6  A    between atoms: C6_7  and  O2_8 
REMARK    7  A    between atoms: C6_7  and  C7_9 
REMARK    8  A    between atoms: C8_10  and  C9_11 
REMARK    9  A    between atoms: C10_12  and  C11_13 
REMARK   10  A    between atoms: C11_13  and  N1_14 
REMARK       I    between atoms: N1_14  and  C12_15 
REMARK   11  A    between atoms: C12_15  and  C13_17 
REMARK   12  A    between atoms: C13_17  and  C16_20 
REMARK   13  A    between atoms: C16_20  and  O4_21 
REMARK   14  A    between atoms: C16_20  and  C17_22 
REMARK   15  A    between atoms: C19_24  and  C20_25 
REMARK   16  A    between atoms: C21_26  and  C22_27 
REMARK   17  A    between atoms: C23_28  and  C24_29 
REMARK   18  A    between atoms: C26_31  and  N2_33 
REMARK   19  A    between atoms: C28_36  and  O7_37 
ROOT
HETATM    1  C9  UNL     1      -3.925  48.242 -27.060  1.00  0.00    -0.003 C 
HETATM    2  C10 UNL     1      -5.254  48.079 -27.016  1.00  0.00    -0.007 C 
ENDROOT
BRANCH   1   3
HETATM    3  C8  UNL     1      -3.146  48.731 -25.948  1.00  0.00    -0.002 C 
HETATM    4  C7  UNL     1      -2.884  50.035 -25.788  1.00  0.00     0.005 C 
BRANCH   4   5
HETATM    5  C6  UNL     1      -2.150  50.596 -24.604  1.00  0.00     0.144 C 
BRANCH   5   6
HETATM    6  C4  UNL     1      -2.776  51.919 -24.097  1.00  0.00     0.016 C 
HETATM    7  C5  UNL     1      -4.078  52.301 -24.821  1.00  0.00     0.013 C 
BRANCH   6   8
HETATM    8  C3  UNL     1      -2.904  51.987 -22.553  1.00  0.00     0.042 C 
BRANCH   8   9
HETATM    9  C2  UNL     1      -2.428  50.767 -21.708  1.00  0.00     0.159 C 
BRANCH   9  10
HETATM   10  O1  UNL     1      -1.346  51.210 -20.875  1.00  0.00    -0.388 OA
HETATM   11  C1  UNL     1      -0.050  50.752 -21.242  1.00  0.00     0.202 C 
ENDBRANCH   9  10
BRANCH   9  12
HETATM   12  C28 UNL     1      -3.567  50.287 -20.759  1.00  0.00     0.133 C 
HETATM   13  C29 UNL     1      -4.960  50.040 -21.416  1.00  0.00     0.114 C 
HETATM   14  C30 UNL     1      -4.961  49.262 -22.726  1.00  0.00     0.023 C 
HETATM   15  C31 UNL     1      -5.678  49.238 -20.347  1.00  0.00     0.227 C 
HETATM   16  O8  UNL     1      -6.887  49.123 -20.248  1.00  0.00    -0.273 OA
HETATM   17  N3  UNL     1      -4.719  48.621 -19.563  1.00  0.00    -0.332 N 
HETATM   18  C32 UNL     1      -5.034  48.013 -18.293  1.00  0.00     0.154 C 
HETATM   19  C33 UNL     1      -3.321  48.975 -19.981  1.00  0.00     0.183 C 
HETATM   20  C34 UNL     1      -2.200  49.045 -18.893  1.00  0.00     0.294 C 
HETATM   21  C35 UNL     1      -2.530  47.665 -20.369  1.00  0.00     0.169 C 
HETATM   22  O9  UNL     1      -1.928  49.707 -17.917  1.00  0.00    -0.262 OA
HETATM   23  O10 UNL     1      -1.474  48.028 -19.437  1.00  0.00    -0.311 OA
HETATM   24  C36 UNL     1      -1.959  47.289 -21.720  1.00  0.00     0.043 C 
BRANCH  12  25
HETATM   25  O7  UNL     1      -3.813  51.368 -19.812  1.00  0.00    -0.383 OA
HETATM   26  H42 UNL     1      -3.052  51.423 -19.191  1.00  0.00     0.210 HD
ENDBRANCH  12  25
ENDBRANCH   9  12
ENDBRANCH   8   9
ENDBRANCH   6   8
ENDBRANCH   5   6
BRANCH   5  27
HETATM   27  O2  UNL     1      -0.806  50.817 -25.024  1.00  0.00    -0.391 OA
HETATM   28  H12 UNL     1      -0.812  51.487 -25.727  1.00  0.00     0.210 HD
ENDBRANCH   5  27
ENDBRANCH   4   5
ENDBRANCH   1   3
BRANCH   2  29
HETATM   29  C11 UNL     1      -6.156  47.606 -28.120  1.00  0.00     0.149 C 
BRANCH  29  30
HETATM   30  N1  UNL     1      -7.455  47.228 -27.626  1.00  0.00    -0.357 N 
HETATM   31  C12 UNL     1      -8.592  47.907 -27.996  1.00  0.00     0.228 C 
HETATM   32  O3  UNL     1      -8.538  48.859 -28.771  1.00  0.00    -0.273 OA
HETATM   33  H19 UNL     1      -7.494  46.614 -26.823  1.00  0.00     0.162 HD
BRANCH  31  34
HETATM   34  C13 UNL     1      -9.927  47.323 -27.492  1.00  0.00     0.063 C 
HETATM   35  C14 UNL     1      -9.833  45.808 -27.230  1.00  0.00     0.028 C 
HETATM   36  C15 UNL     1     -10.957  47.573 -28.620  1.00  0.00     0.028 C 
BRANCH  34  37
HETATM   37  C16 UNL     1     -10.418  48.060 -26.200  1.00  0.00     0.164 C 
BRANCH  37  38
HETATM   38  O4  UNL     1     -10.057  49.444 -26.192  1.00  0.00    -0.390 OA
HETATM   39  H27 UNL     1      -9.090  49.485 -26.342  1.00  0.00     0.210 HD
ENDBRANCH  37  38
BRANCH  37  40
HETATM   40  C17 UNL     1     -10.056  47.443 -24.848  1.00  0.00    -0.054 C 
HETATM   41  C18 UNL     1      -8.627  47.617 -24.386  1.00  0.00     0.046 C 
HETATM   42  C19 UNL     1     -10.912  46.777 -24.038  1.00  0.00     0.005 C 
BRANCH  42  43
HETATM   43  C20 UNL     1     -12.318  46.496 -24.276  1.00  0.00     0.000 C 
HETATM   44  C21 UNL     1     -13.332  46.612 -23.400  1.00  0.00     0.000 C 
BRANCH  44  45
HETATM   45  C22 UNL     1     -13.268  47.034 -22.017  1.00  0.00     0.001 C 
HETATM   46  C23 UNL     1     -14.246  47.750 -21.439  1.00  0.00     0.009 C 
BRANCH  46  47
HETATM   47  C24 UNL     1     -14.266  48.222 -20.047  1.00  0.00    -0.034 C 
HETATM   48  C25 UNL     1     -13.125  49.147 -19.653  1.00  0.00     0.050 C 
HETATM   49  C26 UNL     1     -15.223  47.782 -19.193  1.00  0.00     0.082 C 
HETATM   50  C27 UNL     1     -16.393  46.880 -19.406  1.00  0.00     0.075 C 
BRANCH  49  51
HETATM   51  N2  UNL     1     -15.191  48.281 -17.836  1.00  0.00    -0.120 N 
HETATM   52  O5  UNL     1     -15.747  49.365 -17.617  1.00  0.00    -0.532 OA
HETATM   53  O6  UNL     1     -14.628  47.568 -16.996  1.00  0.00    -0.532 OA
ENDBRANCH  49  51
ENDBRANCH  46  47
ENDBRANCH  44  45
ENDBRANCH  42  43
ENDBRANCH  37  40
ENDBRANCH  34  37
ENDBRANCH  31  34
ENDBRANCH  29  30
ENDBRANCH   2  29
TORSDOF 19
ENDMDL
MODEL 6
REMARK minimizedAffinity -8.69332218
REMARK CNNscore 0.207968235
REMARK CNNaffinity 6.65059662
REMARK  19 active torsions:
REMARK  status: ('A' for Active; 'I' for Inactive)
REMARK    1  A    between atoms: O1_2  and  C2_3 
REMARK    2  A    between atoms: C2_3  and  C3_4 
REMARK    3  A    between atoms: C2_3  and  C28_36 
REMARK    4  A    between atoms: C3_4  and  C4_5 
REMARK    5  A    between atoms: C4_5  and  C6_7 
REMARK    6  A    between atoms: C6_7  and  O2_8 
REMARK    7  A    between atoms: C6_7  and  C7_9 
REMARK    8  A    between atoms: C8_10  and  C9_11 
REMARK    9  A    between atoms: C10_12  and  C11_13 
REMARK   10  A    between atoms: C11_13  and  N1_14 
REMARK       I    between atoms: N1_14  and  C12_15 
REMARK   11  A    between atoms: C12_15  and  C13_17 
REMARK   12  A    between atoms: C13_17  and  C16_20 
REMARK   13  A    between atoms: C16_20  and  O4_21 
REMARK   14  A    between atoms: C16_20  and  C17_22 
REMARK   15  A    between atoms: C19_24  and  C20_25 
REMARK   16  A    between atoms: C21_26  and  C22_27 
REMARK   17  A    between atoms: C23_28  and  C24_29 
REMARK   18  A    between atoms: C26_31  and  N2_33 
REMARK   19  A    between atoms: C28_36  and  O7_37 
ROOT
HETATM    1  C9  UNL     1      -3.837  48.352 -27.178  1.00  0.00    -0.003 C 
HETATM    2  C10 UNL     1      -4.848  48.499 -28.044  1.00  0.00    -0.007 C 
ENDROOT
BRANCH   1   3
HETATM    3  C8  UNL     1      -2.789  49.330 -27.004  1.00  0.00    -0.002 C 
HETATM    4  C7  UNL     1      -3.059  50.613 -26.735  1.00  0.00     0.005 C 
BRANCH   4   5
HETATM    5  C6  UNL     1      -2.002  51.645 -26.464  1.00  0.00     0.144 C 
BRANCH   5   6
HETATM    6  C4  UNL     1      -1.265  51.394 -25.125  1.00  0.00     0.016 C 
HETATM    7  C5  UNL     1       0.195  51.875 -25.126  1.00  0.00     0.013 C 
BRANCH   6   8
HETATM    8  C3  UNL     1      -2.057  51.882 -23.885  1.00  0.00     0.042 C 
BRANCH   8   9
HETATM    9  C2  UNL     1      -1.842  51.153 -22.525  1.00  0.00     0.159 C 
BRANCH   9  10
HETATM   10  O1  UNL     1      -1.303  52.108 -21.597  1.00  0.00    -0.388 OA
HETATM   11  C1  UNL     1       0.097  52.026 -21.361  1.00  0.00     0.202 C 
ENDBRANCH   9  10
BRANCH   9  12
HETATM   12  C28 UNL     1      -3.207  50.674 -21.944  1.00  0.00     0.133 C 
HETATM   13  C29 UNL     1      -4.047  49.719 -22.846  1.00  0.00     0.114 C 
HETATM   14  C30 UNL     1      -3.291  48.574 -23.508  1.00  0.00     0.023 C 
HETATM   15  C31 UNL     1      -5.058  49.159 -21.862  1.00  0.00     0.227 C 
HETATM   16  O8  UNL     1      -6.128  48.659 -22.161  1.00  0.00    -0.273 OA
HETATM   17  N3  UNL     1      -4.516  49.262 -20.593  1.00  0.00    -0.332 N 
HETATM   18  C32 UNL     1      -5.307  49.088 -19.399  1.00  0.00     0.154 C 
HETATM   19  C33 UNL     1      -3.166  49.919 -20.596  1.00  0.00     0.183 C 
HETATM   20  C34 UNL     1      -2.739  50.781 -19.362  1.00  0.00     0.294 C 
HETATM   21  C35 UNL     1      -2.091  48.940 -19.981  1.00  0.00     0.169 C 
HETATM   22  O9  UNL     1      -3.083  51.802 -18.812  1.00  0.00    -0.262 OA
HETATM   23  O10 UNL     1      -1.692  49.973 -19.037  1.00  0.00    -0.311 OA
HETATM   24  C36 UNL     1      -0.886  48.332 -20.667  1.00  0.00     0.043 C 
BRANCH  12  25
HETATM   25  O7  UNL     1      -4.048  51.857 -21.807  1.00  0.00    -0.383 OA
HETATM   26  H42 UNL     1      -3.702  52.405 -21.066  1.00  0.00     0.210 HD
ENDBRANCH  12  25
ENDBRANCH   9  12
ENDBRANCH   8   9
ENDBRANCH   6   8
ENDBRANCH   5   6
BRANCH   5  27
HETATM   27  O2  UNL     1      -2.663  52.908 -26.432  1.00  0.00    -0.391 OA
HETATM   28  H12 UNL     1      -3.288  52.907 -25.689  1.00  0.00     0.210 HD
ENDBRANCH   5  27
ENDBRANCH   4   5
ENDBRANCH   1   3
BRANCH   2  29
HETATM   29  C11 UNL     1      -5.966  47.533 -28.319  1.00  0.00     0.149 C 
BRANCH  29  30
HETATM   30  N1  UNL     1      -5.851  46.939 -29.626  1.00  0.00    -0.357 N 
HETATM   31  C12 UNL     1      -5.358  47.646 -30.697  1.00  0.00     0.228 C 
HETATM   32  O3  UNL     1      -4.991  48.811 -30.573  1.00  0.00    -0.273 OA
HETATM   33  H19 UNL     1      -6.355  46.080 -29.800  1.00  0.00     0.162 HD
BRANCH  31  34
HETATM   34  C13 UNL     1      -5.173  46.854 -32.007  1.00  0.00     0.063 C 
HETATM   35  C14 UNL     1      -4.260  45.628 -31.818  1.00  0.00     0.028 C 
HETATM   36  C15 UNL     1      -4.504  47.828 -33.006  1.00  0.00     0.028 C 
BRANCH  34  37
HETATM   37  C16 UNL     1      -6.553  46.407 -32.599  1.00  0.00     0.164 C 
BRANCH  37  38
HETATM   38  O4  UNL     1      -6.457  45.188 -33.343  1.00  0.00    -0.390 OA
HETATM   39  H27 UNL     1      -5.751  45.318 -34.009  1.00  0.00     0.210 HD
ENDBRANCH  37  38
BRANCH  37  40
HETATM   40  C17 UNL     1      -7.340  47.430 -33.419  1.00  0.00    -0.054 C 
HETATM   41  C18 UNL     1      -6.854  47.686 -34.828  1.00  0.00     0.046 C 
HETATM   42  C19 UNL     1      -8.435  48.101 -32.989  1.00  0.00     0.005 C 
BRANCH  42  43
HETATM   43  C20 UNL     1      -9.074  48.010 -31.688  1.00  0.00     0.000 C 
HETATM   44  C21 UNL     1     -10.195  47.336 -31.374  1.00  0.00     0.000 C 
BRANCH  44  45
HETATM   45  C22 UNL     1     -11.033  46.549 -32.253  1.00  0.00     0.001 C 
HETATM   46  C23 UNL     1     -10.549  45.925 -33.339  1.00  0.00     0.009 C 
BRANCH  46  47
HETATM   47  C24 UNL     1     -11.322  45.109 -34.286  1.00  0.00    -0.034 C 
HETATM   48  C25 UNL     1     -12.440  45.837 -35.015  1.00  0.00     0.050 C 
HETATM   49  C26 UNL     1     -11.059  43.785 -34.416  1.00  0.00     0.082 C 
HETATM   50  C27 UNL     1     -10.022  42.921 -33.780  1.00  0.00     0.075 C 
BRANCH  49  51
HETATM   51  N2  UNL     1     -11.854  43.034 -35.362  1.00  0.00    -0.120 N 
HETATM   52  O5  UNL     1     -11.445  42.980 -36.530  1.00  0.00    -0.532 OA
HETATM   53  O6  UNL     1     -12.871  42.484 -34.921  1.00  0.00    -0.532 OA
ENDBRANCH  49  51
ENDBRANCH  46  47
ENDBRANCH  44  45
ENDBRANCH  42  43
ENDBRANCH  37  40
ENDBRANCH  34  37
ENDBRANCH  31  34
ENDBRANCH  29  30
ENDBRANCH   2  29
TORSDOF 19
ENDMDL
MODEL 7
REMARK minimizedAffinity -9.24381638
REMARK CNNscore 0.186789051
REMARK CNNaffinity 6.4368248
REMARK  19 active torsions:
REMARK  status: ('A' for Active; 'I' for Inactive)
REMARK    1  A    between atoms: O1_2  and  C2_3 
REMARK    2  A    between atoms: C2_3  and  C3_4 
REMARK    3  A    between atoms: C2_3  and  C28_36 
REMARK    4  A    between atoms: C3_4  and  C4_5 
REMARK    5  A    between atoms: C4_5  and  C6_7 
REMARK    6  A    between atoms: C6_7  and  O2_8 
REMARK    7  A    between atoms: C6_7  and  C7_9 
REMARK    8  A    between atoms: C8_10  and  C9_11 
REMARK    9  A    between atoms: C10_12  and  C11_13 
REMARK   10  A    between atoms: C11_13  and  N1_14 
REMARK       I    between atoms: N1_14  and  C12_15 
REMARK   11  A    between atoms: C12_15  and  C13_17 
REMARK   12  A    between atoms: C13_17  and  C16_20 
REMARK   13  A    between atoms: C16_20  and  O4_21 
REMARK   14  A    between atoms: C16_20  and  C17_22 
REMARK   15  A    between atoms: C19_24  and  C20_25 
REMARK   16  A    between atoms: C21_26  and  C22_27 
REMARK   17  A    between atoms: C23_28  and  C24_29 
REMARK   18  A    between atoms: C26_31  and  N2_33 
REMARK   19  A    between atoms: C28_36  and  O7_37 
ROOT
HETATM    1  C9  UNL     1      -3.495  48.748 -25.691  1.00  0.00    -0.003 C 
HETATM    2  C10 UNL     1      -3.865  49.722 -26.534  1.00  0.00    -0.007 C 
ENDROOT
BRANCH   1   3
HETATM    3  C8  UNL     1      -4.270  48.358 -24.537  1.00  0.00    -0.002 C 
HETATM    4  C7  UNL     1      -5.346  49.049 -24.143  1.00  0.00     0.005 C 
BRANCH   4   5
HETATM    5  C6  UNL     1      -6.229  48.632 -23.001  1.00  0.00     0.144 C 
BRANCH   5   6
HETATM    6  C4  UNL     1      -7.318  47.621 -23.439  1.00  0.00     0.016 C 
HETATM    7  C5  UNL     1      -7.708  46.622 -22.338  1.00  0.00     0.013 C 
BRANCH   6   8
HETATM    8  C3  UNL     1      -8.547  48.290 -24.106  1.00  0.00     0.042 C 
BRANCH   8   9
HETATM    9  C2  UNL     1      -9.440  47.437 -25.056  1.00  0.00     0.159 C 
BRANCH   9  10
HETATM   10  O1  UNL     1     -10.800  47.575 -24.616  1.00  0.00    -0.388 OA
HETATM   11  C1  UNL     1     -11.255  46.603 -23.682  1.00  0.00     0.202 C 
ENDBRANCH   9  10
BRANCH   9  12
HETATM   12  C28 UNL     1      -9.372  47.993 -26.510  1.00  0.00     0.133 C 
HETATM   13  C29 UNL     1      -7.987  47.909 -27.221  1.00  0.00     0.114 C 
HETATM   14  C30 UNL     1      -7.241  46.586 -27.095  1.00  0.00     0.023 C 
HETATM   15  C31 UNL     1      -8.359  48.147 -28.673  1.00  0.00     0.227 C 
HETATM   16  O8  UNL     1      -7.593  48.525 -29.542  1.00  0.00    -0.273 OA
HETATM   17  N3  UNL     1      -9.688  47.796 -28.833  1.00  0.00    -0.332 N 
HETATM   18  C32 UNL     1     -10.446  48.158 -30.007  1.00  0.00     0.154 C 
HETATM   19  C33 UNL     1     -10.325  47.356 -27.547  1.00  0.00     0.183 C 
HETATM   20  C34 UNL     1     -11.846  47.640 -27.317  1.00  0.00     0.294 C 
HETATM   21  C35 UNL     1     -10.869  45.881 -27.695  1.00  0.00     0.169 C 
HETATM   22  O9  UNL     1     -12.577  48.596 -27.191  1.00  0.00    -0.262 OA
HETATM   23  O10 UNL     1     -12.182  46.321 -27.250  1.00  0.00    -0.311 OA
HETATM   24  C36 UNL     1     -10.423  44.645 -26.942  1.00  0.00     0.043 C 
BRANCH  12  25
HETATM   25  O7  UNL     1      -9.639  49.424 -26.429  1.00  0.00    -0.383 OA
HETATM   26  H42 UNL     1     -10.590  49.556 -26.213  1.00  0.00     0.210 HD
ENDBRANCH  12  25
ENDBRANCH   9  12
ENDBRANCH   8   9
ENDBRANCH   6   8
ENDBRANCH   5   6
BRANCH   5  27
HETATM   27  O2  UNL     1      -6.835  49.821 -22.498  1.00  0.00    -0.391 OA
HETATM   28  H12 UNL     1      -7.394  50.198 -23.197  1.00  0.00     0.210 HD
ENDBRANCH   5  27
ENDBRANCH   4   5
ENDBRANCH   1   3
BRANCH   2  29
HETATM   29  C11 UNL     1      -3.120  50.220 -27.740  1.00  0.00     0.149 C 
BRANCH  29  30
HETATM   30  N1  UNL     1      -1.861  50.821 -27.382  1.00  0.00    -0.357 N 
HETATM   31  C12 UNL     1      -1.794  52.084 -26.845  1.00  0.00     0.228 C 
HETATM   32  O3  UNL     1      -2.811  52.744 -26.646  1.00  0.00    -0.273 OA
HETATM   33  H19 UNL     1      -1.017  50.401 -27.747  1.00  0.00     0.162 HD
BRANCH  31  34
HETATM   34  C13 UNL     1      -0.398  52.557 -26.394  1.00  0.00     0.063 C 
HETATM   35  C14 UNL     1       0.231  53.544 -27.396  1.00  0.00     0.028 C 
HETATM   36  C15 UNL     1       0.483  51.287 -26.323  1.00  0.00     0.028 C 
BRANCH  34  37
HETATM   37  C16 UNL     1      -0.451  53.204 -24.968  1.00  0.00     0.164 C 
BRANCH  37  38
HETATM   38  O4  UNL     1       0.557  54.203 -24.784  1.00  0.00    -0.390 OA
HETATM   39  H27 UNL     1       1.413  53.784 -25.011  1.00  0.00     0.210 HD
ENDBRANCH  37  38
BRANCH  37  40
HETATM   40  C17 UNL     1      -0.447  52.265 -23.760  1.00  0.00    -0.054 C 
HETATM   41  C18 UNL     1      -1.181  50.953 -23.921  1.00  0.00     0.046 C 
HETATM   42  C19 UNL     1       0.170  52.510 -22.580  1.00  0.00     0.005 C 
BRANCH  42  43
HETATM   43  C20 UNL     1       0.930  53.691 -22.208  1.00  0.00     0.000 C 
HETATM   44  C21 UNL     1       1.539  53.933 -21.033  1.00  0.00     0.000 C 
BRANCH  44  45
HETATM   45  C22 UNL     1       1.579  53.083 -19.863  1.00  0.00     0.001 C 
HETATM   46  C23 UNL     1       0.514  52.911 -19.063  1.00  0.00     0.009 C 
BRANCH  46  47
HETATM   47  C24 UNL     1       0.463  52.072 -17.857  1.00  0.00    -0.034 C 
HETATM   48  C25 UNL     1       1.385  52.497 -16.725  1.00  0.00     0.050 C 
HETATM   49  C26 UNL     1      -0.322  50.967 -17.829  1.00  0.00     0.082 C 
HETATM   50  C27 UNL     1      -1.267  50.406 -18.840  1.00  0.00     0.075 C 
BRANCH  49  51
HETATM   51  N2  UNL     1      -0.330  50.180 -16.616  1.00  0.00    -0.120 N 
HETATM   52  O5  UNL     1       0.231  49.076 -16.652  1.00  0.00    -0.532 OA
HETATM   53  O6  UNL     1      -0.879  50.686 -15.630  1.00  0.00    -0.532 OA
ENDBRANCH  49  51
ENDBRANCH  46  47
ENDBRANCH  44  45
ENDBRANCH  42  43
ENDBRANCH  37  40
ENDBRANCH  34  37
ENDBRANCH  31  34
ENDBRANCH  29  30
ENDBRANCH   2  29
TORSDOF 19
ENDMDL
MODEL 8
REMARK minimizedAffinity -8.97661495
REMARK CNNscore 0.180286109
REMARK CNNaffinity 6.25046921
REMARK  19 active torsions:
REMARK  status: ('A' for Active; 'I' for Inactive)
REMARK    1  A    between atoms: O1_2  and  C2_3 
REMARK    2  A    between atoms: C2_3  and  C3_4 
REMARK    3  A    between atoms: C2_3  and  C28_36 
REMARK    4  A    between atoms: C3_4  and  C4_5 
REMARK    5  A    between atoms: C4_5  and  C6_7 
REMARK    6  A    between atoms: C6_7  and  O2_8 
REMARK    7  A    between atoms: C6_7  and  C7_9 
REMARK    8  A    between atoms: C8_10  and  C9_11 
REMARK    9  A    between atoms: C10_12  and  C11_13 
REMARK   10  A    between atoms: C11_13  and  N1_14 
REMARK       I    between atoms: N1_14  and  C12_15 
REMARK   11  A    between atoms: C12_15  and  C13_17 
REMARK   12  A    between atoms: C13_17  and  C16_20 
REMARK   13  A    between atoms: C16_20  and  O4_21 
REMARK   14  A    between atoms: C16_20  and  C17_22 
REMARK   15  A    between atoms: C19_24  and  C20_25 
REMARK   16  A    between atoms: C21_26  and  C22_27 
REMARK   17  A    between atoms: C23_28  and  C24_29 
REMARK   18  A    between atoms: C26_31  and  N2_33 
REMARK   19  A    between atoms: C28_36  and  O7_37 
ROOT
HETATM    1  C9  UNL     1      -3.536  48.380 -26.819  1.00  0.00    -0.003 C 
HETATM    2  C10 UNL     1      -3.666  48.903 -25.593  1.00  0.00    -0.007 C 
ENDROOT
BRANCH   1   3
HETATM    3  C8  UNL     1      -4.179  48.926 -27.990  1.00  0.00    -0.002 C 
HETATM    4  C7  UNL     1      -4.789  48.145 -28.889  1.00  0.00     0.005 C 
BRANCH   4   5
HETATM    5  C6  UNL     1      -5.542  48.675 -30.076  1.00  0.00     0.144 C 
BRANCH   5   6
HETATM    6  C4  UNL     1      -5.921  47.557 -31.079  1.00  0.00     0.016 C 
HETATM    7  C5  UNL     1      -4.788  46.550 -31.336  1.00  0.00     0.013 C 
BRANCH   6   8
HETATM    8  C3  UNL     1      -7.273  46.871 -30.755  1.00  0.00     0.042 C 
BRANCH   8   9
HETATM    9  C2  UNL     1      -8.593  47.577 -31.188  1.00  0.00     0.159 C 
BRANCH   9  10
HETATM   10  O1  UNL     1      -8.971  47.048 -32.469  1.00  0.00    -0.388 OA
HETATM   11  C1  UNL     1      -8.360  47.657 -33.600  1.00  0.00     0.202 C 
ENDBRANCH   9  10
BRANCH   9  12
HETATM   12  C28 UNL     1      -9.743  47.232 -30.195  1.00  0.00     0.133 C 
HETATM   13  C29 UNL     1     -10.916  46.375 -30.761  1.00  0.00     0.114 C 
HETATM   14  C30 UNL     1     -10.524  45.166 -31.602  1.00  0.00     0.023 C 
HETATM   15  C31 UNL     1     -11.612  45.911 -29.496  1.00  0.00     0.227 C 
HETATM   16  O8  UNL     1     -12.765  45.524 -29.429  1.00  0.00    -0.273 OA
HETATM   17  N3  UNL     1     -10.688  45.947 -28.466  1.00  0.00    -0.332 N 
HETATM   18  C32 UNL     1     -11.074  45.844 -27.079  1.00  0.00     0.154 C 
HETATM   19  C33 UNL     1      -9.352  46.466 -28.911  1.00  0.00     0.183 C 
HETATM   20  C34 UNL     1      -8.474  47.269 -27.896  1.00  0.00     0.294 C 
HETATM   21  C35 UNL     1      -8.239  45.379 -28.645  1.00  0.00     0.169 C 
HETATM   22  O9  UNL     1      -8.523  48.316 -27.290  1.00  0.00    -0.262 OA
HETATM   23  O10 UNL     1      -7.462  46.357 -27.900  1.00  0.00    -0.311 OA
HETATM   24  C36 UNL     1      -7.379  44.658 -29.662  1.00  0.00     0.043 C 
BRANCH  12  25
HETATM   25  O7  UNL     1     -10.377  48.493 -29.827  1.00  0.00    -0.383 OA
HETATM   26  H42 UNL     1      -9.762  48.997 -29.247  1.00  0.00     0.210 HD
ENDBRANCH  12  25
ENDBRANCH   9  12
ENDBRANCH   8   9
ENDBRANCH   6   8
ENDBRANCH   5   6
BRANCH   5  27
HETATM   27  O2  UNL     1      -4.693  49.632 -30.704  1.00  0.00    -0.391 OA
HETATM   28  H12 UNL     1      -3.899  49.174 -31.024  1.00  0.00     0.210 HD
ENDBRANCH   5  27
ENDBRANCH   4   5
ENDBRANCH   1   3
BRANCH   2  29
HETATM   29  C11 UNL     1      -3.065  48.397 -24.312  1.00  0.00     0.149 C 
BRANCH  29  30
HETATM   30  N1  UNL     1      -3.186  49.359 -23.247  1.00  0.00    -0.357 N 
HETATM   31  C12 UNL     1      -3.806  49.045 -22.061  1.00  0.00     0.228 C 
HETATM   32  O3  UNL     1      -4.274  47.926 -21.866  1.00  0.00    -0.273 OA
HETATM   33  H19 UNL     1      -3.023  50.332 -23.469  1.00  0.00     0.162 HD
BRANCH  31  34
HETATM   34  C13 UNL     1      -3.758  50.125 -20.962  1.00  0.00     0.063 C 
HETATM   35  C14 UNL     1      -5.124  50.313 -20.275  1.00  0.00     0.028 C 
HETATM   36  C15 UNL     1      -3.370  51.443 -21.674  1.00  0.00     0.028 C 
BRANCH  34  37
HETATM   37  C16 UNL     1      -2.662  49.798 -19.892  1.00  0.00     0.164 C 
BRANCH  37  38
HETATM   38  O4  UNL     1      -2.534  50.830 -18.909  1.00  0.00    -0.390 OA
HETATM   39  H27 UNL     1      -2.390  51.668 -19.397  1.00  0.00     0.210 HD
ENDBRANCH  37  38
BRANCH  37  40
HETATM   40  C17 UNL     1      -1.269  49.413 -20.394  1.00  0.00    -0.054 C 
HETATM   41  C18 UNL     1      -1.057  47.960 -20.753  1.00  0.00     0.046 C 
HETATM   42  C19 UNL     1      -0.232  50.268 -20.556  1.00  0.00     0.005 C 
BRANCH  42  43
HETATM   43  C20 UNL     1      -0.210  51.695 -20.281  1.00  0.00     0.000 C 
HETATM   44  C21 UNL     1       0.019  52.691 -21.155  1.00  0.00     0.000 C 
BRANCH  44  45
HETATM   45  C22 UNL     1       0.304  52.582 -22.570  1.00  0.00     0.001 C 
HETATM   46  C23 UNL     1      -0.660  52.385 -23.484  1.00  0.00     0.009 C 
BRANCH  46  47
HETATM   47  C24 UNL     1      -0.466  52.261 -24.936  1.00  0.00    -0.034 C 
HETATM   48  C25 UNL     1       0.980  52.172 -25.397  1.00  0.00     0.050 C 
HETATM   49  C26 UNL     1      -1.534  52.296 -25.771  1.00  0.00     0.082 C 
HETATM   50  C27 UNL     1      -2.997  52.388 -25.493  1.00  0.00     0.075 C 
BRANCH  49  51
HETATM   51  N2  UNL     1      -1.280  52.171 -27.189  1.00  0.00    -0.120 N 
HETATM   52  O5  UNL     1      -1.286  51.030 -27.668  1.00  0.00    -0.532 OA
HETATM   53  O6  UNL     1      -1.100  53.223 -27.815  1.00  0.00    -0.532 OA
ENDBRANCH  49  51
ENDBRANCH  46  47
ENDBRANCH  44  45
ENDBRANCH  42  43
ENDBRANCH  37  40
ENDBRANCH  34  37
ENDBRANCH  31  34
ENDBRANCH  29  30
ENDBRANCH   2  29
TORSDOF 19
ENDMDL
MODEL 9
REMARK minimizedAffinity -7.92060995
REMARK CNNscore 0.180199802
REMARK CNNaffinity 5.93393278
REMARK  19 active torsions:
REMARK  status: ('A' for Active; 'I' for Inactive)
REMARK    1  A    between atoms: O1_2  and  C2_3 
REMARK    2  A    between atoms: C2_3  and  C3_4 
REMARK    3  A    between atoms: C2_3  and  C28_36 
REMARK    4  A    between atoms: C3_4  and  C4_5 
REMARK    5  A    between atoms: C4_5  and  C6_7 
REMARK    6  A    between atoms: C6_7  and  O2_8 
REMARK    7  A    between atoms: C6_7  and  C7_9 
REMARK    8  A    between atoms: C8_10  and  C9_11 
REMARK    9  A    between atoms: C10_12  and  C11_13 
REMARK   10  A    between atoms: C11_13  and  N1_14 
REMARK       I    between atoms: N1_14  and  C12_15 
REMARK   11  A    between atoms: C12_15  and  C13_17 
REMARK   12  A    between atoms: C13_17  and  C16_20 
REMARK   13  A    between atoms: C16_20  and  O4_21 
REMARK   14  A    between atoms: C16_20  and  C17_22 
REMARK   15  A    between atoms: C19_24  and  C20_25 
REMARK   16  A    between atoms: C21_26  and  C22_27 
REMARK   17  A    between atoms: C23_28  and  C24_29 
REMARK   18  A    between atoms: C26_31  and  N2_33 
REMARK   19  A    between atoms: C28_36  and  O7_37 
ROOT
HETATM    1  C9  UNL     1      -3.714  48.402 -27.207  1.00  0.00    -0.003 C 
HETATM    2  C10 UNL     1      -4.697  48.630 -28.089  1.00  0.00    -0.007 C 
ENDROOT
BRANCH   1   3
HETATM    3  C8  UNL     1      -2.816  49.428 -26.734  1.00  0.00    -0.002 C 
HETATM    4  C7  UNL     1      -3.048  50.728 -26.955  1.00  0.00     0.005 C 
BRANCH   4   5
HETATM    5  C6  UNL     1      -2.187  51.831 -26.411  1.00  0.00     0.144 C 
BRANCH   5   6
HETATM    6  C4  UNL     1      -1.425  51.404 -25.131  1.00  0.00     0.016 C 
HETATM    7  C5  UNL     1       0.078  51.721 -25.174  1.00  0.00     0.013 C 
BRANCH   6   8
HETATM    8  C3  UNL     1      -2.104  51.886 -23.822  1.00  0.00     0.042 C 
BRANCH   8   9
HETATM    9  C2  UNL     1      -1.839  51.094 -22.507  1.00  0.00     0.159 C 
BRANCH   9  10
HETATM   10  O1  UNL     1      -1.224  51.994 -21.571  1.00  0.00    -0.388 OA
HETATM   11  C1  UNL     1       0.189  51.892 -21.445  1.00  0.00     0.202 C 
ENDBRANCH   9  10
BRANCH   9  12
HETATM   12  C28 UNL     1      -3.185  50.628 -21.874  1.00  0.00     0.133 C 
HETATM   13  C29 UNL     1      -4.064  49.674 -22.738  1.00  0.00     0.114 C 
HETATM   14  C30 UNL     1      -3.341  48.520 -23.420  1.00  0.00     0.023 C 
HETATM   15  C31 UNL     1      -5.043  49.128 -21.715  1.00  0.00     0.227 C 
HETATM   16  O8  UNL     1      -6.126  48.633 -21.972  1.00  0.00    -0.273 OA
HETATM   17  N3  UNL     1      -4.454  49.234 -20.467  1.00  0.00    -0.332 N 
HETATM   18  C32 UNL     1      -5.202  49.073 -19.244  1.00  0.00     0.154 C 
HETATM   19  C33 UNL     1      -3.101  49.882 -20.523  1.00  0.00     0.183 C 
HETATM   20  C34 UNL     1      -2.623  50.748 -19.312  1.00  0.00     0.294 C 
HETATM   21  C35 UNL     1      -2.011  48.899 -19.942  1.00  0.00     0.169 C 
HETATM   22  O9  UNL     1      -2.940  51.775 -18.756  1.00  0.00    -0.262 OA
HETATM   23  O10 UNL     1      -1.570  49.934 -19.020  1.00  0.00    -0.311 OA
HETATM   24  C36 UNL     1      -0.835  48.278 -20.667  1.00  0.00     0.043 C 
BRANCH  12  25
HETATM   25  O7  UNL     1      -4.012  51.818 -21.714  1.00  0.00    -0.383 OA
HETATM   26  H42 UNL     1      -3.636  52.369 -20.990  1.00  0.00     0.210 HD
ENDBRANCH  12  25
ENDBRANCH   9  12
ENDBRANCH   8   9
ENDBRANCH   6   8
ENDBRANCH   5   6
BRANCH   5  27
HETATM   27  O2  UNL     1      -3.055  52.925 -26.125  1.00  0.00    -0.391 OA
HETATM   28  H12 UNL     1      -3.676  52.649 -25.431  1.00  0.00     0.210 HD
ENDBRANCH   5  27
ENDBRANCH   4   5
ENDBRANCH   1   3
BRANCH   2  29
HETATM   29  C11 UNL     1      -5.662  47.632 -28.663  1.00  0.00     0.149 C 
BRANCH  29  30
HETATM   30  N1  UNL     1      -7.012  47.882 -28.228  1.00  0.00    -0.357 N 
HETATM   31  C12 UNL     1      -7.897  46.854 -28.002  1.00  0.00     0.228 C 
HETATM   32  O3  UNL     1      -7.562  45.683 -28.158  1.00  0.00    -0.273 OA
HETATM   33  H19 UNL     1      -7.371  48.823 -28.319  1.00  0.00     0.162 HD
BRANCH  31  34
HETATM   34  C13 UNL     1      -9.268  47.254 -27.422  1.00  0.00     0.063 C 
HETATM   35  C14 UNL     1      -9.260  48.685 -26.851  1.00  0.00     0.028 C 
HETATM   36  C15 UNL     1      -9.554  46.258 -26.273  1.00  0.00     0.028 C 
BRANCH  34  37
HETATM   37  C16 UNL     1     -10.402  47.112 -28.494  1.00  0.00     0.164 C 
BRANCH  37  38
HETATM   38  O4  UNL     1     -10.390  48.181 -29.445  1.00  0.00    -0.390 OA
HETATM   39  H27 UNL     1     -10.416  49.015 -28.932  1.00  0.00     0.210 HD
ENDBRANCH  37  38
BRANCH  37  40
HETATM   40  C17 UNL     1     -11.833  46.906 -27.994  1.00  0.00    -0.054 C 
HETATM   41  C18 UNL     1     -12.594  48.150 -27.593  1.00  0.00     0.046 C 
HETATM   42  C19 UNL     1     -12.465  45.713 -27.901  1.00  0.00     0.005 C 
BRANCH  42  43
HETATM   43  C20 UNL     1     -11.934  44.402 -28.232  1.00  0.00     0.000 C 
HETATM   44  C21 UNL     1     -11.535  43.965 -29.440  1.00  0.00     0.000 C 
BRANCH  44  45
HETATM   45  C22 UNL     1     -11.546  44.687 -30.694  1.00  0.00     0.001 C 
HETATM   46  C23 UNL     1     -10.503  44.672 -31.540  1.00  0.00     0.009 C 
BRANCH  46  47
HETATM   47  C24 UNL     1     -10.424  45.373 -32.829  1.00  0.00    -0.034 C 
HETATM   48  C25 UNL     1      -9.767  46.744 -32.789  1.00  0.00     0.050 C 
HETATM   49  C26 UNL     1     -10.973  44.821 -33.940  1.00  0.00     0.082 C 
HETATM   50  C27 UNL     1     -11.654  43.510 -34.152  1.00  0.00     0.075 C 
BRANCH  49  51
HETATM   51  N2  UNL     1     -10.865  45.558 -35.179  1.00  0.00    -0.120 N 
HETATM   52  O5  UNL     1     -11.873  46.164 -35.568  1.00  0.00    -0.532 OA
HETATM   53  O6  UNL     1      -9.763  45.542 -35.741  1.00  0.00    -0.532 OA
ENDBRANCH  49  51
ENDBRANCH  46  47
ENDBRANCH  44  45
ENDBRANCH  42  43
ENDBRANCH  37  40
ENDBRANCH  34  37
ENDBRANCH  31  34
ENDBRANCH  29  30
ENDBRANCH   2  29
TORSDOF 19
ENDMDL
