MODEL 1
REMARK minimizedAffinity -8.15870762
REMARK CNNscore 0.325204164
REMARK CNNaffinity 6.36184072
REMARK  13 active torsions:
REMARK  status: ('A' for Active; 'I' for Inactive)
REMARK    1  A    between atoms: C3_3  and  O1_4 
REMARK    2  A    between atoms: N1_14  and  O2_16 
REMARK    3  A    between atoms: O2_16  and  C13_17 
REMARK    4  A    between atoms: C13_17  and  C14_18 
REMARK       I    between atoms: C14_18  and  N2_20 
REMARK    5  A    between atoms: N2_20  and  C15_21 
REMARK    6  A    between atoms: C15_21  and  C17_23 
REMARK       I    between atoms: C17_23  and  N3_25 
REMARK    7  A    between atoms: N3_25  and  C18_26 
REMARK    8  A    between atoms: C18_26  and  C19_27 
REMARK    9  A    between atoms: C18_26  and  C22_31 
REMARK   10  A    between atoms: C19_27  and  C20_28 
REMARK   11  A    between atoms: C20_28  and  S1_29 
REMARK   12  A    between atoms: C22_31  and  O6_33 
REMARK   13  A    between atoms: C28_39  and  O7_40 
ROOT
HETATM    1  C1  UNL     1       2.956   8.364   7.666  1.00  0.00     0.015 C 
HETATM    2  C2  UNL     1       2.436   7.722   8.536  1.00  0.00    -0.078 C 
HETATM    3  C3  UNL     1       1.793   6.936   9.602  1.00  0.00     0.128 C 
HETATM    4  C4  UNL     1       0.294   7.253   9.725  1.00  0.00     0.052 C 
HETATM    5  C5  UNL     1      -0.066   7.005  11.195  1.00  0.00     0.010 C 
HETATM    6  C6  UNL     1       1.239   6.604  11.912  1.00  0.00     0.002 C 
HETATM    7  C7  UNL     1       1.350   6.894  13.432  1.00  0.00    -0.002 C 
HETATM    8  C8  UNL     1       0.030   6.590  14.174  1.00  0.00     0.010 C 
HETATM    9  C9  UNL     1      -0.728   7.846  14.578  1.00  0.00     0.035 C 
HETATM   10  C10 UNL     1       0.097   8.713  15.488  1.00  0.00    -0.069 C 
HETATM   11  C11 UNL     1      -0.504   9.419  16.463  1.00  0.00     0.030 C 
HETATM   12  C12 UNL     1       0.279  10.279  17.391  1.00  0.00     0.032 C 
HETATM   13  N1  UNL     1      -0.300  10.659  18.493  1.00  0.00    -0.271 N 
ATOM     14  H1  UNL     1      -1.252  10.407  18.758  1.00  0.00     0.194 HD
HETATM   15  C23 UNL     1       1.714  10.623  17.031  1.00  0.00     0.060 C 
HETATM   16  C24 UNL     1       2.074  10.186  15.610  1.00  0.00     0.020 C 
HETATM   17  C25 UNL     1       1.609   8.745  15.267  1.00  0.00    -0.014 C 
HETATM   18  C26 UNL     1       2.288   7.772  16.280  1.00  0.00     0.020 C 
HETATM   19  C27 UNL     1       2.017   8.266  13.807  1.00  0.00     0.031 C 
HETATM   20  C28 UNL     1       1.876   9.273  12.646  1.00  0.00     0.124 C 
HETATM   21  C29 UNL     1       2.470   8.751  11.321  1.00  0.00     0.045 C 
HETATM   22  C30 UNL     1       2.341   7.229  11.037  1.00  0.00     0.005 C 
HETATM   23  C31 UNL     1       3.700   6.542  11.277  1.00  0.00     0.020 C 
ENDROOT
BRANCH   3  24
HETATM   24  O1  UNL     1       1.951   5.556   9.265  1.00  0.00    -0.377 OA
HETATM   25  H2  UNL     1       1.232   5.044   9.666  1.00  0.00     0.211 HD
ENDBRANCH   3  24
BRANCH  20  26
HETATM   26  O7  UNL     1       2.579  10.486  12.922  1.00  0.00    -0.395 OA
HETATM   27  H40 UNL     1       2.437  11.088  12.170  1.00  0.00     0.210 HD
ENDBRANCH  20  26
BRANCH  13  28
HETATM   28  O2  UNL     1       0.551  11.461  19.273  1.00  0.00    -0.271 OA
BRANCH  28  29
HETATM   29  C13 UNL     1       0.737  10.843  20.542  1.00  0.00     0.303 C 
BRANCH  29  30
HETATM   30  C14 UNL     1       2.186  10.433  20.765  1.00  0.00     0.244 C 
HETATM   31  O3  UNL     1       2.673   9.426  20.250  1.00  0.00    -0.271 OA
HETATM   32  N2  UNL     1       2.880  11.224  21.649  1.00  0.00    -0.346 N 
HETATM   33  H16 UNL     1       2.433  12.057  22.035  1.00  0.00     0.163 HD
BRANCH  32  34
HETATM   34  C15 UNL     1       4.196  10.858  22.158  1.00  0.00     0.172 C 
HETATM   35  C16 UNL     1       4.061   9.861  23.310  1.00  0.00     0.042 C 
BRANCH  34  36
HETATM   36  C17 UNL     1       4.939  12.124  22.632  1.00  0.00     0.240 C 
HETATM   37  O4  UNL     1       4.391  13.026  23.264  1.00  0.00    -0.271 OA
HETATM   38  N3  UNL     1       6.287  12.154  22.315  1.00  0.00    -0.345 N 
HETATM   39  H21 UNL     1       6.708  11.264  22.071  1.00  0.00     0.163 HD
BRANCH  38  40
HETATM   40  C18 UNL     1       7.169  13.113  22.983  1.00  0.00     0.183 C 
BRANCH  40  41
HETATM   41  C19 UNL     1       7.392  14.359  22.120  1.00  0.00     0.046 C 
BRANCH  41  42
HETATM   42  C20 UNL     1       7.139  14.068  20.644  1.00  0.00     0.076 C 
BRANCH  42  43
HETATM   43  S1  UNL     1       8.441  12.999  19.931  1.00  0.00    -0.173 SA
HETATM   44  C21 UNL     1       7.427  11.939  18.870  1.00  0.00     0.089 C 
ENDBRANCH  42  43
ENDBRANCH  41  42
ENDBRANCH  40  41
BRANCH  40  45
HETATM   45  C22 UNL     1       8.514  12.422  23.221  1.00  0.00     0.163 C 
HETATM   46  O5  UNL     1       9.597  12.973  23.347  1.00  0.00    -0.648 OA
BRANCH  45  47
HETATM   47  O6  UNL     1       8.406  11.085  23.322  1.00  0.00    -0.775 OA
HETATM   48  H30 UNL     1       9.332  10.778  23.424  1.00  0.00     0.167 HD
ENDBRANCH  45  47
ENDBRANCH  40  45
ENDBRANCH  38  40
ENDBRANCH  34  36
ENDBRANCH  32  34
ENDBRANCH  29  30
ENDBRANCH  28  29
ENDBRANCH  13  28
TORSDOF 13
ENDMDL
MODEL 2
REMARK minimizedAffinity -9.04834557
REMARK CNNscore 0.319102824
REMARK CNNaffinity 6.47473526
REMARK  13 active torsions:
REMARK  status: ('A' for Active; 'I' for Inactive)
REMARK    1  A    between atoms: C3_3  and  O1_4 
REMARK    2  A    between atoms: N1_14  and  O2_16 
REMARK    3  A    between atoms: O2_16  and  C13_17 
REMARK    4  A    between atoms: C13_17  and  C14_18 
REMARK       I    between atoms: C14_18  and  N2_20 
REMARK    5  A    between atoms: N2_20  and  C15_21 
REMARK    6  A    between atoms: C15_21  and  C17_23 
REMARK       I    between atoms: C17_23  and  N3_25 
REMARK    7  A    between atoms: N3_25  and  C18_26 
REMARK    8  A    between atoms: C18_26  and  C19_27 
REMARK    9  A    between atoms: C18_26  and  C22_31 
REMARK   10  A    between atoms: C19_27  and  C20_28 
REMARK   11  A    between atoms: C20_28  and  S1_29 
REMARK   12  A    between atoms: C22_31  and  O6_33 
REMARK   13  A    between atoms: C28_39  and  O7_40 
ROOT
HETATM    1  C1  UNL     1       4.145   8.780   9.297  1.00  0.00     0.015 C 
HETATM    2  C2  UNL     1       3.715   7.923  10.017  1.00  0.00    -0.078 C 
HETATM    3  C3  UNL     1       3.186   6.866  10.895  1.00  0.00     0.128 C 
HETATM    4  C4  UNL     1       2.435   5.783  10.104  1.00  0.00     0.052 C 
HETATM    5  C5  UNL     1       1.377   5.224  11.064  1.00  0.00     0.010 C 
HETATM    6  C6  UNL     1       1.493   6.029  12.375  1.00  0.00     0.002 C 
HETATM    7  C7  UNL     1       0.228   6.152  13.265  1.00  0.00    -0.002 C 
HETATM    8  C8  UNL     1      -0.559   4.825  13.334  1.00  0.00     0.010 C 
HETATM    9  C9  UNL     1      -1.841   4.850  12.514  1.00  0.00     0.035 C 
HETATM   10  C10 UNL     1      -2.768   5.936  12.985  1.00  0.00    -0.069 C 
HETATM   11  C11 UNL     1      -4.099   5.742  12.941  1.00  0.00     0.030 C 
HETATM   12  C12 UNL     1      -5.049   6.787  13.408  1.00  0.00     0.032 C 
HETATM   13  N1  UNL     1      -6.275   6.421  13.652  1.00  0.00    -0.271 N 
ATOM     14  H1  UNL     1      -6.622   5.469  13.541  1.00  0.00     0.194 HD
HETATM   15  C23 UNL     1      -4.533   8.199  13.621  1.00  0.00     0.060 C 
HETATM   16  C24 UNL     1      -3.106   8.378  13.100  1.00  0.00     0.020 C 
HETATM   17  C25 UNL     1      -2.147   7.230  13.510  1.00  0.00    -0.014 C 
HETATM   18  C26 UNL     1      -2.109   7.174  15.068  1.00  0.00     0.020 C 
HETATM   19  C27 UNL     1      -0.651   7.429  13.008  1.00  0.00     0.031 C 
HETATM   20  C28 UNL     1      -0.430   7.962  11.577  1.00  0.00     0.124 C 
HETATM   21  C29 UNL     1       1.050   8.281  11.276  1.00  0.00     0.045 C 
HETATM   22  C30 UNL     1       2.120   7.362  11.928  1.00  0.00     0.005 C 
HETATM   23  C31 UNL     1       2.777   8.095  13.114  1.00  0.00     0.020 C 
ENDROOT
BRANCH   3  24
HETATM   24  O1  UNL     1       4.302   6.269  11.559  1.00  0.00    -0.377 OA
HETATM   25  H2  UNL     1       4.080   5.355  11.799  1.00  0.00     0.211 HD
ENDBRANCH   3  24
BRANCH  20  26
HETATM   26  O7  UNL     1      -1.130   9.189  11.366  1.00  0.00    -0.395 OA
HETATM   27  H40 UNL     1      -0.973   9.465  10.445  1.00  0.00     0.210 HD
ENDBRANCH  20  26
BRANCH  13  28
HETATM   28  O2  UNL     1      -7.059   7.503  14.085  1.00  0.00    -0.271 OA
BRANCH  28  29
HETATM   29  C13 UNL     1      -8.207   7.002  14.764  1.00  0.00     0.303 C 
BRANCH  29  30
HETATM   30  C14 UNL     1      -9.355   6.722  13.803  1.00  0.00     0.244 C 
HETATM   31  O3  UNL     1      -9.281   5.867  12.920  1.00  0.00    -0.271 OA
HETATM   32  N2  UNL     1     -10.440   7.553  13.943  1.00  0.00    -0.346 N 
HETATM   33  H16 UNL     1     -10.455   8.235  14.703  1.00  0.00     0.163 HD
BRANCH  32  34
HETATM   34  C15 UNL     1     -11.529   7.586  12.975  1.00  0.00     0.172 C 
HETATM   35  C16 UNL     1     -11.734   9.011  12.457  1.00  0.00     0.042 C 
BRANCH  34  36
HETATM   36  C17 UNL     1     -12.824   7.065  13.632  1.00  0.00     0.240 C 
HETATM   37  O4  UNL     1     -12.886   6.725  14.813  1.00  0.00    -0.271 OA
HETATM   38  N3  UNL     1     -13.925   7.038  12.793  1.00  0.00    -0.345 N 
HETATM   39  H21 UNL     1     -13.861   7.604  11.953  1.00  0.00     0.163 HD
BRANCH  38  40
HETATM   40  C18 UNL     1     -15.267   6.893  13.361  1.00  0.00     0.183 C 
BRANCH  40  41
HETATM   41  C19 UNL     1     -15.440   5.529  14.038  1.00  0.00     0.046 C 
BRANCH  41  42
HETATM   42  C20 UNL     1     -16.130   5.661  15.391  1.00  0.00     0.076 C 
BRANCH  42  43
HETATM   43  S1  UNL     1     -17.232   4.242  15.731  1.00  0.00    -0.173 SA
HETATM   44  C21 UNL     1     -17.501   3.645  14.044  1.00  0.00     0.089 C 
ENDBRANCH  42  43
ENDBRANCH  41  42
ENDBRANCH  40  41
BRANCH  40  45
HETATM   45  C22 UNL     1     -16.274   7.014  12.215  1.00  0.00     0.163 C 
HETATM   46  O5  UNL     1     -17.474   6.792  12.280  1.00  0.00    -0.648 OA
BRANCH  45  47
HETATM   47  O6  UNL     1     -15.715   7.442  11.068  1.00  0.00    -0.775 OA
HETATM   48  H30 UNL     1     -16.453   7.427  10.423  1.00  0.00     0.167 HD
ENDBRANCH  45  47
ENDBRANCH  40  45
ENDBRANCH  38  40
ENDBRANCH  34  36
ENDBRANCH  32  34
ENDBRANCH  29  30
ENDBRANCH  28  29
ENDBRANCH  13  28
TORSDOF 13
ENDMDL
MODEL 3
REMARK minimizedAffinity -6.83937645
REMARK CNNscore 0.30359444
REMARK CNNaffinity 6.42928123
REMARK  13 active torsions:
REMARK  status: ('A' for Active; 'I' for Inactive)
REMARK    1  A    between atoms: C3_3  and  O1_4 
REMARK    2  A    between atoms: N1_14  and  O2_16 
REMARK    3  A    between atoms: O2_16  and  C13_17 
REMARK    4  A    between atoms: C13_17  and  C14_18 
REMARK       I    between atoms: C14_18  and  N2_20 
REMARK    5  A    between atoms: N2_20  and  C15_21 
REMARK    6  A    between atoms: C15_21  and  C17_23 
REMARK       I    between atoms: C17_23  and  N3_25 
REMARK    7  A    between atoms: N3_25  and  C18_26 
REMARK    8  A    between atoms: C18_26  and  C19_27 
REMARK    9  A    between atoms: C18_26  and  C22_31 
REMARK   10  A    between atoms: C19_27  and  C20_28 
REMARK   11  A    between atoms: C20_28  and  S1_29 
REMARK   12  A    between atoms: C22_31  and  O6_33 
REMARK   13  A    between atoms: C28_39  and  O7_40 
ROOT
HETATM    1  C1  UNL     1      -6.992   5.939  13.221  1.00  0.00     0.015 C 
HETATM    2  C2  UNL     1      -6.333   6.595  13.978  1.00  0.00    -0.078 C 
HETATM    3  C3  UNL     1      -5.525   7.406  14.904  1.00  0.00     0.128 C 
HETATM    4  C4  UNL     1      -5.397   8.863  14.431  1.00  0.00     0.052 C 
HETATM    5  C5  UNL     1      -4.052   9.361  14.974  1.00  0.00     0.010 C 
HETATM    6  C6  UNL     1      -3.397   8.171  15.704  1.00  0.00     0.002 C 
HETATM    7  C7  UNL     1      -1.849   8.144  15.803  1.00  0.00    -0.002 C 
HETATM    8  C8  UNL     1      -1.266   9.544  16.098  1.00  0.00     0.010 C 
HETATM    9  C9  UNL     1      -0.599  10.179  14.887  1.00  0.00     0.035 C 
HETATM   10  C10 UNL     1       0.534   9.330  14.380  1.00  0.00    -0.069 C 
HETATM   11  C11 UNL     1       1.624   9.917  13.855  1.00  0.00     0.030 C 
HETATM   12  C12 UNL     1       2.770   9.113  13.353  1.00  0.00     0.032 C 
HETATM   13  N1  UNL     1       3.905   9.727  13.175  1.00  0.00    -0.271 N 
ATOM     14  H1  UNL     1       4.055  10.719  13.355  1.00  0.00     0.194 HD
HETATM   15  C23 UNL     1       2.573   7.624  13.126  1.00  0.00     0.060 C 
HETATM   16  C24 UNL     1       1.106   7.210  13.254  1.00  0.00     0.020 C 
HETATM   17  C25 UNL     1       0.397   7.812  14.496  1.00  0.00    -0.014 C 
HETATM   18  C26 UNL     1       1.168   7.332  15.764  1.00  0.00     0.020 C 
HETATM   19  C27 UNL     1      -1.116   7.352  14.661  1.00  0.00     0.031 C 
HETATM   20  C28 UNL     1      -1.997   7.285  13.396  1.00  0.00     0.124 C 
HETATM   21  C29 UNL     1      -3.381   6.656  13.659  1.00  0.00     0.045 C 
HETATM   22  C30 UNL     1      -4.038   6.939  15.038  1.00  0.00     0.005 C 
HETATM   23  C31 UNL     1      -3.913   5.692  15.936  1.00  0.00     0.020 C 
ENDROOT
BRANCH   3  24
HETATM   24  O1  UNL     1      -6.185   7.385  16.172  1.00  0.00    -0.377 OA
HETATM   25  H2  UNL     1      -5.956   8.188  16.665  1.00  0.00     0.211 HD
ENDBRANCH   3  24
BRANCH  20  26
HETATM   26  O7  UNL     1      -1.398   6.468  12.388  1.00  0.00    -0.395 OA
HETATM   27  H40 UNL     1      -1.984   6.481  11.610  1.00  0.00     0.210 HD
ENDBRANCH  20  26
BRANCH  13  28
HETATM   28  O2  UNL     1       4.897   8.851  12.703  1.00  0.00    -0.271 OA
BRANCH  28  29
HETATM   29  C13 UNL     1       5.526   8.219  13.813  1.00  0.00     0.303 C 
BRANCH  29  30
HETATM   30  C14 UNL     1       7.042   8.344  13.751  1.00  0.00     0.244 C 
HETATM   31  O3  UNL     1       7.693   7.989  12.768  1.00  0.00    -0.271 OA
HETATM   32  N2  UNL     1       7.631   8.803  14.905  1.00  0.00    -0.346 N 
HETATM   33  H16 UNL     1       7.042   9.099  15.685  1.00  0.00     0.163 HD
BRANCH  32  34
HETATM   34  C15 UNL     1       9.073   8.772  15.112  1.00  0.00     0.172 C 
HETATM   35  C16 UNL     1       9.441   7.690  16.128  1.00  0.00     0.042 C 
BRANCH  34  36
HETATM   36  C17 UNL     1       9.555  10.153  15.604  1.00  0.00     0.240 C 
HETATM   37  O4  UNL     1       9.197  11.211  15.088  1.00  0.00    -0.271 OA
HETATM   38  N3  UNL     1      10.404  10.111  16.697  1.00  0.00    -0.345 N 
HETATM   39  H21 UNL     1      10.403   9.247  17.230  1.00  0.00     0.163 HD
BRANCH  38  40
HETATM   40  C18 UNL     1      10.661  11.331  17.464  1.00  0.00     0.183 C 
BRANCH  40  41
HETATM   41  C19 UNL     1      12.005  11.958  17.078  1.00  0.00     0.046 C 
BRANCH  41  42
HETATM   42  C20 UNL     1      11.899  13.474  16.953  1.00  0.00     0.076 C 
BRANCH  42  43
HETATM   43  S1  UNL     1      11.860  14.009  15.204  1.00  0.00    -0.173 SA
HETATM   44  C21 UNL     1      11.007  15.596  15.383  1.00  0.00     0.089 C 
ENDBRANCH  42  43
ENDBRANCH  41  42
ENDBRANCH  40  41
BRANCH  40  45
HETATM   45  C22 UNL     1      10.694  10.952  18.947  1.00  0.00     0.163 C 
HETATM   46  O5  UNL     1      11.683  10.633  19.590  1.00  0.00    -0.648 OA
BRANCH  45  47
HETATM   47  O6  UNL     1       9.487  11.034  19.536  1.00  0.00    -0.775 OA
HETATM   48  H30 UNL     1       9.648  10.724  20.452  1.00  0.00     0.167 HD
ENDBRANCH  45  47
ENDBRANCH  40  45
ENDBRANCH  38  40
ENDBRANCH  34  36
ENDBRANCH  32  34
ENDBRANCH  29  30
ENDBRANCH  28  29
ENDBRANCH  13  28
TORSDOF 13
ENDMDL
MODEL 4
REMARK minimizedAffinity -7.86770487
REMARK CNNscore 0.299758196
REMARK CNNaffinity 6.31114388
REMARK  13 active torsions:
REMARK  status: ('A' for Active; 'I' for Inactive)
REMARK    1  A    between atoms: C3_3  and  O1_4 
REMARK    2  A    between atoms: N1_14  and  O2_16 
REMARK    3  A    between atoms: O2_16  and  C13_17 
REMARK    4  A    between atoms: C13_17  and  C14_18 
REMARK       I    between atoms: C14_18  and  N2_20 
REMARK    5  A    between atoms: N2_20  and  C15_21 
REMARK    6  A    between atoms: C15_21  and  C17_23 
REMARK       I    between atoms: C17_23  and  N3_25 
REMARK    7  A    between atoms: N3_25  and  C18_26 
REMARK    8  A    between atoms: C18_26  and  C19_27 
REMARK    9  A    between atoms: C18_26  and  C22_31 
REMARK   10  A    between atoms: C19_27  and  C20_28 
REMARK   11  A    between atoms: C20_28  and  S1_29 
REMARK   12  A    between atoms: C22_31  and  O6_33 
REMARK   13  A    between atoms: C28_39  and  O7_40 
ROOT
HETATM    1  C1  UNL     1       2.008   7.266   6.969  1.00  0.00     0.015 C 
HETATM    2  C2  UNL     1       2.006   7.140   8.162  1.00  0.00    -0.078 C 
HETATM    3  C3  UNL     1       2.000   6.990   9.627  1.00  0.00     0.128 C 
HETATM    4  C4  UNL     1       1.220   8.121  10.317  1.00  0.00     0.052 C 
HETATM    5  C5  UNL     1       1.866   8.289  11.698  1.00  0.00     0.010 C 
HETATM    6  C6  UNL     1       3.042   7.294  11.766  1.00  0.00     0.002 C 
HETATM    7  C7  UNL     1       4.227   7.635  12.708  1.00  0.00    -0.002 C 
HETATM    8  C8  UNL     1       3.744   8.228  14.049  1.00  0.00     0.010 C 
HETATM    9  C9  UNL     1       3.982   9.727  14.158  1.00  0.00     0.035 C 
HETATM   10  C10 UNL     1       5.443  10.058  14.032  1.00  0.00    -0.069 C 
HETATM   11  C11 UNL     1       5.957  11.085  14.734  1.00  0.00     0.030 C 
HETATM   12  C12 UNL     1       7.400  11.436  14.646  1.00  0.00     0.032 C 
HETATM   13  N1  UNL     1       7.892  12.200  15.579  1.00  0.00    -0.271 N 
ATOM     14  H1  UNL     1       7.353  12.571  16.361  1.00  0.00     0.194 HD
HETATM   15  C23 UNL     1       8.226  10.853  13.513  1.00  0.00     0.060 C 
HETATM   16  C24 UNL     1       7.359  10.133  12.478  1.00  0.00     0.020 C 
HETATM   17  C25 UNL     1       6.296   9.193  13.105  1.00  0.00    -0.014 C 
HETATM   18  C26 UNL     1       7.047   8.127  13.960  1.00  0.00     0.020 C 
HETATM   19  C27 UNL     1       5.419   8.408  12.035  1.00  0.00     0.031 C 
HETATM   20  C28 UNL     1       4.933   9.177  10.789  1.00  0.00     0.124 C 
HETATM   21  C29 UNL     1       4.250   8.266   9.747  1.00  0.00     0.045 C 
HETATM   22  C30 UNL     1       3.415   7.072  10.288  1.00  0.00     0.005 C 
HETATM   23  C31 UNL     1       4.206   5.762  10.103  1.00  0.00     0.020 C 
ENDROOT
BRANCH   3  24
HETATM   24  O1  UNL     1       1.369   5.742   9.922  1.00  0.00    -0.377 OA
HETATM   25  H2  UNL     1       0.975   5.783  10.807  1.00  0.00     0.211 HD
ENDBRANCH   3  24
BRANCH  20  26
HETATM   26  O7  UNL     1       6.023   9.789  10.098  1.00  0.00    -0.395 OA
HETATM   27  H40 UNL     1       5.656  10.275   9.338  1.00  0.00     0.210 HD
ENDBRANCH  20  26
BRANCH  13  28
HETATM   28  O2  UNL     1       9.259  12.449  15.375  1.00  0.00    -0.271 OA
BRANCH  28  29
HETATM   29  C13 UNL     1       9.798  13.072  16.537  1.00  0.00     0.303 C 
BRANCH  29  30
HETATM   30  C14 UNL     1      11.002  12.314  17.079  1.00  0.00     0.244 C 
HETATM   31  O3  UNL     1      11.221  11.136  16.794  1.00  0.00    -0.271 OA
HETATM   32  N2  UNL     1      11.772  13.017  17.973  1.00  0.00    -0.346 N 
HETATM   33  H16 UNL     1      11.554  13.997  18.160  1.00  0.00     0.163 HD
BRANCH  32  34
HETATM   34  C15 UNL     1      12.823  12.389  18.763  1.00  0.00     0.172 C 
HETATM   35  C16 UNL     1      12.241  11.807  20.052  1.00  0.00     0.042 C 
BRANCH  34  36
HETATM   36  C17 UNL     1      13.916  13.427  19.091  1.00  0.00     0.240 C 
HETATM   37  O4  UNL     1      13.696  14.636  19.149  1.00  0.00    -0.271 OA
HETATM   38  N3  UNL     1      15.166  12.888  19.347  1.00  0.00    -0.345 N 
HETATM   39  H21 UNL     1      15.187  11.898  19.571  1.00  0.00     0.163 HD
BRANCH  38  40
HETATM   40  C18 UNL     1      16.193  13.708  19.992  1.00  0.00     0.183 C 
BRANCH  40  41
HETATM   41  C19 UNL     1      17.597  13.306  19.528  1.00  0.00     0.046 C 
BRANCH  41  42
HETATM   42  C20 UNL     1      17.580  11.972  18.789  1.00  0.00     0.076 C 
BRANCH  42  43
HETATM   43  S1  UNL     1      18.439  12.079  17.178  1.00  0.00    -0.173 SA
HETATM   44  C21 UNL     1      17.808  13.671  16.593  1.00  0.00     0.089 C 
ENDBRANCH  42  43
ENDBRANCH  41  42
ENDBRANCH  40  41
BRANCH  40  45
HETATM   45  C22 UNL     1      16.084  13.490  21.502  1.00  0.00     0.163 C 
HETATM   46  O5  UNL     1      16.042  12.412  22.077  1.00  0.00    -0.648 OA
BRANCH  45  47
HETATM   47  O6  UNL     1      16.073  14.641  22.199  1.00  0.00    -0.775 OA
HETATM   48  H30 UNL     1      15.954  14.356  23.129  1.00  0.00     0.167 HD
ENDBRANCH  45  47
ENDBRANCH  40  45
ENDBRANCH  38  40
ENDBRANCH  34  36
ENDBRANCH  32  34
ENDBRANCH  29  30
ENDBRANCH  28  29
ENDBRANCH  13  28
TORSDOF 13
ENDMDL
MODEL 5
REMARK minimizedAffinity -7.26964426
REMARK CNNscore 0.292336911
REMARK CNNaffinity 7.03414011
REMARK  13 active torsions:
REMARK  status: ('A' for Active; 'I' for Inactive)
REMARK    1  A    between atoms: C3_3  and  O1_4 
REMARK    2  A    between atoms: N1_14  and  O2_16 
REMARK    3  A    between atoms: O2_16  and  C13_17 
REMARK    4  A    between atoms: C13_17  and  C14_18 
REMARK       I    between atoms: C14_18  and  N2_20 
REMARK    5  A    between atoms: N2_20  and  C15_21 
REMARK    6  A    between atoms: C15_21  and  C17_23 
REMARK       I    between atoms: C17_23  and  N3_25 
REMARK    7  A    between atoms: N3_25  and  C18_26 
REMARK    8  A    between atoms: C18_26  and  C19_27 
REMARK    9  A    between atoms: C18_26  and  C22_31 
REMARK   10  A    between atoms: C19_27  and  C20_28 
REMARK   11  A    between atoms: C20_28  and  S1_29 
REMARK   12  A    between atoms: C22_31  and  O6_33 
REMARK   13  A    between atoms: C28_39  and  O7_40 
ROOT
HETATM    1  C1  UNL     1     -10.781   9.601  14.380  1.00  0.00     0.015 C 
HETATM    2  C2  UNL     1     -10.189   8.636  14.775  1.00  0.00    -0.078 C 
HETATM    3  C3  UNL     1      -9.462   7.453  15.266  1.00  0.00     0.128 C 
HETATM    4  C4  UNL     1      -8.770   7.721  16.612  1.00  0.00     0.052 C 
HETATM    5  C5  UNL     1      -7.543   6.802  16.640  1.00  0.00     0.010 C 
HETATM    6  C6  UNL     1      -7.510   6.059  15.290  1.00  0.00     0.002 C 
HETATM    7  C7  UNL     1      -6.134   5.570  14.764  1.00  0.00    -0.002 C 
HETATM    8  C8  UNL     1      -5.259   4.989  15.896  1.00  0.00     0.010 C 
HETATM    9  C9  UNL     1      -4.123   5.915  16.305  1.00  0.00     0.035 C 
HETATM   10  C10 UNL     1      -3.209   6.202  15.146  1.00  0.00    -0.069 C 
HETATM   11  C11 UNL     1      -1.891   6.366  15.361  1.00  0.00     0.030 C 
HETATM   12  C12 UNL     1      -0.952   6.639  14.240  1.00  0.00     0.032 C 
HETATM   13  N1  UNL     1       0.318   6.456  14.459  1.00  0.00    -0.271 N 
ATOM     14  H1  UNL     1       0.708   6.139  15.347  1.00  0.00     0.194 HD
HETATM   15  C23 UNL     1      -1.522   7.066  12.898  1.00  0.00     0.060 C 
HETATM   16  C24 UNL     1      -3.021   7.362  12.976  1.00  0.00     0.020 C 
HETATM   17  C25 UNL     1      -3.827   6.287  13.751  1.00  0.00    -0.014 C 
HETATM   18  C26 UNL     1      -3.621   4.922  13.025  1.00  0.00     0.020 C 
HETATM   19  C27 UNL     1      -5.392   6.564  13.799  1.00  0.00     0.031 C 
HETATM   20  C28 UNL     1      -5.866   8.012  14.043  1.00  0.00     0.124 C 
HETATM   21  C29 UNL     1      -7.392   8.180  13.889  1.00  0.00     0.045 C 
HETATM   22  C30 UNL     1      -8.286   6.993  14.342  1.00  0.00     0.005 C 
HETATM   23  C31 UNL     1      -8.800   6.230  13.105  1.00  0.00     0.020 C 
ENDROOT
BRANCH   3  24
HETATM   24  O1  UNL     1     -10.420   6.406  15.434  1.00  0.00    -0.377 OA
HETATM   25  H2  UNL     1     -10.103   5.788  16.112  1.00  0.00     0.211 HD
ENDBRANCH   3  24
BRANCH  20  26
HETATM   26  O7  UNL     1      -5.290   8.913  13.096  1.00  0.00    -0.395 OA
HETATM   27  H40 UNL     1      -5.606   9.810  13.311  1.00  0.00     0.210 HD
ENDBRANCH  20  26
BRANCH  13  28
HETATM   28  O2  UNL     1       1.086   6.748  13.319  1.00  0.00    -0.271 OA
BRANCH  28  29
HETATM   29  C13 UNL     1       1.172   5.583  12.504  1.00  0.00     0.303 C 
BRANCH  29  30
HETATM   30  C14 UNL     1       1.938   5.848  11.216  1.00  0.00     0.244 C 
HETATM   31  O3  UNL     1       2.097   4.984  10.354  1.00  0.00    -0.271 OA
HETATM   32  N2  UNL     1       2.508   7.095  11.130  1.00  0.00    -0.346 N 
HETATM   33  H16 UNL     1       2.331   7.779  11.868  1.00  0.00     0.163 HD
BRANCH  32  34
HETATM   34  C15 UNL     1       3.461   7.449  10.086  1.00  0.00     0.172 C 
HETATM   35  C16 UNL     1       3.414   6.421   8.954  1.00  0.00     0.042 C 
BRANCH  34  36
HETATM   36  C17 UNL     1       4.882   7.522  10.683  1.00  0.00     0.240 C 
HETATM   37  O4  UNL     1       5.814   6.827  10.281  1.00  0.00    -0.271 OA
HETATM   38  N3  UNL     1       5.036   8.458  11.692  1.00  0.00    -0.345 N 
HETATM   39  H21 UNL     1       4.320   9.176  11.748  1.00  0.00     0.163 HD
BRANCH  38  40
HETATM   40  C18 UNL     1       6.380   8.866  12.105  1.00  0.00     0.183 C 
BRANCH  40  41
HETATM   41  C19 UNL     1       6.451   9.092  13.620  1.00  0.00     0.046 C 
BRANCH  41  42
HETATM   42  C20 UNL     1       6.979   7.858  14.344  1.00  0.00     0.076 C 
BRANCH  42  43
HETATM   43  S1  UNL     1       8.807   7.800  14.339  1.00  0.00    -0.173 SA
HETATM   44  C21 UNL     1       9.128   7.967  16.113  1.00  0.00     0.089 C 
ENDBRANCH  42  43
ENDBRANCH  41  42
ENDBRANCH  40  41
BRANCH  40  45
HETATM   45  C22 UNL     1       6.710  10.176  11.388  1.00  0.00     0.163 C 
HETATM   46  O5  UNL     1       5.923  11.069  11.112  1.00  0.00    -0.648 OA
BRANCH  45  47
HETATM   47  O6  UNL     1       8.018  10.300  11.097  1.00  0.00    -0.775 OA
HETATM   48  H30 UNL     1       8.075  11.147  10.608  1.00  0.00     0.167 HD
ENDBRANCH  45  47
ENDBRANCH  40  45
ENDBRANCH  38  40
ENDBRANCH  34  36
ENDBRANCH  32  34
ENDBRANCH  29  30
ENDBRANCH  28  29
ENDBRANCH  13  28
TORSDOF 13
ENDMDL
MODEL 6
REMARK minimizedAffinity -8.55188274
REMARK CNNscore 0.291595161
REMARK CNNaffinity 6.96967936
REMARK  13 active torsions:
REMARK  status: ('A' for Active; 'I' for Inactive)
REMARK    1  A    between atoms: C3_3  and  O1_4 
REMARK    2  A    between atoms: N1_14  and  O2_16 
REMARK    3  A    between atoms: O2_16  and  C13_17 
REMARK    4  A    between atoms: C13_17  and  C14_18 
REMARK       I    between atoms: C14_18  and  N2_20 
REMARK    5  A    between atoms: N2_20  and  C15_21 
REMARK    6  A    between atoms: C15_21  and  C17_23 
REMARK       I    between atoms: C17_23  and  N3_25 
REMARK    7  A    between atoms: N3_25  and  C18_26 
REMARK    8  A    between atoms: C18_26  and  C19_27 
REMARK    9  A    between atoms: C18_26  and  C22_31 
REMARK   10  A    between atoms: C19_27  and  C20_28 
REMARK   11  A    between atoms: C20_28  and  S1_29 
REMARK   12  A    between atoms: C22_31  and  O6_33 
REMARK   13  A    between atoms: C28_39  and  O7_40 
ROOT
HETATM    1  C1  UNL     1       3.149   5.258   9.894  1.00  0.00     0.015 C 
HETATM    2  C2  UNL     1       2.681   6.127  10.575  1.00  0.00    -0.078 C 
HETATM    3  C3  UNL     1       2.110   7.193  11.415  1.00  0.00     0.128 C 
HETATM    4  C4  UNL     1       2.354   6.938  12.912  1.00  0.00     0.052 C 
HETATM    5  C5  UNL     1       1.183   7.602  13.644  1.00  0.00     0.010 C 
HETATM    6  C6  UNL     1       0.250   8.182  12.562  1.00  0.00     0.002 C 
HETATM    7  C7  UNL     1      -1.254   8.341  12.910  1.00  0.00    -0.002 C 
HETATM    8  C8  UNL     1      -1.460   8.857  14.351  1.00  0.00     0.010 C 
HETATM    9  C9  UNL     1      -1.949   7.778  15.306  1.00  0.00     0.035 C 
HETATM   10  C10 UNL     1      -3.262   7.203  14.853  1.00  0.00    -0.069 C 
HETATM   11  C11 UNL     1      -4.170   6.813  15.767  1.00  0.00     0.030 C 
HETATM   12  C12 UNL     1      -5.485   6.251  15.359  1.00  0.00     0.032 C 
HETATM   13  N1  UNL     1      -6.427   6.209  16.257  1.00  0.00    -0.271 N 
ATOM     14  H1  UNL     1      -6.319   6.535  17.218  1.00  0.00     0.194 HD
HETATM   15  C23 UNL     1      -5.674   5.805  13.920  1.00  0.00     0.060 C 
HETATM   16  C24 UNL     1      -4.360   5.811  13.136  1.00  0.00     0.020 C 
HETATM   17  C25 UNL     1      -3.516   7.095  13.350  1.00  0.00    -0.014 C 
HETATM   18  C26 UNL     1      -4.378   8.313  12.896  1.00  0.00     0.020 C 
HETATM   19  C27 UNL     1      -2.169   7.129  12.505  1.00  0.00     0.031 C 
HETATM   20  C28 UNL     1      -1.339   5.832  12.408  1.00  0.00     0.124 C 
HETATM   21  C29 UNL     1      -0.159   5.945  11.421  1.00  0.00     0.045 C 
HETATM   22  C30 UNL     1       0.554   7.321  11.322  1.00  0.00     0.005 C 
HETATM   23  C31 UNL     1       0.120   8.036  10.027  1.00  0.00     0.020 C 
ENDROOT
BRANCH   3  24
HETATM   24  O1  UNL     1       2.748   8.415  11.041  1.00  0.00    -0.377 OA
HETATM   25  H2  UNL     1       2.734   9.028  11.794  1.00  0.00     0.211 HD
ENDBRANCH   3  24
BRANCH  20  26
HETATM   26  O7  UNL     1      -2.131   4.744  11.927  1.00  0.00    -0.395 OA
HETATM   27  H40 UNL     1      -1.564   3.952  11.908  1.00  0.00     0.210 HD
ENDBRANCH  20  26
BRANCH  13  28
HETATM   28  O2  UNL     1      -7.611   5.659  15.739  1.00  0.00    -0.271 OA
BRANCH  28  29
HETATM   29  C13 UNL     1      -8.691   6.551  15.999  1.00  0.00     0.303 C 
BRANCH  29  30
HETATM   30  C14 UNL     1      -9.528   6.804  14.753  1.00  0.00     0.244 C 
HETATM   31  O3  UNL     1      -9.119   6.546  13.620  1.00  0.00    -0.271 OA
HETATM   32  N2  UNL     1     -10.734   7.420  14.983  1.00  0.00    -0.346 N 
HETATM   33  H16 UNL     1     -11.031   7.597  15.945  1.00  0.00     0.163 HD
BRANCH  32  34
HETATM   34  C15 UNL     1     -11.563   7.945  13.905  1.00  0.00     0.172 C 
HETATM   35  C16 UNL     1     -11.270   9.430  13.686  1.00  0.00     0.042 C 
BRANCH  34  36
HETATM   36  C17 UNL     1     -13.053   7.740  14.250  1.00  0.00     0.240 C 
HETATM   37  O4  UNL     1     -13.519   7.958  15.367  1.00  0.00    -0.271 OA
HETATM   38  N3  UNL     1     -13.837   7.318  13.189  1.00  0.00    -0.345 N 
HETATM   39  H21 UNL     1     -13.445   7.453  12.262  1.00  0.00     0.163 HD
BRANCH  38  40
HETATM   40  C18 UNL     1     -15.295   7.409  13.282  1.00  0.00     0.183 C 
BRANCH  40  41
HETATM   41  C19 UNL     1     -15.963   6.100  12.847  1.00  0.00     0.046 C 
BRANCH  41  42
HETATM   42  C20 UNL     1     -16.991   5.631  13.871  1.00  0.00     0.076 C 
BRANCH  42  43
HETATM   43  S1  UNL     1     -16.195   5.047  15.411  1.00  0.00    -0.173 SA
HETATM   44  C21 UNL     1     -15.878   3.322  14.962  1.00  0.00     0.089 C 
ENDBRANCH  42  43
ENDBRANCH  41  42
ENDBRANCH  40  41
BRANCH  40  45
HETATM   45  C22 UNL     1     -15.752   8.537  12.354  1.00  0.00     0.163 C 
HETATM   46  O5  UNL     1     -16.006   9.686  12.682  1.00  0.00    -0.648 OA
BRANCH  45  47
HETATM   47  O6  UNL     1     -15.824   8.158  11.064  1.00  0.00    -0.775 OA
HETATM   48  H30 UNL     1     -16.168   8.951  10.602  1.00  0.00     0.167 HD
ENDBRANCH  45  47
ENDBRANCH  40  45
ENDBRANCH  38  40
ENDBRANCH  34  36
ENDBRANCH  32  34
ENDBRANCH  29  30
ENDBRANCH  28  29
ENDBRANCH  13  28
TORSDOF 13
ENDMDL
MODEL 7
REMARK minimizedAffinity -6.93168926
REMARK CNNscore 0.277649075
REMARK CNNaffinity 6.71077681
REMARK  13 active torsions:
REMARK  status: ('A' for Active; 'I' for Inactive)
REMARK    1  A    between atoms: C3_3  and  O1_4 
REMARK    2  A    between atoms: N1_14  and  O2_16 
REMARK    3  A    between atoms: O2_16  and  C13_17 
REMARK    4  A    between atoms: C13_17  and  C14_18 
REMARK       I    between atoms: C14_18  and  N2_20 
REMARK    5  A    between atoms: N2_20  and  C15_21 
REMARK    6  A    between atoms: C15_21  and  C17_23 
REMARK       I    between atoms: C17_23  and  N3_25 
REMARK    7  A    between atoms: N3_25  and  C18_26 
REMARK    8  A    between atoms: C18_26  and  C19_27 
REMARK    9  A    between atoms: C18_26  and  C22_31 
REMARK   10  A    between atoms: C19_27  and  C20_28 
REMARK   11  A    between atoms: C20_28  and  S1_29 
REMARK   12  A    between atoms: C22_31  and  O6_33 
REMARK   13  A    between atoms: C28_39  and  O7_40 
ROOT
HETATM    1  C1  UNL     1       2.114  14.462  17.660  1.00  0.00     0.015 C 
HETATM    2  C2  UNL     1       1.082  13.856  17.746  1.00  0.00    -0.078 C 
HETATM    3  C3  UNL     1      -0.182  13.109  17.857  1.00  0.00     0.128 C 
HETATM    4  C4  UNL     1      -0.048  11.885  18.776  1.00  0.00     0.052 C 
HETATM    5  C5  UNL     1      -1.066  10.861  18.258  1.00  0.00     0.010 C 
HETATM    6  C6  UNL     1      -1.732  11.484  17.014  1.00  0.00     0.002 C 
HETATM    7  C7  UNL     1      -2.303  10.522  15.939  1.00  0.00    -0.002 C 
HETATM    8  C8  UNL     1      -3.016   9.308  16.573  1.00  0.00     0.010 C 
HETATM    9  C9  UNL     1      -2.212   8.021  16.465  1.00  0.00     0.035 C 
HETATM   10  C10 UNL     1      -1.937   7.668  15.029  1.00  0.00    -0.069 C 
HETATM   11  C11 UNL     1      -1.895   6.376  14.656  1.00  0.00     0.030 C 
HETATM   12  C12 UNL     1      -1.638   5.987  13.244  1.00  0.00     0.032 C 
HETATM   13  N1  UNL     1      -1.938   4.770  12.890  1.00  0.00    -0.271 N 
ATOM     14  H1  UNL     1      -2.335   4.071  13.517  1.00  0.00     0.194 HD
HETATM   15  C23 UNL     1      -1.090   7.032  12.287  1.00  0.00     0.060 C 
HETATM   16  C24 UNL     1      -0.676   8.315  13.008  1.00  0.00     0.020 C 
HETATM   17  C25 UNL     1      -1.723   8.813  14.039  1.00  0.00    -0.014 C 
HETATM   18  C26 UNL     1      -3.058   9.074  13.275  1.00  0.00     0.020 C 
HETATM   19  C27 UNL     1      -1.321  10.171  14.763  1.00  0.00     0.031 C 
HETATM   20  C28 UNL     1       0.146  10.349  15.209  1.00  0.00     0.124 C 
HETATM   21  C29 UNL     1       0.448  11.769  15.732  1.00  0.00     0.045 C 
HETATM   22  C30 UNL     1      -0.685  12.494  16.509  1.00  0.00     0.005 C 
HETATM   23  C31 UNL     1      -1.332  13.561  15.604  1.00  0.00     0.020 C 
ENDROOT
BRANCH   3  24
HETATM   24  O1  UNL     1      -1.154  14.001  18.407  1.00  0.00    -0.377 OA
HETATM   25  H2  UNL     1      -1.833  13.488  18.872  1.00  0.00     0.211 HD
ENDBRANCH   3  24
BRANCH  20  26
HETATM   26  O7  UNL     1       1.048  10.149  14.120  1.00  0.00    -0.395 OA
HETATM   27  H40 UNL     1       1.954  10.251  14.463  1.00  0.00     0.210 HD
ENDBRANCH  20  26
BRANCH  13  28
HETATM   28  O2  UNL     1      -1.646   4.540  11.535  1.00  0.00    -0.271 OA
BRANCH  28  29
HETATM   29  C13 UNL     1      -1.606   3.136  11.299  1.00  0.00     0.303 C 
BRANCH  29  30
HETATM   30  C14 UNL     1      -2.994   2.513  11.354  1.00  0.00     0.244 C 
HETATM   31  O3  UNL     1      -3.198   1.401  11.843  1.00  0.00    -0.271 OA
HETATM   32  N2  UNL     1      -3.981   3.247  10.742  1.00  0.00    -0.346 N 
HETATM   33  H16 UNL     1      -3.759   4.171  10.367  1.00  0.00     0.163 HD
BRANCH  32  34
HETATM   34  C15 UNL     1      -5.314   2.712  10.495  1.00  0.00     0.172 C 
HETATM   35  C16 UNL     1      -5.863   3.247   9.171  1.00  0.00     0.042 C 
BRANCH  34  36
HETATM   36  C17 UNL     1      -6.251   3.099  11.658  1.00  0.00     0.240 C 
HETATM   37  O4  UNL     1      -6.664   2.287  12.484  1.00  0.00    -0.271 OA
HETATM   38  N3  UNL     1      -6.569   4.446  11.719  1.00  0.00    -0.345 N 
HETATM   39  H21 UNL     1      -5.961   5.072  11.200  1.00  0.00     0.163 HD
BRANCH  38  40
HETATM   40  C18 UNL     1      -7.158   4.998  12.939  1.00  0.00     0.183 C 
BRANCH  40  41
HETATM   41  C19 UNL     1      -8.380   5.868  12.622  1.00  0.00     0.046 C 
BRANCH  41  42
HETATM   42  C20 UNL     1      -9.072   6.343  13.896  1.00  0.00     0.076 C 
BRANCH  42  43
HETATM   43  S1  UNL     1     -10.724   7.046  13.546  1.00  0.00    -0.173 SA
HETATM   44  C21 UNL     1     -10.597   8.607  14.454  1.00  0.00     0.089 C 
ENDBRANCH  42  43
ENDBRANCH  41  42
ENDBRANCH  40  41
BRANCH  40  45
HETATM   45  C22 UNL     1      -6.094   5.861  13.622  1.00  0.00     0.163 C 
HETATM   46  O5  UNL     1      -5.541   6.840  13.145  1.00  0.00    -0.648 OA
BRANCH  45  47
HETATM   47  O6  UNL     1      -5.819   5.460  14.877  1.00  0.00    -0.775 OA
HETATM   48  H30 UNL     1      -5.102   6.061  15.168  1.00  0.00     0.167 HD
ENDBRANCH  45  47
ENDBRANCH  40  45
ENDBRANCH  38  40
ENDBRANCH  34  36
ENDBRANCH  32  34
ENDBRANCH  29  30
ENDBRANCH  28  29
ENDBRANCH  13  28
TORSDOF 13
ENDMDL
MODEL 8
REMARK minimizedAffinity -7.88016415
REMARK CNNscore 0.256346434
REMARK CNNaffinity 6.79282379
REMARK  13 active torsions:
REMARK  status: ('A' for Active; 'I' for Inactive)
REMARK    1  A    between atoms: C3_3  and  O1_4 
REMARK    2  A    between atoms: N1_14  and  O2_16 
REMARK    3  A    between atoms: O2_16  and  C13_17 
REMARK    4  A    between atoms: C13_17  and  C14_18 
REMARK       I    between atoms: C14_18  and  N2_20 
REMARK    5  A    between atoms: N2_20  and  C15_21 
REMARK    6  A    between atoms: C15_21  and  C17_23 
REMARK       I    between atoms: C17_23  and  N3_25 
REMARK    7  A    between atoms: N3_25  and  C18_26 
REMARK    8  A    between atoms: C18_26  and  C19_27 
REMARK    9  A    between atoms: C18_26  and  C22_31 
REMARK   10  A    between atoms: C19_27  and  C20_28 
REMARK   11  A    between atoms: C20_28  and  S1_29 
REMARK   12  A    between atoms: C22_31  and  O6_33 
REMARK   13  A    between atoms: C28_39  and  O7_40 
ROOT
HETATM    1  C1  UNL     1      -7.816   5.760  16.069  1.00  0.00     0.015 C 
HETATM    2  C2  UNL     1      -7.080   5.851  15.127  1.00  0.00    -0.078 C 
HETATM    3  C3  UNL     1      -6.175   5.957  13.970  1.00  0.00     0.128 C 
HETATM    4  C4  UNL     1      -5.408   4.649  13.718  1.00  0.00     0.052 C 
HETATM    5  C5  UNL     1      -4.081   5.062  13.071  1.00  0.00     0.010 C 
HETATM    6  C6  UNL     1      -4.074   6.603  13.009  1.00  0.00     0.002 C 
HETATM    7  C7  UNL     1      -2.700   7.323  13.007  1.00  0.00    -0.002 C 
HETATM    8  C8  UNL     1      -1.667   6.590  12.124  1.00  0.00     0.010 C 
HETATM    9  C9  UNL     1      -0.620   5.838  12.932  1.00  0.00     0.035 C 
HETATM   10  C10 UNL     1       0.150   6.767  13.829  1.00  0.00    -0.069 C 
HETATM   11  C11 UNL     1       1.452   6.533  14.073  1.00  0.00     0.030 C 
HETATM   12  C12 UNL     1       2.250   7.435  14.944  1.00  0.00     0.032 C 
HETATM   13  N1  UNL     1       3.548   7.351  14.872  1.00  0.00    -0.271 N 
ATOM     14  H1  UNL     1       4.048   6.707  14.258  1.00  0.00     0.194 HD
HETATM   15  C23 UNL     1       1.520   8.432  15.828  1.00  0.00     0.060 C 
HETATM   16  C24 UNL     1       0.008   8.196  15.837  1.00  0.00     0.020 C 
HETATM   17  C25 UNL     1      -0.592   7.964  14.425  1.00  0.00    -0.014 C 
HETATM   18  C26 UNL     1      -0.286   9.227  13.563  1.00  0.00     0.020 C 
HETATM   19  C27 UNL     1      -2.169   7.760  14.420  1.00  0.00     0.031 C 
HETATM   20  C28 UNL     1      -2.792   6.885  15.528  1.00  0.00     0.124 C 
HETATM   21  C29 UNL     1      -4.335   6.913  15.521  1.00  0.00     0.045 C 
HETATM   22  C30 UNL     1      -5.036   7.016  14.139  1.00  0.00     0.005 C 
HETATM   23  C31 UNL     1      -5.558   8.451  13.930  1.00  0.00     0.020 C 
ENDROOT
BRANCH   3  24
HETATM   24  O1  UNL     1      -6.982   6.251  12.827  1.00  0.00    -0.377 OA
HETATM   25  H2  UNL     1      -6.536   5.928  12.028  1.00  0.00     0.211 HD
ENDBRANCH   3  24
BRANCH  20  26
HETATM   26  O7  UNL     1      -2.413   7.344  16.827  1.00  0.00    -0.395 OA
HETATM   27  H40 UNL     1      -2.815   6.744  17.481  1.00  0.00     0.210 HD
ENDBRANCH  20  26
BRANCH  13  28
HETATM   28  O2  UNL     1       4.174   8.258  15.743  1.00  0.00    -0.271 OA
BRANCH  28  29
HETATM   29  C13 UNL     1       5.144   9.007  15.017  1.00  0.00     0.303 C 
BRANCH  29  30
HETATM   30  C14 UNL     1       6.357   8.161  14.655  1.00  0.00     0.244 C 
HETATM   31  O3  UNL     1       6.255   7.004  14.247  1.00  0.00    -0.271 OA
HETATM   32  N2  UNL     1       7.570   8.758  14.901  1.00  0.00    -0.346 N 
HETATM   33  H16 UNL     1       7.596   9.726  15.225  1.00  0.00     0.163 HD
BRANCH  32  34
HETATM   34  C15 UNL     1       8.829   8.026  14.834  1.00  0.00     0.172 C 
HETATM   35  C16 UNL     1       9.365   7.764  16.242  1.00  0.00     0.042 C 
BRANCH  34  36
HETATM   36  C17 UNL     1       9.855   8.835  14.013  1.00  0.00     0.240 C 
HETATM   37  O4  UNL     1      10.892   8.346  13.568  1.00  0.00    -0.271 OA
HETATM   38  N3  UNL     1       9.502  10.155  13.789  1.00  0.00    -0.345 N 
HETATM   39  H21 UNL     1       8.523  10.385  13.924  1.00  0.00     0.163 HD
BRANCH  38  40
HETATM   40  C18 UNL     1      10.200  10.929  12.761  1.00  0.00     0.183 C 
BRANCH  40  41
HETATM   41  C19 UNL     1      10.760  12.236  13.333  1.00  0.00     0.046 C 
BRANCH  41  42
HETATM   42  C20 UNL     1      10.977  12.138  14.840  1.00  0.00     0.076 C 
BRANCH  42  43
HETATM   43  S1  UNL     1      11.987  13.526  15.471  1.00  0.00    -0.173 SA
HETATM   44  C21 UNL     1      11.705  14.739  14.157  1.00  0.00     0.089 C 
ENDBRANCH  42  43
ENDBRANCH  41  42
ENDBRANCH  40  41
BRANCH  40  45
HETATM   45  C22 UNL     1       9.191  11.258  11.659  1.00  0.00     0.163 C 
HETATM   46  O5  UNL     1       9.446  11.460  10.481  1.00  0.00    -0.648 OA
BRANCH  45  47
HETATM   47  O6  UNL     1       7.920  11.273  12.099  1.00  0.00    -0.775 OA
HETATM   48  H30 UNL     1       7.398  11.539  11.313  1.00  0.00     0.167 HD
ENDBRANCH  45  47
ENDBRANCH  40  45
ENDBRANCH  38  40
ENDBRANCH  34  36
ENDBRANCH  32  34
ENDBRANCH  29  30
ENDBRANCH  28  29
ENDBRANCH  13  28
TORSDOF 13
ENDMDL
MODEL 9
REMARK minimizedAffinity -7.48718929
REMARK CNNscore 0.253650367
REMARK CNNaffinity 6.10512543
REMARK  13 active torsions:
REMARK  status: ('A' for Active; 'I' for Inactive)
REMARK    1  A    between atoms: C3_3  and  O1_4 
REMARK    2  A    between atoms: N1_14  and  O2_16 
REMARK    3  A    between atoms: O2_16  and  C13_17 
REMARK    4  A    between atoms: C13_17  and  C14_18 
REMARK       I    between atoms: C14_18  and  N2_20 
REMARK    5  A    between atoms: N2_20  and  C15_21 
REMARK    6  A    between atoms: C15_21  and  C17_23 
REMARK       I    between atoms: C17_23  and  N3_25 
REMARK    7  A    between atoms: N3_25  and  C18_26 
REMARK    8  A    between atoms: C18_26  and  C19_27 
REMARK    9  A    between atoms: C18_26  and  C22_31 
REMARK   10  A    between atoms: C19_27  and  C20_28 
REMARK   11  A    between atoms: C20_28  and  S1_29 
REMARK   12  A    between atoms: C22_31  and  O6_33 
REMARK   13  A    between atoms: C28_39  and  O7_40 
ROOT
HETATM    1  C1  UNL     1      -3.871   1.021  12.054  1.00  0.00     0.015 C 
HETATM    2  C2  UNL     1      -3.083   1.831  11.652  1.00  0.00    -0.078 C 
HETATM    3  C3  UNL     1      -2.112   2.821  11.160  1.00  0.00     0.128 C 
HETATM    4  C4  UNL     1      -0.672   2.465  11.563  1.00  0.00     0.052 C 
HETATM    5  C5  UNL     1       0.073   3.800  11.673  1.00  0.00     0.010 C 
HETATM    6  C6  UNL     1      -0.957   4.912  11.388  1.00  0.00     0.002 C 
HETATM    7  C7  UNL     1      -0.707   6.310  12.012  1.00  0.00    -0.002 C 
HETATM    8  C8  UNL     1       0.782   6.712  11.946  1.00  0.00     0.010 C 
HETATM    9  C9  UNL     1       1.483   6.626  13.293  1.00  0.00     0.035 C 
HETATM   10  C10 UNL     1       0.831   7.524  14.307  1.00  0.00    -0.069 C 
HETATM   11  C11 UNL     1       1.583   8.130  15.243  1.00  0.00     0.030 C 
HETATM   12  C12 UNL     1       0.977   9.036  16.256  1.00  0.00     0.032 C 
HETATM   13  N1  UNL     1       1.774   9.836  16.904  1.00  0.00    -0.271 N 
ATOM     14  H1  UNL     1       2.783   9.879  16.761  1.00  0.00     0.194 HD
HETATM   15  C23 UNL     1      -0.530   9.015  16.444  1.00  0.00     0.060 C 
HETATM   16  C24 UNL     1      -1.192   7.868  15.678  1.00  0.00     0.020 C 
HETATM   17  C25 UNL     1      -0.683   7.720  14.220  1.00  0.00    -0.014 C 
HETATM   18  C26 UNL     1      -0.976   9.058  13.475  1.00  0.00     0.020 C 
HETATM   19  C27 UNL     1      -1.396   6.557  13.403  1.00  0.00     0.031 C 
HETATM   20  C28 UNL     1      -1.661   5.219  14.123  1.00  0.00     0.124 C 
HETATM   21  C29 UNL     1      -2.514   4.243  13.287  1.00  0.00     0.045 C 
HETATM   22  C30 UNL     1      -2.305   4.258  11.747  1.00  0.00     0.005 C 
HETATM   23  C31 UNL     1      -3.479   4.995  11.073  1.00  0.00     0.020 C 
ENDROOT
BRANCH   3  24
HETATM   24  O1  UNL     1      -2.206   2.835   9.733  1.00  0.00    -0.377 OA
HETATM   25  H2  UNL     1      -1.359   3.124   9.359  1.00  0.00     0.211 HD
ENDBRANCH   3  24
BRANCH  20  26
HETATM   26  O7  UNL     1      -2.393   5.417  15.334  1.00  0.00    -0.395 OA
HETATM   27  H40 UNL     1      -2.510   4.546  15.754  1.00  0.00     0.210 HD
ENDBRANCH  20  26
BRANCH  13  28
HETATM   28  O2  UNL     1       1.072  10.632  17.823  1.00  0.00    -0.271 OA
BRANCH  28  29
HETATM   29  C13 UNL     1       1.990  11.493  18.489  1.00  0.00     0.303 C 
BRANCH  29  30
HETATM   30  C14 UNL     1       2.747  10.768  19.593  1.00  0.00     0.244 C 
HETATM   31  O3  UNL     1       2.540   9.586  19.866  1.00  0.00    -0.271 OA
HETATM   32  N2  UNL     1       3.612  11.556  20.312  1.00  0.00    -0.346 N 
HETATM   33  H16 UNL     1       3.757  12.527  20.032  1.00  0.00     0.163 HD
BRANCH  32  34
HETATM   34  C15 UNL     1       4.248  11.098  21.541  1.00  0.00     0.172 C 
HETATM   35  C16 UNL     1       3.392  11.471  22.753  1.00  0.00     0.042 C 
BRANCH  34  36
HETATM   36  C17 UNL     1       5.652  11.728  21.665  1.00  0.00     0.240 C 
HETATM   37  O4  UNL     1       6.370  11.960  20.693  1.00  0.00    -0.271 OA
HETATM   38  N3  UNL     1       6.030  12.043  22.959  1.00  0.00    -0.345 N 
HETATM   39  H21 UNL     1       5.282  12.099  23.642  1.00  0.00     0.163 HD
BRANCH  38  40
HETATM   40  C18 UNL     1       7.167  12.937  23.186  1.00  0.00     0.183 C 
BRANCH  40  41
HETATM   41  C19 UNL     1       7.069  14.193  22.312  1.00  0.00     0.046 C 
BRANCH  41  42
HETATM   42  C20 UNL     1       7.397  15.453  23.107  1.00  0.00     0.076 C 
BRANCH  42  43
HETATM   43  S1  UNL     1       8.968  16.211  22.555  1.00  0.00    -0.173 SA
HETATM   44  C21 UNL     1       8.673  17.928  23.045  1.00  0.00     0.089 C 
ENDBRANCH  42  43
ENDBRANCH  41  42
ENDBRANCH  40  41
BRANCH  40  45
HETATM   45  C22 UNL     1       8.442  12.173  22.822  1.00  0.00     0.163 C 
HETATM   46  O5  UNL     1       8.878  11.183  23.390  1.00  0.00    -0.648 OA
BRANCH  45  47
HETATM   47  O6  UNL     1       9.068  12.680  21.744  1.00  0.00    -0.775 OA
HETATM   48  H30 UNL     1       9.876  12.132  21.658  1.00  0.00     0.167 HD
ENDBRANCH  45  47
ENDBRANCH  40  45
ENDBRANCH  38  40
ENDBRANCH  34  36
ENDBRANCH  32  34
ENDBRANCH  29  30
ENDBRANCH  28  29
ENDBRANCH  13  28
TORSDOF 13
ENDMDL
