MODEL 1
REMARK minimizedAffinity -8.00548172
REMARK CNNscore 0.650090516
REMARK CNNaffinity 7.06583023
REMARK  16 active torsions:
REMARK  status: ('A' for Active; 'I' for Inactive)
REMARK    1  A    between atoms: S1_2  and  C2_3 
REMARK    2  A    between atoms: C2_3  and  C3_4 
REMARK    3  A    between atoms: C3_4  and  C4_5 
REMARK    4  A    between atoms: C4_5  and  N1_6 
REMARK    5  A    between atoms: C4_5  and  C33_44 
REMARK       I    between atoms: N1_6  and  C5_7 
REMARK    6  A    between atoms: C5_7  and  C6_9 
REMARK    7  A    between atoms: C6_9  and  N2_11 
REMARK       I    between atoms: N2_11  and  C8_12 
REMARK    8  A    between atoms: C8_12  and  C9_14 
REMARK    9  A    between atoms: C9_14  and  C10_15 
REMARK   10  A    between atoms: C10_15  and  C11_16 
REMARK   11  A    between atoms: C11_16  and  O4_18 
REMARK   12  A    between atoms: O4_18  and  C12_19 
REMARK   13  A    between atoms: C12_19  and  C13_20 
REMARK   14  A    between atoms: C13_20  and  C14_22 
REMARK   15  A    between atoms: C14_22  and  O6_23 
REMARK   16  A    between atoms: C33_44  and  O10_46 
ROOT
HETATM    1  C12 UNL     1      -1.514   9.346  17.175  1.00  0.00     0.260 C 
ENDROOT
BRANCH   1   2
HETATM    2  O4  UNL     1      -1.145  10.725  17.136  1.00  0.00    -0.314 OA
BRANCH   2   3
HETATM    3  C11 UNL     1      -0.832  11.264  18.349  1.00  0.00     0.259 C 
HETATM    4  O3  UNL     1      -1.559  12.014  18.986  1.00  0.00    -0.265 OA
BRANCH   3   5
HETATM    5  C10 UNL     1       0.566  10.850  18.743  1.00  0.00     0.120 C 
BRANCH   5   6
HETATM    6  C9  UNL     1       0.873  11.207  20.190  1.00  0.00     0.112 C 
BRANCH   6   7
HETATM    7  C8  UNL     1       2.135  10.529  20.681  1.00  0.00     0.218 C 
HETATM    8  N2  UNL     1       2.700  11.151  21.772  1.00  0.00    -0.348 N 
HETATM    9  H14 UNL     1       2.358  12.068  22.030  1.00  0.00     0.163 HD
HETATM   10  O2  UNL     1       2.643   9.555  20.138  1.00  0.00    -0.274 OA
BRANCH   8  11
HETATM   11  C6  UNL     1       4.008  10.753  22.300  1.00  0.00     0.172 C 
HETATM   12  C7  UNL     1       3.826   9.838  23.503  1.00  0.00     0.042 C 
BRANCH  11  13
HETATM   13  C5  UNL     1       4.833  12.006  22.670  1.00  0.00     0.240 C 
HETATM   14  N1  UNL     1       6.190  11.881  22.471  1.00  0.00    -0.345 N 
HETATM   15  H9  UNL     1       6.564  10.945  22.302  1.00  0.00     0.163 HD
HETATM   16  O1  UNL     1       4.334  13.018  23.149  1.00  0.00    -0.271 OA
BRANCH  14  17
HETATM   17  C4  UNL     1       7.153  12.907  22.870  1.00  0.00     0.183 C 
BRANCH  17  18
HETATM   18  C3  UNL     1       7.175  14.136  21.943  1.00  0.00     0.046 C 
BRANCH  18  19
HETATM   19  C2  UNL     1       6.716  13.904  20.503  1.00  0.00     0.076 C 
BRANCH  19  20
HETATM   20  S1  UNL     1       7.839  12.891  19.485  1.00  0.00    -0.173 SA
HETATM   21  C1  UNL     1       8.314  14.116  18.239  1.00  0.00     0.089 C 
ENDBRANCH  19  20
ENDBRANCH  18  19
ENDBRANCH  17  18
BRANCH  17  22
HETATM   22  C33 UNL     1       8.525  12.252  23.038  1.00  0.00     0.163 C 
HETATM   23  O9  UNL     1       8.742  11.148  23.514  1.00  0.00    -0.648 OA
BRANCH  22  24
HETATM   24  O10 UNL     1       9.555  13.043  22.667  1.00  0.00    -0.775 OA
HETATM   25  H46 UNL     1      10.344  12.488  22.848  1.00  0.00     0.167 HD
ENDBRANCH  22  24
ENDBRANCH  17  22
ENDBRANCH  14  17
ENDBRANCH  11  13
ENDBRANCH   8  11
ENDBRANCH   6   7
ENDBRANCH   5   6
ENDBRANCH   3   5
ENDBRANCH   2   3
ENDBRANCH   1   2
BRANCH   1  26
HETATM   26  C13 UNL     1      -2.623   9.006  16.180  1.00  0.00     0.185 C 
HETATM   27  O5  UNL     1      -3.746   9.523  16.246  1.00  0.00    -0.292 OA
BRANCH  26  28
HETATM   28  C14 UNL     1      -2.324   8.023  15.032  1.00  0.00     0.128 C 
HETATM   29  C15 UNL     1      -3.474   7.739  14.043  1.00  0.00     0.047 C 
HETATM   30  C16 UNL     1      -2.812   7.369  12.699  1.00  0.00     0.009 C 
HETATM   31  C17 UNL     1      -1.310   7.388  12.983  1.00  0.00     0.002 C 
HETATM   32  C18 UNL     1      -0.325   7.478  11.812  1.00  0.00     0.003 C 
HETATM   33  C31 UNL     1      -1.131   8.433  14.105  1.00  0.00     0.005 C 
HETATM   34  C19 UNL     1      -0.819   8.200  10.544  1.00  0.00     0.010 C 
HETATM   35  C28 UNL     1       1.054   8.064  12.210  1.00  0.00     0.072 C 
HETATM   36  C20 UNL     1       0.328   8.544   9.574  1.00  0.00     0.035 C 
HETATM   37  C21 UNL     1       1.502   7.613   9.768  1.00  0.00    -0.067 C 
HETATM   38  C22 UNL     1       1.879   6.778   8.783  1.00  0.00     0.053 C 
HETATM   39  C26 UNL     1       2.147   7.619  11.168  1.00  0.00    -0.009 C 
HETATM   40  C23 UNL     1       2.968   5.796   8.977  1.00  0.00     0.149 C 
HETATM   41  O7  UNL     1       3.344   5.131   8.015  1.00  0.00    -0.293 OA
HETATM   42  C24 UNL     1       3.606   5.672  10.339  1.00  0.00     0.084 C 
HETATM   43  C25 UNL     1       2.704   6.200  11.451  1.00  0.00     0.022 C 
HETATM   44  C27 UNL     1       3.295   8.652  11.166  1.00  0.00     0.021 C 
HETATM   45  C29 UNL     1       1.361   7.889  13.700  1.00  0.00     0.133 C 
HETATM   46  O8  UNL     1       2.479   7.566  14.107  1.00  0.00    -0.297 OA
HETATM   47  C30 UNL     1       0.275   8.253  14.713  1.00  0.00     0.091 C 
HETATM   48  C32 UNL     1      -1.319   9.890  13.620  1.00  0.00     0.019 C 
BRANCH  28  49
HETATM   49  O6  UNL     1      -2.044   6.768  15.683  1.00  0.00    -0.381 OA
HETATM   50  H21 UNL     1      -1.500   6.970  16.469  1.00  0.00     0.211 HD
ENDBRANCH  28  49
ENDBRANCH  26  28
ENDBRANCH   1  26
TORSDOF 16
ENDMDL
MODEL 2
REMARK minimizedAffinity -7.17730618
REMARK CNNscore 0.495803773
REMARK CNNaffinity 6.29799271
REMARK  16 active torsions:
REMARK  status: ('A' for Active; 'I' for Inactive)
REMARK    1  A    between atoms: S1_2  and  C2_3 
REMARK    2  A    between atoms: C2_3  and  C3_4 
REMARK    3  A    between atoms: C3_4  and  C4_5 
REMARK    4  A    between atoms: C4_5  and  N1_6 
REMARK    5  A    between atoms: C4_5  and  C33_44 
REMARK       I    between atoms: N1_6  and  C5_7 
REMARK    6  A    between atoms: C5_7  and  C6_9 
REMARK    7  A    between atoms: C6_9  and  N2_11 
REMARK       I    between atoms: N2_11  and  C8_12 
REMARK    8  A    between atoms: C8_12  and  C9_14 
REMARK    9  A    between atoms: C9_14  and  C10_15 
REMARK   10  A    between atoms: C10_15  and  C11_16 
REMARK   11  A    between atoms: C11_16  and  O4_18 
REMARK   12  A    between atoms: O4_18  and  C12_19 
REMARK   13  A    between atoms: C12_19  and  C13_20 
REMARK   14  A    between atoms: C13_20  and  C14_22 
REMARK   15  A    between atoms: C14_22  and  O6_23 
REMARK   16  A    between atoms: C33_44  and  O10_46 
ROOT
HETATM    1  C12 UNL     1     -16.017   4.085  14.683  1.00  0.00     0.260 C 
ENDROOT
BRANCH   1   2
HETATM    2  O4  UNL     1     -14.822   4.857  14.798  1.00  0.00    -0.314 OA
BRANCH   2   3
HETATM    3  C11 UNL     1     -15.019   6.166  15.125  1.00  0.00     0.259 C 
HETATM    4  O3  UNL     1     -16.110   6.670  15.351  1.00  0.00    -0.265 OA
BRANCH   3   5
HETATM    5  C10 UNL     1     -13.700   6.901  15.094  1.00  0.00     0.120 C 
BRANCH   5   6
HETATM    6  C9  UNL     1     -13.062   6.855  13.713  1.00  0.00     0.112 C 
BRANCH   6   7
HETATM    7  C8  UNL     1     -11.587   7.198  13.763  1.00  0.00     0.218 C 
HETATM    8  N2  UNL     1     -10.900   6.515  14.741  1.00  0.00    -0.348 N 
HETATM    9  H14 UNL     1     -11.434   6.009  15.436  1.00  0.00     0.163 HD
HETATM   10  O2  UNL     1     -11.057   8.038  13.044  1.00  0.00    -0.274 OA
BRANCH   8  11
HETATM   11  C6  UNL     1      -9.502   6.818  15.063  1.00  0.00     0.172 C 
HETATM   12  C7  UNL     1      -9.272   8.322  15.013  1.00  0.00     0.042 C 
BRANCH  11  13
HETATM   13  C5  UNL     1      -8.562   6.076  14.088  1.00  0.00     0.240 C 
HETATM   14  N1  UNL     1      -7.704   5.180  14.685  1.00  0.00    -0.345 N 
HETATM   15  H9  UNL     1      -7.606   5.219  15.702  1.00  0.00     0.163 HD
HETATM   16  O1  UNL     1      -8.539   6.296  12.882  1.00  0.00    -0.271 OA
BRANCH  14  17
HETATM   17  C4  UNL     1      -6.658   4.467  13.954  1.00  0.00     0.183 C 
BRANCH  17  18
HETATM   18  C3  UNL     1      -5.600   5.388  13.321  1.00  0.00     0.046 C 
BRANCH  18  19
HETATM   19  C2  UNL     1      -4.413   5.764  14.210  1.00  0.00     0.076 C 
BRANCH  19  20
HETATM   20  S1  UNL     1      -4.657   7.245  15.243  1.00  0.00    -0.173 SA
HETATM   21  C1  UNL     1      -2.937   7.604  15.679  1.00  0.00     0.089 C 
ENDBRANCH  19  20
ENDBRANCH  18  19
ENDBRANCH  17  18
BRANCH  17  22
HETATM   22  C33 UNL     1      -7.319   3.524  12.946  1.00  0.00     0.163 C 
HETATM   23  O9  UNL     1      -6.814   3.106  11.914  1.00  0.00    -0.648 OA
BRANCH  22  24
HETATM   24  O10 UNL     1      -8.597   3.214  13.249  1.00  0.00    -0.775 OA
HETATM   25  H46 UNL     1      -8.869   2.626  12.511  1.00  0.00     0.167 HD
ENDBRANCH  22  24
ENDBRANCH  17  22
ENDBRANCH  14  17
ENDBRANCH  11  13
ENDBRANCH   8  11
ENDBRANCH   6   7
ENDBRANCH   5   6
ENDBRANCH   3   5
ENDBRANCH   2   3
ENDBRANCH   1   2
BRANCH   1  26
HETATM   26  C13 UNL     1     -15.767   2.586  14.837  1.00  0.00     0.185 C 
HETATM   27  O5  UNL     1     -14.624   2.115  14.911  1.00  0.00    -0.292 OA
BRANCH  26  28
HETATM   28  C14 UNL     1     -16.971   1.633  14.950  1.00  0.00     0.128 C 
HETATM   29  C15 UNL     1     -17.863   1.486  13.699  1.00  0.00     0.047 C 
HETATM   30  C16 UNL     1     -18.488   0.077  13.771  1.00  0.00     0.009 C 
HETATM   31  C17 UNL     1     -17.989  -0.506  15.092  1.00  0.00     0.002 C 
HETATM   32  C18 UNL     1     -18.056  -2.021  15.318  1.00  0.00     0.003 C 
HETATM   33  C31 UNL     1     -16.613   0.156  15.324  1.00  0.00     0.005 C 
HETATM   34  C19 UNL     1     -17.966  -2.913  14.065  1.00  0.00     0.010 C 
HETATM   35  C28 UNL     1     -17.036  -2.535  16.366  1.00  0.00     0.072 C 
HETATM   36  C20 UNL     1     -17.693  -4.391  14.409  1.00  0.00     0.035 C 
HETATM   37  C21 UNL     1     -18.166  -4.720  15.805  1.00  0.00    -0.067 C 
HETATM   38  C22 UNL     1     -19.162  -5.604  15.996  1.00  0.00     0.053 C 
HETATM   39  C26 UNL     1     -17.515  -3.917  16.949  1.00  0.00    -0.009 C 
HETATM   40  C23 UNL     1     -19.703  -5.879  17.345  1.00  0.00     0.149 C 
HETATM   41  O7  UNL     1     -20.538  -6.771  17.477  1.00  0.00    -0.293 OA
HETATM   42  C24 UNL     1     -19.184  -5.083  18.517  1.00  0.00     0.084 C 
HETATM   43  C25 UNL     1     -18.557  -3.760  18.086  1.00  0.00     0.022 C 
HETATM   44  C27 UNL     1     -16.288  -4.706  17.455  1.00  0.00     0.021 C 
HETATM   45  C29 UNL     1     -16.605  -1.445  17.352  1.00  0.00     0.133 C 
HETATM   46  O8  UNL     1     -16.470  -1.664  18.557  1.00  0.00    -0.297 OA
HETATM   47  C30 UNL     1     -16.206  -0.078  16.794  1.00  0.00     0.091 C 
HETATM   48  C32 UNL     1     -15.512  -0.374  14.376  1.00  0.00     0.019 C 
BRANCH  28  49
HETATM   49  O6  UNL     1     -17.811   2.217  15.966  1.00  0.00    -0.381 OA
HETATM   50  H21 UNL     1     -17.219   2.538  16.674  1.00  0.00     0.211 HD
ENDBRANCH  28  49
ENDBRANCH  26  28
ENDBRANCH   1  26
TORSDOF 16
ENDMDL
MODEL 3
REMARK minimizedAffinity -7.91755819
REMARK CNNscore 0.427998573
REMARK CNNaffinity 7.55547523
REMARK  16 active torsions:
REMARK  status: ('A' for Active; 'I' for Inactive)
REMARK    1  A    between atoms: S1_2  and  C2_3 
REMARK    2  A    between atoms: C2_3  and  C3_4 
REMARK    3  A    between atoms: C3_4  and  C4_5 
REMARK    4  A    between atoms: C4_5  and  N1_6 
REMARK    5  A    between atoms: C4_5  and  C33_44 
REMARK       I    between atoms: N1_6  and  C5_7 
REMARK    6  A    between atoms: C5_7  and  C6_9 
REMARK    7  A    between atoms: C6_9  and  N2_11 
REMARK       I    between atoms: N2_11  and  C8_12 
REMARK    8  A    between atoms: C8_12  and  C9_14 
REMARK    9  A    between atoms: C9_14  and  C10_15 
REMARK   10  A    between atoms: C10_15  and  C11_16 
REMARK   11  A    between atoms: C11_16  and  O4_18 
REMARK   12  A    between atoms: O4_18  and  C12_19 
REMARK   13  A    between atoms: C12_19  and  C13_20 
REMARK   14  A    between atoms: C13_20  and  C14_22 
REMARK   15  A    between atoms: C14_22  and  O6_23 
REMARK   16  A    between atoms: C33_44  and  O10_46 
ROOT
HETATM    1  C12 UNL     1     -14.327   7.587  13.454  1.00  0.00     0.260 C 
ENDROOT
BRANCH   1   2
HETATM    2  O4  UNL     1     -14.940   6.725  12.496  1.00  0.00    -0.314 OA
BRANCH   2   3
HETATM    3  C11 UNL     1     -16.259   6.981  12.263  1.00  0.00     0.259 C 
HETATM    4  O3  UNL     1     -16.688   7.597  11.297  1.00  0.00    -0.265 OA
BRANCH   3   5
HETATM    5  C10 UNL     1     -17.089   6.450  13.407  1.00  0.00     0.120 C 
BRANCH   5   6
HETATM    6  C9  UNL     1     -17.484   4.997  13.189  1.00  0.00     0.112 C 
BRANCH   6   7
HETATM    7  C8  UNL     1     -16.888   4.088  14.245  1.00  0.00     0.218 C 
HETATM    8  N2  UNL     1     -16.866   2.762  13.875  1.00  0.00    -0.348 N 
HETATM    9  H14 UNL     1     -17.393   2.485  13.056  1.00  0.00     0.163 HD
HETATM   10  O2  UNL     1     -16.508   4.476  15.344  1.00  0.00    -0.274 OA
BRANCH   8  11
HETATM   11  C6  UNL     1     -16.481   1.702  14.811  1.00  0.00     0.172 C 
HETATM   12  C7  UNL     1     -14.967   1.546  14.825  1.00  0.00     0.042 C 
BRANCH  11  13
HETATM   13  C5  UNL     1     -17.176   0.377  14.426  1.00  0.00     0.240 C 
HETATM   14  N1  UNL     1     -16.561  -0.322  13.412  1.00  0.00    -0.345 N 
HETATM   15  H9  UNL     1     -15.844   0.161  12.866  1.00  0.00     0.163 HD
HETATM   16  O1  UNL     1     -18.220  -0.005  14.942  1.00  0.00    -0.271 OA
BRANCH  14  17
HETATM   17  C4  UNL     1     -17.126  -1.535  12.821  1.00  0.00     0.183 C 
BRANCH  17  18
HETATM   18  C3  UNL     1     -16.374  -2.823  13.202  1.00  0.00     0.046 C 
BRANCH  18  19
HETATM   19  C2  UNL     1     -14.938  -2.645  13.697  1.00  0.00     0.076 C 
BRANCH  19  20
HETATM   20  S1  UNL     1     -13.660  -3.431  12.663  1.00  0.00    -0.173 SA
HETATM   21  C1  UNL     1     -12.531  -4.010  13.956  1.00  0.00     0.089 C 
ENDBRANCH  19  20
ENDBRANCH  18  19
ENDBRANCH  17  18
BRANCH  17  22
HETATM   22  C33 UNL     1     -17.251  -1.332  11.310  1.00  0.00     0.163 C 
HETATM   23  O9  UNL     1     -18.053  -0.604  10.745  1.00  0.00    -0.648 OA
BRANCH  22  24
HETATM   24  O10 UNL     1     -16.412  -2.105  10.586  1.00  0.00    -0.775 OA
HETATM   25  H46 UNL     1     -16.626  -1.866   9.659  1.00  0.00     0.167 HD
ENDBRANCH  22  24
ENDBRANCH  17  22
ENDBRANCH  14  17
ENDBRANCH  11  13
ENDBRANCH   8  11
ENDBRANCH   6   7
ENDBRANCH   5   6
ENDBRANCH   3   5
ENDBRANCH   2   3
ENDBRANCH   1   2
BRANCH   1  26
HETATM   26  C13 UNL     1     -13.616   8.775  12.807  1.00  0.00     0.185 C 
HETATM   27  O5  UNL     1     -14.175   9.501  11.974  1.00  0.00    -0.292 OA
BRANCH  26  28
HETATM   28  C14 UNL     1     -12.176   9.111  13.237  1.00  0.00     0.128 C 
HETATM   29  C15 UNL     1     -12.012  10.028  14.468  1.00  0.00     0.047 C 
HETATM   30  C16 UNL     1     -10.656   9.661  15.107  1.00  0.00     0.009 C 
HETATM   31  C17 UNL     1     -10.061   8.599  14.184  1.00  0.00     0.002 C 
HETATM   32  C18 UNL     1      -8.930   7.702  14.700  1.00  0.00     0.003 C 
HETATM   33  C31 UNL     1     -11.280   7.873  13.576  1.00  0.00     0.005 C 
HETATM   34  C19 UNL     1      -8.901   7.427  16.216  1.00  0.00     0.010 C 
HETATM   35  C28 UNL     1      -8.821   6.351  13.949  1.00  0.00     0.072 C 
HETATM   36  C20 UNL     1      -7.963   6.261  16.587  1.00  0.00     0.035 C 
HETATM   37  C21 UNL     1      -6.886   6.077  15.544  1.00  0.00    -0.067 C 
HETATM   38  C22 UNL     1      -5.593   6.272  15.859  1.00  0.00     0.053 C 
HETATM   39  C26 UNL     1      -7.372   5.758  14.116  1.00  0.00    -0.009 C 
HETATM   40  C23 UNL     1      -4.527   6.184  14.837  1.00  0.00     0.149 C 
HETATM   41  O7  UNL     1      -3.355   6.268  15.195  1.00  0.00    -0.293 OA
HETATM   42  C24 UNL     1      -4.913   5.957  13.396  1.00  0.00     0.084 C 
HETATM   43  C25 UNL     1      -6.357   6.363  13.112  1.00  0.00     0.022 C 
HETATM   44  C27 UNL     1      -7.431   4.223  13.957  1.00  0.00     0.021 C 
HETATM   45  C29 UNL     1      -9.420   6.410  12.540  1.00  0.00     0.133 C 
HETATM   46  O8  UNL     1      -8.878   5.872  11.573  1.00  0.00    -0.297 OA
HETATM   47  C30 UNL     1     -10.797   7.050  12.363  1.00  0.00     0.091 C 
HETATM   48  C32 UNL     1     -12.012   6.956  14.583  1.00  0.00     0.019 C 
BRANCH  28  49
HETATM   49  O6  UNL     1     -11.619   9.842  12.125  1.00  0.00    -0.381 OA
HETATM   50  H21 UNL     1     -11.925   9.396  11.311  1.00  0.00     0.211 HD
ENDBRANCH  28  49
ENDBRANCH  26  28
ENDBRANCH   1  26
TORSDOF 16
ENDMDL
MODEL 4
REMARK minimizedAffinity -8.31826782
REMARK CNNscore 0.347099036
REMARK CNNaffinity 6.44141245
REMARK  16 active torsions:
REMARK  status: ('A' for Active; 'I' for Inactive)
REMARK    1  A    between atoms: S1_2  and  C2_3 
REMARK    2  A    between atoms: C2_3  and  C3_4 
REMARK    3  A    between atoms: C3_4  and  C4_5 
REMARK    4  A    between atoms: C4_5  and  N1_6 
REMARK    5  A    between atoms: C4_5  and  C33_44 
REMARK       I    between atoms: N1_6  and  C5_7 
REMARK    6  A    between atoms: C5_7  and  C6_9 
REMARK    7  A    between atoms: C6_9  and  N2_11 
REMARK       I    between atoms: N2_11  and  C8_12 
REMARK    8  A    between atoms: C8_12  and  C9_14 
REMARK    9  A    between atoms: C9_14  and  C10_15 
REMARK   10  A    between atoms: C10_15  and  C11_16 
REMARK   11  A    between atoms: C11_16  and  O4_18 
REMARK   12  A    between atoms: O4_18  and  C12_19 
REMARK   13  A    between atoms: C12_19  and  C13_20 
REMARK   14  A    between atoms: C13_20  and  C14_22 
REMARK   15  A    between atoms: C14_22  and  O6_23 
REMARK   16  A    between atoms: C33_44  and  O10_46 
ROOT
HETATM    1  C12 UNL     1      -0.121  10.934  16.009  1.00  0.00     0.260 C 
ENDROOT
BRANCH   1   2
HETATM    2  O4  UNL     1      -0.144  10.208  17.238  1.00  0.00    -0.314 OA
BRANCH   2   3
HETATM    3  C11 UNL     1      -0.586  10.921  18.312  1.00  0.00     0.259 C 
HETATM    4  O3  UNL     1      -1.733  10.902  18.736  1.00  0.00    -0.265 OA
BRANCH   3   5
HETATM    5  C10 UNL     1       0.535  11.782  18.845  1.00  0.00     0.120 C 
BRANCH   5   6
HETATM    6  C9  UNL     1       0.785  11.527  20.325  1.00  0.00     0.112 C 
BRANCH   6   7
HETATM    7  C8  UNL     1       1.987  10.633  20.547  1.00  0.00     0.218 C 
HETATM    8  N2  UNL     1       2.656  10.897  21.721  1.00  0.00    -0.348 N 
HETATM    9  H14 UNL     1       2.422  11.744  22.224  1.00  0.00     0.163 HD
HETATM   10  O2  UNL     1       2.368   9.790  19.743  1.00  0.00    -0.274 OA
BRANCH   8  11
HETATM   11  C6  UNL     1       3.934  10.258  22.046  1.00  0.00     0.172 C 
HETATM   12  C7  UNL     1       3.892   9.702  23.462  1.00  0.00     0.042 C 
BRANCH  11  13
HETATM   13  C5  UNL     1       5.090  11.269  21.877  1.00  0.00     0.240 C 
HETATM   14  N1  UNL     1       5.718  11.626  23.049  1.00  0.00    -0.345 N 
HETATM   15  H9  UNL     1       5.265  11.374  23.930  1.00  0.00     0.163 HD
HETATM   16  O1  UNL     1       5.398  11.759  20.796  1.00  0.00    -0.271 OA
BRANCH  14  17
HETATM   17  C4  UNL     1       6.753  12.657  23.118  1.00  0.00     0.183 C 
BRANCH  17  18
HETATM   18  C3  UNL     1       6.384  13.962  22.391  1.00  0.00     0.046 C 
BRANCH  18  19
HETATM   19  C2  UNL     1       6.771  15.262  23.098  1.00  0.00     0.076 C 
BRANCH  19  20
HETATM   20  S1  UNL     1       5.399  16.131  23.926  1.00  0.00    -0.173 SA
HETATM   21  C1  UNL     1       3.995  15.232  23.220  1.00  0.00     0.089 C 
ENDBRANCH  19  20
ENDBRANCH  18  19
ENDBRANCH  17  18
BRANCH  17  22
HETATM   22  C33 UNL     1       8.078  12.055  22.645  1.00  0.00     0.163 C 
HETATM   23  O9  UNL     1       8.866  11.421  23.331  1.00  0.00    -0.648 OA
BRANCH  22  24
HETATM   24  O10 UNL     1       8.376  12.339  21.359  1.00  0.00    -0.775 OA
HETATM   25  H46 UNL     1       9.243  11.899  21.224  1.00  0.00     0.167 HD
ENDBRANCH  22  24
ENDBRANCH  17  22
ENDBRANCH  14  17
ENDBRANCH  11  13
ENDBRANCH   8  11
ENDBRANCH   6   7
ENDBRANCH   5   6
ENDBRANCH   3   5
ENDBRANCH   2   3
ENDBRANCH   1   2
BRANCH   1  26
HETATM   26  C13 UNL     1       0.348  10.082  14.830  1.00  0.00     0.185 C 
HETATM   27  O5  UNL     1       1.538   9.780  14.671  1.00  0.00    -0.292 OA
BRANCH  26  28
HETATM   28  C14 UNL     1      -0.695   9.543  13.834  1.00  0.00     0.128 C 
HETATM   29  C15 UNL     1      -0.153   8.834  12.574  1.00  0.00     0.047 C 
HETATM   30  C16 UNL     1      -1.235   7.822  12.144  1.00  0.00     0.009 C 
HETATM   31  C17 UNL     1      -2.385   8.034  13.128  1.00  0.00     0.002 C 
HETATM   32  C18 UNL     1      -3.454   6.945  13.281  1.00  0.00     0.003 C 
HETATM   33  C31 UNL     1      -1.709   8.510  14.432  1.00  0.00     0.005 C 
HETATM   34  C19 UNL     1      -3.012   5.496  13.001  1.00  0.00     0.010 C 
HETATM   35  C28 UNL     1      -4.185   6.986  14.647  1.00  0.00     0.072 C 
HETATM   36  C20 UNL     1      -4.033   4.458  13.509  1.00  0.00     0.035 C 
HETATM   37  C21 UNL     1      -5.419   5.054  13.591  1.00  0.00    -0.067 C 
HETATM   38  C22 UNL     1      -6.409   4.586  12.811  1.00  0.00     0.053 C 
HETATM   39  C26 UNL     1      -5.581   6.266  14.531  1.00  0.00    -0.009 C 
HETATM   40  C23 UNL     1      -7.751   5.208  12.809  1.00  0.00     0.149 C 
HETATM   41  O7  UNL     1      -8.648   4.678  12.158  1.00  0.00    -0.293 OA
HETATM   42  C24 UNL     1      -7.983   6.449  13.635  1.00  0.00     0.084 C 
HETATM   43  C25 UNL     1      -6.684   7.187  13.948  1.00  0.00     0.022 C 
HETATM   44  C27 UNL     1      -6.000   5.746  15.923  1.00  0.00     0.021 C 
HETATM   45  C29 UNL     1      -4.138   8.371  15.300  1.00  0.00     0.133 C 
HETATM   46  O8  UNL     1      -5.113   8.862  15.871  1.00  0.00    -0.297 OA
HETATM   47  C30 UNL     1      -2.797   9.104  15.351  1.00  0.00     0.091 C 
HETATM   48  C32 UNL     1      -0.942   7.388  15.169  1.00  0.00     0.019 C 
BRANCH  28  49
HETATM   49  O6  UNL     1      -1.392  10.712  13.359  1.00  0.00    -0.381 OA
HETATM   50  H21 UNL     1      -1.531  11.293  14.132  1.00  0.00     0.211 HD
ENDBRANCH  28  49
ENDBRANCH  26  28
ENDBRANCH   1  26
TORSDOF 16
ENDMDL
MODEL 5
REMARK minimizedAffinity -7.60872746
REMARK CNNscore 0.276850432
REMARK CNNaffinity 5.91774225
REMARK  16 active torsions:
REMARK  status: ('A' for Active; 'I' for Inactive)
REMARK    1  A    between atoms: S1_2  and  C2_3 
REMARK    2  A    between atoms: C2_3  and  C3_4 
REMARK    3  A    between atoms: C3_4  and  C4_5 
REMARK    4  A    between atoms: C4_5  and  N1_6 
REMARK    5  A    between atoms: C4_5  and  C33_44 
REMARK       I    between atoms: N1_6  and  C5_7 
REMARK    6  A    between atoms: C5_7  and  C6_9 
REMARK    7  A    between atoms: C6_9  and  N2_11 
REMARK       I    between atoms: N2_11  and  C8_12 
REMARK    8  A    between atoms: C8_12  and  C9_14 
REMARK    9  A    between atoms: C9_14  and  C10_15 
REMARK   10  A    between atoms: C10_15  and  C11_16 
REMARK   11  A    between atoms: C11_16  and  O4_18 
REMARK   12  A    between atoms: O4_18  and  C12_19 
REMARK   13  A    between atoms: C12_19  and  C13_20 
REMARK   14  A    between atoms: C13_20  and  C14_22 
REMARK   15  A    between atoms: C14_22  and  O6_23 
REMARK   16  A    between atoms: C33_44  and  O10_46 
ROOT
HETATM    1  C12 UNL     1       1.702   6.649  11.929  1.00  0.00     0.260 C 
ENDROOT
BRANCH   1   2
HETATM    2  O4  UNL     1       1.270   6.890  10.590  1.00  0.00    -0.314 OA
BRANCH   2   3
HETATM    3  C11 UNL     1       0.575   8.050  10.416  1.00  0.00     0.259 C 
HETATM    4  O3  UNL     1       0.721   8.814   9.471  1.00  0.00    -0.265 OA
BRANCH   3   5
HETATM    5  C10 UNL     1      -0.340   8.275  11.595  1.00  0.00     0.120 C 
BRANCH   5   6
HETATM    6  C9  UNL     1      -1.098   7.010  11.969  1.00  0.00     0.112 C 
BRANCH   6   7
HETATM    7  C8  UNL     1      -2.393   7.323  12.691  1.00  0.00     0.218 C 
HETATM    8  N2  UNL     1      -2.920   6.242  13.361  1.00  0.00    -0.348 N 
HETATM    9  H14 UNL     1      -2.529   5.327  13.177  1.00  0.00     0.163 HD
HETATM   10  O2  UNL     1      -2.954   8.412  12.645  1.00  0.00    -0.274 OA
BRANCH   8  11
HETATM   11  C6  UNL     1      -4.245   6.288  13.987  1.00  0.00     0.172 C 
HETATM   12  C7  UNL     1      -4.136   5.932  15.463  1.00  0.00     0.042 C 
BRANCH  11  13
HETATM   13  C5  UNL     1      -5.210   5.332  13.251  1.00  0.00     0.240 C 
HETATM   14  N1  UNL     1      -6.519   5.757  13.208  1.00  0.00    -0.345 N 
HETATM   15  H9  UNL     1      -6.791   6.532  13.817  1.00  0.00     0.163 HD
HETATM   16  O1  UNL     1      -4.858   4.255  12.782  1.00  0.00    -0.271 OA
BRANCH  14  17
HETATM   17  C4  UNL     1      -7.606   4.942  12.664  1.00  0.00     0.183 C 
BRANCH  17  18
HETATM   18  C3  UNL     1      -8.892   5.734  12.370  1.00  0.00     0.046 C 
BRANCH  18  19
HETATM   19  C2  UNL     1      -9.629   6.301  13.585  1.00  0.00     0.076 C 
BRANCH  19  20
HETATM   20  S1  UNL     1     -10.957   7.488  13.201  1.00  0.00    -0.173 SA
HETATM   21  C1  UNL     1     -11.085   8.335  14.796  1.00  0.00     0.089 C 
ENDBRANCH  19  20
ENDBRANCH  18  19
ENDBRANCH  17  18
BRANCH  17  22
HETATM   22  C33 UNL     1      -7.831   3.745  13.589  1.00  0.00     0.163 C 
HETATM   23  O9  UNL     1      -8.045   2.594  13.238  1.00  0.00    -0.648 OA
BRANCH  22  24
HETATM   24  O10 UNL     1      -7.847   4.066  14.901  1.00  0.00    -0.775 OA
HETATM   25  H46 UNL     1      -8.012   3.205  15.344  1.00  0.00     0.167 HD
ENDBRANCH  22  24
ENDBRANCH  17  22
ENDBRANCH  14  17
ENDBRANCH  11  13
ENDBRANCH   8  11
ENDBRANCH   6   7
ENDBRANCH   5   6
ENDBRANCH   3   5
ENDBRANCH   2   3
ENDBRANCH   1   2
BRANCH   1  26
HETATM   26  C13 UNL     1       2.652   7.729  12.443  1.00  0.00     0.185 C 
HETATM   27  O5  UNL     1       2.330   8.511  13.348  1.00  0.00    -0.292 OA
BRANCH  26  28
HETATM   28  C14 UNL     1       4.072   7.822  11.854  1.00  0.00     0.128 C 
HETATM   29  C15 UNL     1       4.192   8.338  10.404  1.00  0.00     0.047 C 
HETATM   30  C16 UNL     1       5.583   8.995  10.289  1.00  0.00     0.009 C 
HETATM   31  C17 UNL     1       6.237   8.772  11.652  1.00  0.00     0.002 C 
HETATM   32  C18 UNL     1       7.441   9.630  12.057  1.00  0.00     0.003 C 
HETATM   33  C31 UNL     1       5.063   8.732  12.654  1.00  0.00     0.005 C 
HETATM   34  C19 UNL     1       7.520  11.044  11.452  1.00  0.00     0.010 C 
HETATM   35  C28 UNL     1       7.635   9.736  13.592  1.00  0.00     0.072 C 
HETATM   36  C20 UNL     1       8.549  11.939  12.171  1.00  0.00     0.035 C 
HETATM   37  C21 UNL     1       9.616  11.108  12.844  1.00  0.00    -0.067 C 
HETATM   38  C22 UNL     1      10.897  11.189  12.442  1.00  0.00     0.053 C 
HETATM   39  C26 UNL     1       9.126  10.118  13.920  1.00  0.00    -0.009 C 
HETATM   40  C23 UNL     1      11.946  10.324  13.023  1.00  0.00     0.149 C 
HETATM   41  O7  UNL     1      13.115  10.510  12.697  1.00  0.00    -0.293 OA
HETATM   42  C24 UNL     1      11.549   9.267  14.025  1.00  0.00     0.084 C 
HETATM   43  C25 UNL     1      10.074   8.891  13.916  1.00  0.00     0.022 C 
HETATM   44  C27 UNL     1       9.178  10.829  15.289  1.00  0.00     0.021 C 
HETATM   45  C29 UNL     1       7.006   8.562  14.348  1.00  0.00     0.133 C 
HETATM   46  O8  UNL     1       7.566   8.018  15.301  1.00  0.00    -0.297 OA
HETATM   47  C30 UNL     1       5.581   8.142  13.982  1.00  0.00     0.091 C 
HETATM   48  C32 UNL     1       4.421  10.117  12.901  1.00  0.00     0.019 C 
BRANCH  28  49
HETATM   49  O6  UNL     1       4.551   6.462  11.828  1.00  0.00    -0.381 OA
HETATM   50  H21 UNL     1       4.263   6.044  12.663  1.00  0.00     0.211 HD
ENDBRANCH  28  49
ENDBRANCH  26  28
ENDBRANCH   1  26
TORSDOF 16
ENDMDL
MODEL 6
REMARK minimizedAffinity -8.47422409
REMARK CNNscore 0.251866907
REMARK CNNaffinity 6.65509796
REMARK  16 active torsions:
REMARK  status: ('A' for Active; 'I' for Inactive)
REMARK    1  A    between atoms: S1_2  and  C2_3 
REMARK    2  A    between atoms: C2_3  and  C3_4 
REMARK    3  A    between atoms: C3_4  and  C4_5 
REMARK    4  A    between atoms: C4_5  and  N1_6 
REMARK    5  A    between atoms: C4_5  and  C33_44 
REMARK       I    between atoms: N1_6  and  C5_7 
REMARK    6  A    between atoms: C5_7  and  C6_9 
REMARK    7  A    between atoms: C6_9  and  N2_11 
REMARK       I    between atoms: N2_11  and  C8_12 
REMARK    8  A    between atoms: C8_12  and  C9_14 
REMARK    9  A    between atoms: C9_14  and  C10_15 
REMARK   10  A    between atoms: C10_15  and  C11_16 
REMARK   11  A    between atoms: C11_16  and  O4_18 
REMARK   12  A    between atoms: O4_18  and  C12_19 
REMARK   13  A    between atoms: C12_19  and  C13_20 
REMARK   14  A    between atoms: C13_20  and  C14_22 
REMARK   15  A    between atoms: C14_22  and  O6_23 
REMARK   16  A    between atoms: C33_44  and  O10_46 
ROOT
HETATM    1  C12 UNL     1      -5.779   7.589  15.191  1.00  0.00     0.260 C 
ENDROOT
BRANCH   1   2
HETATM    2  O4  UNL     1      -5.992   6.257  15.658  1.00  0.00    -0.314 OA
BRANCH   2   3
HETATM    3  C11 UNL     1      -7.300   5.925  15.855  1.00  0.00     0.259 C 
HETATM    4  O3  UNL     1      -8.066   6.527  16.596  1.00  0.00    -0.265 OA
BRANCH   3   5
HETATM    5  C10 UNL     1      -7.629   4.673  15.079  1.00  0.00     0.120 C 
BRANCH   5   6
HETATM    6  C9  UNL     1      -7.808   4.960  13.595  1.00  0.00     0.112 C 
BRANCH   6   7
HETATM    7  C8  UNL     1      -7.475   3.752  12.744  1.00  0.00     0.218 C 
HETATM    8  N2  UNL     1      -6.211   3.799  12.199  1.00  0.00    -0.348 N 
HETATM    9  H14 UNL     1      -5.701   4.672  12.248  1.00  0.00     0.163 HD
HETATM   10  O2  UNL     1      -8.263   2.842  12.512  1.00  0.00    -0.274 OA
BRANCH   8  11
HETATM   11  C6  UNL     1      -5.753   2.812  11.217  1.00  0.00     0.172 C 
HETATM   12  C7  UNL     1      -5.954   1.405  11.763  1.00  0.00     0.042 C 
BRANCH  11  13
HETATM   13  C5  UNL     1      -4.271   3.068  10.862  1.00  0.00     0.240 C 
HETATM   14  N1  UNL     1      -3.375   2.718  11.847  1.00  0.00    -0.345 N 
HETATM   15  H9  UNL     1      -3.743   2.520  12.780  1.00  0.00     0.163 HD
HETATM   16  O1  UNL     1      -3.915   3.586   9.810  1.00  0.00    -0.271 OA
BRANCH  14  17
HETATM   17  C4  UNL     1      -1.941   2.990  11.755  1.00  0.00     0.183 C 
BRANCH  17  18
HETATM   18  C3  UNL     1      -1.602   4.332  11.082  1.00  0.00     0.046 C 
BRANCH  18  19
HETATM   19  C2  UNL     1      -0.512   5.169  11.754  1.00  0.00     0.076 C 
BRANCH  19  20
HETATM   20  S1  UNL     1       0.453   6.230  10.631  1.00  0.00    -0.173 SA
HETATM   21  C1  UNL     1       2.090   5.484  10.832  1.00  0.00     0.089 C 
ENDBRANCH  19  20
ENDBRANCH  18  19
ENDBRANCH  17  18
BRANCH  17  22
HETATM   22  C33 UNL     1      -1.256   1.793  11.093  1.00  0.00     0.163 C 
HETATM   23  O9  UNL     1      -1.806   0.771  10.708  1.00  0.00    -0.648 OA
BRANCH  22  24
HETATM   24  O10 UNL     1       0.087   1.910  11.012  1.00  0.00    -0.775 OA
HETATM   25  H46 UNL     1       0.363   1.070  10.584  1.00  0.00     0.167 HD
ENDBRANCH  22  24
ENDBRANCH  17  22
ENDBRANCH  14  17
ENDBRANCH  11  13
ENDBRANCH   8  11
ENDBRANCH   6   7
ENDBRANCH   5   6
ENDBRANCH   3   5
ENDBRANCH   2   3
ENDBRANCH   1   2
BRANCH   1  26
HETATM   26  C13 UNL     1      -4.472   7.738  14.413  1.00  0.00     0.185 C 
HETATM   27  O5  UNL     1      -4.453   8.014  13.206  1.00  0.00    -0.292 OA
BRANCH  26  28
HETATM   28  C14 UNL     1      -3.134   7.586  15.161  1.00  0.00     0.128 C 
HETATM   29  C15 UNL     1      -1.984   6.897  14.397  1.00  0.00     0.047 C 
HETATM   30  C16 UNL     1      -0.672   7.465  14.979  1.00  0.00     0.009 C 
HETATM   31  C17 UNL     1      -1.114   8.405  16.099  1.00  0.00     0.002 C 
HETATM   32  C18 UNL     1      -0.132   9.457  16.628  1.00  0.00     0.003 C 
HETATM   33  C31 UNL     1      -2.498   8.928  15.656  1.00  0.00     0.005 C 
HETATM   34  C19 UNL     1       0.928   9.976  15.638  1.00  0.00     0.010 C 
HETATM   35  C28 UNL     1      -0.829  10.674  17.291  1.00  0.00     0.072 C 
HETATM   36  C20 UNL     1       1.629  11.255  16.138  1.00  0.00     0.035 C 
HETATM   37  C21 UNL     1       1.576  11.350  17.645  1.00  0.00    -0.067 C 
HETATM   38  C22 UNL     1       2.708  11.306  18.370  1.00  0.00     0.053 C 
HETATM   39  C26 UNL     1       0.168  11.394  18.273  1.00  0.00    -0.009 C 
HETATM   40  C23 UNL     1       2.679  11.309  19.849  1.00  0.00     0.149 C 
HETATM   41  O7  UNL     1       3.742  11.375  20.462  1.00  0.00    -0.293 OA
HETATM   42  C24 UNL     1       1.345  11.270  20.554  1.00  0.00     0.084 C 
HETATM   43  C25 UNL     1       0.236  10.715  19.664  1.00  0.00     0.022 C 
HETATM   44  C27 UNL     1      -0.247  12.874  18.421  1.00  0.00     0.021 C 
HETATM   45  C29 UNL     1      -2.234  10.341  17.802  1.00  0.00     0.133 C 
HETATM   46  O8  UNL     1      -2.655  10.756  18.884  1.00  0.00    -0.297 OA
HETATM   47  C30 UNL     1      -3.182   9.578  16.876  1.00  0.00     0.091 C 
HETATM   48  C32 UNL     1      -2.425   9.937  14.486  1.00  0.00     0.019 C 
BRANCH  28  49
HETATM   49  O6  UNL     1      -3.431   6.730  16.282  1.00  0.00    -0.381 OA
HETATM   50  H21 UNL     1      -4.298   7.013  16.634  1.00  0.00     0.211 HD
ENDBRANCH  28  49
ENDBRANCH  26  28
ENDBRANCH   1  26
TORSDOF 16
ENDMDL
MODEL 7
REMARK minimizedAffinity -8.06955528
REMARK CNNscore 0.249177217
REMARK CNNaffinity 7.1818409
REMARK  16 active torsions:
REMARK  status: ('A' for Active; 'I' for Inactive)
REMARK    1  A    between atoms: S1_2  and  C2_3 
REMARK    2  A    between atoms: C2_3  and  C3_4 
REMARK    3  A    between atoms: C3_4  and  C4_5 
REMARK    4  A    between atoms: C4_5  and  N1_6 
REMARK    5  A    between atoms: C4_5  and  C33_44 
REMARK       I    between atoms: N1_6  and  C5_7 
REMARK    6  A    between atoms: C5_7  and  C6_9 
REMARK    7  A    between atoms: C6_9  and  N2_11 
REMARK       I    between atoms: N2_11  and  C8_12 
REMARK    8  A    between atoms: C8_12  and  C9_14 
REMARK    9  A    between atoms: C9_14  and  C10_15 
REMARK   10  A    between atoms: C10_15  and  C11_16 
REMARK   11  A    between atoms: C11_16  and  O4_18 
REMARK   12  A    between atoms: O4_18  and  C12_19 
REMARK   13  A    between atoms: C12_19  and  C13_20 
REMARK   14  A    between atoms: C13_20  and  C14_22 
REMARK   15  A    between atoms: C14_22  and  O6_23 
REMARK   16  A    between atoms: C33_44  and  O10_46 
ROOT
HETATM    1  C12 UNL     1      -6.272   4.296  12.596  1.00  0.00     0.260 C 
ENDROOT
BRANCH   1   2
HETATM    2  O4  UNL     1      -5.269   3.325  12.296  1.00  0.00    -0.314 OA
BRANCH   2   3
HETATM    3  C11 UNL     1      -4.863   3.310  10.995  1.00  0.00     0.259 C 
HETATM    4  O3  UNL     1      -5.546   2.923  10.057  1.00  0.00    -0.265 OA
BRANCH   3   5
HETATM    5  C10 UNL     1      -3.429   3.774  10.905  1.00  0.00     0.120 C 
BRANCH   5   6
HETATM    6  C9  UNL     1      -2.656   3.462  12.179  1.00  0.00     0.112 C 
BRANCH   6   7
HETATM    7  C8  UNL     1      -1.773   4.620  12.599  1.00  0.00     0.218 C 
HETATM    8  N2  UNL     1      -1.098   5.201  11.550  1.00  0.00    -0.348 N 
HETATM    9  H14 UNL     1      -1.093   4.720  10.659  1.00  0.00     0.163 HD
HETATM   10  O2  UNL     1      -1.627   4.979  13.762  1.00  0.00    -0.274 OA
BRANCH   8  11
HETATM   11  C6  UNL     1      -0.073   6.227  11.761  1.00  0.00     0.172 C 
HETATM   12  C7  UNL     1      -0.571   7.572  11.251  1.00  0.00     0.042 C 
BRANCH  11  13
HETATM   13  C5  UNL     1       1.241   5.815  11.059  1.00  0.00     0.240 C 
HETATM   14  N1  UNL     1       1.946   6.857  10.500  1.00  0.00    -0.345 N 
HETATM   15  H9  UNL     1       1.472   7.759  10.406  1.00  0.00     0.163 HD
HETATM   16  O1  UNL     1       1.609   4.650  10.960  1.00  0.00    -0.271 OA
BRANCH  14  17
HETATM   17  C4  UNL     1       3.149   6.664   9.691  1.00  0.00     0.183 C 
BRANCH  17  18
HETATM   18  C3  UNL     1       4.275   7.667   9.997  1.00  0.00     0.046 C 
BRANCH  18  19
HETATM   19  C2  UNL     1       5.473   7.121  10.776  1.00  0.00     0.076 C 
BRANCH  19  20
HETATM   20  S1  UNL     1       5.494   7.532  12.551  1.00  0.00    -0.173 SA
HETATM   21  C1  UNL     1       7.202   8.110  12.713  1.00  0.00     0.089 C 
ENDBRANCH  19  20
ENDBRANCH  18  19
ENDBRANCH  17  18
BRANCH  17  22
HETATM   22  C33 UNL     1       2.748   6.637   8.214  1.00  0.00     0.163 C 
HETATM   23  O9  UNL     1       2.372   7.594   7.554  1.00  0.00    -0.648 OA
BRANCH  22  24
HETATM   24  O10 UNL     1       2.773   5.404   7.666  1.00  0.00    -0.775 OA
HETATM   25  H46 UNL     1       2.484   5.560   6.741  1.00  0.00     0.167 HD
ENDBRANCH  22  24
ENDBRANCH  17  22
ENDBRANCH  14  17
ENDBRANCH  11  13
ENDBRANCH   8  11
ENDBRANCH   6   7
ENDBRANCH   5   6
ENDBRANCH   3   5
ENDBRANCH   2   3
ENDBRANCH   1   2
BRANCH   1  26
HETATM   26  C13 UNL     1      -5.958   5.097  13.858  1.00  0.00     0.185 C 
HETATM   27  O5  UNL     1      -4.823   5.532  14.095  1.00  0.00    -0.292 OA
BRANCH  26  28
HETATM   28  C14 UNL     1      -7.096   5.417  14.846  1.00  0.00     0.128 C 
HETATM   29  C15 UNL     1      -6.684   5.801  16.282  1.00  0.00     0.047 C 
HETATM   30  C16 UNL     1      -7.803   6.712  16.828  1.00  0.00     0.009 C 
HETATM   31  C17 UNL     1      -8.847   6.761  15.714  1.00  0.00     0.002 C 
HETATM   32  C18 UNL     1      -9.895   7.881  15.714  1.00  0.00     0.003 C 
HETATM   33  C31 UNL     1      -8.044   6.583  14.408  1.00  0.00     0.005 C 
HETATM   34  C19 UNL     1      -9.483   9.215  16.365  1.00  0.00     0.010 C 
HETATM   35  C28 UNL     1     -10.485   8.175  14.311  1.00  0.00     0.072 C 
HETATM   36  C20 UNL     1     -10.446  10.367  16.015  1.00  0.00     0.035 C 
HETATM   37  C21 UNL     1     -11.817   9.839  15.661  1.00  0.00    -0.067 C 
HETATM   38  C22 UNL     1     -12.881  10.138  16.428  1.00  0.00     0.053 C 
HETATM   39  C26 UNL     1     -11.884   8.882  14.454  1.00  0.00    -0.009 C 
HETATM   40  C23 UNL     1     -14.217   9.565  16.154  1.00  0.00     0.149 C 
HETATM   41  O7  UNL     1     -15.174   9.952  16.819  1.00  0.00    -0.293 OA
HETATM   42  C24 UNL     1     -14.365   8.554  15.043  1.00  0.00     0.084 C 
HETATM   43  C25 UNL     1     -13.041   7.878  14.696  1.00  0.00     0.022 C 
HETATM   44  C27 UNL     1     -12.161   9.720  13.187  1.00  0.00     0.021 C 
HETATM   45  C29 UNL     1     -10.373   6.978  13.362  1.00  0.00     0.133 C 
HETATM   46  O8  UNL     1     -11.286   6.656  12.600  1.00  0.00    -0.297 OA
HETATM   47  C30 UNL     1      -9.034   6.245  13.273  1.00  0.00     0.091 C 
HETATM   48  C32 UNL     1      -7.206   7.827  14.030  1.00  0.00     0.019 C 
BRANCH  28  49
HETATM   49  O6  UNL     1      -7.838   4.186  14.965  1.00  0.00    -0.381 OA
HETATM   50  H21 UNL     1      -7.899   3.803  14.068  1.00  0.00     0.211 HD
ENDBRANCH  28  49
ENDBRANCH  26  28
ENDBRANCH   1  26
TORSDOF 16
ENDMDL
MODEL 8
REMARK minimizedAffinity -8.18292522
REMARK CNNscore 0.219604552
REMARK CNNaffinity 6.34628868
REMARK  16 active torsions:
REMARK  status: ('A' for Active; 'I' for Inactive)
REMARK    1  A    between atoms: S1_2  and  C2_3 
REMARK    2  A    between atoms: C2_3  and  C3_4 
REMARK    3  A    between atoms: C3_4  and  C4_5 
REMARK    4  A    between atoms: C4_5  and  N1_6 
REMARK    5  A    between atoms: C4_5  and  C33_44 
REMARK       I    between atoms: N1_6  and  C5_7 
REMARK    6  A    between atoms: C5_7  and  C6_9 
REMARK    7  A    between atoms: C6_9  and  N2_11 
REMARK       I    between atoms: N2_11  and  C8_12 
REMARK    8  A    between atoms: C8_12  and  C9_14 
REMARK    9  A    between atoms: C9_14  and  C10_15 
REMARK   10  A    between atoms: C10_15  and  C11_16 
REMARK   11  A    between atoms: C11_16  and  O4_18 
REMARK   12  A    between atoms: O4_18  and  C12_19 
REMARK   13  A    between atoms: C12_19  and  C13_20 
REMARK   14  A    between atoms: C13_20  and  C14_22 
REMARK   15  A    between atoms: C14_22  and  O6_23 
REMARK   16  A    between atoms: C33_44  and  O10_46 
ROOT
HETATM    1  C12 UNL     1       4.282   7.574   9.995  1.00  0.00     0.260 C 
ENDROOT
BRANCH   1   2
HETATM    2  O4  UNL     1       5.035   6.502  10.564  1.00  0.00    -0.314 OA
BRANCH   2   3
HETATM    3  C11 UNL     1       6.271   6.855  11.020  1.00  0.00     0.259 C 
HETATM    4  O3  UNL     1       7.151   7.352  10.332  1.00  0.00    -0.265 OA
BRANCH   3   5
HETATM    5  C10 UNL     1       6.402   6.474  12.476  1.00  0.00     0.120 C 
BRANCH   5   6
HETATM    6  C9  UNL     1       6.228   7.678  13.391  1.00  0.00     0.112 C 
BRANCH   6   7
HETATM    7  C8  UNL     1       7.559   8.206  13.885  1.00  0.00     0.218 C 
HETATM    8  N2  UNL     1       8.154   7.394  14.824  1.00  0.00    -0.348 N 
HETATM    9  H14 UNL     1       7.603   6.648  15.230  1.00  0.00     0.163 HD
HETATM   10  O2  UNL     1       8.043   9.275  13.531  1.00  0.00    -0.274 OA
BRANCH   8  11
HETATM   11  C6  UNL     1       9.363   7.801  15.546  1.00  0.00     0.172 C 
HETATM   12  C7  UNL     1       9.043   8.950  16.491  1.00  0.00     0.042 C 
BRANCH  11  13
HETATM   13  C5  UNL     1      10.471   8.194  14.544  1.00  0.00     0.240 C 
HETATM   14  N1  UNL     1      10.933   9.484  14.672  1.00  0.00    -0.345 N 
HETATM   15  H9  UNL     1      10.391  10.130  15.252  1.00  0.00     0.163 HD
HETATM   16  O1  UNL     1      10.879   7.439  13.667  1.00  0.00    -0.271 OA
BRANCH  14  17
HETATM   17  C4  UNL     1      11.891  10.086  13.746  1.00  0.00     0.183 C 
BRANCH  17  18
HETATM   18  C3  UNL     1      12.967  10.946  14.432  1.00  0.00     0.046 C 
BRANCH  18  19
HETATM   19  C2  UNL     1      12.457  12.098  15.300  1.00  0.00     0.076 C 
BRANCH  19  20
HETATM   20  S1  UNL     1      12.798  11.935  17.082  1.00  0.00    -0.173 SA
HETATM   21  C1  UNL     1      14.294  12.947  17.205  1.00  0.00     0.089 C 
ENDBRANCH  19  20
ENDBRANCH  18  19
ENDBRANCH  17  18
BRANCH  17  22
HETATM   22  C33 UNL     1      11.119  10.837  12.660  1.00  0.00     0.163 C 
HETATM   23  O9  UNL     1      11.428  10.915  11.480  1.00  0.00    -0.648 OA
BRANCH  22  24
HETATM   24  O10 UNL     1      10.041  11.506  13.122  1.00  0.00    -0.775 OA
HETATM   25  H46 UNL     1       9.676  11.933  12.318  1.00  0.00     0.167 HD
ENDBRANCH  22  24
ENDBRANCH  17  22
ENDBRANCH  14  17
ENDBRANCH  11  13
ENDBRANCH   8  11
ENDBRANCH   6   7
ENDBRANCH   5   6
ENDBRANCH   3   5
ENDBRANCH   2   3
ENDBRANCH   1   2
BRANCH   1  26
HETATM   26  C13 UNL     1       3.166   8.063  10.917  1.00  0.00     0.185 C 
HETATM   27  O5  UNL     1       3.368   8.896  11.810  1.00  0.00    -0.292 OA
BRANCH  26  28
HETATM   28  C14 UNL     1       1.733   7.540  10.700  1.00  0.00     0.128 C 
HETATM   29  C15 UNL     1       1.590   6.092  10.187  1.00  0.00     0.047 C 
HETATM   30  C16 UNL     1       0.230   5.578  10.705  1.00  0.00     0.009 C 
HETATM   31  C17 UNL     1      -0.387   6.769  11.437  1.00  0.00     0.002 C 
HETATM   32  C18 UNL     1      -1.532   6.531  12.428  1.00  0.00     0.003 C 
HETATM   33  C31 UNL     1       0.817   7.575  11.969  1.00  0.00     0.005 C 
HETATM   34  C19 UNL     1      -1.560   5.165  13.140  1.00  0.00     0.010 C 
HETATM   35  C28 UNL     1      -1.667   7.648  13.494  1.00  0.00     0.072 C 
HETATM   36  C20 UNL     1      -2.517   5.147  14.348  1.00  0.00     0.035 C 
HETATM   37  C21 UNL     1      -3.601   6.189  14.198  1.00  0.00    -0.067 C 
HETATM   38  C22 UNL     1      -4.890   5.819  14.084  1.00  0.00     0.053 C 
HETATM   39  C26 UNL     1      -3.126   7.651  14.087  1.00  0.00    -0.009 C 
HETATM   40  C23 UNL     1      -5.961   6.812  13.849  1.00  0.00     0.149 C 
HETATM   41  O7  UNL     1      -7.129   6.435  13.857  1.00  0.00    -0.293 OA
HETATM   42  C24 UNL     1      -5.584   8.259  13.645  1.00  0.00     0.084 C 
HETATM   43  C25 UNL     1      -4.134   8.422  13.197  1.00  0.00     0.022 C 
HETATM   44  C27 UNL     1      -3.095   8.258  15.507  1.00  0.00     0.021 C 
HETATM   45  C29 UNL     1      -1.073   8.981  13.030  1.00  0.00     0.133 C 
HETATM   46  O8  UNL     1      -1.627  10.060  13.249  1.00  0.00    -0.297 OA
HETATM   47  C30 UNL     1       0.315   8.973  12.388  1.00  0.00     0.091 C 
HETATM   48  C32 UNL     1       1.536   6.891  13.155  1.00  0.00     0.019 C 
BRANCH  28  49
HETATM   49  O6  UNL     1       1.185   8.381   9.664  1.00  0.00    -0.381 OA
HETATM   50  H21 UNL     1       1.480   9.294   9.854  1.00  0.00     0.211 HD
ENDBRANCH  28  49
ENDBRANCH  26  28
ENDBRANCH   1  26
TORSDOF 16
ENDMDL
MODEL 9
REMARK minimizedAffinity -8.3450346
REMARK CNNscore 0.207010642
REMARK CNNaffinity 6.87079573
REMARK  16 active torsions:
REMARK  status: ('A' for Active; 'I' for Inactive)
REMARK    1  A    between atoms: S1_2  and  C2_3 
REMARK    2  A    between atoms: C2_3  and  C3_4 
REMARK    3  A    between atoms: C3_4  and  C4_5 
REMARK    4  A    between atoms: C4_5  and  N1_6 
REMARK    5  A    between atoms: C4_5  and  C33_44 
REMARK       I    between atoms: N1_6  and  C5_7 
REMARK    6  A    between atoms: C5_7  and  C6_9 
REMARK    7  A    between atoms: C6_9  and  N2_11 
REMARK       I    between atoms: N2_11  and  C8_12 
REMARK    8  A    between atoms: C8_12  and  C9_14 
REMARK    9  A    between atoms: C9_14  and  C10_15 
REMARK   10  A    between atoms: C10_15  and  C11_16 
REMARK   11  A    between atoms: C11_16  and  O4_18 
REMARK   12  A    between atoms: O4_18  and  C12_19 
REMARK   13  A    between atoms: C12_19  and  C13_20 
REMARK   14  A    between atoms: C13_20  and  C14_22 
REMARK   15  A    between atoms: C14_22  and  O6_23 
REMARK   16  A    between atoms: C33_44  and  O10_46 
ROOT
HETATM    1  C12 UNL     1       0.030   9.602  16.636  1.00  0.00     0.260 C 
ENDROOT
BRANCH   1   2
HETATM    2  O4  UNL     1       1.139   8.710  16.522  1.00  0.00    -0.314 OA
BRANCH   2   3
HETATM    3  C11 UNL     1       2.352   9.273  16.787  1.00  0.00     0.259 C 
HETATM    4  O3  UNL     1       2.684   9.731  17.872  1.00  0.00    -0.265 OA
BRANCH   3   5
HETATM    5  C10 UNL     1       3.183   9.306  15.527  1.00  0.00     0.120 C 
BRANCH   5   6
HETATM    6  C9  UNL     1       4.047   8.060  15.390  1.00  0.00     0.112 C 
BRANCH   6   7
HETATM    7  C8  UNL     1       5.046   8.190  14.259  1.00  0.00     0.218 C 
HETATM    8  N2  UNL     1       5.607   6.990  13.885  1.00  0.00    -0.348 N 
HETATM    9  H14 UNL     1       5.463   6.187  14.485  1.00  0.00     0.163 HD
HETATM   10  O2  UNL     1       5.369   9.259  13.753  1.00  0.00    -0.274 OA
BRANCH   8  11
HETATM   11  C6  UNL     1       6.711   6.916  12.923  1.00  0.00     0.172 C 
HETATM   12  C7  UNL     1       7.793   7.920  13.295  1.00  0.00     0.042 C 
BRANCH  11  13
HETATM   13  C5  UNL     1       6.184   7.167  11.493  1.00  0.00     0.240 C 
HETATM   14  N1  UNL     1       4.927   6.661  11.246  1.00  0.00    -0.345 N 
HETATM   15  H9  UNL     1       4.535   6.003  11.924  1.00  0.00     0.163 HD
HETATM   16  O1  UNL     1       6.844   7.727  10.625  1.00  0.00    -0.271 OA
BRANCH  14  17
HETATM   17  C4  UNL     1       4.301   6.688   9.925  1.00  0.00     0.183 C 
BRANCH  17  18
HETATM   18  C3  UNL     1       3.306   7.846   9.729  1.00  0.00     0.046 C 
BRANCH  18  19
HETATM   19  C2  UNL     1       1.989   7.742  10.501  1.00  0.00     0.076 C 
BRANCH  19  20
HETATM   20  S1  UNL     1       0.503   8.232   9.568  1.00  0.00    -0.173 SA
HETATM   21  C1  UNL     1       1.105   7.984   7.878  1.00  0.00     0.089 C 
ENDBRANCH  19  20
ENDBRANCH  18  19
ENDBRANCH  17  18
BRANCH  17  22
HETATM   22  C33 UNL     1       3.692   5.314   9.642  1.00  0.00     0.163 C 
HETATM   23  O9  UNL     1       4.306   4.305   9.329  1.00  0.00    -0.648 OA
BRANCH  22  24
HETATM   24  O10 UNL     1       2.342   5.294   9.699  1.00  0.00    -0.775 OA
HETATM   25  H46 UNL     1       2.119   4.362   9.485  1.00  0.00     0.167 HD
ENDBRANCH  22  24
ENDBRANCH  17  22
ENDBRANCH  14  17
ENDBRANCH  11  13
ENDBRANCH   8  11
ENDBRANCH   6   7
ENDBRANCH   5   6
ENDBRANCH   3   5
ENDBRANCH   2   3
ENDBRANCH   1   2
BRANCH   1  26
HETATM   26  C13 UNL     1      -0.233  10.382  15.349  1.00  0.00     0.185 C 
HETATM   27  O5  UNL     1       0.283  11.486  15.133  1.00  0.00    -0.292 OA
BRANCH  26  28
HETATM   28  C14 UNL     1      -1.131   9.757  14.265  1.00  0.00     0.128 C 
HETATM   29  C15 UNL     1      -0.419   9.019  13.111  1.00  0.00     0.047 C 
HETATM   30  C16 UNL     1      -1.405   7.945  12.606  1.00  0.00     0.009 C 
HETATM   31  C17 UNL     1      -2.669   8.149  13.440  1.00  0.00     0.002 C 
HETATM   32  C18 UNL     1      -3.707   7.024  13.519  1.00  0.00     0.003 C 
HETATM   33  C31 UNL     1      -2.169   8.709  14.789  1.00  0.00     0.005 C 
HETATM   34  C19 UNL     1      -3.182   5.584  13.361  1.00  0.00     0.010 C 
HETATM   35  C28 UNL     1      -4.595   7.091  14.788  1.00  0.00     0.072 C 
HETATM   36  C20 UNL     1      -4.216   4.526  13.795  1.00  0.00     0.035 C 
HETATM   37  C21 UNL     1      -5.623   5.065  13.688  1.00  0.00    -0.067 C 
HETATM   38  C22 UNL     1      -6.497   4.523  12.822  1.00  0.00     0.053 C 
HETATM   39  C26 UNL     1      -5.939   6.308  14.545  1.00  0.00    -0.009 C 
HETATM   40  C23 UNL     1      -7.851   5.086  12.634  1.00  0.00     0.149 C 
HETATM   41  O7  UNL     1      -8.645   4.491  11.910  1.00  0.00    -0.293 OA
HETATM   42  C24 UNL     1      -8.225   6.351  13.369  1.00  0.00     0.084 C 
HETATM   43  C25 UNL     1      -7.000   7.155  13.796  1.00  0.00     0.022 C 
HETATM   44  C27 UNL     1      -6.499   5.829  15.902  1.00  0.00     0.021 C 
HETATM   45  C29 UNL     1      -4.677   8.503  15.376  1.00  0.00     0.133 C 
HETATM   46  O8  UNL     1      -5.730   8.975  15.807  1.00  0.00    -0.297 OA
HETATM   47  C30 UNL     1      -3.379   9.294  15.548  1.00  0.00     0.091 C 
HETATM   48  C32 UNL     1      -1.453   7.653  15.663  1.00  0.00     0.019 C 
BRANCH  28  49
HETATM   49  O6  UNL     1      -1.811  10.874  13.658  1.00  0.00    -0.381 OA
HETATM   50  H21 UNL     1      -2.061  11.482  14.382  1.00  0.00     0.211 HD
ENDBRANCH  28  49
ENDBRANCH  26  28
ENDBRANCH   1  26
TORSDOF 16
ENDMDL
