MODEL 1
REMARK minimizedAffinity -7.77309275
REMARK CNNscore 0.471608877
REMARK CNNaffinity 6.93143129
REMARK  19 active torsions:
REMARK  status: ('A' for Active; 'I' for Inactive)
REMARK    1  A    between atoms: C2_2  and  C3_3 
REMARK    2  A    between atoms: C3_3  and  C5_5 
REMARK    3  A    between atoms: C5_5  and  N1_6 
REMARK    4  A    between atoms: C5_5  and  C37_46 
REMARK       I    between atoms: N1_6  and  C6_7 
REMARK    5  A    between atoms: C6_7  and  C7_9 
REMARK    6  A    between atoms: C7_9  and  C8_10 
REMARK    7  A    between atoms: C8_10  and  C9_11 
REMARK    8  A    between atoms: C9_11  and  C10_12 
REMARK    9  A    between atoms: C10_12  and  C11_13 
REMARK   10  A    between atoms: C11_13  and  N2_14 
REMARK       I    between atoms: N2_14  and  C12_15 
REMARK   11  A    between atoms: C12_15  and  C13_17 
REMARK   12  A    between atoms: C13_17  and  C14_18 
REMARK   13  A    between atoms: C14_18  and  C15_19 
REMARK   14  A    between atoms: C15_19  and  O4_21 
REMARK   15  A    between atoms: O4_21  and  C16_22 
REMARK   16  A    between atoms: C16_22  and  C17_23 
REMARK   17  A    between atoms: C17_23  and  C18_25 
REMARK   18  A    between atoms: C18_25  and  O6_26 
REMARK   19  A    between atoms: C37_46  and  O9_48 
ROOT
HETATM    1  C15 UNL     1       0.786  51.837 -16.708  1.00  0.00     0.259 C 
HETATM    2  O3  UNL     1       1.775  52.554 -16.641  1.00  0.00    -0.265 OA
ENDROOT
BRANCH   1   3
HETATM    3  C14 UNL     1       0.209  51.332 -18.010  1.00  0.00     0.120 C 
BRANCH   3   4
HETATM    4  C13 UNL     1      -0.854  50.257 -17.835  1.00  0.00     0.112 C 
BRANCH   4   5
HETATM    5  C12 UNL     1      -2.168  50.702 -18.435  1.00  0.00     0.217 C 
HETATM    6  N2  UNL     1      -2.738  49.785 -19.292  1.00  0.00    -0.361 N 
HETATM    7  H22 UNL     1      -2.137  49.073 -19.679  1.00  0.00     0.162 HD
HETATM    8  O2  UNL     1      -2.691  51.764 -18.116  1.00  0.00    -0.274 OA
BRANCH   6   9
HETATM    9  C11 UNL     1      -3.940  50.134 -20.022  1.00  0.00     0.122 C 
BRANCH   9  10
HETATM   10  C10 UNL     1      -3.671  51.028 -21.232  1.00  0.00     0.020 C 
BRANCH  10  11
HETATM   11  C9  UNL     1      -3.991  50.383 -22.587  1.00  0.00     0.002 C 
BRANCH  11  12
HETATM   12  C8  UNL     1      -3.013  50.747 -23.708  1.00  0.00     0.009 C 
BRANCH  12  13
HETATM   13  C7  UNL     1      -3.380  52.076 -24.374  1.00  0.00     0.103 C 
BRANCH  13  14
HETATM   14  C6  UNL     1      -2.270  52.624 -25.255  1.00  0.00     0.218 C 
HETATM   15  N1  UNL     1      -2.293  52.107 -26.534  1.00  0.00    -0.346 N 
HETATM   16  H11 UNL     1      -2.755  51.212 -26.638  1.00  0.00     0.163 HD
HETATM   17  O1  UNL     1      -1.430  53.426 -24.865  1.00  0.00    -0.274 OA
BRANCH  15  18
HETATM   18  C5  UNL     1      -1.174  52.346 -27.452  1.00  0.00     0.186 C 
BRANCH  18  19
HETATM   19  C3  UNL     1       0.161  51.800 -26.888  1.00  0.00     0.014 C 
HETATM   20  C4  UNL     1       0.024  50.379 -26.325  1.00  0.00     0.012 C 
BRANCH  19  21
HETATM   21  C2  UNL     1       1.264  51.880 -27.967  1.00  0.00     0.002 C 
HETATM   22  C1  UNL     1       2.668  51.671 -27.419  1.00  0.00     0.005 C 
ENDBRANCH  19  21
ENDBRANCH  18  19
BRANCH  18  23
HETATM   23  C37 UNL     1      -1.041  53.838 -27.788  1.00  0.00     0.163 C 
HETATM   24  O8  UNL     1      -0.176  54.596 -27.378  1.00  0.00    -0.648 OA
BRANCH  23  25
HETATM   25  O9  UNL     1      -2.040  54.319 -28.563  1.00  0.00    -0.775 OA
HETATM   26  H56 UNL     1      -1.807  55.268 -28.669  1.00  0.00     0.167 HD
ENDBRANCH  23  25
ENDBRANCH  18  23
ENDBRANCH  15  18
ENDBRANCH  13  14
ENDBRANCH  12  13
ENDBRANCH  11  12
ENDBRANCH  10  11
ENDBRANCH   9  10
ENDBRANCH   6   9
ENDBRANCH   4   5
ENDBRANCH   3   4
ENDBRANCH   1   3
BRANCH   1  27
HETATM   27  O4  UNL     1       0.027  51.457 -15.642  1.00  0.00    -0.314 OA
BRANCH  27  28
HETATM   28  C16 UNL     1       0.645  51.711 -14.380  1.00  0.00     0.260 C 
BRANCH  28  29
HETATM   29  C17 UNL     1       0.501  50.533 -13.421  1.00  0.00     0.185 C 
HETATM   30  O5  UNL     1       0.038  49.465 -13.831  1.00  0.00    -0.292 OA
BRANCH  29  31
HETATM   31  C18 UNL     1       1.070  50.691 -11.981  1.00  0.00     0.128 C 
HETATM   32  C19 UNL     1       2.027  49.522 -11.622  1.00  0.00     0.047 C 
HETATM   33  C20 UNL     1       3.088  50.098 -10.670  1.00  0.00     0.009 C 
HETATM   34  C21 UNL     1       2.702  51.565 -10.475  1.00  0.00     0.002 C 
HETATM   35  C22 UNL     1       3.835  52.529 -10.073  1.00  0.00    -0.004 C 
HETATM   36  C35 UNL     1       1.983  51.949 -11.786  1.00  0.00    -0.002 C 
HETATM   37  C23 UNL     1       4.308  52.217  -8.636  1.00  0.00     0.010 C 
HETATM   38  C32 UNL     1       3.411  54.030 -10.297  1.00  0.00     0.002 C 
HETATM   39  C24 UNL     1       3.617  53.077  -7.588  1.00  0.00     0.035 C 
HETATM   40  C25 UNL     1       3.825  54.551  -7.826  1.00  0.00    -0.068 C 
HETATM   41  C26 UNL     1       3.768  55.406  -6.787  1.00  0.00     0.053 C 
HETATM   42  C30 UNL     1       4.070  55.014  -9.259  1.00  0.00    -0.016 C 
HETATM   43  C27 UNL     1       3.931  56.871  -6.962  1.00  0.00     0.149 C 
HETATM   44  O7  UNL     1       3.968  57.594  -5.968  1.00  0.00    -0.293 OA
HETATM   45  C28 UNL     1       4.080  57.425  -8.360  1.00  0.00     0.084 C 
HETATM   46  C29 UNL     1       3.512  56.459  -9.399  1.00  0.00     0.022 C 
HETATM   47  C31 UNL     1       5.598  55.073  -9.541  1.00  0.00     0.020 C 
HETATM   48  C33 UNL     1       1.872  54.159 -10.439  1.00  0.00     0.007 C 
HETATM   49  C34 UNL     1       1.253  53.286 -11.551  1.00  0.00     0.013 C 
HETATM   50  C36 UNL     1       2.962  52.098 -12.984  1.00  0.00     0.019 C 
BRANCH  31  51
HETATM   51  O6  UNL     1       0.048  50.656 -10.979  1.00  0.00    -0.381 OA
HETATM   52  H29 UNL     1      -0.752  51.073 -11.350  1.00  0.00     0.211 HD
ENDBRANCH  31  51
ENDBRANCH  29  31
ENDBRANCH  28  29
ENDBRANCH  27  28
ENDBRANCH   1  27
TORSDOF 19
ENDMDL
MODEL 2
REMARK minimizedAffinity -8.72108936
REMARK CNNscore 0.444551528
REMARK CNNaffinity 7.4527669
REMARK  19 active torsions:
REMARK  status: ('A' for Active; 'I' for Inactive)
REMARK    1  A    between atoms: C2_2  and  C3_3 
REMARK    2  A    between atoms: C3_3  and  C5_5 
REMARK    3  A    between atoms: C5_5  and  N1_6 
REMARK    4  A    between atoms: C5_5  and  C37_46 
REMARK       I    between atoms: N1_6  and  C6_7 
REMARK    5  A    between atoms: C6_7  and  C7_9 
REMARK    6  A    between atoms: C7_9  and  C8_10 
REMARK    7  A    between atoms: C8_10  and  C9_11 
REMARK    8  A    between atoms: C9_11  and  C10_12 
REMARK    9  A    between atoms: C10_12  and  C11_13 
REMARK   10  A    between atoms: C11_13  and  N2_14 
REMARK       I    between atoms: N2_14  and  C12_15 
REMARK   11  A    between atoms: C12_15  and  C13_17 
REMARK   12  A    between atoms: C13_17  and  C14_18 
REMARK   13  A    between atoms: C14_18  and  C15_19 
REMARK   14  A    between atoms: C15_19  and  O4_21 
REMARK   15  A    between atoms: O4_21  and  C16_22 
REMARK   16  A    between atoms: C16_22  and  C17_23 
REMARK   17  A    between atoms: C17_23  and  C18_25 
REMARK   18  A    between atoms: C18_25  and  O6_26 
REMARK   19  A    between atoms: C37_46  and  O9_48 
ROOT
HETATM    1  C15 UNL     1       1.260  54.057 -21.633  1.00  0.00     0.259 C 
HETATM    2  O3  UNL     1       2.155  54.837 -21.933  1.00  0.00    -0.265 OA
ENDROOT
BRANCH   1   3
HETATM    3  C14 UNL     1       0.974  53.620 -20.216  1.00  0.00     0.120 C 
BRANCH   3   4
HETATM    4  C13 UNL     1       0.038  52.425 -20.119  1.00  0.00     0.112 C 
BRANCH   4   5
HETATM    5  C12 UNL     1      -0.213  52.058 -18.674  1.00  0.00     0.217 C 
HETATM    6  N2  UNL     1       0.919  52.044 -17.888  1.00  0.00    -0.361 N 
HETATM    7  H22 UNL     1       1.811  51.973 -18.356  1.00  0.00     0.162 HD
HETATM    8  O2  UNL     1      -1.347  51.861 -18.251  1.00  0.00    -0.274 OA
BRANCH   6   9
HETATM    9  C11 UNL     1       0.834  51.598 -16.511  1.00  0.00     0.122 C 
BRANCH   9  10
HETATM   10  C10 UNL     1       1.948  52.159 -15.629  1.00  0.00     0.020 C 
BRANCH  10  11
HETATM   11  C9  UNL     1       2.635  51.121 -14.732  1.00  0.00     0.002 C 
BRANCH  11  12
HETATM   12  C8  UNL     1       2.393  51.320 -13.233  1.00  0.00     0.009 C 
BRANCH  12  13
HETATM   13  C7  UNL     1       1.212  52.256 -12.966  1.00  0.00     0.103 C 
BRANCH  13  14
HETATM   14  C6  UNL     1      -0.131  51.548 -13.026  1.00  0.00     0.218 C 
HETATM   15  N1  UNL     1      -1.193  52.419 -13.157  1.00  0.00    -0.346 N 
HETATM   16  H11 UNL     1      -1.028  53.366 -12.838  1.00  0.00     0.163 HD
HETATM   17  O1  UNL     1      -0.259  50.332 -12.946  1.00  0.00    -0.274 OA
BRANCH  15  18
HETATM   18  C5  UNL     1      -2.572  51.938 -13.007  1.00  0.00     0.186 C 
BRANCH  18  19
HETATM   19  C3  UNL     1      -2.987  51.833 -11.518  1.00  0.00     0.014 C 
HETATM   20  C4  UNL     1      -1.819  52.110 -10.562  1.00  0.00     0.012 C 
BRANCH  19  21
HETATM   21  C2  UNL     1      -4.186  52.765 -11.236  1.00  0.00     0.002 C 
HETATM   22  C1  UNL     1      -3.840  53.949 -10.344  1.00  0.00     0.005 C 
ENDBRANCH  19  21
ENDBRANCH  18  19
BRANCH  18  23
HETATM   23  C37 UNL     1      -2.768  50.588 -13.711  1.00  0.00     0.163 C 
HETATM   24  O8  UNL     1      -3.137  49.548 -13.189  1.00  0.00    -0.648 OA
BRANCH  23  25
HETATM   25  O9  UNL     1      -2.422  50.594 -15.019  1.00  0.00    -0.775 OA
HETATM   26  H56 UNL     1      -2.597  49.670 -15.303  1.00  0.00     0.167 HD
ENDBRANCH  23  25
ENDBRANCH  18  23
ENDBRANCH  15  18
ENDBRANCH  13  14
ENDBRANCH  12  13
ENDBRANCH  11  12
ENDBRANCH  10  11
ENDBRANCH   9  10
ENDBRANCH   6   9
ENDBRANCH   4   5
ENDBRANCH   3   4
ENDBRANCH   1   3
BRANCH   1  27
HETATM   27  O4  UNL     1       0.452  53.422 -22.527  1.00  0.00    -0.314 OA
BRANCH  27  28
HETATM   28  C16 UNL     1       0.981  53.384 -23.853  1.00  0.00     0.260 C 
BRANCH  28  29
HETATM   29  C17 UNL     1      -0.063  53.760 -24.901  1.00  0.00     0.185 C 
HETATM   30  O5  UNL     1      -0.173  54.936 -25.257  1.00  0.00    -0.292 OA
BRANCH  29  31
HETATM   31  C18 UNL     1      -0.866  52.611 -25.575  1.00  0.00     0.128 C 
HETATM   32  C19 UNL     1       0.081  51.521 -26.145  1.00  0.00     0.047 C 
HETATM   33  C20 UNL     1      -0.669  50.183 -26.034  1.00  0.00     0.009 C 
HETATM   34  C21 UNL     1      -2.034  50.533 -25.440  1.00  0.00     0.002 C 
HETATM   35  C22 UNL     1      -2.767  49.407 -24.686  1.00  0.00    -0.004 C 
HETATM   36  C35 UNL     1      -1.768  51.793 -24.588  1.00  0.00    -0.002 C 
HETATM   37  C23 UNL     1      -3.218  48.313 -25.679  1.00  0.00     0.010 C 
HETATM   38  C32 UNL     1      -3.934  49.984 -23.796  1.00  0.00     0.002 C 
HETATM   39  C24 UNL     1      -4.648  48.507 -26.162  1.00  0.00     0.035 C 
HETATM   40  C25 UNL     1      -5.640  48.527 -25.027  1.00  0.00    -0.068 C 
HETATM   41  C26 UNL     1      -6.915  48.161 -25.254  1.00  0.00     0.053 C 
HETATM   42  C30 UNL     1      -5.148  48.992 -23.659  1.00  0.00    -0.016 C 
HETATM   43  C27 UNL     1      -7.946  48.192 -24.186  1.00  0.00     0.149 C 
HETATM   44  O7  UNL     1      -9.070  47.755 -24.424  1.00  0.00    -0.293 OA
HETATM   45  C28 UNL     1      -7.569  48.732 -22.826  1.00  0.00     0.084 C 
HETATM   46  C29 UNL     1      -6.347  49.646 -22.914  1.00  0.00     0.022 C 
HETATM   47  C31 UNL     1      -4.688  47.766 -22.819  1.00  0.00     0.020 C 
HETATM   48  C33 UNL     1      -4.308  51.424 -24.234  1.00  0.00     0.007 C 
HETATM   49  C34 UNL     1      -3.131  52.423 -24.237  1.00  0.00     0.013 C 
HETATM   50  C36 UNL     1      -0.992  51.478 -23.279  1.00  0.00     0.019 C 
BRANCH  31  51
HETATM   51  O6  UNL     1      -1.634  53.060 -26.697  1.00  0.00    -0.381 OA
HETATM   52  H29 UNL     1      -1.941  53.966 -26.508  1.00  0.00     0.211 HD
ENDBRANCH  31  51
ENDBRANCH  29  31
ENDBRANCH  28  29
ENDBRANCH  27  28
ENDBRANCH   1  27
TORSDOF 19
ENDMDL
MODEL 3
REMARK minimizedAffinity -8.09945965
REMARK CNNscore 0.417800575
REMARK CNNaffinity 6.54982042
REMARK  19 active torsions:
REMARK  status: ('A' for Active; 'I' for Inactive)
REMARK    1  A    between atoms: C2_2  and  C3_3 
REMARK    2  A    between atoms: C3_3  and  C5_5 
REMARK    3  A    between atoms: C5_5  and  N1_6 
REMARK    4  A    between atoms: C5_5  and  C37_46 
REMARK       I    between atoms: N1_6  and  C6_7 
REMARK    5  A    between atoms: C6_7  and  C7_9 
REMARK    6  A    between atoms: C7_9  and  C8_10 
REMARK    7  A    between atoms: C8_10  and  C9_11 
REMARK    8  A    between atoms: C9_11  and  C10_12 
REMARK    9  A    between atoms: C10_12  and  C11_13 
REMARK   10  A    between atoms: C11_13  and  N2_14 
REMARK       I    between atoms: N2_14  and  C12_15 
REMARK   11  A    between atoms: C12_15  and  C13_17 
REMARK   12  A    between atoms: C13_17  and  C14_18 
REMARK   13  A    between atoms: C14_18  and  C15_19 
REMARK   14  A    between atoms: C15_19  and  O4_21 
REMARK   15  A    between atoms: O4_21  and  C16_22 
REMARK   16  A    between atoms: C16_22  and  C17_23 
REMARK   17  A    between atoms: C17_23  and  C18_25 
REMARK   18  A    between atoms: C18_25  and  O6_26 
REMARK   19  A    between atoms: C37_46  and  O9_48 
ROOT
HETATM    1  C15 UNL     1      -2.727  50.562 -16.790  1.00  0.00     0.259 C 
HETATM    2  O3  UNL     1      -2.837  51.473 -17.600  1.00  0.00    -0.265 OA
ENDROOT
BRANCH   1   3
HETATM    3  C14 UNL     1      -1.931  50.675 -15.510  1.00  0.00     0.120 C 
BRANCH   3   4
HETATM    4  C13 UNL     1      -2.650  50.119 -14.290  1.00  0.00     0.112 C 
BRANCH   4   5
HETATM    5  C12 UNL     1      -3.120  51.238 -13.390  1.00  0.00     0.217 C 
HETATM    6  N2  UNL     1      -3.215  50.894 -12.060  1.00  0.00    -0.361 N 
HETATM    7  H22 UNL     1      -3.267  49.911 -11.835  1.00  0.00     0.162 HD
HETATM    8  O2  UNL     1      -3.328  52.365 -13.825  1.00  0.00    -0.274 OA
BRANCH   6   9
HETATM    9  C11 UNL     1      -3.762  51.840 -11.108  1.00  0.00     0.122 C 
BRANCH   9  10
HETATM   10  C10 UNL     1      -2.693  52.689 -10.421  1.00  0.00     0.020 C 
BRANCH  10  11
HETATM   11  C9  UNL     1      -3.001  54.191 -10.377  1.00  0.00     0.002 C 
BRANCH  11  12
HETATM   12  C8  UNL     1      -1.765  55.093 -10.426  1.00  0.00     0.009 C 
BRANCH  12  13
HETATM   13  C7  UNL     1      -0.482  54.289 -10.656  1.00  0.00     0.103 C 
BRANCH  13  14
HETATM   14  C6  UNL     1       0.644  54.688  -9.718  1.00  0.00     0.218 C 
HETATM   15  N1  UNL     1       1.893  54.552 -10.287  1.00  0.00    -0.346 N 
HETATM   16  H11 UNL     1       1.957  53.895 -11.056  1.00  0.00     0.163 HD
HETATM   17  O1  UNL     1       0.463  55.072  -8.568  1.00  0.00    -0.274 OA
BRANCH  15  18
HETATM   18  C5  UNL     1       3.102  54.674  -9.465  1.00  0.00     0.186 C 
BRANCH  18  19
HETATM   19  C3  UNL     1       3.863  55.993  -9.751  1.00  0.00     0.014 C 
HETATM   20  C4  UNL     1       3.543  56.567 -11.138  1.00  0.00     0.012 C 
BRANCH  19  21
HETATM   21  C2  UNL     1       3.582  57.019  -8.631  1.00  0.00     0.002 C 
HETATM   22  C1  UNL     1       4.674  57.080  -7.573  1.00  0.00     0.005 C 
ENDBRANCH  19  21
ENDBRANCH  18  19
BRANCH  18  23
HETATM   23  C37 UNL     1       4.032  53.468  -9.664  1.00  0.00     0.163 C 
HETATM   24  O8  UNL     1       5.063  53.243  -9.049  1.00  0.00    -0.648 OA
BRANCH  23  25
HETATM   25  O9  UNL     1       3.661  52.647 -10.672  1.00  0.00    -0.775 OA
HETATM   26  H56 UNL     1       4.355  51.952 -10.665  1.00  0.00     0.167 HD
ENDBRANCH  23  25
ENDBRANCH  18  23
ENDBRANCH  15  18
ENDBRANCH  13  14
ENDBRANCH  12  13
ENDBRANCH  11  12
ENDBRANCH  10  11
ENDBRANCH   9  10
ENDBRANCH   6   9
ENDBRANCH   4   5
ENDBRANCH   3   4
ENDBRANCH   1   3
BRANCH   1  27
HETATM   27  O4  UNL     1      -3.237  49.310 -16.955  1.00  0.00    -0.314 OA
BRANCH  27  28
HETATM   28  C16 UNL     1      -2.781  48.657 -18.141  1.00  0.00     0.260 C 
BRANCH  28  29
HETATM   29  C17 UNL     1      -3.936  48.129 -18.988  1.00  0.00     0.185 C 
HETATM   30  O5  UNL     1      -5.055  48.004 -18.483  1.00  0.00    -0.292 OA
BRANCH  29  31
HETATM   31  C18 UNL     1      -3.679  47.890 -20.503  1.00  0.00     0.128 C 
HETATM   32  C19 UNL     1      -4.902  47.216 -21.183  1.00  0.00     0.047 C 
HETATM   33  C20 UNL     1      -4.939  47.727 -22.632  1.00  0.00     0.009 C 
HETATM   34  C21 UNL     1      -3.727  48.650 -22.765  1.00  0.00     0.002 C 
HETATM   35  C22 UNL     1      -3.803  49.735 -23.857  1.00  0.00    -0.004 C 
HETATM   36  C35 UNL     1      -3.508  49.203 -21.341  1.00  0.00    -0.002 C 
HETATM   37  C23 UNL     1      -3.755  49.081 -25.256  1.00  0.00     0.010 C 
HETATM   38  C32 UNL     1      -2.707  50.847 -23.631  1.00  0.00     0.002 C 
HETATM   39  C24 UNL     1      -2.349  49.027 -25.834  1.00  0.00     0.035 C 
HETATM   40  C25 UNL     1      -1.723  50.394 -25.950  1.00  0.00    -0.068 C 
HETATM   41  C26 UNL     1      -0.771  50.612 -26.877  1.00  0.00     0.053 C 
HETATM   42  C30 UNL     1      -2.187  51.475 -24.978  1.00  0.00    -0.016 C 
HETATM   43  C27 UNL     1      -0.093  51.925 -27.017  1.00  0.00     0.149 C 
HETATM   44  O7  UNL     1       0.697  52.097 -27.944  1.00  0.00    -0.293 OA
HETATM   45  C28 UNL     1      -0.422  53.023 -26.032  1.00  0.00     0.084 C 
HETATM   46  C29 UNL     1      -0.997  52.448 -24.738  1.00  0.00     0.022 C 
HETATM   47  C31 UNL     1      -3.343  52.297 -25.615  1.00  0.00     0.020 C 
HETATM   48  C33 UNL     1      -1.600  50.350 -22.667  1.00  0.00     0.007 C 
HETATM   49  C34 UNL     1      -2.113  49.858 -21.296  1.00  0.00     0.013 C 
HETATM   50  C36 UNL     1      -4.583  50.250 -20.933  1.00  0.00     0.019 C 
BRANCH  31  51
HETATM   51  O6  UNL     1      -2.584  47.000 -20.742  1.00  0.00    -0.381 OA
HETATM   52  H29 UNL     1      -1.919  47.147 -20.044  1.00  0.00     0.211 HD
ENDBRANCH  31  51
ENDBRANCH  29  31
ENDBRANCH  28  29
ENDBRANCH  27  28
ENDBRANCH   1  27
TORSDOF 19
ENDMDL
MODEL 4
REMARK minimizedAffinity -7.72281837
REMARK CNNscore 0.319483042
REMARK CNNaffinity 7.39628649
REMARK  19 active torsions:
REMARK  status: ('A' for Active; 'I' for Inactive)
REMARK    1  A    between atoms: C2_2  and  C3_3 
REMARK    2  A    between atoms: C3_3  and  C5_5 
REMARK    3  A    between atoms: C5_5  and  N1_6 
REMARK    4  A    between atoms: C5_5  and  C37_46 
REMARK       I    between atoms: N1_6  and  C6_7 
REMARK    5  A    between atoms: C6_7  and  C7_9 
REMARK    6  A    between atoms: C7_9  and  C8_10 
REMARK    7  A    between atoms: C8_10  and  C9_11 
REMARK    8  A    between atoms: C9_11  and  C10_12 
REMARK    9  A    between atoms: C10_12  and  C11_13 
REMARK   10  A    between atoms: C11_13  and  N2_14 
REMARK       I    between atoms: N2_14  and  C12_15 
REMARK   11  A    between atoms: C12_15  and  C13_17 
REMARK   12  A    between atoms: C13_17  and  C14_18 
REMARK   13  A    between atoms: C14_18  and  C15_19 
REMARK   14  A    between atoms: C15_19  and  O4_21 
REMARK   15  A    between atoms: O4_21  and  C16_22 
REMARK   16  A    between atoms: C16_22  and  C17_23 
REMARK   17  A    between atoms: C17_23  and  C18_25 
REMARK   18  A    between atoms: C18_25  and  O6_26 
REMARK   19  A    between atoms: C37_46  and  O9_48 
ROOT
HETATM    1  C15 UNL     1       0.541  52.968 -23.216  1.00  0.00     0.259 C 
HETATM    2  O3  UNL     1       1.043  53.473 -22.221  1.00  0.00    -0.265 OA
ENDROOT
BRANCH   1   3
HETATM    3  C14 UNL     1       0.669  53.552 -24.604  1.00  0.00     0.120 C 
BRANCH   3   4
HETATM    4  C13 UNL     1       0.542  52.524 -25.717  1.00  0.00     0.112 C 
BRANCH   4   5
HETATM    5  C12 UNL     1      -0.832  52.581 -26.344  1.00  0.00     0.217 C 
HETATM    6  N2  UNL     1      -1.678  51.568 -25.949  1.00  0.00    -0.361 N 
HETATM    7  H22 UNL     1      -1.260  50.741 -25.549  1.00  0.00     0.162 HD
HETATM    8  O2  UNL     1      -1.160  53.501 -27.085  1.00  0.00    -0.274 OA
BRANCH   6   9
HETATM    9  C11 UNL     1      -2.986  51.442 -26.562  1.00  0.00     0.122 C 
BRANCH   9  10
HETATM   10  C10 UNL     1      -3.132  50.181 -27.412  1.00  0.00     0.020 C 
BRANCH  10  11
HETATM   11  C9  UNL     1      -3.517  48.921 -26.626  1.00  0.00     0.002 C 
BRANCH  11  12
HETATM   12  C8  UNL     1      -4.741  48.181 -27.174  1.00  0.00     0.009 C 
BRANCH  12  13
HETATM   13  C7  UNL     1      -4.848  48.308 -28.696  1.00  0.00     0.103 C 
BRANCH  13  14
HETATM   14  C6  UNL     1      -6.169  47.793 -29.242  1.00  0.00     0.218 C 
HETATM   15  N1  UNL     1      -6.011  46.901 -30.282  1.00  0.00    -0.346 N 
HETATM   16  H11 UNL     1      -5.138  46.968 -30.790  1.00  0.00     0.163 HD
HETATM   17  O1  UNL     1      -7.262  48.149 -28.816  1.00  0.00    -0.274 OA
BRANCH  15  18
HETATM   18  C5  UNL     1      -7.168  46.474 -31.077  1.00  0.00     0.186 C 
BRANCH  18  19
HETATM   19  C3  UNL     1      -7.373  44.939 -31.020  1.00  0.00     0.014 C 
HETATM   20  C4  UNL     1      -7.245  44.382 -29.595  1.00  0.00     0.012 C 
BRANCH  19  21
HETATM   21  C2  UNL     1      -8.726  44.561 -31.660  1.00  0.00     0.002 C 
HETATM   22  C1  UNL     1      -9.013  43.066 -31.639  1.00  0.00     0.005 C 
ENDBRANCH  19  21
ENDBRANCH  18  19
BRANCH  18  23
HETATM   23  C37 UNL     1      -7.043  46.941 -32.534  1.00  0.00     0.163 C 
HETATM   24  O8  UNL     1      -7.758  47.756 -33.096  1.00  0.00    -0.648 OA
BRANCH  23  25
HETATM   25  O9  UNL     1      -6.073  46.309 -33.233  1.00  0.00    -0.775 OA
HETATM   26  H56 UNL     1      -6.137  46.713 -34.126  1.00  0.00     0.167 HD
ENDBRANCH  23  25
ENDBRANCH  18  23
ENDBRANCH  15  18
ENDBRANCH  13  14
ENDBRANCH  12  13
ENDBRANCH  11  12
ENDBRANCH  10  11
ENDBRANCH   9  10
ENDBRANCH   6   9
ENDBRANCH   4   5
ENDBRANCH   3   4
ENDBRANCH   1   3
BRANCH   1  27
HETATM   27  O4  UNL     1      -0.256  51.863 -23.209  1.00  0.00    -0.314 OA
BRANCH  27  28
HETATM   28  C16 UNL     1      -1.529  52.078 -22.597  1.00  0.00     0.260 C 
BRANCH  28  29
HETATM   29  C17 UNL     1      -2.275  50.770 -22.347  1.00  0.00     0.185 C 
HETATM   30  O5  UNL     1      -2.409  49.958 -23.266  1.00  0.00    -0.292 OA
BRANCH  29  31
HETATM   31  C18 UNL     1      -2.729  50.458 -20.892  1.00  0.00     0.128 C 
HETATM   32  C19 UNL     1      -3.565  49.151 -20.831  1.00  0.00     0.047 C 
HETATM   33  C20 UNL     1      -3.285  48.510 -19.462  1.00  0.00     0.009 C 
HETATM   34  C21 UNL     1      -2.329  49.472 -18.755  1.00  0.00     0.002 C 
HETATM   35  C22 UNL     1      -1.429  48.869 -17.659  1.00  0.00    -0.004 C 
HETATM   36  C35 UNL     1      -1.553  50.153 -19.904  1.00  0.00    -0.002 C 
HETATM   37  C23 UNL     1      -2.287  48.454 -16.442  1.00  0.00     0.010 C 
HETATM   38  C32 UNL     1      -0.238  49.839 -17.303  1.00  0.00     0.002 C 
HETATM   39  C24 UNL     1      -2.352  49.532 -15.371  1.00  0.00     0.035 C 
HETATM   40  C25 UNL     1      -0.987  49.914 -14.856  1.00  0.00    -0.068 C 
HETATM   41  C26 UNL     1      -0.862  50.413 -13.612  1.00  0.00     0.053 C 
HETATM   42  C30 UNL     1       0.204  49.738 -15.795  1.00  0.00    -0.016 C 
HETATM   43  C27 UNL     1       0.449  50.838 -13.061  1.00  0.00     0.149 C 
HETATM   44  O7  UNL     1       0.520  51.194 -11.886  1.00  0.00    -0.293 OA
HETATM   45  C28 UNL     1       1.665  50.790 -13.957  1.00  0.00     0.084 C 
HETATM   46  C29 UNL     1       1.265  50.815 -15.431  1.00  0.00     0.022 C 
HETATM   47  C31 UNL     1       0.854  48.344 -15.567  1.00  0.00     0.020 C 
HETATM   48  C33 UNL     1      -0.521  51.277 -17.809  1.00  0.00     0.007 C 
HETATM   49  C34 UNL     1      -0.824  51.380 -19.320  1.00  0.00     0.013 C 
HETATM   50  C36 UNL     1      -0.516  49.205 -20.570  1.00  0.00     0.019 C 
BRANCH  31  51
HETATM   51  O6  UNL     1      -3.585  51.471 -20.353  1.00  0.00    -0.381 OA
HETATM   52  H29 UNL     1      -3.297  52.331 -20.712  1.00  0.00     0.211 HD
ENDBRANCH  31  51
ENDBRANCH  29  31
ENDBRANCH  28  29
ENDBRANCH  27  28
ENDBRANCH   1  27
TORSDOF 19
ENDMDL
MODEL 5
REMARK minimizedAffinity -8.33661556
REMARK CNNscore 0.300068527
REMARK CNNaffinity 6.14392138
REMARK  19 active torsions:
REMARK  status: ('A' for Active; 'I' for Inactive)
REMARK    1  A    between atoms: C2_2  and  C3_3 
REMARK    2  A    between atoms: C3_3  and  C5_5 
REMARK    3  A    between atoms: C5_5  and  N1_6 
REMARK    4  A    between atoms: C5_5  and  C37_46 
REMARK       I    between atoms: N1_6  and  C6_7 
REMARK    5  A    between atoms: C6_7  and  C7_9 
REMARK    6  A    between atoms: C7_9  and  C8_10 
REMARK    7  A    between atoms: C8_10  and  C9_11 
REMARK    8  A    between atoms: C9_11  and  C10_12 
REMARK    9  A    between atoms: C10_12  and  C11_13 
REMARK   10  A    between atoms: C11_13  and  N2_14 
REMARK       I    between atoms: N2_14  and  C12_15 
REMARK   11  A    between atoms: C12_15  and  C13_17 
REMARK   12  A    between atoms: C13_17  and  C14_18 
REMARK   13  A    between atoms: C14_18  and  C15_19 
REMARK   14  A    between atoms: C15_19  and  O4_21 
REMARK   15  A    between atoms: O4_21  and  C16_22 
REMARK   16  A    between atoms: C16_22  and  C17_23 
REMARK   17  A    between atoms: C17_23  and  C18_25 
REMARK   18  A    between atoms: C18_25  and  O6_26 
REMARK   19  A    between atoms: C37_46  and  O9_48 
ROOT
HETATM    1  C15 UNL     1      -8.322  48.323 -18.020  1.00  0.00     0.259 C 
HETATM    2  O3  UNL     1      -7.542  47.571 -17.452  1.00  0.00    -0.265 OA
ENDROOT
BRANCH   1   3
HETATM    3  C14 UNL     1      -9.762  48.504 -17.601  1.00  0.00     0.120 C 
BRANCH   3   4
HETATM    4  C13 UNL     1     -10.747  47.689 -18.426  1.00  0.00     0.112 C 
BRANCH   4   5
HETATM    5  C12 UNL     1     -12.006  47.414 -17.636  1.00  0.00     0.217 C 
HETATM    6  N2  UNL     1     -13.172  47.588 -18.349  1.00  0.00    -0.361 N 
HETATM    7  H22 UNL     1     -13.127  48.149 -19.187  1.00  0.00     0.162 HD
HETATM    8  O2  UNL     1     -11.961  47.007 -16.480  1.00  0.00    -0.274 OA
BRANCH   6   9
HETATM    9  C11 UNL     1     -14.452  47.467 -17.678  1.00  0.00     0.122 C 
BRANCH   9  10
HETATM   10  C10 UNL     1     -15.429  48.583 -18.043  1.00  0.00     0.020 C 
BRANCH  10  11
HETATM   11  C9  UNL     1     -16.675  48.117 -18.807  1.00  0.00     0.002 C 
BRANCH  11  12
HETATM   12  C8  UNL     1     -16.414  47.002 -19.825  1.00  0.00     0.009 C 
BRANCH  12  13
HETATM   13  C7  UNL     1     -17.300  45.780 -19.569  1.00  0.00     0.103 C 
BRANCH  13  14
HETATM   14  C6  UNL     1     -18.428  45.645 -20.578  1.00  0.00     0.218 C 
HETATM   15  N1  UNL     1     -17.994  45.723 -21.885  1.00  0.00    -0.346 N 
HETATM   16  H11 UNL     1     -17.115  46.206 -22.029  1.00  0.00     0.163 HD
HETATM   17  O1  UNL     1     -19.604  45.502 -20.263  1.00  0.00    -0.274 OA
BRANCH  15  18
HETATM   18  C5  UNL     1     -18.960  45.838 -22.984  1.00  0.00     0.186 C 
BRANCH  18  19
HETATM   19  C3  UNL     1     -19.318  44.456 -23.584  1.00  0.00     0.014 C 
HETATM   20  C4  UNL     1     -20.732  43.996 -23.198  1.00  0.00     0.012 C 
BRANCH  19  21
HETATM   21  C2  UNL     1     -19.125  44.477 -25.116  1.00  0.00     0.002 C 
HETATM   22  C1  UNL     1     -19.512  43.171 -25.796  1.00  0.00     0.005 C 
ENDBRANCH  19  21
ENDBRANCH  18  19
BRANCH  18  23
HETATM   23  C37 UNL     1     -18.441  46.777 -24.082  1.00  0.00     0.163 C 
HETATM   24  O8  UNL     1     -19.120  47.510 -24.786  1.00  0.00    -0.648 OA
BRANCH  23  25
HETATM   25  O9  UNL     1     -17.108  46.697 -24.290  1.00  0.00    -0.775 OA
HETATM   26  H56 UNL     1     -16.952  47.342 -25.015  1.00  0.00     0.167 HD
ENDBRANCH  23  25
ENDBRANCH  18  23
ENDBRANCH  15  18
ENDBRANCH  13  14
ENDBRANCH  12  13
ENDBRANCH  11  12
ENDBRANCH  10  11
ENDBRANCH   9  10
ENDBRANCH   6   9
ENDBRANCH   4   5
ENDBRANCH   3   4
ENDBRANCH   1   3
BRANCH   1  27
HETATM   27  O4  UNL     1      -8.031  49.042 -19.141  1.00  0.00    -0.314 OA
BRANCH  27  28
HETATM   28  C16 UNL     1      -7.526  48.248 -20.216  1.00  0.00     0.260 C 
BRANCH  28  29
HETATM   29  C17 UNL     1      -7.096  49.100 -21.407  1.00  0.00     0.185 C 
HETATM   30  O5  UNL     1      -7.891  49.307 -22.328  1.00  0.00    -0.292 OA
BRANCH  29  31
HETATM   31  C18 UNL     1      -5.700  49.783 -21.348  1.00  0.00     0.128 C 
HETATM   32  C19 UNL     1      -4.713  48.973 -20.463  1.00  0.00     0.047 C 
HETATM   33  C20 UNL     1      -3.312  49.183 -21.059  1.00  0.00     0.009 C 
HETATM   34  C21 UNL     1      -3.514  50.129 -22.243  1.00  0.00     0.002 C 
HETATM   35  C22 UNL     1      -2.454  50.072 -23.361  1.00  0.00    -0.004 C 
HETATM   36  C35 UNL     1      -4.953  49.838 -22.723  1.00  0.00    -0.002 C 
HETATM   37  C23 UNL     1      -1.111  50.630 -22.842  1.00  0.00     0.010 C 
HETATM   38  C32 UNL     1      -2.975  50.772 -24.674  1.00  0.00     0.002 C 
HETATM   39  C24 UNL     1      -0.924  52.107 -23.157  1.00  0.00     0.035 C 
HETATM   40  C25 UNL     1      -0.994  52.392 -24.635  1.00  0.00    -0.068 C 
HETATM   41  C26 UNL     1      -0.354  53.466 -25.135  1.00  0.00     0.053 C 
HETATM   42  C30 UNL     1      -1.821  51.449 -25.505  1.00  0.00    -0.016 C 
HETATM   43  C27 UNL     1      -0.413  53.819 -26.576  1.00  0.00     0.149 C 
HETATM   44  O7  UNL     1       0.269  54.753 -26.994  1.00  0.00    -0.293 OA
HETATM   45  C28 UNL     1      -1.289  52.996 -27.491  1.00  0.00     0.084 C 
HETATM   46  C29 UNL     1      -2.378  52.268 -26.705  1.00  0.00     0.022 C 
HETATM   47  C31 UNL     1      -0.911  50.330 -26.084  1.00  0.00     0.020 C 
HETATM   48  C33 UNL     1      -4.192  51.685 -24.375  1.00  0.00     0.007 C 
HETATM   49  C34 UNL     1      -5.372  50.975 -23.677  1.00  0.00     0.013 C 
HETATM   50  C36 UNL     1      -5.074  48.475 -23.461  1.00  0.00     0.019 C 
BRANCH  31  51
HETATM   51  O6  UNL     1      -5.748  51.085 -20.754  1.00  0.00    -0.381 OA
HETATM   52  H29 UNL     1      -6.599  51.495 -20.997  1.00  0.00     0.211 HD
ENDBRANCH  31  51
ENDBRANCH  29  31
ENDBRANCH  28  29
ENDBRANCH  27  28
ENDBRANCH   1  27
TORSDOF 19
ENDMDL
MODEL 6
REMARK minimizedAffinity -7.85773516
REMARK CNNscore 0.278707951
REMARK CNNaffinity 6.20547676
REMARK  19 active torsions:
REMARK  status: ('A' for Active; 'I' for Inactive)
REMARK    1  A    between atoms: C2_2  and  C3_3 
REMARK    2  A    between atoms: C3_3  and  C5_5 
REMARK    3  A    between atoms: C5_5  and  N1_6 
REMARK    4  A    between atoms: C5_5  and  C37_46 
REMARK       I    between atoms: N1_6  and  C6_7 
REMARK    5  A    between atoms: C6_7  and  C7_9 
REMARK    6  A    between atoms: C7_9  and  C8_10 
REMARK    7  A    between atoms: C8_10  and  C9_11 
REMARK    8  A    between atoms: C9_11  and  C10_12 
REMARK    9  A    between atoms: C10_12  and  C11_13 
REMARK   10  A    between atoms: C11_13  and  N2_14 
REMARK       I    between atoms: N2_14  and  C12_15 
REMARK   11  A    between atoms: C12_15  and  C13_17 
REMARK   12  A    between atoms: C13_17  and  C14_18 
REMARK   13  A    between atoms: C14_18  and  C15_19 
REMARK   14  A    between atoms: C15_19  and  O4_21 
REMARK   15  A    between atoms: O4_21  and  C16_22 
REMARK   16  A    between atoms: C16_22  and  C17_23 
REMARK   17  A    between atoms: C17_23  and  C18_25 
REMARK   18  A    between atoms: C18_25  and  O6_26 
REMARK   19  A    between atoms: C37_46  and  O9_48 
ROOT
HETATM    1  C15 UNL     1      -8.310  48.454 -18.064  1.00  0.00     0.259 C 
HETATM    2  O3  UNL     1      -7.566  47.734 -17.412  1.00  0.00    -0.265 OA
ENDROOT
BRANCH   1   3
HETATM    3  C14 UNL     1      -9.772  48.655 -17.740  1.00  0.00     0.120 C 
BRANCH   3   4
HETATM    4  C13 UNL     1     -10.696  47.664 -18.431  1.00  0.00     0.112 C 
BRANCH   4   5
HETATM    5  C12 UNL     1     -11.997  47.529 -17.674  1.00  0.00     0.217 C 
HETATM    6  N2  UNL     1     -13.123  47.621 -18.463  1.00  0.00    -0.361 N 
HETATM    7  H22 UNL     1     -13.024  48.055 -19.369  1.00  0.00     0.162 HD
HETATM    8  O2  UNL     1     -12.017  47.290 -16.472  1.00  0.00    -0.274 OA
BRANCH   6   9
HETATM    9  C11 UNL     1     -14.436  47.621 -17.847  1.00  0.00     0.122 C 
BRANCH   9  10
HETATM   10  C10 UNL     1     -15.533  48.148 -18.771  1.00  0.00     0.020 C 
BRANCH  10  11
HETATM   11  C9  UNL     1     -16.174  47.085 -19.672  1.00  0.00     0.002 C 
BRANCH  11  12
HETATM   12  C8  UNL     1     -17.703  47.150 -19.739  1.00  0.00     0.009 C 
BRANCH  12  13
HETATM   13  C7  UNL     1     -18.249  46.431 -20.976  1.00  0.00     0.103 C 
BRANCH  13  14
HETATM   14  C6  UNL     1     -18.777  45.040 -20.667  1.00  0.00     0.218 C 
HETATM   15  N1  UNL     1     -19.303  44.934 -19.397  1.00  0.00    -0.346 N 
HETATM   16  H11 UNL     1     -18.966  45.611 -18.723  1.00  0.00     0.163 HD
HETATM   17  O1  UNL     1     -18.723  44.105 -21.457  1.00  0.00    -0.274 OA
BRANCH  15  18
HETATM   18  C5  UNL     1     -19.653  43.620 -18.844  1.00  0.00     0.186 C 
BRANCH  18  19
HETATM   19  C3  UNL     1     -20.783  42.937 -19.654  1.00  0.00     0.014 C 
HETATM   20  C4  UNL     1     -20.256  41.837 -20.586  1.00  0.00     0.012 C 
BRANCH  19  21
HETATM   21  C2  UNL     1     -21.869  42.399 -18.697  1.00  0.00     0.002 C 
HETATM   22  C1  UNL     1     -23.068  41.794 -19.414  1.00  0.00     0.005 C 
ENDBRANCH  19  21
ENDBRANCH  18  19
BRANCH  18  23
HETATM   23  C37 UNL     1     -20.047  43.727 -17.364  1.00  0.00     0.163 C 
HETATM   24  O8  UNL     1     -19.480  43.192 -16.425  1.00  0.00    -0.648 OA
BRANCH  23  25
HETATM   25  O9  UNL     1     -21.175  44.441 -17.146  1.00  0.00    -0.775 OA
HETATM   26  H56 UNL     1     -21.283  44.401 -16.170  1.00  0.00     0.167 HD
ENDBRANCH  23  25
ENDBRANCH  18  23
ENDBRANCH  15  18
ENDBRANCH  13  14
ENDBRANCH  12  13
ENDBRANCH  11  12
ENDBRANCH  10  11
ENDBRANCH   9  10
ENDBRANCH   6   9
ENDBRANCH   4   5
ENDBRANCH   3   4
ENDBRANCH   1   3
BRANCH   1  27
HETATM   27  O4  UNL     1      -7.953  49.113 -19.202  1.00  0.00    -0.314 OA
BRANCH  27  28
HETATM   28  C16 UNL     1      -7.592  48.245 -20.278  1.00  0.00     0.260 C 
BRANCH  28  29
HETATM   29  C17 UNL     1      -7.110  49.016 -21.503  1.00  0.00     0.185 C 
HETATM   30  O5  UNL     1      -7.849  49.126 -22.485  1.00  0.00    -0.292 OA
BRANCH  29  31
HETATM   31  C18 UNL     1      -5.741  49.749 -21.410  1.00  0.00     0.128 C 
HETATM   32  C19 UNL     1      -4.754  48.984 -20.487  1.00  0.00     0.047 C 
HETATM   33  C20 UNL     1      -3.343  49.235 -21.043  1.00  0.00     0.009 C 
HETATM   34  C21 UNL     1      -3.543  50.160 -22.245  1.00  0.00     0.002 C 
HETATM   35  C22 UNL     1      -2.448  50.128 -23.329  1.00  0.00    -0.004 C 
HETATM   36  C35 UNL     1      -4.955  49.814 -22.764  1.00  0.00    -0.002 C 
HETATM   37  C23 UNL     1      -1.140  50.738 -22.777  1.00  0.00     0.010 C 
HETATM   38  C32 UNL     1      -2.952  50.795 -24.666  1.00  0.00     0.002 C 
HETATM   39  C24 UNL     1      -0.995  52.217 -23.105  1.00  0.00     0.035 C 
HETATM   40  C25 UNL     1      -1.031  52.484 -24.588  1.00  0.00    -0.068 C 
HETATM   41  C26 UNL     1      -0.413  53.573 -25.082  1.00  0.00     0.053 C 
HETATM   42  C30 UNL     1      -1.798  51.503 -25.470  1.00  0.00    -0.016 C 
HETATM   43  C27 UNL     1      -0.441  53.908 -26.528  1.00  0.00     0.149 C 
HETATM   44  O7  UNL     1       0.221  54.860 -26.937  1.00  0.00    -0.293 OA
HETATM   45  C28 UNL     1      -1.260  53.044 -27.459  1.00  0.00     0.084 C 
HETATM   46  C29 UNL     1      -2.347  52.288 -26.696  1.00  0.00     0.022 C 
HETATM   47  C31 UNL     1      -0.833  50.409 -26.008  1.00  0.00     0.020 C 
HETATM   48  C33 UNL     1      -4.209  51.668 -24.414  1.00  0.00     0.007 C 
HETATM   49  C34 UNL     1      -5.384  50.926 -23.743  1.00  0.00     0.013 C 
HETATM   50  C36 UNL     1      -5.007  48.440 -23.488  1.00  0.00     0.019 C 
BRANCH  31  51
HETATM   51  O6  UNL     1      -5.852  51.054 -20.834  1.00  0.00    -0.381 OA
HETATM   52  H29 UNL     1      -6.709  51.432 -21.107  1.00  0.00     0.211 HD
ENDBRANCH  31  51
ENDBRANCH  29  31
ENDBRANCH  28  29
ENDBRANCH  27  28
ENDBRANCH   1  27
TORSDOF 19
ENDMDL
MODEL 7
REMARK minimizedAffinity -8.02849007
REMARK CNNscore 0.271503329
REMARK CNNaffinity 5.99631357
REMARK  19 active torsions:
REMARK  status: ('A' for Active; 'I' for Inactive)
REMARK    1  A    between atoms: C2_2  and  C3_3 
REMARK    2  A    between atoms: C3_3  and  C5_5 
REMARK    3  A    between atoms: C5_5  and  N1_6 
REMARK    4  A    between atoms: C5_5  and  C37_46 
REMARK       I    between atoms: N1_6  and  C6_7 
REMARK    5  A    between atoms: C6_7  and  C7_9 
REMARK    6  A    between atoms: C7_9  and  C8_10 
REMARK    7  A    between atoms: C8_10  and  C9_11 
REMARK    8  A    between atoms: C9_11  and  C10_12 
REMARK    9  A    between atoms: C10_12  and  C11_13 
REMARK   10  A    between atoms: C11_13  and  N2_14 
REMARK       I    between atoms: N2_14  and  C12_15 
REMARK   11  A    between atoms: C12_15  and  C13_17 
REMARK   12  A    between atoms: C13_17  and  C14_18 
REMARK   13  A    between atoms: C14_18  and  C15_19 
REMARK   14  A    between atoms: C15_19  and  O4_21 
REMARK   15  A    between atoms: O4_21  and  C16_22 
REMARK   16  A    between atoms: C16_22  and  C17_23 
REMARK   17  A    between atoms: C17_23  and  C18_25 
REMARK   18  A    between atoms: C18_25  and  O6_26 
REMARK   19  A    between atoms: C37_46  and  O9_48 
ROOT
HETATM    1  C15 UNL     1      -9.334  45.797 -30.170  1.00  0.00     0.259 C 
HETATM    2  O3  UNL     1      -8.339  45.103 -30.005  1.00  0.00    -0.265 OA
ENDROOT
BRANCH   1   3
HETATM    3  C14 UNL     1      -9.445  46.855 -31.243  1.00  0.00     0.120 C 
BRANCH   3   4
HETATM    4  C13 UNL     1      -8.654  48.119 -30.944  1.00  0.00     0.112 C 
BRANCH   4   5
HETATM    5  C12 UNL     1      -7.173  47.822 -30.891  1.00  0.00     0.217 C 
HETATM    6  N2  UNL     1      -6.636  47.847 -29.622  1.00  0.00    -0.361 N 
HETATM    7  H22 UNL     1      -7.154  48.335 -28.906  1.00  0.00     0.162 HD
HETATM    8  O2  UNL     1      -6.543  47.522 -31.899  1.00  0.00    -0.274 OA
BRANCH   6   9
HETATM    9  C11 UNL     1      -5.205  47.692 -29.443  1.00  0.00     0.122 C 
BRANCH   9  10
HETATM   10  C10 UNL     1      -4.572  48.835 -28.650  1.00  0.00     0.020 C 
BRANCH  10  11
HETATM   11  C9  UNL     1      -4.058  48.439 -27.259  1.00  0.00     0.002 C 
BRANCH  11  12
HETATM   12  C8  UNL     1      -3.180  49.497 -26.584  1.00  0.00     0.009 C 
BRANCH  12  13
HETATM   13  C7  UNL     1      -2.867  50.662 -27.526  1.00  0.00     0.103 C 
BRANCH  13  14
HETATM   14  C6  UNL     1      -2.171  51.819 -26.827  1.00  0.00     0.218 C 
HETATM   15  N1  UNL     1      -0.824  51.595 -26.628  1.00  0.00    -0.346 N 
HETATM   16  H11 UNL     1      -0.537  50.624 -26.612  1.00  0.00     0.163 HD
HETATM   17  O1  UNL     1      -2.750  52.835 -26.461  1.00  0.00    -0.274 OA
BRANCH  15  18
HETATM   18  C5  UNL     1      -0.040  52.495 -25.775  1.00  0.00     0.186 C 
BRANCH  18  19
HETATM   19  C3  UNL     1      -0.501  52.438 -24.298  1.00  0.00     0.014 C 
HETATM   20  C4  UNL     1      -1.245  51.137 -23.964  1.00  0.00     0.012 C 
BRANCH  19  21
HETATM   21  C2  UNL     1       0.703  52.662 -23.358  1.00  0.00     0.002 C 
HETATM   22  C1  UNL     1       0.329  52.680 -21.882  1.00  0.00     0.005 C 
ENDBRANCH  19  21
ENDBRANCH  18  19
BRANCH  18  23
HETATM   23  C37 UNL     1      -0.094  53.939 -26.295  1.00  0.00     0.163 C 
HETATM   24  O8  UNL     1      -0.281  54.283 -27.452  1.00  0.00    -0.648 OA
BRANCH  23  25
HETATM   25  O9  UNL     1       0.162  54.873 -25.352  1.00  0.00    -0.775 OA
HETATM   26  H56 UNL     1       0.098  55.719 -25.848  1.00  0.00     0.167 HD
ENDBRANCH  23  25
ENDBRANCH  18  23
ENDBRANCH  15  18
ENDBRANCH  13  14
ENDBRANCH  12  13
ENDBRANCH  11  12
ENDBRANCH  10  11
ENDBRANCH   9  10
ENDBRANCH   6   9
ENDBRANCH   4   5
ENDBRANCH   3   4
ENDBRANCH   1   3
BRANCH   1  27
HETATM   27  O4  UNL     1     -10.441  45.769 -29.375  1.00  0.00    -0.314 OA
BRANCH  27  28
HETATM   28  C16 UNL     1     -10.674  46.992 -28.675  1.00  0.00     0.260 C 
BRANCH  28  29
HETATM   29  C17 UNL     1     -11.259  46.755 -27.285  1.00  0.00     0.185 C 
HETATM   30  O5  UNL     1     -10.504  46.545 -26.332  1.00  0.00    -0.292 OA
BRANCH  29  31
HETATM   31  C18 UNL     1     -12.796  46.918 -27.104  1.00  0.00     0.128 C 
HETATM   32  C19 UNL     1     -13.569  46.370 -28.334  1.00  0.00     0.047 C 
HETATM   33  C20 UNL     1     -14.908  45.828 -27.807  1.00  0.00     0.009 C 
HETATM   34  C21 UNL     1     -14.893  46.105 -26.304  1.00  0.00     0.002 C 
HETATM   35  C22 UNL     1     -15.780  45.201 -25.426  1.00  0.00    -0.004 C 
HETATM   36  C35 UNL     1     -13.396  46.079 -25.925  1.00  0.00    -0.002 C 
HETATM   37  C23 UNL     1     -17.271  45.495 -25.703  1.00  0.00     0.010 C 
HETATM   38  C32 UNL     1     -15.376  45.311 -23.906  1.00  0.00     0.002 C 
HETATM   39  C24 UNL     1     -17.863  46.505 -24.731  1.00  0.00     0.035 C 
HETATM   40  C25 UNL     1     -17.748  46.057 -23.296  1.00  0.00    -0.068 C 
HETATM   41  C26 UNL     1     -18.633  46.507 -22.387  1.00  0.00     0.053 C 
HETATM   42  C30 UNL     1     -16.599  45.120 -22.933  1.00  0.00    -0.016 C 
HETATM   43  C27 UNL     1     -18.551  46.129 -20.954  1.00  0.00     0.149 C 
HETATM   44  O7  UNL     1     -19.442  46.490 -20.186  1.00  0.00    -0.293 OA
HETATM   45  C28 UNL     1     -17.388  45.284 -20.489  1.00  0.00     0.084 C 
HETATM   46  C29 UNL     1     -16.207  45.393 -21.452  1.00  0.00     0.022 C 
HETATM   47  C31 UNL     1     -17.074  43.642 -23.026  1.00  0.00     0.020 C 
HETATM   48  C33 UNL     1     -14.523  46.580 -23.646  1.00  0.00     0.007 C 
HETATM   49  C34 UNL     1     -13.253  46.690 -24.517  1.00  0.00     0.013 C 
HETATM   50  C36 UNL     1     -12.803  44.641 -25.927  1.00  0.00     0.019 C 
BRANCH  31  51
HETATM   51  O6  UNL     1     -13.196  48.288 -26.995  1.00  0.00    -0.381 OA
HETATM   52  H29 UNL     1     -12.489  48.772 -26.527  1.00  0.00     0.211 HD
ENDBRANCH  31  51
ENDBRANCH  29  31
ENDBRANCH  28  29
ENDBRANCH  27  28
ENDBRANCH   1  27
TORSDOF 19
ENDMDL
MODEL 8
REMARK minimizedAffinity -7.89934492
REMARK CNNscore 0.266871393
REMARK CNNaffinity 6.24177027
REMARK  19 active torsions:
REMARK  status: ('A' for Active; 'I' for Inactive)
REMARK    1  A    between atoms: C2_2  and  C3_3 
REMARK    2  A    between atoms: C3_3  and  C5_5 
REMARK    3  A    between atoms: C5_5  and  N1_6 
REMARK    4  A    between atoms: C5_5  and  C37_46 
REMARK       I    between atoms: N1_6  and  C6_7 
REMARK    5  A    between atoms: C6_7  and  C7_9 
REMARK    6  A    between atoms: C7_9  and  C8_10 
REMARK    7  A    between atoms: C8_10  and  C9_11 
REMARK    8  A    between atoms: C9_11  and  C10_12 
REMARK    9  A    between atoms: C10_12  and  C11_13 
REMARK   10  A    between atoms: C11_13  and  N2_14 
REMARK       I    between atoms: N2_14  and  C12_15 
REMARK   11  A    between atoms: C12_15  and  C13_17 
REMARK   12  A    between atoms: C13_17  and  C14_18 
REMARK   13  A    between atoms: C14_18  and  C15_19 
REMARK   14  A    between atoms: C15_19  and  O4_21 
REMARK   15  A    between atoms: O4_21  and  C16_22 
REMARK   16  A    between atoms: C16_22  and  C17_23 
REMARK   17  A    between atoms: C17_23  and  C18_25 
REMARK   18  A    between atoms: C18_25  and  O6_26 
REMARK   19  A    between atoms: C37_46  and  O9_48 
ROOT
HETATM    1  C15 UNL     1      -7.915  48.469 -29.725  1.00  0.00     0.259 C 
HETATM    2  O3  UNL     1      -8.681  49.253 -30.269  1.00  0.00    -0.265 OA
ENDROOT
BRANCH   1   3
HETATM    3  C14 UNL     1      -6.446  48.368 -30.061  1.00  0.00     0.120 C 
BRANCH   3   4
HETATM    4  C13 UNL     1      -5.655  47.494 -29.099  1.00  0.00     0.112 C 
BRANCH   4   5
HETATM    5  C12 UNL     1      -4.907  48.344 -28.097  1.00  0.00     0.217 C 
HETATM    6  N2  UNL     1      -5.334  48.191 -26.795  1.00  0.00    -0.361 N 
HETATM    7  H22 UNL     1      -6.251  47.796 -26.648  1.00  0.00     0.162 HD
HETATM    8  O2  UNL     1      -3.962  49.048 -28.433  1.00  0.00    -0.274 OA
BRANCH   6   9
HETATM    9  C11 UNL     1      -4.778  49.030 -25.752  1.00  0.00     0.122 C 
BRANCH   9  10
HETATM   10  C10 UNL     1      -3.441  48.520 -25.218  1.00  0.00     0.020 C 
BRANCH  10  11
HETATM   11  C9  UNL     1      -2.762  49.448 -24.202  1.00  0.00     0.002 C 
BRANCH  11  12
HETATM   12  C8  UNL     1      -3.723  50.372 -23.448  1.00  0.00     0.009 C 
BRANCH  12  13
HETATM   13  C7  UNL     1      -3.274  51.834 -23.511  1.00  0.00     0.103 C 
BRANCH  13  14
HETATM   14  C6  UNL     1      -2.671  52.211 -24.854  1.00  0.00     0.218 C 
HETATM   15  N1  UNL     1      -1.325  52.502 -24.776  1.00  0.00    -0.346 N 
HETATM   16  H11 UNL     1      -0.989  52.791 -23.865  1.00  0.00     0.163 HD
HETATM   17  O1  UNL     1      -3.316  52.269 -25.894  1.00  0.00    -0.274 OA
BRANCH  15  18
HETATM   18  C5  UNL     1      -0.626  53.099 -25.920  1.00  0.00     0.186 C 
BRANCH  18  19
HETATM   19  C3  UNL     1       0.245  52.060 -26.670  1.00  0.00     0.014 C 
HETATM   20  C4  UNL     1       0.039  52.108 -28.190  1.00  0.00     0.012 C 
BRANCH  19  21
HETATM   21  C2  UNL     1       1.731  52.242 -26.291  1.00  0.00     0.002 C 
HETATM   22  C1  UNL     1       2.514  50.937 -26.250  1.00  0.00     0.005 C 
ENDBRANCH  19  21
ENDBRANCH  18  19
BRANCH  18  23
HETATM   23  C37 UNL     1       0.230  54.296 -25.484  1.00  0.00     0.163 C 
HETATM   24  O8  UNL     1       0.839  54.403 -24.431  1.00  0.00    -0.648 OA
BRANCH  23  25
HETATM   25  O9  UNL     1       0.220  55.328 -26.358  1.00  0.00    -0.775 OA
HETATM   26  H56 UNL     1       0.797  55.996 -25.927  1.00  0.00     0.167 HD
ENDBRANCH  23  25
ENDBRANCH  18  23
ENDBRANCH  15  18
ENDBRANCH  13  14
ENDBRANCH  12  13
ENDBRANCH  11  12
ENDBRANCH  10  11
ENDBRANCH   9  10
ENDBRANCH   6   9
ENDBRANCH   4   5
ENDBRANCH   3   4
ENDBRANCH   1   3
BRANCH   1  27
HETATM   27  O4  UNL     1      -8.284  47.537 -28.802  1.00  0.00    -0.314 OA
BRANCH  27  28
HETATM   28  C16 UNL     1      -9.544  47.807 -28.186  1.00  0.00     0.260 C 
BRANCH  28  29
HETATM   29  C17 UNL     1     -10.657  46.922 -28.739  1.00  0.00     0.185 C 
HETATM   30  O5  UNL     1     -10.381  46.022 -29.538  1.00  0.00    -0.292 OA
BRANCH  29  31
HETATM   31  C18 UNL     1     -12.092  47.112 -28.169  1.00  0.00     0.128 C 
HETATM   32  C19 UNL     1     -13.167  46.608 -29.169  1.00  0.00     0.047 C 
HETATM   33  C20 UNL     1     -14.341  46.083 -28.327  1.00  0.00     0.009 C 
HETATM   34  C21 UNL     1     -13.935  46.325 -26.873  1.00  0.00     0.002 C 
HETATM   35  C22 UNL     1     -14.592  45.419 -25.813  1.00  0.00    -0.004 C 
HETATM   36  C35 UNL     1     -12.393  46.258 -26.890  1.00  0.00    -0.002 C 
HETATM   37  C23 UNL     1     -16.096  45.751 -25.695  1.00  0.00     0.010 C 
HETATM   38  C32 UNL     1     -13.811  45.486 -24.445  1.00  0.00     0.002 C 
HETATM   39  C24 UNL     1     -16.395  46.749 -24.586  1.00  0.00     0.035 C 
HETATM   40  C25 UNL     1     -15.929  46.266 -23.237  1.00  0.00    -0.068 C 
HETATM   41  C26 UNL     1     -16.540  46.713 -22.124  1.00  0.00     0.053 C 
HETATM   42  C30 UNL     1     -14.750  45.297 -23.195  1.00  0.00    -0.016 C 
HETATM   43  C27 UNL     1     -16.105  46.302 -20.766  1.00  0.00     0.149 C 
HETATM   44  O7  UNL     1     -16.761  46.663 -19.790  1.00  0.00    -0.293 OA
HETATM   45  C28 UNL     1     -14.885  45.421 -20.628  1.00  0.00     0.084 C 
HETATM   46  C29 UNL     1     -13.986  45.528 -21.859  1.00  0.00     0.022 C 
HETATM   47  C31 UNL     1     -15.271  43.832 -23.189  1.00  0.00     0.020 C 
HETATM   48  C33 UNL     1     -12.887  46.730 -24.391  1.00  0.00     0.007 C 
HETATM   49  C34 UNL     1     -11.879  46.834 -25.555  1.00  0.00     0.013 C 
HETATM   50  C36 UNL     1     -11.858  44.809 -27.068  1.00  0.00     0.019 C 
BRANCH  31  51
HETATM   51  O6  UNL     1     -12.415  48.487 -27.938  1.00  0.00    -0.381 OA
HETATM   52  H29 UNL     1     -11.600  48.945 -27.658  1.00  0.00     0.211 HD
ENDBRANCH  31  51
ENDBRANCH  29  31
ENDBRANCH  28  29
ENDBRANCH  27  28
ENDBRANCH   1  27
TORSDOF 19
ENDMDL
MODEL 9
REMARK minimizedAffinity -8.39363766
REMARK CNNscore 0.250474364
REMARK CNNaffinity 6.59152746
REMARK  19 active torsions:
REMARK  status: ('A' for Active; 'I' for Inactive)
REMARK    1  A    between atoms: C2_2  and  C3_3 
REMARK    2  A    between atoms: C3_3  and  C5_5 
REMARK    3  A    between atoms: C5_5  and  N1_6 
REMARK    4  A    between atoms: C5_5  and  C37_46 
REMARK       I    between atoms: N1_6  and  C6_7 
REMARK    5  A    between atoms: C6_7  and  C7_9 
REMARK    6  A    between atoms: C7_9  and  C8_10 
REMARK    7  A    between atoms: C8_10  and  C9_11 
REMARK    8  A    between atoms: C9_11  and  C10_12 
REMARK    9  A    between atoms: C10_12  and  C11_13 
REMARK   10  A    between atoms: C11_13  and  N2_14 
REMARK       I    between atoms: N2_14  and  C12_15 
REMARK   11  A    between atoms: C12_15  and  C13_17 
REMARK   12  A    between atoms: C13_17  and  C14_18 
REMARK   13  A    between atoms: C14_18  and  C15_19 
REMARK   14  A    between atoms: C15_19  and  O4_21 
REMARK   15  A    between atoms: O4_21  and  C16_22 
REMARK   16  A    between atoms: C16_22  and  C17_23 
REMARK   17  A    between atoms: C17_23  and  C18_25 
REMARK   18  A    between atoms: C18_25  and  O6_26 
REMARK   19  A    between atoms: C37_46  and  O9_48 
ROOT
HETATM    1  C15 UNL     1      -4.590  48.443 -28.330  1.00  0.00     0.259 C 
HETATM    2  O3  UNL     1      -3.894  49.418 -28.577  1.00  0.00    -0.265 OA
ENDROOT
BRANCH   1   3
HETATM    3  C14 UNL     1      -4.905  47.976 -26.928  1.00  0.00     0.120 C 
BRANCH   3   4
HETATM    4  C13 UNL     1      -4.456  48.943 -25.844  1.00  0.00     0.112 C 
BRANCH   4   5
HETATM    5  C12 UNL     1      -5.366  48.858 -24.640  1.00  0.00     0.217 C 
HETATM    6  N2  UNL     1      -5.720  50.079 -24.110  1.00  0.00    -0.361 N 
HETATM    7  H22 UNL     1      -5.142  50.874 -24.342  1.00  0.00     0.162 HD
HETATM    8  O2  UNL     1      -5.790  47.782 -24.233  1.00  0.00    -0.274 OA
BRANCH   6   9
HETATM    9  C11 UNL     1      -6.496  50.135 -22.886  1.00  0.00     0.122 C 
BRANCH   9  10
HETATM   10  C10 UNL     1      -5.656  50.481 -21.657  1.00  0.00     0.020 C 
BRANCH  10  11
HETATM   11  C9  UNL     1      -4.154  50.217 -21.816  1.00  0.00     0.002 C 
BRANCH  11  12
HETATM   12  C8  UNL     1      -3.277  51.469 -21.726  1.00  0.00     0.009 C 
BRANCH  12  13
HETATM   13  C7  UNL     1      -3.287  52.266 -23.033  1.00  0.00     0.103 C 
BRANCH  13  14
HETATM   14  C6  UNL     1      -1.916  52.362 -23.679  1.00  0.00     0.218 C 
HETATM   15  N1  UNL     1      -1.948  52.953 -24.925  1.00  0.00    -0.346 N 
HETATM   16  H11 UNL     1      -2.838  52.913 -25.409  1.00  0.00     0.163 HD
HETATM   17  O1  UNL     1      -0.890  51.941 -23.157  1.00  0.00    -0.274 OA
BRANCH  15  18
HETATM   18  C5  UNL     1      -0.763  52.930 -25.791  1.00  0.00     0.186 C 
BRANCH  18  19
HETATM   19  C3  UNL     1      -0.118  51.522 -25.847  1.00  0.00     0.014 C 
HETATM   20  C4  UNL     1      -1.080  50.456 -26.390  1.00  0.00     0.012 C 
BRANCH  19  21
HETATM   21  C2  UNL     1       1.193  51.573 -26.661  1.00  0.00     0.002 C 
HETATM   22  C1  UNL     1       0.975  51.746 -28.157  1.00  0.00     0.005 C 
ENDBRANCH  19  21
ENDBRANCH  18  19
BRANCH  18  23
HETATM   23  C37 UNL     1       0.272  53.972 -25.343  1.00  0.00     0.163 C 
HETATM   24  O8  UNL     1       1.062  53.855 -24.420  1.00  0.00    -0.648 OA
BRANCH  23  25
HETATM   25  O9  UNL     1       0.212  55.136 -26.030  1.00  0.00    -0.775 OA
HETATM   26  H56 UNL     1       0.919  55.679 -25.616  1.00  0.00     0.167 HD
ENDBRANCH  23  25
ENDBRANCH  18  23
ENDBRANCH  15  18
ENDBRANCH  13  14
ENDBRANCH  12  13
ENDBRANCH  11  12
ENDBRANCH  10  11
ENDBRANCH   9  10
ENDBRANCH   6   9
ENDBRANCH   4   5
ENDBRANCH   3   4
ENDBRANCH   1   3
BRANCH   1  27
HETATM   27  O4  UNL     1      -5.115  47.605 -29.268  1.00  0.00    -0.314 OA
BRANCH  27  28
HETATM   28  C16 UNL     1      -5.913  48.269 -30.248  1.00  0.00     0.260 C 
BRANCH  28  29
HETATM   29  C17 UNL     1      -5.601  47.792 -31.664  1.00  0.00     0.185 C 
HETATM   30  O5  UNL     1      -4.692  48.329 -32.302  1.00  0.00    -0.292 OA
BRANCH  29  31
HETATM   31  C18 UNL     1      -6.368  46.549 -32.200  1.00  0.00     0.128 C 
HETATM   32  C19 UNL     1      -6.862  45.647 -31.036  1.00  0.00     0.047 C 
HETATM   33  C20 UNL     1      -8.174  44.999 -31.507  1.00  0.00     0.009 C 
HETATM   34  C21 UNL     1      -8.388  45.509 -32.933  1.00  0.00     0.002 C 
HETATM   35  C22 UNL     1      -9.839  45.522 -33.451  1.00  0.00    -0.004 C 
HETATM   36  C35 UNL     1      -7.700  46.891 -32.951  1.00  0.00    -0.002 C 
HETATM   37  C23 UNL     1     -10.344  44.074 -33.641  1.00  0.00     0.010 C 
HETATM   38  C32 UNL     1      -9.976  46.424 -34.737  1.00  0.00     0.002 C 
HETATM   39  C24 UNL     1     -10.161  43.569 -35.065  1.00  0.00     0.035 C 
HETATM   40  C25 UNL     1     -10.869  44.434 -36.077  1.00  0.00    -0.068 C 
HETATM   41  C26 UNL     1     -11.267  43.899 -37.246  1.00  0.00     0.053 C 
HETATM   42  C30 UNL     1     -11.081  45.906 -35.732  1.00  0.00    -0.016 C 
HETATM   43  C27 UNL     1     -11.937  44.706 -38.296  1.00  0.00     0.149 C 
HETATM   44  O7  UNL     1     -12.366  44.145 -39.303  1.00  0.00    -0.293 OA
HETATM   45  C28 UNL     1     -12.099  46.193 -38.078  1.00  0.00     0.084 C 
HETATM   46  C29 UNL     1     -11.085  46.715 -37.061  1.00  0.00     0.022 C 
HETATM   47  C31 UNL     1     -12.472  46.096 -35.064  1.00  0.00     0.020 C 
HETATM   48  C33 UNL     1      -8.590  46.696 -35.376  1.00  0.00     0.007 C 
HETATM   49  C34 UNL     1      -7.554  47.327 -34.423  1.00  0.00     0.013 C 
HETATM   50  C36 UNL     1      -8.501  47.970 -32.170  1.00  0.00     0.019 C 
BRANCH  31  51
HETATM   51  O6  UNL     1      -5.545  45.699 -33.005  1.00  0.00    -0.381 OA
HETATM   52  H29 UNL     1      -4.916  46.263 -33.492  1.00  0.00     0.211 HD
ENDBRANCH  31  51
ENDBRANCH  29  31
ENDBRANCH  28  29
ENDBRANCH  27  28
ENDBRANCH   1  27
TORSDOF 19
ENDMDL
