MODEL 1
REMARK minimizedAffinity -6.69231892
REMARK CNNscore 0.448638886
REMARK CNNaffinity 6.25475502
REMARK  18 active torsions:
REMARK  status: ('A' for Active; 'I' for Inactive)
REMARK    1  A    between atoms: C2_2  and  C3_3 
REMARK    2  A    between atoms: C2_2  and  C29_35 
REMARK    3  A    between atoms: C4_4  and  C5_5 
REMARK    4  A    between atoms: C6_6  and  C7_7 
REMARK    5  A    between atoms: C6_6  and  C8_9 
REMARK    6  A    between atoms: C7_7  and  O1_8 
REMARK    7  A    between atoms: C12_13  and  O2_14 
REMARK    8  A    between atoms: C13_15  and  C14_16 
REMARK    9  A    between atoms: C14_16  and  C15_17 
REMARK   10  A    between atoms: C15_17  and  C16_18 
REMARK   11  A    between atoms: C16_18  and  O3_19 
REMARK   12  A    between atoms: C18_21  and  C19_22 
REMARK   13  A    between atoms: C25_29  and  O5_30 
REMARK   14  A    between atoms: C25_29  and  C26_31 
REMARK   15  A    between atoms: C26_31  and  C27_32 
REMARK   16  A    between atoms: C27_32  and  N1_33 
REMARK   17  A    between atoms: C29_35  and  C30_36 
REMARK   18  A    between atoms: C30_36  and  C31_37 
ROOT
HETATM    1  C8  UNL     1      -8.562  46.949 -24.547  1.00  0.00     0.046 C 
HETATM    2  C9  UNL     1      -7.854  45.952 -25.466  1.00  0.00     0.013 C 
HETATM    3  C10 UNL     1      -8.893  45.634 -26.556  1.00  0.00     0.017 C 
HETATM    4  C11 UNL     1      -9.974  46.786 -26.535  1.00  0.00     0.025 C 
HETATM    5  C12 UNL     1      -9.315  47.833 -25.570  1.00  0.00     0.138 C 
HETATM    6  C13 UNL     1     -11.281  46.132 -25.839  1.00  0.00     0.029 C 
HETATM    7  C17 UNL     1     -12.113  45.209 -26.747  1.00  0.00    -0.061 C 
HETATM    8  C18 UNL     1     -12.671  44.035 -26.353  1.00  0.00    -0.017 C 
HETATM    9  C20 UNL     1     -13.550  43.187 -27.245  1.00  0.00     0.042 C 
HETATM   10  C21 UNL     1     -14.067  43.931 -28.469  1.00  0.00     0.005 C 
HETATM   11  C22 UNL     1     -12.928  44.678 -29.132  1.00  0.00     0.009 C 
HETATM   12  C23 UNL     1     -12.311  45.717 -28.172  1.00  0.00     0.018 C 
HETATM   13  C24 UNL     1     -11.004  46.218 -28.801  1.00  0.00     0.047 C 
HETATM   14  C25 UNL     1     -10.306  47.323 -27.986  1.00  0.00     0.071 C 
ENDROOT
BRANCH   5  15
HETATM   15  O2  UNL     1      -8.412  48.664 -26.290  1.00  0.00    -0.394 OA
HETATM   16  H15 UNL     1      -7.863  49.159 -25.645  1.00  0.00     0.210 HD
ENDBRANCH   5  15
BRANCH   6  17
HETATM   17  C14 UNL     1     -12.195  46.996 -24.916  1.00  0.00     0.012 C 
BRANCH  17  18
HETATM   18  C15 UNL     1     -12.348  46.622 -23.447  1.00  0.00     0.027 C 
BRANCH  18  19
HETATM   19  C16 UNL     1     -13.786  46.824 -22.969  1.00  0.00     0.164 C 
BRANCH  19  20
HETATM   20  O3  UNL     1     -14.359  45.577 -22.597  1.00  0.00    -0.401 OA
HETATM   21  H23 UNL     1     -14.173  44.938 -23.307  1.00  0.00     0.209 HD
ENDBRANCH  19  20
ENDBRANCH  18  19
ENDBRANCH  17  18
ENDBRANCH   6  17
BRANCH  14  22
HETATM   22  O5  UNL     1     -11.286  48.375 -27.835  1.00  0.00    -0.389 OA
HETATM   23  H34 UNL     1     -10.808  49.157 -27.501  1.00  0.00     0.210 HD
ENDBRANCH  14  22
BRANCH  14  24
HETATM   24  C26 UNL     1      -9.217  48.007 -28.885  1.00  0.00     0.068 C 
BRANCH  24  25
HETATM   25  C27 UNL     1      -9.566  48.766 -30.166  1.00  0.00     0.272 C 
BRANCH  25  26
HETATM   26  N1  UNL     1      -8.474  49.527 -30.779  1.00  0.00     0.079 N 
HETATM   27  C28 UNL     1      -7.283  48.716 -31.002  1.00  0.00     0.306 C 
HETATM   28  H39 UNL     1      -8.795  49.878 -31.682  1.00  0.00     0.315 HD
ENDBRANCH  25  26
ENDBRANCH  24  25
ENDBRANCH  14  24
BRANCH   1  29
HETATM   29  C6  UNL     1      -7.724  47.635 -23.470  1.00  0.00    -0.050 C 
HETATM   30  C5  UNL     1      -6.537  48.241 -23.705  1.00  0.00     0.005 C 
BRANCH  30  31
HETATM   31  C4  UNL     1      -5.810  48.302 -24.957  1.00  0.00     0.001 C 
HETATM   32  C3  UNL     1      -4.479  48.469 -25.030  1.00  0.00     0.006 C 
BRANCH  32  33
HETATM   33  C2  UNL     1      -3.683  48.526 -26.254  1.00  0.00    -0.067 C 
HETATM   34  C1  UNL     1      -4.289  48.349 -27.442  1.00  0.00     0.019 C 
BRANCH  33  35
HETATM   35  C29 UNL     1      -2.194  48.824 -26.199  1.00  0.00     0.041 C 
BRANCH  35  36
HETATM   36  C30 UNL     1      -1.811  50.255 -26.619  1.00  0.00     0.032 C 
BRANCH  36  37
HETATM   37  C31 UNL     1      -0.430  50.649 -26.165  1.00  0.00    -0.024 C 
HETATM   38  C32 UNL     1       0.527  51.287 -26.866  1.00  0.00    -0.091 C 
HETATM   39  C33 UNL     1       0.405  51.761 -28.289  1.00  0.00     0.042 C 
HETATM   40  C34 UNL     1       1.860  51.597 -26.232  1.00  0.00     0.042 C 
ENDBRANCH  36  37
ENDBRANCH  35  36
ENDBRANCH  33  35
ENDBRANCH  32  33
ENDBRANCH  30  31
BRANCH  29  41
HETATM   41  C7  UNL     1      -8.256  47.654 -22.060  1.00  0.00     0.198 C 
BRANCH  41  42
HETATM   42  O1  UNL     1      -9.261  46.651 -21.970  1.00  0.00    -0.397 OA
HETATM   43  H8  UNL     1      -8.789  45.804 -21.874  1.00  0.00     0.209 HD
ENDBRANCH  41  42
ENDBRANCH  29  41
ENDBRANCH   1  29
BRANCH   8  44
HETATM   44  C19 UNL     1     -12.521  43.460 -24.977  1.00  0.00     0.265 C 
HETATM   45  O4  UNL     1     -11.512  42.869 -24.607  1.00  0.00    -0.302 OA
ENDBRANCH   8  44
TORSDOF 18
ENDMDL
MODEL 2
REMARK minimizedAffinity -8.94251823
REMARK CNNscore 0.432062864
REMARK CNNaffinity 7.13660955
REMARK  18 active torsions:
REMARK  status: ('A' for Active; 'I' for Inactive)
REMARK    1  A    between atoms: C2_2  and  C3_3 
REMARK    2  A    between atoms: C2_2  and  C29_35 
REMARK    3  A    between atoms: C4_4  and  C5_5 
REMARK    4  A    between atoms: C6_6  and  C7_7 
REMARK    5  A    between atoms: C6_6  and  C8_9 
REMARK    6  A    between atoms: C7_7  and  O1_8 
REMARK    7  A    between atoms: C12_13  and  O2_14 
REMARK    8  A    between atoms: C13_15  and  C14_16 
REMARK    9  A    between atoms: C14_16  and  C15_17 
REMARK   10  A    between atoms: C15_17  and  C16_18 
REMARK   11  A    between atoms: C16_18  and  O3_19 
REMARK   12  A    between atoms: C18_21  and  C19_22 
REMARK   13  A    between atoms: C25_29  and  O5_30 
REMARK   14  A    between atoms: C25_29  and  C26_31 
REMARK   15  A    between atoms: C26_31  and  C27_32 
REMARK   16  A    between atoms: C27_32  and  N1_33 
REMARK   17  A    between atoms: C29_35  and  C30_36 
REMARK   18  A    between atoms: C30_36  and  C31_37 
ROOT
HETATM    1  C8  UNL     1      -3.345  48.452 -21.677  1.00  0.00     0.046 C 
HETATM    2  C9  UNL     1      -2.014  47.759 -21.379  1.00  0.00     0.013 C 
HETATM    3  C10 UNL     1      -1.156  48.850 -20.715  1.00  0.00     0.017 C 
HETATM    4  C11 UNL     1      -2.135  49.981 -20.204  1.00  0.00     0.025 C 
HETATM    5  C12 UNL     1      -3.540  49.310 -20.404  1.00  0.00     0.138 C 
HETATM    6  C13 UNL     1      -1.949  51.208 -21.243  1.00  0.00     0.029 C 
HETATM    7  C17 UNL     1      -0.679  52.052 -21.039  1.00  0.00    -0.061 C 
HETATM    8  C18 UNL     1       0.104  52.527 -22.043  1.00  0.00    -0.017 C 
HETATM    9  C20 UNL     1       1.301  53.422 -21.816  1.00  0.00     0.042 C 
HETATM   10  C21 UNL     1       1.333  54.051 -20.430  1.00  0.00     0.005 C 
HETATM   11  C22 UNL     1       1.052  52.995 -19.381  1.00  0.00     0.009 C 
HETATM   12  C23 UNL     1      -0.342  52.366 -19.585  1.00  0.00     0.018 C 
HETATM   13  C24 UNL     1      -0.435  51.128 -18.683  1.00  0.00     0.047 C 
HETATM   14  C25 UNL     1      -1.808  50.432 -18.722  1.00  0.00     0.071 C 
ENDROOT
BRANCH   5  15
HETATM   15  O2  UNL     1      -3.859  48.497 -19.282  1.00  0.00    -0.394 OA
HETATM   16  H15 UNL     1      -4.625  47.930 -19.515  1.00  0.00     0.210 HD
ENDBRANCH   5  15
BRANCH   6  17
HETATM   17  C14 UNL     1      -3.169  52.099 -21.633  1.00  0.00     0.012 C 
BRANCH  17  18
HETATM   18  C15 UNL     1      -3.685  52.084 -23.066  1.00  0.00     0.027 C 
BRANCH  18  19
HETATM   19  C16 UNL     1      -5.195  51.848 -23.111  1.00  0.00     0.164 C 
BRANCH  19  20
HETATM   20  O3  UNL     1      -5.670  51.966 -24.446  1.00  0.00    -0.401 OA
HETATM   21  H23 UNL     1      -5.298  52.780 -24.826  1.00  0.00     0.209 HD
ENDBRANCH  19  20
ENDBRANCH  18  19
ENDBRANCH  17  18
ENDBRANCH   6  17
BRANCH  14  22
HETATM   22  O5  UNL     1      -2.773  51.449 -18.366  1.00  0.00    -0.389 OA
HETATM   23  H34 UNL     1      -3.613  50.987 -18.191  1.00  0.00     0.210 HD
ENDBRANCH  14  22
BRANCH  14  24
HETATM   24  C26 UNL     1      -1.908  49.437 -17.513  1.00  0.00     0.068 C 
BRANCH  24  25
HETATM   25  C27 UNL     1      -2.018  49.913 -16.063  1.00  0.00     0.272 C 
BRANCH  25  26
HETATM   26  N1  UNL     1      -3.290  50.532 -15.685  1.00  0.00     0.079 N 
HETATM   27  C28 UNL     1      -3.172  51.374 -14.500  1.00  0.00     0.306 C 
HETATM   28  H39 UNL     1      -3.607  51.115 -16.461  1.00  0.00     0.315 HD
ENDBRANCH  25  26
ENDBRANCH  24  25
ENDBRANCH  14  24
BRANCH   1  29
HETATM   29  C6  UNL     1      -4.506  47.579 -22.149  1.00  0.00    -0.050 C 
HETATM   30  C5  UNL     1      -5.066  47.663 -23.378  1.00  0.00     0.005 C 
BRANCH  30  31
HETATM   31  C4  UNL     1      -4.744  48.604 -24.432  1.00  0.00     0.001 C 
HETATM   32  C3  UNL     1      -3.834  48.357 -25.389  1.00  0.00     0.006 C 
BRANCH  32  33
HETATM   33  C2  UNL     1      -3.472  49.252 -26.485  1.00  0.00    -0.067 C 
HETATM   34  C1  UNL     1      -3.872  48.958 -27.736  1.00  0.00     0.019 C 
BRANCH  33  35
HETATM   35  C29 UNL     1      -2.688  50.528 -26.221  1.00  0.00     0.041 C 
BRANCH  35  36
HETATM   36  C30 UNL     1      -1.579  50.822 -27.246  1.00  0.00     0.032 C 
BRANCH  36  37
HETATM   37  C31 UNL     1      -0.199  50.780 -26.644  1.00  0.00    -0.024 C 
HETATM   38  C32 UNL     1       0.927  51.367 -27.097  1.00  0.00    -0.091 C 
HETATM   39  C33 UNL     1       1.036  52.219 -28.333  1.00  0.00     0.042 C 
HETATM   40  C34 UNL     1       2.225  51.209 -26.349  1.00  0.00     0.042 C 
ENDBRANCH  36  37
ENDBRANCH  35  36
ENDBRANCH  33  35
ENDBRANCH  32  33
ENDBRANCH  30  31
BRANCH  29  41
HETATM   41  C7  UNL     1      -5.054  46.548 -21.196  1.00  0.00     0.198 C 
BRANCH  41  42
HETATM   42  O1  UNL     1      -3.992  45.656 -20.877  1.00  0.00    -0.397 OA
HETATM   43  H8  UNL     1      -3.447  46.112 -20.210  1.00  0.00     0.209 HD
ENDBRANCH  41  42
ENDBRANCH  29  41
ENDBRANCH   1  29
BRANCH   8  44
HETATM   44  C19 UNL     1      -0.150  52.261 -23.496  1.00  0.00     0.265 C 
HETATM   45  O4  UNL     1      -0.492  53.135 -24.285  1.00  0.00    -0.302 OA
ENDBRANCH   8  44
TORSDOF 18
ENDMDL
MODEL 3
REMARK minimizedAffinity -7.28154659
REMARK CNNscore 0.393306077
REMARK CNNaffinity 7.0566268
REMARK  18 active torsions:
REMARK  status: ('A' for Active; 'I' for Inactive)
REMARK    1  A    between atoms: C2_2  and  C3_3 
REMARK    2  A    between atoms: C2_2  and  C29_35 
REMARK    3  A    between atoms: C4_4  and  C5_5 
REMARK    4  A    between atoms: C6_6  and  C7_7 
REMARK    5  A    between atoms: C6_6  and  C8_9 
REMARK    6  A    between atoms: C7_7  and  O1_8 
REMARK    7  A    between atoms: C12_13  and  O2_14 
REMARK    8  A    between atoms: C13_15  and  C14_16 
REMARK    9  A    between atoms: C14_16  and  C15_17 
REMARK   10  A    between atoms: C15_17  and  C16_18 
REMARK   11  A    between atoms: C16_18  and  O3_19 
REMARK   12  A    between atoms: C18_21  and  C19_22 
REMARK   13  A    between atoms: C25_29  and  O5_30 
REMARK   14  A    between atoms: C25_29  and  C26_31 
REMARK   15  A    between atoms: C26_31  and  C27_32 
REMARK   16  A    between atoms: C27_32  and  N1_33 
REMARK   17  A    between atoms: C29_35  and  C30_36 
REMARK   18  A    between atoms: C30_36  and  C31_37 
ROOT
HETATM    1  C8  UNL     1      -1.206  49.200 -15.879  1.00  0.00     0.046 C 
HETATM    2  C9  UNL     1      -1.303  48.193 -14.731  1.00  0.00     0.013 C 
HETATM    3  C10 UNL     1      -0.782  48.962 -13.505  1.00  0.00     0.017 C 
HETATM    4  C11 UNL     1      -0.852  50.504 -13.843  1.00  0.00     0.025 C 
HETATM    5  C12 UNL     1      -1.664  50.506 -15.186  1.00  0.00     0.138 C 
HETATM    6  C13 UNL     1       0.680  50.951 -14.116  1.00  0.00     0.029 C 
HETATM    7  C17 UNL     1       1.538  51.147 -12.854  1.00  0.00    -0.061 C 
HETATM    8  C18 UNL     1       2.832  50.752 -12.730  1.00  0.00    -0.017 C 
HETATM    9  C20 UNL     1       3.677  51.030 -11.507  1.00  0.00     0.042 C 
HETATM   10  C21 UNL     1       3.093  52.103 -10.599  1.00  0.00     0.005 C 
HETATM   11  C22 UNL     1       1.618  51.837 -10.374  1.00  0.00     0.009 C 
HETATM   12  C23 UNL     1       0.839  51.866 -11.705  1.00  0.00     0.018 C 
HETATM   13  C24 UNL     1      -0.566  51.310 -11.437  1.00  0.00     0.047 C 
HETATM   14  C25 UNL     1      -1.494  51.347 -12.667  1.00  0.00     0.071 C 
ENDROOT
BRANCH   5  15
HETATM   15  O2  UNL     1      -3.059  50.480 -14.916  1.00  0.00    -0.394 OA
HETATM   16  H15 UNL     1      -3.534  50.269 -15.749  1.00  0.00     0.210 HD
ENDBRANCH   5  15
BRANCH   6  17
HETATM   17  C14 UNL     1       1.003  52.026 -15.198  1.00  0.00     0.012 C 
BRANCH  17  18
HETATM   18  C15 UNL     1       1.948  51.682 -16.342  1.00  0.00     0.027 C 
BRANCH  18  19
HETATM   19  C16 UNL     1       2.999  52.774 -16.544  1.00  0.00     0.164 C 
BRANCH  19  20
HETATM   20  O3  UNL     1       4.299  52.253 -16.304  1.00  0.00    -0.401 OA
HETATM   21  H23 UNL     1       4.275  51.758 -15.468  1.00  0.00     0.209 HD
ENDBRANCH  19  20
ENDBRANCH  18  19
ENDBRANCH  17  18
ENDBRANCH   6  17
BRANCH  14  22
HETATM   22  O5  UNL     1      -1.517  52.727 -13.098  1.00  0.00    -0.389 OA
HETATM   23  H34 UNL     1      -2.245  52.805 -13.742  1.00  0.00     0.210 HD
ENDBRANCH  14  22
BRANCH  14  24
HETATM   24  C26 UNL     1      -2.972  51.118 -12.195  1.00  0.00     0.068 C 
BRANCH  24  25
HETATM   25  C27 UNL     1      -4.001  52.249 -12.133  1.00  0.00     0.272 C 
BRANCH  25  26
HETATM   26  N1  UNL     1      -4.433  52.651 -10.793  1.00  0.00     0.079 N 
HETATM   27  C28 UNL     1      -3.440  53.468 -10.106  1.00  0.00     0.306 C 
HETATM   28  H39 UNL     1      -5.291  53.197 -10.882  1.00  0.00     0.315 HD
ENDBRANCH  25  26
ENDBRANCH  24  25
ENDBRANCH  14  24
BRANCH   1  29
HETATM   29  C6  UNL     1      -1.851  48.819 -17.210  1.00  0.00    -0.050 C 
HETATM   30  C5  UNL     1      -1.547  49.400 -18.394  1.00  0.00     0.005 C 
BRANCH  30  31
HETATM   31  C4  UNL     1      -0.639  50.505 -18.627  1.00  0.00     0.001 C 
HETATM   32  C3  UNL     1      -0.665  51.260 -19.738  1.00  0.00     0.006 C 
BRANCH  32  33
HETATM   33  C2  UNL     1       0.209  52.393 -20.031  1.00  0.00    -0.067 C 
HETATM   34  C1  UNL     1       0.368  53.358 -19.107  1.00  0.00     0.019 C 
BRANCH  33  35
HETATM   35  C29 UNL     1       0.969  52.470 -21.345  1.00  0.00     0.041 C 
BRANCH  35  36
HETATM   36  C30 UNL     1       0.082  52.669 -22.587  1.00  0.00     0.032 C 
BRANCH  36  37
HETATM   37  C31 UNL     1       0.606  51.951 -23.803  1.00  0.00    -0.024 C 
HETATM   38  C32 UNL     1       0.620  52.378 -25.082  1.00  0.00    -0.091 C 
HETATM   39  C33 UNL     1       0.106  53.705 -25.570  1.00  0.00     0.042 C 
HETATM   40  C34 UNL     1       1.193  51.508 -26.171  1.00  0.00     0.042 C 
ENDBRANCH  36  37
ENDBRANCH  35  36
ENDBRANCH  33  35
ENDBRANCH  32  33
ENDBRANCH  30  31
BRANCH  29  41
HETATM   41  C7  UNL     1      -2.879  47.716 -17.212  1.00  0.00     0.198 C 
BRANCH  41  42
HETATM   42  O1  UNL     1      -4.116  48.287 -16.801  1.00  0.00    -0.397 OA
HETATM   43  H8  UNL     1      -4.476  48.744 -17.583  1.00  0.00     0.209 HD
ENDBRANCH  41  42
ENDBRANCH  29  41
ENDBRANCH   1  29
BRANCH   8  44
HETATM   44  C19 UNL     1       3.592  50.035 -13.804  1.00  0.00     0.265 C 
HETATM   45  O4  UNL     1       4.729  49.603 -13.644  1.00  0.00    -0.302 OA
ENDBRANCH   8  44
TORSDOF 18
ENDMDL
MODEL 4
REMARK minimizedAffinity -6.51387882
REMARK CNNscore 0.347586721
REMARK CNNaffinity 6.12855673
REMARK  18 active torsions:
REMARK  status: ('A' for Active; 'I' for Inactive)
REMARK    1  A    between atoms: C2_2  and  C3_3 
REMARK    2  A    between atoms: C2_2  and  C29_35 
REMARK    3  A    between atoms: C4_4  and  C5_5 
REMARK    4  A    between atoms: C6_6  and  C7_7 
REMARK    5  A    between atoms: C6_6  and  C8_9 
REMARK    6  A    between atoms: C7_7  and  O1_8 
REMARK    7  A    between atoms: C12_13  and  O2_14 
REMARK    8  A    between atoms: C13_15  and  C14_16 
REMARK    9  A    between atoms: C14_16  and  C15_17 
REMARK   10  A    between atoms: C15_17  and  C16_18 
REMARK   11  A    between atoms: C16_18  and  O3_19 
REMARK   12  A    between atoms: C18_21  and  C19_22 
REMARK   13  A    between atoms: C25_29  and  O5_30 
REMARK   14  A    between atoms: C25_29  and  C26_31 
REMARK   15  A    between atoms: C26_31  and  C27_32 
REMARK   16  A    between atoms: C27_32  and  N1_33 
REMARK   17  A    between atoms: C29_35  and  C30_36 
REMARK   18  A    between atoms: C30_36  and  C31_37 
ROOT
HETATM    1  C8  UNL     1      -6.874  46.063 -31.363  1.00  0.00     0.046 C 
HETATM    2  C9  UNL     1      -6.137  44.722 -31.349  1.00  0.00     0.013 C 
HETATM    3  C10 UNL     1      -7.257  43.673 -31.234  1.00  0.00     0.017 C 
HETATM    4  C11 UNL     1      -8.608  44.369 -31.667  1.00  0.00     0.025 C 
HETATM    5  C12 UNL     1      -8.099  45.734 -32.249  1.00  0.00     0.138 C 
HETATM    6  C13 UNL     1      -9.421  44.617 -30.290  1.00  0.00     0.029 C 
HETATM    7  C17 UNL     1     -10.113  43.373 -29.705  1.00  0.00    -0.061 C 
HETATM    8  C18 UNL     1     -10.150  43.058 -28.384  1.00  0.00    -0.017 C 
HETATM    9  C20 UNL     1     -10.905  41.872 -27.829  1.00  0.00     0.042 C 
HETATM   10  C21 UNL     1     -11.920  41.291 -28.803  1.00  0.00     0.005 C 
HETATM   11  C22 UNL     1     -11.283  41.126 -30.168  1.00  0.00     0.009 C 
HETATM   12  C23 UNL     1     -10.811  42.484 -30.729  1.00  0.00     0.018 C 
HETATM   13  C24 UNL     1      -9.933  42.205 -31.956  1.00  0.00     0.047 C 
HETATM   14  C25 UNL     1      -9.445  43.478 -32.673  1.00  0.00     0.071 C 
ENDROOT
BRANCH   5  15
HETATM   15  O2  UNL     1      -7.719  45.576 -33.610  1.00  0.00    -0.394 OA
HETATM   16  H15 UNL     1      -7.214  46.371 -33.887  1.00  0.00     0.210 HD
ENDBRANCH   5  15
BRANCH   6  17
HETATM   17  C14 UNL     1     -10.302  45.893 -30.117  1.00  0.00     0.012 C 
BRANCH  17  18
HETATM   18  C15 UNL     1     -10.190  47.027 -31.128  1.00  0.00     0.027 C 
BRANCH  18  19
HETATM   19  C16 UNL     1      -9.908  48.362 -30.438  1.00  0.00     0.164 C 
BRANCH  19  20
HETATM   20  O3  UNL     1      -9.803  48.176 -29.033  1.00  0.00    -0.401 OA
HETATM   21  H23 UNL     1     -10.559  47.636 -28.745  1.00  0.00     0.209 HD
ENDBRANCH  19  20
ENDBRANCH  18  19
ENDBRANCH  17  18
ENDBRANCH   6  17
BRANCH  14  22
HETATM   22  O5  UNL     1     -10.640  44.222 -33.005  1.00  0.00    -0.389 OA
HETATM   23  H34 UNL     1     -10.368  44.921 -33.628  1.00  0.00     0.210 HD
ENDBRANCH  14  22
BRANCH  14  24
HETATM   24  C26 UNL     1      -8.892  43.084 -34.088  1.00  0.00     0.068 C 
BRANCH  24  25
HETATM   25  C27 UNL     1      -8.155  41.769 -34.345  1.00  0.00     0.272 C 
BRANCH  25  26
HETATM   26  N1  UNL     1      -8.112  41.319 -35.739  1.00  0.00     0.079 N 
HETATM   27  C28 UNL     1      -9.173  41.906 -36.549  1.00  0.00     0.306 C 
HETATM   28  H39 UNL     1      -7.214  41.596 -36.138  1.00  0.00     0.315 HD
ENDBRANCH  25  26
ENDBRANCH  24  25
ENDBRANCH  14  24
BRANCH   1  29
HETATM   29  C6  UNL     1      -6.058  47.314 -31.685  1.00  0.00    -0.050 C 
HETATM   30  C5  UNL     1      -5.328  47.997 -30.773  1.00  0.00     0.005 C 
BRANCH  30  31
HETATM   31  C4  UNL     1      -5.226  47.740 -29.351  1.00  0.00     0.001 C 
HETATM   32  C3  UNL     1      -4.585  48.555 -28.498  1.00  0.00     0.006 C 
BRANCH  32  33
HETATM   33  C2  UNL     1      -4.456  48.364 -27.055  1.00  0.00    -0.067 C 
HETATM   34  C1  UNL     1      -5.551  48.075 -26.328  1.00  0.00     0.019 C 
BRANCH  33  35
HETATM   35  C29 UNL     1      -3.097  48.447 -26.378  1.00  0.00     0.041 C 
BRANCH  35  36
HETATM   36  C30 UNL     1      -3.153  48.620 -24.850  1.00  0.00     0.032 C 
BRANCH  36  37
HETATM   37  C31 UNL     1      -2.598  49.943 -24.390  1.00  0.00    -0.024 C 
HETATM   38  C32 UNL     1      -1.979  50.229 -23.227  1.00  0.00    -0.091 C 
HETATM   39  C33 UNL     1      -1.698  49.250 -22.119  1.00  0.00     0.042 C 
HETATM   40  C34 UNL     1      -1.489  51.626 -22.946  1.00  0.00     0.042 C 
ENDBRANCH  36  37
ENDBRANCH  35  36
ENDBRANCH  33  35
ENDBRANCH  32  33
ENDBRANCH  30  31
BRANCH  29  41
HETATM   41  C7  UNL     1      -6.052  47.812 -33.107  1.00  0.00     0.198 C 
BRANCH  41  42
HETATM   42  O1  UNL     1      -5.081  47.054 -33.819  1.00  0.00    -0.397 OA
HETATM   43  H8  UNL     1      -5.505  46.200 -34.027  1.00  0.00     0.209 HD
ENDBRANCH  41  42
ENDBRANCH  29  41
ENDBRANCH   1  29
BRANCH   8  44
HETATM   44  C19 UNL     1      -9.486  43.871 -27.314  1.00  0.00     0.265 C 
HETATM   45  O4  UNL     1      -8.270  43.911 -27.164  1.00  0.00    -0.302 OA
ENDBRANCH   8  44
TORSDOF 18
ENDMDL
MODEL 5
REMARK minimizedAffinity -6.71343994
REMARK CNNscore 0.340608299
REMARK CNNaffinity 6.67182207
REMARK  18 active torsions:
REMARK  status: ('A' for Active; 'I' for Inactive)
REMARK    1  A    between atoms: C2_2  and  C3_3 
REMARK    2  A    between atoms: C2_2  and  C29_35 
REMARK    3  A    between atoms: C4_4  and  C5_5 
REMARK    4  A    between atoms: C6_6  and  C7_7 
REMARK    5  A    between atoms: C6_6  and  C8_9 
REMARK    6  A    between atoms: C7_7  and  O1_8 
REMARK    7  A    between atoms: C12_13  and  O2_14 
REMARK    8  A    between atoms: C13_15  and  C14_16 
REMARK    9  A    between atoms: C14_16  and  C15_17 
REMARK   10  A    between atoms: C15_17  and  C16_18 
REMARK   11  A    between atoms: C16_18  and  O3_19 
REMARK   12  A    between atoms: C18_21  and  C19_22 
REMARK   13  A    between atoms: C25_29  and  O5_30 
REMARK   14  A    between atoms: C25_29  and  C26_31 
REMARK   15  A    between atoms: C26_31  and  C27_32 
REMARK   16  A    between atoms: C27_32  and  N1_33 
REMARK   17  A    between atoms: C29_35  and  C30_36 
REMARK   18  A    between atoms: C30_36  and  C31_37 
ROOT
HETATM    1  C8  UNL     1       2.992  50.990 -10.622  1.00  0.00     0.046 C 
HETATM    2  C9  UNL     1       2.288  49.644 -10.808  1.00  0.00     0.013 C 
HETATM    3  C10 UNL     1       0.933  50.006 -11.438  1.00  0.00     0.017 C 
HETATM    4  C11 UNL     1       1.061  51.459 -12.045  1.00  0.00     0.025 C 
HETATM    5  C12 UNL     1       2.604  51.725 -11.927  1.00  0.00     0.138 C 
HETATM    6  C13 UNL     1       0.250  52.420 -11.027  1.00  0.00     0.029 C 
HETATM    7  C17 UNL     1      -1.282  52.373 -11.164  1.00  0.00    -0.061 C 
HETATM    8  C18 UNL     1      -2.152  52.375 -10.120  1.00  0.00    -0.017 C 
HETATM    9  C20 UNL     1      -3.655  52.409 -10.285  1.00  0.00     0.042 C 
HETATM   10  C21 UNL     1      -4.101  52.822 -11.681  1.00  0.00     0.005 C 
HETATM   11  C22 UNL     1      -3.309  52.054 -12.720  1.00  0.00     0.009 C 
HETATM   12  C23 UNL     1      -1.800  52.348 -12.598  1.00  0.00     0.018 C 
HETATM   13  C24 UNL     1      -1.052  51.333 -13.472  1.00  0.00     0.047 C 
HETATM   14  C25 UNL     1       0.473  51.551 -13.512  1.00  0.00     0.071 C 
ENDROOT
BRANCH   5  15
HETATM   15  O2  UNL     1       3.284  51.173 -13.047  1.00  0.00    -0.394 OA
HETATM   16  H15 UNL     1       4.246  51.162 -12.853  1.00  0.00     0.210 HD
ENDBRANCH   5  15
BRANCH   6  17
HETATM   17  C14 UNL     1       0.752  53.870 -10.747  1.00  0.00     0.012 C 
BRANCH  17  18
HETATM   18  C15 UNL     1      -0.240  54.937 -10.302  1.00  0.00     0.027 C 
BRANCH  18  19
HETATM   19  C16 UNL     1       0.269  55.693  -9.074  1.00  0.00     0.164 C 
BRANCH  19  20
HETATM   20  O3  UNL     1      -0.452  55.290  -7.917  1.00  0.00    -0.401 OA
HETATM   21  H23 UNL     1      -1.400  55.305  -8.133  1.00  0.00     0.209 HD
ENDBRANCH  19  20
ENDBRANCH  18  19
ENDBRANCH  17  18
ENDBRANCH   6  17
BRANCH  14  22
HETATM   22  O5  UNL     1       0.662  52.912 -13.960  1.00  0.00    -0.389 OA
HETATM   23  H34 UNL     1       1.607  53.004 -14.182  1.00  0.00     0.210 HD
ENDBRANCH  14  22
BRANCH  14  24
HETATM   24  C26 UNL     1       1.074  50.720 -14.699  1.00  0.00     0.068 C 
BRANCH  24  25
HETATM   25  C27 UNL     1       1.476  51.359 -16.029  1.00  0.00     0.272 C 
BRANCH  25  26
HETATM   26  N1  UNL     1       0.386  51.622 -16.971  1.00  0.00     0.079 N 
HETATM   27  C28 UNL     1       0.781  52.523 -18.047  1.00  0.00     0.306 C 
HETATM   28  H39 UNL     1       0.098  50.736 -17.386  1.00  0.00     0.315 HD
ENDBRANCH  25  26
ENDBRANCH  24  25
ENDBRANCH  14  24
BRANCH   1  29
HETATM   29  C6  UNL     1       4.463  50.968 -10.209  1.00  0.00    -0.050 C 
HETATM   30  C5  UNL     1       5.093  51.995  -9.595  1.00  0.00     0.005 C 
BRANCH  30  31
HETATM   31  C4  UNL     1       4.549  53.301  -9.277  1.00  0.00     0.001 C 
HETATM   32  C3  UNL     1       4.607  54.348 -10.116  1.00  0.00     0.006 C 
BRANCH  32  33
HETATM   33  C2  UNL     1       4.069  55.683  -9.866  1.00  0.00    -0.067 C 
HETATM   34  C1  UNL     1       3.511  56.369 -10.879  1.00  0.00     0.019 C 
BRANCH  33  35
HETATM   35  C29 UNL     1       4.097  56.283  -8.469  1.00  0.00     0.041 C 
BRANCH  35  36
HETATM   36  C30 UNL     1       5.494  56.338  -7.824  1.00  0.00     0.032 C 
BRANCH  36  37
HETATM   37  C31 UNL     1       5.596  57.376  -6.737  1.00  0.00    -0.024 C 
HETATM   38  C32 UNL     1       6.536  57.489  -5.778  1.00  0.00    -0.091 C 
HETATM   39  C33 UNL     1       7.720  56.577  -5.597  1.00  0.00     0.042 C 
HETATM   40  C34 UNL     1       6.468  58.606  -4.769  1.00  0.00     0.042 C 
ENDBRANCH  36  37
ENDBRANCH  35  36
ENDBRANCH  33  35
ENDBRANCH  32  33
ENDBRANCH  30  31
BRANCH  29  41
HETATM   41  C7  UNL     1       5.260  49.720 -10.489  1.00  0.00     0.198 C 
BRANCH  41  42
HETATM   42  O1  UNL     1       5.636  49.753 -11.861  1.00  0.00    -0.397 OA
HETATM   43  H8  UNL     1       6.398  50.358 -11.918  1.00  0.00     0.209 HD
ENDBRANCH  41  42
ENDBRANCH  29  41
ENDBRANCH   1  29
BRANCH   8  44
HETATM   44  C19 UNL     1      -1.730  52.392  -8.682  1.00  0.00     0.265 C 
HETATM   45  O4  UNL     1      -1.830  51.416  -7.946  1.00  0.00    -0.302 OA
ENDBRANCH   8  44
TORSDOF 18
ENDMDL
MODEL 6
REMARK minimizedAffinity -7.37170982
REMARK CNNscore 0.312428206
REMARK CNNaffinity 6.36828756
REMARK  18 active torsions:
REMARK  status: ('A' for Active; 'I' for Inactive)
REMARK    1  A    between atoms: C2_2  and  C3_3 
REMARK    2  A    between atoms: C2_2  and  C29_35 
REMARK    3  A    between atoms: C4_4  and  C5_5 
REMARK    4  A    between atoms: C6_6  and  C7_7 
REMARK    5  A    between atoms: C6_6  and  C8_9 
REMARK    6  A    between atoms: C7_7  and  O1_8 
REMARK    7  A    between atoms: C12_13  and  O2_14 
REMARK    8  A    between atoms: C13_15  and  C14_16 
REMARK    9  A    between atoms: C14_16  and  C15_17 
REMARK   10  A    between atoms: C15_17  and  C16_18 
REMARK   11  A    between atoms: C16_18  and  O3_19 
REMARK   12  A    between atoms: C18_21  and  C19_22 
REMARK   13  A    between atoms: C25_29  and  O5_30 
REMARK   14  A    between atoms: C25_29  and  C26_31 
REMARK   15  A    between atoms: C26_31  and  C27_32 
REMARK   16  A    between atoms: C27_32  and  N1_33 
REMARK   17  A    between atoms: C29_35  and  C30_36 
REMARK   18  A    between atoms: C30_36  and  C31_37 
ROOT
HETATM    1  C8  UNL     1      -6.952  47.355 -29.028  1.00  0.00     0.046 C 
HETATM    2  C9  UNL     1      -6.984  46.509 -27.754  1.00  0.00     0.013 C 
HETATM    3  C10 UNL     1      -8.273  45.678 -27.879  1.00  0.00     0.017 C 
HETATM    4  C11 UNL     1      -8.701  45.689 -29.401  1.00  0.00     0.025 C 
HETATM    5  C12 UNL     1      -7.448  46.340 -30.086  1.00  0.00     0.138 C 
HETATM    6  C13 UNL     1      -9.967  46.693 -29.481  1.00  0.00     0.029 C 
HETATM    7  C17 UNL     1     -11.301  46.105 -28.990  1.00  0.00    -0.061 C 
HETATM    8  C18 UNL     1     -12.214  46.778 -28.241  1.00  0.00    -0.017 C 
HETATM    9  C20 UNL     1     -13.553  46.202 -27.840  1.00  0.00     0.042 C 
HETATM   10  C21 UNL     1     -13.951  44.976 -28.649  1.00  0.00     0.005 C 
HETATM   11  C22 UNL     1     -12.783  44.015 -28.731  1.00  0.00     0.009 C 
HETATM   12  C23 UNL     1     -11.572  44.670 -29.428  1.00  0.00     0.018 C 
HETATM   13  C24 UNL     1     -10.358  43.755 -29.218  1.00  0.00     0.047 C 
HETATM   14  C25 UNL     1      -9.081  44.244 -29.926  1.00  0.00     0.071 C 
ENDROOT
BRANCH   5  15
HETATM   15  O2  UNL     1      -6.462  45.350 -30.348  1.00  0.00    -0.394 OA
HETATM   16  H15 UNL     1      -5.620  45.801 -30.575  1.00  0.00     0.210 HD
ENDBRANCH   5  15
BRANCH   6  17
HETATM   17  C14 UNL     1     -10.171  47.600 -30.734  1.00  0.00     0.012 C 
BRANCH  17  18
HETATM   18  C15 UNL     1     -10.625  46.977 -32.048  1.00  0.00     0.027 C 
BRANCH  18  19
HETATM   19  C16 UNL     1      -9.520  47.034 -33.103  1.00  0.00     0.164 C 
BRANCH  19  20
HETATM   20  O3  UNL     1      -9.512  45.839 -33.871  1.00  0.00    -0.401 OA
HETATM   21  H23 UNL     1      -9.551  45.086 -33.255  1.00  0.00     0.209 HD
ENDBRANCH  19  20
ENDBRANCH  18  19
ENDBRANCH  17  18
ENDBRANCH   6  17
BRANCH  14  22
HETATM   22  O5  UNL     1      -9.435  44.381 -31.321  1.00  0.00    -0.389 OA
HETATM   23  H34 UNL     1      -8.600  44.494 -31.812  1.00  0.00     0.210 HD
ENDBRANCH  14  22
BRANCH  14  24
HETATM   24  C26 UNL     1      -8.037  43.073 -29.959  1.00  0.00     0.068 C 
BRANCH  24  25
HETATM   25  C27 UNL     1      -7.652  42.351 -31.250  1.00  0.00     0.272 C 
BRANCH  25  26
HETATM   26  N1  UNL     1      -6.244  42.447 -31.644  1.00  0.00     0.079 N 
HETATM   27  C28 UNL     1      -6.078  42.683 -33.074  1.00  0.00     0.306 C 
HETATM   28  H39 UNL     1      -5.822  43.228 -31.140  1.00  0.00     0.315 HD
ENDBRANCH  25  26
ENDBRANCH  24  25
ENDBRANCH  14  24
BRANCH   1  29
HETATM   29  C6  UNL     1      -5.678  48.145 -29.320  1.00  0.00    -0.050 C 
HETATM   30  C5  UNL     1      -4.724  48.411 -28.398  1.00  0.00     0.005 C 
BRANCH  30  31
HETATM   31  C4  UNL     1      -4.742  48.079 -26.987  1.00  0.00     0.001 C 
HETATM   32  C3  UNL     1      -4.185  48.852 -26.041  1.00  0.00     0.006 C 
BRANCH  32  33
HETATM   33  C2  UNL     1      -4.178  48.584 -24.604  1.00  0.00    -0.067 C 
HETATM   34  C1  UNL     1      -5.341  48.333 -23.975  1.00  0.00     0.019 C 
BRANCH  33  35
HETATM   35  C29 UNL     1      -2.873  48.546 -23.826  1.00  0.00     0.041 C 
BRANCH  35  36
HETATM   36  C30 UNL     1      -2.770  49.586 -22.696  1.00  0.00     0.032 C 
BRANCH  36  37
HETATM   37  C31 UNL     1      -1.778  50.679 -22.995  1.00  0.00    -0.024 C 
HETATM   38  C32 UNL     1      -0.734  51.085 -22.244  1.00  0.00    -0.091 C 
HETATM   39  C33 UNL     1      -0.328  50.504 -20.917  1.00  0.00     0.042 C 
HETATM   40  C34 UNL     1       0.154  52.208 -22.716  1.00  0.00     0.042 C 
ENDBRANCH  36  37
ENDBRANCH  35  36
ENDBRANCH  33  35
ENDBRANCH  32  33
ENDBRANCH  30  31
BRANCH  29  41
HETATM   41  C7  UNL     1      -5.460  48.648 -30.724  1.00  0.00     0.198 C 
BRANCH  41  42
HETATM   42  O1  UNL     1      -4.621  49.795 -30.640  1.00  0.00    -0.397 OA
HETATM   43  H8  UNL     1      -3.713  49.458 -30.525  1.00  0.00     0.209 HD
ENDBRANCH  41  42
ENDBRANCH  29  41
ENDBRANCH   1  29
BRANCH   8  44
HETATM   44  C19 UNL     1     -12.025  48.185 -27.762  1.00  0.00     0.265 C 
HETATM   45  O4  UNL     1     -12.116  48.507 -26.582  1.00  0.00    -0.302 OA
ENDBRANCH   8  44
TORSDOF 18
ENDMDL
MODEL 7
REMARK minimizedAffinity -6.28649807
REMARK CNNscore 0.297076821
REMARK CNNaffinity 5.91187859
REMARK  18 active torsions:
REMARK  status: ('A' for Active; 'I' for Inactive)
REMARK    1  A    between atoms: C2_2  and  C3_3 
REMARK    2  A    between atoms: C2_2  and  C29_35 
REMARK    3  A    between atoms: C4_4  and  C5_5 
REMARK    4  A    between atoms: C6_6  and  C7_7 
REMARK    5  A    between atoms: C6_6  and  C8_9 
REMARK    6  A    between atoms: C7_7  and  O1_8 
REMARK    7  A    between atoms: C12_13  and  O2_14 
REMARK    8  A    between atoms: C13_15  and  C14_16 
REMARK    9  A    between atoms: C14_16  and  C15_17 
REMARK   10  A    between atoms: C15_17  and  C16_18 
REMARK   11  A    between atoms: C16_18  and  O3_19 
REMARK   12  A    between atoms: C18_21  and  C19_22 
REMARK   13  A    between atoms: C25_29  and  O5_30 
REMARK   14  A    between atoms: C25_29  and  C26_31 
REMARK   15  A    between atoms: C26_31  and  C27_32 
REMARK   16  A    between atoms: C27_32  and  N1_33 
REMARK   17  A    between atoms: C29_35  and  C30_36 
REMARK   18  A    between atoms: C30_36  and  C31_37 
ROOT
HETATM    1  C8  UNL     1      -9.937  45.119 -27.093  1.00  0.00     0.046 C 
HETATM    2  C9  UNL     1      -8.787  44.231 -27.570  1.00  0.00     0.013 C 
HETATM    3  C10 UNL     1      -8.162  45.010 -28.740  1.00  0.00     0.017 C 
HETATM    4  C11 UNL     1      -8.629  46.515 -28.614  1.00  0.00     0.025 C 
HETATM    5  C12 UNL     1      -9.305  46.528 -27.197  1.00  0.00     0.138 C 
HETATM    6  C13 UNL     1      -9.747  46.714 -29.767  1.00  0.00     0.029 C 
HETATM    7  C17 UNL     1      -9.193  46.883 -31.192  1.00  0.00    -0.061 C 
HETATM    8  C18 UNL     1      -9.731  46.317 -32.304  1.00  0.00    -0.017 C 
HETATM    9  C20 UNL     1      -9.213  46.566 -33.703  1.00  0.00     0.042 C 
HETATM   10  C21 UNL     1      -8.301  47.780 -33.803  1.00  0.00     0.005 C 
HETATM   11  C22 UNL     1      -7.280  47.748 -32.684  1.00  0.00     0.009 C 
HETATM   12  C23 UNL     1      -7.967  47.784 -31.304  1.00  0.00     0.018 C 
HETATM   13  C24 UNL     1      -6.906  47.459 -30.244  1.00  0.00     0.047 C 
HETATM   14  C25 UNL     1      -7.430  47.532 -28.797  1.00  0.00     0.071 C 
ENDROOT
BRANCH   5  15
HETATM   15  O2  UNL     1      -8.324  46.724 -26.187  1.00  0.00    -0.394 OA
HETATM   16  H15 UNL     1      -8.727  46.520 -25.316  1.00  0.00     0.210 HD
ENDBRANCH   5  15
BRANCH   6  17
HETATM   17  C14 UNL     1     -10.975  47.643 -29.519  1.00  0.00     0.012 C 
BRANCH  17  18
HETATM   18  C15 UNL     1     -12.338  47.028 -29.229  1.00  0.00     0.027 C 
BRANCH  18  19
HETATM   19  C16 UNL     1     -12.866  47.461 -27.862  1.00  0.00     0.164 C 
BRANCH  19  20
HETATM   20  O3  UNL     1     -12.487  48.805 -27.593  1.00  0.00    -0.401 OA
HETATM   21  H23 UNL     1     -11.540  48.896 -27.794  1.00  0.00     0.209 HD
ENDBRANCH  19  20
ENDBRANCH  18  19
ENDBRANCH  17  18
ENDBRANCH   6  17
BRANCH  14  22
HETATM   22  O5  UNL     1      -7.975  48.862 -28.645  1.00  0.00    -0.389 OA
HETATM   23  H34 UNL     1      -8.127  48.994 -27.690  1.00  0.00     0.210 HD
ENDBRANCH  14  22
BRANCH  14  24
HETATM   24  C26 UNL     1      -6.207  47.556 -27.814  1.00  0.00     0.068 C 
BRANCH  24  25
HETATM   25  C27 UNL     1      -4.869  48.198 -28.182  1.00  0.00     0.272 C 
BRANCH  25  26
HETATM   26  N1  UNL     1      -4.270  49.064 -27.163  1.00  0.00     0.079 N 
HETATM   27  C28 UNL     1      -4.399  48.517 -25.817  1.00  0.00     0.306 C 
HETATM   28  H39 UNL     1      -3.277  49.168 -27.372  1.00  0.00     0.315 HD
ENDBRANCH  25  26
ENDBRANCH  24  25
ENDBRANCH  14  24
BRANCH   1  29
HETATM   29  C6  UNL     1     -10.637  44.731 -25.792  1.00  0.00    -0.050 C 
HETATM   30  C5  UNL     1     -11.871  44.178 -25.731  1.00  0.00     0.005 C 
BRANCH  30  31
HETATM   31  C4  UNL     1     -12.776  43.915 -26.832  1.00  0.00     0.001 C 
HETATM   32  C3  UNL     1     -14.113  43.968 -26.716  1.00  0.00     0.006 C 
BRANCH  32  33
HETATM   33  C2  UNL     1     -15.080  43.729 -27.785  1.00  0.00    -0.067 C 
HETATM   34  C1  UNL     1     -15.616  44.777 -28.436  1.00  0.00     0.019 C 
BRANCH  33  35
HETATM   35  C29 UNL     1     -15.454  42.313 -28.193  1.00  0.00     0.041 C 
BRANCH  35  36
HETATM   36  C30 UNL     1     -16.880  41.888 -27.801  1.00  0.00     0.032 C 
BRANCH  36  37
HETATM   37  C31 UNL     1     -17.894  42.182 -28.876  1.00  0.00    -0.024 C 
HETATM   38  C32 UNL     1     -18.893  43.086 -28.854  1.00  0.00    -0.091 C 
HETATM   39  C33 UNL     1     -19.203  44.026 -27.720  1.00  0.00     0.042 C 
HETATM   40  C34 UNL     1     -19.814  43.235 -30.038  1.00  0.00     0.042 C 
ENDBRANCH  36  37
ENDBRANCH  35  36
ENDBRANCH  33  35
ENDBRANCH  32  33
ENDBRANCH  30  31
BRANCH  29  41
HETATM   41  C7  UNL     1      -9.906  44.962 -24.495  1.00  0.00     0.198 C 
BRANCH  41  42
HETATM   42  O1  UNL     1      -9.350  43.716 -24.091  1.00  0.00    -0.397 OA
HETATM   43  H8  UNL     1      -8.544  43.594 -24.626  1.00  0.00     0.209 HD
ENDBRANCH  41  42
ENDBRANCH  29  41
ENDBRANCH   1  29
BRANCH   8  44
HETATM   44  C19 UNL     1     -10.928  45.416 -32.284  1.00  0.00     0.265 C 
HETATM   45  O4  UNL     1     -11.380  44.884 -33.293  1.00  0.00    -0.302 OA
ENDBRANCH   8  44
TORSDOF 18
ENDMDL
MODEL 8
REMARK minimizedAffinity -7.01441002
REMARK CNNscore 0.289483994
REMARK CNNaffinity 6.60389948
REMARK  18 active torsions:
REMARK  status: ('A' for Active; 'I' for Inactive)
REMARK    1  A    between atoms: C2_2  and  C3_3 
REMARK    2  A    between atoms: C2_2  and  C29_35 
REMARK    3  A    between atoms: C4_4  and  C5_5 
REMARK    4  A    between atoms: C6_6  and  C7_7 
REMARK    5  A    between atoms: C6_6  and  C8_9 
REMARK    6  A    between atoms: C7_7  and  O1_8 
REMARK    7  A    between atoms: C12_13  and  O2_14 
REMARK    8  A    between atoms: C13_15  and  C14_16 
REMARK    9  A    between atoms: C14_16  and  C15_17 
REMARK   10  A    between atoms: C15_17  and  C16_18 
REMARK   11  A    between atoms: C16_18  and  O3_19 
REMARK   12  A    between atoms: C18_21  and  C19_22 
REMARK   13  A    between atoms: C25_29  and  O5_30 
REMARK   14  A    between atoms: C25_29  and  C26_31 
REMARK   15  A    between atoms: C26_31  and  C27_32 
REMARK   16  A    between atoms: C27_32  and  N1_33 
REMARK   17  A    between atoms: C29_35  and  C30_36 
REMARK   18  A    between atoms: C30_36  and  C31_37 
ROOT
HETATM    1  C8  UNL     1      -2.048  51.583 -14.078  1.00  0.00     0.046 C 
HETATM    2  C9  UNL     1      -3.386  51.465 -14.811  1.00  0.00     0.013 C 
HETATM    3  C10 UNL     1      -3.048  50.689 -16.096  1.00  0.00     0.017 C 
HETATM    4  C11 UNL     1      -1.665  49.961 -15.865  1.00  0.00     0.025 C 
HETATM    5  C12 UNL     1      -1.432  50.186 -14.329  1.00  0.00     0.138 C 
HETATM    6  C13 UNL     1      -0.587  50.810 -16.723  1.00  0.00     0.029 C 
HETATM    7  C17 UNL     1      -0.605  50.547 -18.239  1.00  0.00    -0.061 C 
HETATM    8  C18 UNL     1      -0.476  51.507 -19.192  1.00  0.00    -0.017 C 
HETATM    9  C20 UNL     1      -0.417  51.210 -20.674  1.00  0.00     0.042 C 
HETATM   10  C21 UNL     1      -0.129  49.749 -20.987  1.00  0.00     0.005 C 
HETATM   11  C22 UNL     1      -1.016  48.859 -20.140  1.00  0.00     0.009 C 
HETATM   12  C23 UNL     1      -0.753  49.082 -18.636  1.00  0.00     0.018 C 
HETATM   13  C24 UNL     1      -1.870  48.375 -17.855  1.00  0.00     0.047 C 
HETATM   14  C25 UNL     1      -1.699  48.447 -16.326  1.00  0.00     0.071 C 
ENDROOT
BRANCH   5  15
HETATM   15  O2  UNL     1      -2.108  49.186 -13.579  1.00  0.00    -0.394 OA
HETATM   16  H15 UNL     1      -2.128  49.462 -12.637  1.00  0.00     0.210 HD
ENDBRANCH   5  15
BRANCH   6  17
HETATM   17  C14 UNL     1       0.869  50.994 -16.194  1.00  0.00     0.012 C 
BRANCH  17  18
HETATM   18  C15 UNL     1       1.396  52.396 -15.913  1.00  0.00     0.027 C 
BRANCH  18  19
HETATM   19  C16 UNL     1       2.580  52.737 -16.818  1.00  0.00     0.164 C 
BRANCH  19  20
HETATM   20  O3  UNL     1       3.790  52.264 -16.242  1.00  0.00    -0.401 OA
HETATM   21  H23 UNL     1       3.804  52.535 -15.308  1.00  0.00     0.209 HD
ENDBRANCH  19  20
ENDBRANCH  18  19
ENDBRANCH  17  18
ENDBRANCH   6  17
BRANCH  14  22
HETATM   22  O5  UNL     1      -0.394  47.890 -16.051  1.00  0.00    -0.389 OA
HETATM   23  H34 UNL     1      -0.350  47.743 -15.088  1.00  0.00     0.210 HD
ENDBRANCH  14  22
BRANCH  14  24
HETATM   24  C26 UNL     1      -2.658  47.400 -15.658  1.00  0.00     0.068 C 
BRANCH  24  25
HETATM   25  C27 UNL     1      -3.793  46.718 -16.424  1.00  0.00     0.272 C 
BRANCH  25  26
HETATM   26  N1  UNL     1      -5.077  47.422 -16.431  1.00  0.00     0.079 N 
HETATM   27  C28 UNL     1      -5.595  47.628 -17.779  1.00  0.00     0.306 C 
HETATM   28  H39 UNL     1      -5.753  46.862 -15.911  1.00  0.00     0.315 HD
ENDBRANCH  25  26
ENDBRANCH  24  25
ENDBRANCH  14  24
BRANCH   1  29
HETATM   29  C6  UNL     1      -2.071  52.121 -12.648  1.00  0.00    -0.050 C 
HETATM   30  C5  UNL     1      -0.962  52.376 -11.916  1.00  0.00     0.005 C 
BRANCH  30  31
HETATM   31  C4  UNL     1       0.418  52.136 -12.291  1.00  0.00     0.001 C 
HETATM   32  C3  UNL     1       1.360  51.739 -11.421  1.00  0.00     0.006 C 
BRANCH  32  33
HETATM   33  C2  UNL     1       2.761  51.467 -11.732  1.00  0.00    -0.067 C 
HETATM   34  C1  UNL     1       3.164  51.475 -13.016  1.00  0.00     0.019 C 
BRANCH  33  35
HETATM   35  C29 UNL     1       3.771  51.219 -10.623  1.00  0.00     0.041 C 
BRANCH  35  36
HETATM   36  C30 UNL     1       4.026  52.429  -9.708  1.00  0.00     0.032 C 
BRANCH  36  37
HETATM   37  C31 UNL     1       3.696  53.743 -10.368  1.00  0.00    -0.024 C 
HETATM   38  C32 UNL     1       4.438  54.868 -10.401  1.00  0.00    -0.091 C 
HETATM   39  C33 UNL     1       5.794  55.045  -9.774  1.00  0.00     0.042 C 
HETATM   40  C34 UNL     1       3.933  56.094 -11.118  1.00  0.00     0.042 C 
ENDBRANCH  36  37
ENDBRANCH  35  36
ENDBRANCH  33  35
ENDBRANCH  32  33
ENDBRANCH  30  31
BRANCH  29  41
HETATM   41  C7  UNL     1      -3.410  52.401 -12.016  1.00  0.00     0.198 C 
BRANCH  41  42
HETATM   42  O1  UNL     1      -3.673  53.791 -12.173  1.00  0.00    -0.397 OA
HETATM   43  H8  UNL     1      -3.984  53.904 -13.090  1.00  0.00     0.209 HD
ENDBRANCH  41  42
ENDBRANCH  29  41
ENDBRANCH   1  29
BRANCH   8  44
HETATM   44  C19 UNL     1      -0.333  52.968 -18.891  1.00  0.00     0.265 C 
HETATM   45  O4  UNL     1       0.256  53.748 -19.632  1.00  0.00    -0.302 OA
ENDBRANCH   8  44
TORSDOF 18
ENDMDL
MODEL 9
REMARK minimizedAffinity -7.65081215
REMARK CNNscore 0.272758961
REMARK CNNaffinity 6.87349892
REMARK  18 active torsions:
REMARK  status: ('A' for Active; 'I' for Inactive)
REMARK    1  A    between atoms: C2_2  and  C3_3 
REMARK    2  A    between atoms: C2_2  and  C29_35 
REMARK    3  A    between atoms: C4_4  and  C5_5 
REMARK    4  A    between atoms: C6_6  and  C7_7 
REMARK    5  A    between atoms: C6_6  and  C8_9 
REMARK    6  A    between atoms: C7_7  and  O1_8 
REMARK    7  A    between atoms: C12_13  and  O2_14 
REMARK    8  A    between atoms: C13_15  and  C14_16 
REMARK    9  A    between atoms: C14_16  and  C15_17 
REMARK   10  A    between atoms: C15_17  and  C16_18 
REMARK   11  A    between atoms: C16_18  and  O3_19 
REMARK   12  A    between atoms: C18_21  and  C19_22 
REMARK   13  A    between atoms: C25_29  and  O5_30 
REMARK   14  A    between atoms: C25_29  and  C26_31 
REMARK   15  A    between atoms: C26_31  and  C27_32 
REMARK   16  A    between atoms: C27_32  and  N1_33 
REMARK   17  A    between atoms: C29_35  and  C30_36 
REMARK   18  A    between atoms: C30_36  and  C31_37 
ROOT
HETATM    1  C8  UNL     1      -2.611  49.944 -24.120  1.00  0.00     0.046 C 
HETATM    2  C9  UNL     1      -3.114  48.584 -24.611  1.00  0.00     0.013 C 
HETATM    3  C10 UNL     1      -4.143  48.154 -23.551  1.00  0.00     0.017 C 
HETATM    4  C11 UNL     1      -4.570  49.446 -22.748  1.00  0.00     0.025 C 
HETATM    5  C12 UNL     1      -3.918  50.590 -23.602  1.00  0.00     0.138 C 
HETATM    6  C13 UNL     1      -3.828  49.325 -21.316  1.00  0.00     0.029 C 
HETATM    7  C17 UNL     1      -4.480  48.349 -20.321  1.00  0.00    -0.061 C 
HETATM    8  C18 UNL     1      -3.797  47.499 -19.511  1.00  0.00    -0.017 C 
HETATM    9  C20 UNL     1      -4.460  46.608 -18.485  1.00  0.00     0.042 C 
HETATM   10  C21 UNL     1      -5.894  47.012 -18.169  1.00  0.00     0.005 C 
HETATM   11  C22 UNL     1      -6.650  47.264 -19.458  1.00  0.00     0.009 C 
HETATM   12  C23 UNL     1      -6.003  48.406 -20.268  1.00  0.00     0.018 C 
HETATM   13  C24 UNL     1      -6.636  48.407 -21.666  1.00  0.00     0.047 C 
HETATM   14  C25 UNL     1      -6.141  49.550 -22.572  1.00  0.00     0.071 C 
ENDROOT
BRANCH   5  15
HETATM   15  O2  UNL     1      -4.774  50.948 -24.679  1.00  0.00    -0.394 OA
HETATM   16  H15 UNL     1      -4.266  51.501 -25.311  1.00  0.00     0.210 HD
ENDBRANCH   5  15
BRANCH   6  17
HETATM   17  C14 UNL     1      -3.297  50.603 -20.596  1.00  0.00     0.012 C 
BRANCH  17  18
HETATM   18  C15 UNL     1      -1.969  50.551 -19.852  1.00  0.00     0.027 C 
BRANCH  18  19
HETATM   19  C16 UNL     1      -2.171  50.667 -18.341  1.00  0.00     0.164 C 
BRANCH  19  20
HETATM   20  O3  UNL     1      -2.956  51.812 -18.037  1.00  0.00    -0.401 OA
HETATM   21  H23 UNL     1      -2.592  52.566 -18.533  1.00  0.00     0.209 HD
ENDBRANCH  19  20
ENDBRANCH  18  19
ENDBRANCH  17  18
ENDBRANCH   6  17
BRANCH  14  22
HETATM   22  O5  UNL     1      -6.406  50.770 -21.844  1.00  0.00    -0.389 OA
HETATM   23  H34 UNL     1      -6.286  51.503 -22.476  1.00  0.00     0.210 HD
ENDBRANCH  14  22
BRANCH  14  24
HETATM   24  C26 UNL     1      -7.105  49.677 -23.803  1.00  0.00     0.068 C 
BRANCH  24  25
HETATM   25  C27 UNL     1      -7.627  48.460 -24.569  1.00  0.00     0.272 C 
BRANCH  25  26
HETATM   26  N1  UNL     1      -9.047  48.486 -24.926  1.00  0.00     0.079 N 
HETATM   27  C28 UNL     1      -9.756  47.290 -24.485  1.00  0.00     0.306 C 
HETATM   28  H39 UNL     1      -9.476  49.296 -24.477  1.00  0.00     0.315 HD
ENDBRANCH  25  26
ENDBRANCH  24  25
ENDBRANCH  14  24
BRANCH   1  29
HETATM   29  C6  UNL     1      -1.725  50.752 -25.067  1.00  0.00    -0.050 C 
HETATM   30  C5  UNL     1      -0.736  51.580 -24.657  1.00  0.00     0.005 C 
BRANCH  30  31
HETATM   31  C4  UNL     1      -0.371  51.912 -23.294  1.00  0.00     0.001 C 
HETATM   32  C3  UNL     1       0.517  52.870 -22.982  1.00  0.00     0.006 C 
BRANCH  32  33
HETATM   33  C2  UNL     1       0.920  53.265 -21.634  1.00  0.00    -0.067 C 
HETATM   34  C1  UNL     1       1.704  54.346 -21.471  1.00  0.00     0.019 C 
BRANCH  33  35
HETATM   35  C29 UNL     1       0.430  52.495 -20.419  1.00  0.00     0.041 C 
BRANCH  35  36
HETATM   36  C30 UNL     1       0.782  53.140 -19.067  1.00  0.00     0.032 C 
BRANCH  36  37
HETATM   37  C31 UNL     1       0.641  52.187 -17.909  1.00  0.00    -0.024 C 
HETATM   38  C32 UNL     1       1.492  51.994 -16.881  1.00  0.00    -0.091 C 
HETATM   39  C33 UNL     1       2.792  52.721 -16.667  1.00  0.00     0.042 C 
HETATM   40  C34 UNL     1       1.174  50.984 -15.807  1.00  0.00     0.042 C 
ENDBRANCH  36  37
ENDBRANCH  35  36
ENDBRANCH  33  35
ENDBRANCH  32  33
ENDBRANCH  30  31
BRANCH  29  41
HETATM   41  C7  UNL     1      -1.955  50.611 -26.549  1.00  0.00     0.198 C 
BRANCH  41  42
HETATM   42  O1  UNL     1      -1.180  51.613 -27.198  1.00  0.00    -0.397 OA
HETATM   43  H8  UNL     1      -0.265  51.276 -27.218  1.00  0.00     0.209 HD
ENDBRANCH  41  42
ENDBRANCH  29  41
ENDBRANCH   1  29
BRANCH   8  44
HETATM   44  C19 UNL     1      -2.303  47.374 -19.503  1.00  0.00     0.265 C 
HETATM   45  O4  UNL     1      -1.653  47.069 -20.497  1.00  0.00    -0.302 OA
ENDBRANCH   8  44
TORSDOF 18
ENDMDL
