MODEL 1
REMARK minimizedAffinity -8.62989235
REMARK CNNscore 0.554817855
REMARK CNNaffinity 7.62388849
REMARK  12 active torsions:
REMARK  status: ('A' for Active; 'I' for Inactive)
REMARK    1  A    between atoms: C19_21  and  O3_22 
REMARK    2  A    between atoms: C19_21  and  C20_23 
REMARK    3  A    between atoms: C20_23  and  C21_25 
REMARK    4  A    between atoms: C21_25  and  O5_26 
REMARK    5  A    between atoms: O5_26  and  C22_27 
REMARK    6  A    between atoms: C22_27  and  C23_29 
REMARK    7  A    between atoms: C23_29  and  C24_30 
REMARK    8  A    between atoms: C24_30  and  C25_31 
REMARK       I    between atoms: C25_31  and  N1_33 
REMARK    9  A    between atoms: N1_33  and  C26_34 
REMARK   10  A    between atoms: C26_34  and  C27_35 
REMARK   11  A    between atoms: C27_35  and  C28_36 
REMARK   12  A    between atoms: C31_39  and  O8_40 
ROOT
HETATM    1  C1  UNL     1      -5.229   7.621  13.367  1.00  0.00     0.021 C 
HETATM    2  C2  UNL     1      -5.102   7.348  14.888  1.00  0.00    -0.009 C 
HETATM    3  C3  UNL     1      -5.468   5.855  15.165  1.00  0.00     0.022 C 
HETATM    4  C4  UNL     1      -6.945   5.539  14.973  1.00  0.00     0.084 C 
HETATM    5  C5  UNL     1      -7.785   6.447  15.831  1.00  0.00     0.149 C 
HETATM    6  O1  UNL     1      -8.873   6.106  16.285  1.00  0.00    -0.293 OA
HETATM    7  C6  UNL     1      -7.312   7.835  16.042  1.00  0.00     0.053 C 
HETATM    8  C7  UNL     1      -6.125   8.263  15.573  1.00  0.00    -0.067 C 
HETATM    9  C8  UNL     1      -5.806   9.736  15.667  1.00  0.00     0.035 C 
HETATM   10  C9  UNL     1      -4.338  10.086  15.416  1.00  0.00     0.010 C 
HETATM   11  C10 UNL     1      -3.418   9.038  16.039  1.00  0.00     0.003 C 
HETATM   12  C11 UNL     1      -3.644   7.600  15.464  1.00  0.00     0.072 C 
HETATM   13  C12 UNL     1      -2.522   7.078  14.533  1.00  0.00     0.133 C 
HETATM   14  O2  UNL     1      -2.723   6.193  13.698  1.00  0.00    -0.297 OA
HETATM   15  C13 UNL     1      -1.098   7.545  14.763  1.00  0.00     0.091 C 
HETATM   16  C14 UNL     1      -1.041   9.061  14.940  1.00  0.00     0.005 C 
HETATM   17  C15 UNL     1      -1.468   9.753  13.627  1.00  0.00     0.019 C 
HETATM   18  C16 UNL     1      -1.932   9.406  16.150  1.00  0.00     0.002 C 
HETATM   19  C17 UNL     1      -1.531  10.839  16.511  1.00  0.00     0.009 C 
HETATM   20  C18 UNL     1      -0.048  10.957  16.105  1.00  0.00     0.047 C 
HETATM   21  C19 UNL     1       0.328   9.618  15.446  1.00  0.00     0.128 C 
ENDROOT
BRANCH  21  22
HETATM   22  O3  UNL     1       0.821   8.770  16.503  1.00  0.00    -0.381 OA
HETATM   23  H25 UNL     1       1.384   8.088  16.078  1.00  0.00     0.211 HD
ENDBRANCH  21  22
BRANCH  21  24
HETATM   24  C20 UNL     1       1.446   9.643  14.388  1.00  0.00     0.185 C 
HETATM   25  O4  UNL     1       2.213  10.617  14.358  1.00  0.00    -0.292 OA
BRANCH  24  26
HETATM   26  C21 UNL     1       1.590   8.476  13.416  1.00  0.00     0.260 C 
BRANCH  26  27
HETATM   27  O5  UNL     1       1.410   8.877  12.055  1.00  0.00    -0.314 OA
BRANCH  27  28
HETATM   28  C22 UNL     1       1.712   7.905  11.147  1.00  0.00     0.259 C 
HETATM   29  O6  UNL     1       2.759   7.846  10.516  1.00  0.00    -0.265 OA
BRANCH  28  30
HETATM   30  C23 UNL     1       0.564   6.940  11.016  1.00  0.00     0.120 C 
BRANCH  30  31
HETATM   31  C24 UNL     1       1.075   5.549  10.661  1.00  0.00     0.112 C 
BRANCH  31  32
HETATM   32  C25 UNL     1       0.162   4.457  11.169  1.00  0.00     0.218 C 
HETATM   33  O7  UNL     1       0.523   3.302  11.358  1.00  0.00    -0.274 OA
HETATM   34  N1  UNL     1      -1.120   4.905  11.400  1.00  0.00    -0.361 N 
HETATM   35  H32 UNL     1      -1.327   5.890  11.286  1.00  0.00     0.162 HD
BRANCH  34  36
HETATM   36  C26 UNL     1      -2.158   4.043  11.933  1.00  0.00     0.127 C 
BRANCH  36  37
HETATM   37  C27 UNL     1      -2.957   3.348  10.828  1.00  0.00     0.058 C 
BRANCH  37  38
HETATM   38  C28 UNL     1      -4.342   2.969  11.292  1.00  0.00    -0.057 A 
HETATM   39  C29 UNL     1      -4.835   1.674  11.072  1.00  0.00     0.010 A 
HETATM   40  C30 UNL     1      -6.107   1.315  11.522  1.00  0.00     0.037 A 
HETATM   41  C31 UNL     1      -6.884   2.251  12.195  1.00  0.00     0.065 A 
HETATM   42  C32 UNL     1      -6.411   3.538  12.425  1.00  0.00     0.037 A 
HETATM   43  C33 UNL     1      -5.140   3.898  11.975  1.00  0.00     0.010 A 
BRANCH  41  44
HETATM   44  O8  UNL     1      -8.131   1.942  12.652  1.00  0.00    -0.361 OA
HETATM   45  H39 UNL     1      -8.340   1.030  12.389  1.00  0.00     0.217 HD
ENDBRANCH  41  44
ENDBRANCH  37  38
ENDBRANCH  36  37
ENDBRANCH  34  36
ENDBRANCH  31  32
ENDBRANCH  30  31
ENDBRANCH  28  30
ENDBRANCH  27  28
ENDBRANCH  26  27
ENDBRANCH  24  26
ENDBRANCH  21  24
TORSDOF 12
ENDMDL
MODEL 2
REMARK minimizedAffinity -7.70851851
REMARK CNNscore 0.463324368
REMARK CNNaffinity 6.4001193
REMARK  12 active torsions:
REMARK  status: ('A' for Active; 'I' for Inactive)
REMARK    1  A    between atoms: C19_21  and  O3_22 
REMARK    2  A    between atoms: C19_21  and  C20_23 
REMARK    3  A    between atoms: C20_23  and  C21_25 
REMARK    4  A    between atoms: C21_25  and  O5_26 
REMARK    5  A    between atoms: O5_26  and  C22_27 
REMARK    6  A    between atoms: C22_27  and  C23_29 
REMARK    7  A    between atoms: C23_29  and  C24_30 
REMARK    8  A    between atoms: C24_30  and  C25_31 
REMARK       I    between atoms: C25_31  and  N1_33 
REMARK    9  A    between atoms: N1_33  and  C26_34 
REMARK   10  A    between atoms: C26_34  and  C27_35 
REMARK   11  A    between atoms: C27_35  and  C28_36 
REMARK   12  A    between atoms: C31_39  and  O8_40 
ROOT
HETATM    1  C1  UNL     1      -0.559   5.365  13.869  1.00  0.00     0.021 C 
HETATM    2  C2  UNL     1      -1.098   5.961  12.543  1.00  0.00    -0.009 C 
HETATM    3  C3  UNL     1      -0.731   4.997  11.370  1.00  0.00     0.022 C 
HETATM    4  C4  UNL     1       0.756   4.962  11.046  1.00  0.00     0.084 C 
HETATM    5  C5  UNL     1       1.255   6.352  10.752  1.00  0.00     0.149 C 
HETATM    6  O1  UNL     1       2.187   6.570   9.983  1.00  0.00    -0.293 OA
HETATM    7  C6  UNL     1       0.653   7.479  11.502  1.00  0.00     0.053 C 
HETATM    8  C7  UNL     1      -0.376   7.301  12.352  1.00  0.00    -0.067 C 
HETATM    9  C8  UNL     1      -0.802   8.465  13.214  1.00  0.00     0.035 C 
HETATM   10  C9  UNL     1      -2.156   8.284  13.902  1.00  0.00     0.010 C 
HETATM   11  C10 UNL     1      -3.147   7.586  12.973  1.00  0.00     0.003 C 
HETATM   12  C11 UNL     1      -2.673   6.162  12.525  1.00  0.00     0.072 C 
HETATM   13  C12 UNL     1      -3.445   4.980  13.161  1.00  0.00     0.133 C 
HETATM   14  O2  UNL     1      -2.957   3.851  13.250  1.00  0.00    -0.297 OA
HETATM   15  C13 UNL     1      -4.903   5.168  13.535  1.00  0.00     0.091 C 
HETATM   16  C14 UNL     1      -5.106   6.471  14.306  1.00  0.00     0.005 C 
HETATM   17  C15 UNL     1      -4.366   6.392  15.660  1.00  0.00     0.019 C 
HETATM   18  C16 UNL     1      -4.623   7.615  13.393  1.00  0.00     0.002 C 
HETATM   19  C17 UNL     1      -5.202   8.877  14.038  1.00  0.00     0.009 C 
HETATM   20  C18 UNL     1      -6.511   8.420  14.713  1.00  0.00     0.047 C 
HETATM   21  C19 UNL     1      -6.595   6.896  14.507  1.00  0.00     0.128 C 
ENDROOT
BRANCH  21  22
HETATM   22  O3  UNL     1      -7.315   6.693  13.274  1.00  0.00    -0.381 OA
HETATM   23  H25 UNL     1      -7.687   5.787  13.311  1.00  0.00     0.211 HD
ENDBRANCH  21  22
BRANCH  21  24
HETATM   24  C20 UNL     1      -7.363   6.084  15.566  1.00  0.00     0.185 C 
HETATM   25  O4  UNL     1      -6.808   5.100  16.076  1.00  0.00    -0.292 OA
BRANCH  24  26
HETATM   26  C21 UNL     1      -8.772   6.512  15.967  1.00  0.00     0.260 C 
BRANCH  26  27
HETATM   27  O5  UNL     1      -9.661   6.569  14.848  1.00  0.00    -0.314 OA
BRANCH  27  28
HETATM   28  C22 UNL     1     -10.409   7.709  14.793  1.00  0.00     0.259 C 
HETATM   29  O6  UNL     1     -10.004   8.819  15.111  1.00  0.00    -0.265 OA
BRANCH  28  30
HETATM   30  C23 UNL     1     -11.801   7.396  14.316  1.00  0.00     0.120 C 
BRANCH  30  31
HETATM   31  C24 UNL     1     -12.021   7.949  12.914  1.00  0.00     0.112 C 
BRANCH  31  32
HETATM   32  C25 UNL     1     -13.287   8.768  12.814  1.00  0.00     0.218 C 
HETATM   33  O7  UNL     1     -13.370   9.819  12.190  1.00  0.00    -0.274 OA
HETATM   34  N1  UNL     1     -14.339   8.199  13.497  1.00  0.00    -0.361 N 
HETATM   35  H32 UNL     1     -14.214   7.294  13.933  1.00  0.00     0.162 HD
BRANCH  34  36
HETATM   36  C26 UNL     1     -15.666   8.786  13.505  1.00  0.00     0.127 C 
BRANCH  36  37
HETATM   37  C27 UNL     1     -16.007   9.465  12.176  1.00  0.00     0.058 C 
BRANCH  37  38
HETATM   38  C28 UNL     1     -17.349   9.021  11.648  1.00  0.00    -0.057 A 
HETATM   39  C29 UNL     1     -17.987   7.895  12.189  1.00  0.00     0.010 A 
HETATM   40  C30 UNL     1     -19.240   7.497  11.719  1.00  0.00     0.037 A 
HETATM   41  C31 UNL     1     -19.856   8.228  10.709  1.00  0.00     0.065 A 
HETATM   42  C32 UNL     1     -19.241   9.350  10.164  1.00  0.00     0.037 A 
HETATM   43  C33 UNL     1     -17.988   9.748  10.633  1.00  0.00     0.010 A 
BRANCH  41  44
HETATM   44  O8  UNL     1     -21.079   7.875  10.221  1.00  0.00    -0.361 OA
HETATM   45  H39 UNL     1     -21.367   7.061  10.666  1.00  0.00     0.217 HD
ENDBRANCH  41  44
ENDBRANCH  37  38
ENDBRANCH  36  37
ENDBRANCH  34  36
ENDBRANCH  31  32
ENDBRANCH  30  31
ENDBRANCH  28  30
ENDBRANCH  27  28
ENDBRANCH  26  27
ENDBRANCH  24  26
ENDBRANCH  21  24
TORSDOF 12
ENDMDL
MODEL 3
REMARK minimizedAffinity -7.6946497
REMARK CNNscore 0.400658429
REMARK CNNaffinity 6.23079681
REMARK  12 active torsions:
REMARK  status: ('A' for Active; 'I' for Inactive)
REMARK    1  A    between atoms: C19_21  and  O3_22 
REMARK    2  A    between atoms: C19_21  and  C20_23 
REMARK    3  A    between atoms: C20_23  and  C21_25 
REMARK    4  A    between atoms: C21_25  and  O5_26 
REMARK    5  A    between atoms: O5_26  and  C22_27 
REMARK    6  A    between atoms: C22_27  and  C23_29 
REMARK    7  A    between atoms: C23_29  and  C24_30 
REMARK    8  A    between atoms: C24_30  and  C25_31 
REMARK       I    between atoms: C25_31  and  N1_33 
REMARK    9  A    between atoms: N1_33  and  C26_34 
REMARK   10  A    between atoms: C26_34  and  C27_35 
REMARK   11  A    between atoms: C27_35  and  C28_36 
REMARK   12  A    between atoms: C31_39  and  O8_40 
ROOT
HETATM    1  C1  UNL     1      -7.013 -11.941   0.916  1.00  0.00     0.021 C 
HETATM    2  C2  UNL     1      -6.612 -10.448   0.787  1.00  0.00    -0.009 C 
HETATM    3  C3  UNL     1      -7.856  -9.630   0.315  1.00  0.00     0.022 C 
HETATM    4  C4  UNL     1      -8.264  -9.909  -1.125  1.00  0.00     0.084 C 
HETATM    5  C5  UNL     1      -7.101  -9.665  -2.050  1.00  0.00     0.149 C 
HETATM    6  O1  UNL     1      -7.248  -9.294  -3.211  1.00  0.00    -0.293 OA
HETATM    7  C6  UNL     1      -5.742  -9.987  -1.556  1.00  0.00     0.053 C 
HETATM    8  C7  UNL     1      -5.520 -10.392  -0.291  1.00  0.00    -0.067 C 
HETATM    9  C8  UNL     1      -4.138 -10.879   0.074  1.00  0.00     0.035 C 
HETATM   10  C9  UNL     1      -3.888 -11.011   1.577  1.00  0.00     0.010 C 
HETATM   11  C10 UNL     1      -4.546  -9.862   2.339  1.00  0.00     0.003 C 
HETATM   12  C11 UNL     1      -6.098  -9.804   2.144  1.00  0.00     0.072 C 
HETATM   13  C12 UNL     1      -6.934 -10.230   3.375  1.00  0.00     0.133 C 
HETATM   14  O2  UNL     1      -8.095 -10.633   3.271  1.00  0.00    -0.297 OA
HETATM   15  C13 UNL     1      -6.375  -9.990   4.764  1.00  0.00     0.091 C 
HETATM   16  C14 UNL     1      -4.926 -10.464   4.859  1.00  0.00     0.005 C 
HETATM   17  C15 UNL     1      -4.868 -11.997   4.678  1.00  0.00     0.019 C 
HETATM   18  C16 UNL     1      -4.125  -9.677   3.803  1.00  0.00     0.002 C 
HETATM   19  C17 UNL     1      -2.664  -9.895   4.204  1.00  0.00     0.009 C 
HETATM   20  C18 UNL     1      -2.687 -10.065   5.737  1.00  0.00     0.047 C 
HETATM   21  C19 UNL     1      -4.169 -10.025   6.153  1.00  0.00     0.128 C 
ENDROOT
BRANCH  21  22
HETATM   22  O3  UNL     1      -4.475  -8.644   6.433  1.00  0.00    -0.381 OA
HETATM   23  H25 UNL     1      -5.256  -8.643   7.026  1.00  0.00     0.211 HD
ENDBRANCH  21  22
BRANCH  21  24
HETATM   24  C20 UNL     1      -4.564 -10.797   7.426  1.00  0.00     0.185 C 
HETATM   25  O4  UNL     1      -3.985 -11.864   7.676  1.00  0.00    -0.292 OA
BRANCH  24  26
HETATM   26  C21 UNL     1      -5.640 -10.230   8.347  1.00  0.00     0.260 C 
BRANCH  26  27
HETATM   27  O5  UNL     1      -5.116  -9.267   9.266  1.00  0.00    -0.314 OA
BRANCH  27  28
HETATM   28  C22 UNL     1      -5.329  -9.581  10.577  1.00  0.00     0.259 C 
HETATM   29  O6  UNL     1      -4.837 -10.546  11.148  1.00  0.00    -0.265 OA
BRANCH  28  30
HETATM   30  C23 UNL     1      -6.275  -8.591  11.202  1.00  0.00     0.120 C 
BRANCH  30  31
HETATM   31  C24 UNL     1      -6.712  -9.070  12.581  1.00  0.00     0.112 C 
BRANCH  31  32
HETATM   32  C25 UNL     1      -8.157  -9.512  12.601  1.00  0.00     0.218 C 
HETATM   33  O7  UNL     1      -9.021  -9.049  11.867  1.00  0.00    -0.274 OA
HETATM   34  N1  UNL     1      -8.394 -10.497  13.535  1.00  0.00    -0.361 N 
HETATM   35  H32 UNL     1      -7.617 -10.878  14.059  1.00  0.00     0.162 HD
BRANCH  34  36
HETATM   36  C26 UNL     1      -9.700 -11.107  13.703  1.00  0.00     0.127 C 
BRANCH  36  37
HETATM   37  C27 UNL     1     -10.127 -11.166  15.172  1.00  0.00     0.058 C 
BRANCH  37  38
HETATM   38  C28 UNL     1     -10.637  -9.833  15.662  1.00  0.00    -0.057 A 
HETATM   39  C29 UNL     1     -11.423  -9.024  14.827  1.00  0.00     0.010 A 
HETATM   40  C30 UNL     1     -11.916  -7.801  15.286  1.00  0.00     0.037 A 
HETATM   41  C31 UNL     1     -11.626  -7.390  16.582  1.00  0.00     0.065 A 
HETATM   42  C32 UNL     1     -10.853  -8.181  17.425  1.00  0.00     0.037 A 
HETATM   43  C33 UNL     1     -10.359  -9.402  16.967  1.00  0.00     0.010 A 
BRANCH  41  44
HETATM   44  O8  UNL     1     -12.088  -6.204  17.071  1.00  0.00    -0.361 OA
HETATM   45  H39 UNL     1     -12.577  -5.748  16.366  1.00  0.00     0.217 HD
ENDBRANCH  41  44
ENDBRANCH  37  38
ENDBRANCH  36  37
ENDBRANCH  34  36
ENDBRANCH  31  32
ENDBRANCH  30  31
ENDBRANCH  28  30
ENDBRANCH  27  28
ENDBRANCH  26  27
ENDBRANCH  24  26
ENDBRANCH  21  24
TORSDOF 12
ENDMDL
MODEL 4
REMARK minimizedAffinity -9.68066883
REMARK CNNscore 0.373664349
REMARK CNNaffinity 7.09288597
REMARK  12 active torsions:
REMARK  status: ('A' for Active; 'I' for Inactive)
REMARK    1  A    between atoms: C19_21  and  O3_22 
REMARK    2  A    between atoms: C19_21  and  C20_23 
REMARK    3  A    between atoms: C20_23  and  C21_25 
REMARK    4  A    between atoms: C21_25  and  O5_26 
REMARK    5  A    between atoms: O5_26  and  C22_27 
REMARK    6  A    between atoms: C22_27  and  C23_29 
REMARK    7  A    between atoms: C23_29  and  C24_30 
REMARK    8  A    between atoms: C24_30  and  C25_31 
REMARK       I    between atoms: C25_31  and  N1_33 
REMARK    9  A    between atoms: N1_33  and  C26_34 
REMARK   10  A    between atoms: C26_34  and  C27_35 
REMARK   11  A    between atoms: C27_35  and  C28_36 
REMARK   12  A    between atoms: C31_39  and  O8_40 
ROOT
HETATM    1  C1  UNL     1      -7.064   6.840  16.466  1.00  0.00     0.021 C 
HETATM    2  C2  UNL     1      -7.283   7.358  15.020  1.00  0.00    -0.009 C 
HETATM    3  C3  UNL     1      -7.909   8.787  15.087  1.00  0.00     0.022 C 
HETATM    4  C4  UNL     1      -9.348   8.805  15.584  1.00  0.00     0.084 C 
HETATM    5  C5  UNL     1     -10.202   7.903  14.732  1.00  0.00     0.149 C 
HETATM    6  O1  UNL     1     -11.397   8.112  14.542  1.00  0.00    -0.293 OA
HETATM    7  C6  UNL     1      -9.585   6.668  14.195  1.00  0.00     0.053 C 
HETATM    8  C7  UNL     1      -8.279   6.390  14.366  1.00  0.00    -0.067 C 
HETATM    9  C8  UNL     1      -7.775   5.028  13.953  1.00  0.00     0.035 C 
HETATM   10  C9  UNL     1      -6.252   4.909  13.880  1.00  0.00     0.010 C 
HETATM   11  C10 UNL     1      -5.636   6.184  13.309  1.00  0.00     0.003 C 
HETATM   12  C11 UNL     1      -5.948   7.456  14.167  1.00  0.00     0.072 C 
HETATM   13  C12 UNL     1      -4.752   8.021  14.970  1.00  0.00     0.133 C 
HETATM   14  O2  UNL     1      -4.908   8.720  15.974  1.00  0.00    -0.297 OA
HETATM   15  C13 UNL     1      -3.349   7.853  14.418  1.00  0.00     0.091 C 
HETATM   16  C14 UNL     1      -3.110   6.415  13.961  1.00  0.00     0.005 C 
HETATM   17  C15 UNL     1      -3.162   5.468  15.180  1.00  0.00     0.019 C 
HETATM   18  C16 UNL     1      -4.164   6.105  12.880  1.00  0.00     0.002 C 
HETATM   19  C17 UNL     1      -3.641   4.837  12.201  1.00  0.00     0.009 C 
HETATM   20  C18 UNL     1      -2.105   4.922  12.318  1.00  0.00     0.047 C 
HETATM   21  C19 UNL     1      -1.803   6.191  13.135  1.00  0.00     0.128 C 
ENDROOT
BRANCH  21  22
HETATM   22  O3  UNL     1      -1.658   7.263  12.181  1.00  0.00    -0.381 OA
HETATM   23  H25 UNL     1      -1.127   7.961  12.620  1.00  0.00     0.211 HD
ENDBRANCH  21  22
BRANCH  21  24
HETATM   24  C20 UNL     1      -0.505   6.203  13.963  1.00  0.00     0.185 C 
HETATM   25  O4  UNL     1      -0.537   6.670  15.111  1.00  0.00    -0.292 OA
BRANCH  24  26
HETATM   26  C21 UNL     1       0.777   5.636  13.361  1.00  0.00     0.260 C 
BRANCH  26  27
HETATM   27  O5  UNL     1       1.068   6.196  12.077  1.00  0.00    -0.314 OA
BRANCH  27  28
HETATM   28  C22 UNL     1       1.312   5.264  11.110  1.00  0.00     0.259 C 
HETATM   29  O6  UNL     1       1.025   4.078  11.201  1.00  0.00    -0.265 OA
BRANCH  28  30
HETATM   30  C23 UNL     1       2.007   5.902   9.937  1.00  0.00     0.120 C 
BRANCH  30  31
HETATM   31  C24 UNL     1       3.518   5.779  10.082  1.00  0.00     0.112 C 
BRANCH  31  32
HETATM   32  C25 UNL     1       4.115   6.932  10.853  1.00  0.00     0.218 C 
HETATM   33  O7  UNL     1       3.847   8.108  10.636  1.00  0.00    -0.274 OA
HETATM   34  N1  UNL     1       4.992   6.517  11.831  1.00  0.00    -0.361 N 
HETATM   35  H32 UNL     1       5.112   5.525  11.998  1.00  0.00     0.162 HD
BRANCH  34  36
HETATM   36  C26 UNL     1       5.652   7.448  12.727  1.00  0.00     0.127 C 
BRANCH  36  37
HETATM   37  C27 UNL     1       7.178   7.360  12.632  1.00  0.00     0.058 C 
BRANCH  37  38
HETATM   38  C28 UNL     1       7.845   7.799  13.912  1.00  0.00    -0.057 A 
HETATM   39  C29 UNL     1       7.073   8.190  15.016  1.00  0.00     0.010 A 
HETATM   40  C30 UNL     1       7.689   8.573  16.210  1.00  0.00     0.037 A 
HETATM   41  C31 UNL     1       9.076   8.562  16.298  1.00  0.00     0.065 A 
HETATM   42  C32 UNL     1       9.857   8.173  15.215  1.00  0.00     0.037 A 
HETATM   43  C33 UNL     1       9.243   7.791  14.022  1.00  0.00     0.010 A 
BRANCH  41  44
HETATM   44  O8  UNL     1       9.718   8.928  17.444  1.00  0.00    -0.361 OA
HETATM   45  H39 UNL     1       9.053   9.206  18.096  1.00  0.00     0.217 HD
ENDBRANCH  41  44
ENDBRANCH  37  38
ENDBRANCH  36  37
ENDBRANCH  34  36
ENDBRANCH  31  32
ENDBRANCH  30  31
ENDBRANCH  28  30
ENDBRANCH  27  28
ENDBRANCH  26  27
ENDBRANCH  24  26
ENDBRANCH  21  24
TORSDOF 12
ENDMDL
MODEL 5
REMARK minimizedAffinity -8.58936882
REMARK CNNscore 0.352326035
REMARK CNNaffinity 7.03228378
REMARK  12 active torsions:
REMARK  status: ('A' for Active; 'I' for Inactive)
REMARK    1  A    between atoms: C19_21  and  O3_22 
REMARK    2  A    between atoms: C19_21  and  C20_23 
REMARK    3  A    between atoms: C20_23  and  C21_25 
REMARK    4  A    between atoms: C21_25  and  O5_26 
REMARK    5  A    between atoms: O5_26  and  C22_27 
REMARK    6  A    between atoms: C22_27  and  C23_29 
REMARK    7  A    between atoms: C23_29  and  C24_30 
REMARK    8  A    between atoms: C24_30  and  C25_31 
REMARK       I    between atoms: C25_31  and  N1_33 
REMARK    9  A    between atoms: N1_33  and  C26_34 
REMARK   10  A    between atoms: C26_34  and  C27_35 
REMARK   11  A    between atoms: C27_35  and  C28_36 
REMARK   12  A    between atoms: C31_39  and  O8_40 
ROOT
HETATM    1  C1  UNL     1      -6.200   6.651  12.907  1.00  0.00     0.021 C 
HETATM    2  C2  UNL     1      -5.728   6.535  14.380  1.00  0.00    -0.009 C 
HETATM    3  C3  UNL     1      -6.658   5.528  15.130  1.00  0.00     0.022 C 
HETATM    4  C4  UNL     1      -8.070   6.049  15.357  1.00  0.00     0.084 C 
HETATM    5  C5  UNL     1      -8.027   7.363  16.092  1.00  0.00     0.149 C 
HETATM    6  O1  UNL     1      -8.923   7.727  16.846  1.00  0.00    -0.293 OA
HETATM    7  C6  UNL     1      -6.900   8.281  15.804  1.00  0.00     0.053 C 
HETATM    8  C7  UNL     1      -5.886   7.934  14.990  1.00  0.00    -0.067 C 
HETATM    9  C8  UNL     1      -4.882   8.993  14.603  1.00  0.00     0.035 C 
HETATM   10  C9  UNL     1      -3.607   8.453  13.954  1.00  0.00     0.010 C 
HETATM   11  C10 UNL     1      -3.164   7.155  14.627  1.00  0.00     0.003 C 
HETATM   12  C11 UNL     1      -4.235   6.017  14.534  1.00  0.00     0.072 C 
HETATM   13  C12 UNL     1      -3.887   4.862  13.563  1.00  0.00     0.133 C 
HETATM   14  O2  UNL     1      -4.754   4.138  13.069  1.00  0.00    -0.297 OA
HETATM   15  C13 UNL     1      -2.431   4.499  13.342  1.00  0.00     0.091 C 
HETATM   16  C14 UNL     1      -1.591   5.747  13.077  1.00  0.00     0.005 C 
HETATM   17  C15 UNL     1      -2.034   6.399  11.749  1.00  0.00     0.019 C 
HETATM   18  C16 UNL     1      -1.746   6.663  14.308  1.00  0.00     0.002 C 
HETATM   19  C17 UNL     1      -0.607   7.676  14.165  1.00  0.00     0.009 C 
HETATM   20  C18 UNL     1       0.518   6.917  13.431  1.00  0.00     0.047 C 
HETATM   21  C19 UNL     1      -0.046   5.522  13.101  1.00  0.00     0.128 C 
ENDROOT
BRANCH  21  22
HETATM   22  O3  UNL     1       0.291   4.675  14.218  1.00  0.00    -0.381 OA
HETATM   23  H25 UNL     1       0.275   3.752  13.886  1.00  0.00     0.211 HD
ENDBRANCH  21  22
BRANCH  21  24
HETATM   24  C20 UNL     1       0.523   4.809  11.861  1.00  0.00     0.185 C 
HETATM   25  O4  UNL     1      -0.043   3.783  11.454  1.00  0.00    -0.292 OA
BRANCH  24  26
HETATM   26  C21 UNL     1       1.753   5.380  11.161  1.00  0.00     0.260 C 
BRANCH  26  27
HETATM   27  O5  UNL     1       1.466   5.812   9.827  1.00  0.00    -0.314 OA
BRANCH  27  28
HETATM   28  C22 UNL     1       2.528   6.387   9.193  1.00  0.00     0.259 C 
HETATM   29  O6  UNL     1       3.333   5.780   8.498  1.00  0.00    -0.265 OA
BRANCH  28  30
HETATM   30  C23 UNL     1       2.580   7.860   9.496  1.00  0.00     0.120 C 
BRANCH  30  31
HETATM   31  C24 UNL     1       3.953   8.426   9.156  1.00  0.00     0.112 C 
BRANCH  31  32
HETATM   32  C25 UNL     1       4.746   8.784  10.391  1.00  0.00     0.218 C 
HETATM   33  O7  UNL     1       5.331   9.851  10.539  1.00  0.00    -0.274 OA
HETATM   34  N1  UNL     1       4.737   7.781  11.335  1.00  0.00    -0.361 N 
HETATM   35  H32 UNL     1       4.176   6.954  11.171  1.00  0.00     0.162 HD
BRANCH  34  36
HETATM   36  C26 UNL     1       5.396   7.919  12.620  1.00  0.00     0.127 C 
BRANCH  36  37
HETATM   37  C27 UNL     1       6.783   7.271  12.633  1.00  0.00     0.058 C 
BRANCH  37  38
HETATM   38  C28 UNL     1       7.582   7.685  13.844  1.00  0.00    -0.057 A 
HETATM   39  C29 UNL     1       8.983   7.741  13.784  1.00  0.00     0.010 A 
HETATM   40  C30 UNL     1       9.723   8.147  14.896  1.00  0.00     0.037 A 
HETATM   41  C31 UNL     1       9.061   8.499  16.067  1.00  0.00     0.065 A 
HETATM   42  C32 UNL     1       7.674   8.453  16.144  1.00  0.00     0.037 A 
HETATM   43  C33 UNL     1       6.933   8.048  15.033  1.00  0.00     0.010 A 
BRANCH  41  44
HETATM   44  O8  UNL     1       9.745   8.901  17.176  1.00  0.00    -0.361 OA
HETATM   45  H39 UNL     1      10.698   8.849  16.989  1.00  0.00     0.217 HD
ENDBRANCH  41  44
ENDBRANCH  37  38
ENDBRANCH  36  37
ENDBRANCH  34  36
ENDBRANCH  31  32
ENDBRANCH  30  31
ENDBRANCH  28  30
ENDBRANCH  27  28
ENDBRANCH  26  27
ENDBRANCH  24  26
ENDBRANCH  21  24
TORSDOF 12
ENDMDL
MODEL 6
REMARK minimizedAffinity -7.54129028
REMARK CNNscore 0.323327303
REMARK CNNaffinity 6.70420504
REMARK  12 active torsions:
REMARK  status: ('A' for Active; 'I' for Inactive)
REMARK    1  A    between atoms: C19_21  and  O3_22 
REMARK    2  A    between atoms: C19_21  and  C20_23 
REMARK    3  A    between atoms: C20_23  and  C21_25 
REMARK    4  A    between atoms: C21_25  and  O5_26 
REMARK    5  A    between atoms: O5_26  and  C22_27 
REMARK    6  A    between atoms: C22_27  and  C23_29 
REMARK    7  A    between atoms: C23_29  and  C24_30 
REMARK    8  A    between atoms: C24_30  and  C25_31 
REMARK       I    between atoms: C25_31  and  N1_33 
REMARK    9  A    between atoms: N1_33  and  C26_34 
REMARK   10  A    between atoms: C26_34  and  C27_35 
REMARK   11  A    between atoms: C27_35  and  C28_36 
REMARK   12  A    between atoms: C31_39  and  O8_40 
ROOT
HETATM    1  C1  UNL     1       0.898   9.182  12.735  1.00  0.00     0.021 C 
HETATM    2  C2  UNL     1       0.888   9.280  14.283  1.00  0.00    -0.009 C 
HETATM    3  C3  UNL     1       1.360  10.709  14.701  1.00  0.00     0.022 C 
HETATM    4  C4  UNL     1       2.838  10.968  14.441  1.00  0.00     0.084 C 
HETATM    5  C5  UNL     1       3.677   9.922  15.126  1.00  0.00     0.149 C 
HETATM    6  O1  UNL     1       4.810  10.150  15.537  1.00  0.00    -0.293 OA
HETATM    7  C6  UNL     1       3.136   8.545  15.211  1.00  0.00     0.053 C 
HETATM    8  C7  UNL     1       1.897   8.238  14.784  1.00  0.00    -0.067 C 
HETATM    9  C8  UNL     1       1.497   6.782  14.732  1.00  0.00     0.035 C 
HETATM   10  C9  UNL     1      -0.002   6.542  14.549  1.00  0.00     0.010 C 
HETATM   11  C10 UNL     1      -0.816   7.555  15.352  1.00  0.00     0.003 C 
HETATM   12  C11 UNL     1      -0.542   9.038  14.930  1.00  0.00     0.072 C 
HETATM   13  C12 UNL     1      -1.689   9.723  14.148  1.00  0.00     0.133 C 
HETATM   14  O2  UNL     1      -1.490  10.688  13.407  1.00  0.00    -0.297 OA
HETATM   15  C13 UNL     1      -3.121   9.307  14.425  1.00  0.00     0.091 C 
HETATM   16  C14 UNL     1      -3.257   7.786  14.432  1.00  0.00     0.005 C 
HETATM   17  C15 UNL     1      -2.959   7.232  13.021  1.00  0.00     0.019 C 
HETATM   18  C16 UNL     1      -2.311   7.255  15.527  1.00  0.00     0.002 C 
HETATM   19  C17 UNL     1      -2.772   5.812  15.751  1.00  0.00     0.009 C 
HETATM   20  C18 UNL     1      -4.283   5.820  15.442  1.00  0.00     0.047 C 
HETATM   21  C19 UNL     1      -4.620   7.246  14.968  1.00  0.00     0.128 C 
ENDROOT
BRANCH  21  22
HETATM   22  O3  UNL     1      -4.991   7.988  16.148  1.00  0.00    -0.381 OA
HETATM   23  H25 UNL     1      -5.539   8.743  15.845  1.00  0.00     0.211 HD
ENDBRANCH  21  22
BRANCH  21  24
HETATM   24  C20 UNL     1      -5.805   7.403  13.997  1.00  0.00     0.185 C 
HETATM   25  O4  UNL     1      -6.142   8.545  13.652  1.00  0.00    -0.292 OA
BRANCH  24  26
HETATM   26  C21 UNL     1      -6.524   6.160  13.479  1.00  0.00     0.260 C 
BRANCH  26  27
HETATM   27  O5  UNL     1      -5.648   5.286  12.761  1.00  0.00    -0.314 OA
BRANCH  27  28
HETATM   28  C22 UNL     1      -6.082   3.994  12.703  1.00  0.00     0.259 C 
HETATM   29  O6  UNL     1      -6.815   3.471  13.532  1.00  0.00    -0.265 OA
BRANCH  28  30
HETATM   30  C23 UNL     1      -5.506   3.306  11.495  1.00  0.00     0.120 C 
BRANCH  30  31
HETATM   31  C24 UNL     1      -4.192   2.621  11.847  1.00  0.00     0.112 C 
BRANCH  31  32
HETATM   32  C25 UNL     1      -3.024   3.193  11.078  1.00  0.00     0.218 C 
HETATM   33  O7  UNL     1      -3.081   3.522   9.899  1.00  0.00    -0.274 OA
HETATM   34  N1  UNL     1      -1.889   3.307  11.849  1.00  0.00    -0.361 N 
HETATM   35  H32 UNL     1      -1.935   3.079  12.835  1.00  0.00     0.162 HD
BRANCH  34  36
HETATM   36  C26 UNL     1      -0.655   3.872  11.335  1.00  0.00     0.127 C 
BRANCH  36  37
HETATM   37  C27 UNL     1      -0.743   5.390  11.159  1.00  0.00     0.058 C 
BRANCH  37  38
HETATM   38  C28 UNL     1       0.585   5.985  10.759  1.00  0.00    -0.057 A 
HETATM   39  C29 UNL     1       1.781   5.460  11.271  1.00  0.00     0.010 A 
HETATM   40  C30 UNL     1       3.012   5.994  10.883  1.00  0.00     0.037 A 
HETATM   41  C31 UNL     1       3.045   7.051   9.980  1.00  0.00     0.065 A 
HETATM   42  C32 UNL     1       1.870   7.581   9.459  1.00  0.00     0.037 A 
HETATM   43  C33 UNL     1       0.640   7.049   9.846  1.00  0.00     0.010 A 
BRANCH  41  44
HETATM   44  O8  UNL     1       4.225   7.601   9.574  1.00  0.00    -0.361 OA
HETATM   45  H39 UNL     1       4.951   7.158  10.043  1.00  0.00     0.217 HD
ENDBRANCH  41  44
ENDBRANCH  37  38
ENDBRANCH  36  37
ENDBRANCH  34  36
ENDBRANCH  31  32
ENDBRANCH  30  31
ENDBRANCH  28  30
ENDBRANCH  27  28
ENDBRANCH  26  27
ENDBRANCH  24  26
ENDBRANCH  21  24
TORSDOF 12
ENDMDL
MODEL 7
REMARK minimizedAffinity -9.81398678
REMARK CNNscore 0.310618907
REMARK CNNaffinity 6.37309837
REMARK  12 active torsions:
REMARK  status: ('A' for Active; 'I' for Inactive)
REMARK    1  A    between atoms: C19_21  and  O3_22 
REMARK    2  A    between atoms: C19_21  and  C20_23 
REMARK    3  A    between atoms: C20_23  and  C21_25 
REMARK    4  A    between atoms: C21_25  and  O5_26 
REMARK    5  A    between atoms: O5_26  and  C22_27 
REMARK    6  A    between atoms: C22_27  and  C23_29 
REMARK    7  A    between atoms: C23_29  and  C24_30 
REMARK    8  A    between atoms: C24_30  and  C25_31 
REMARK       I    between atoms: C25_31  and  N1_33 
REMARK    9  A    between atoms: N1_33  and  C26_34 
REMARK   10  A    between atoms: C26_34  and  C27_35 
REMARK   11  A    between atoms: C27_35  and  C28_36 
REMARK   12  A    between atoms: C31_39  and  O8_40 
ROOT
HETATM    1  C1  UNL     1      -6.041   5.919  15.640  1.00  0.00     0.021 C 
HETATM    2  C2  UNL     1      -6.017   6.122  14.102  1.00  0.00    -0.009 C 
HETATM    3  C3  UNL     1      -7.427   6.604  13.635  1.00  0.00     0.022 C 
HETATM    4  C4  UNL     1      -8.506   5.535  13.733  1.00  0.00     0.084 C 
HETATM    5  C5  UNL     1      -8.093   4.310  12.960  1.00  0.00     0.149 C 
HETATM    6  O1  UNL     1      -8.907   3.560  12.429  1.00  0.00    -0.293 OA
HETATM    7  C6  UNL     1      -6.655   3.958  12.935  1.00  0.00     0.053 C 
HETATM    8  C7  UNL     1      -5.717   4.745  13.494  1.00  0.00    -0.067 C 
HETATM    9  C8  UNL     1      -4.304   4.222  13.589  1.00  0.00     0.035 C 
HETATM   10  C9  UNL     1      -3.256   5.280  13.934  1.00  0.00     0.010 C 
HETATM   11  C10 UNL     1      -3.563   6.598  13.225  1.00  0.00     0.003 C 
HETATM   12  C11 UNL     1      -4.955   7.198  13.615  1.00  0.00     0.072 C 
HETATM   13  C12 UNL     1      -4.903   8.454  14.517  1.00  0.00     0.133 C 
HETATM   14  O2  UNL     1      -5.851   8.787  15.232  1.00  0.00    -0.297 OA
HETATM   15  C13 UNL     1      -3.722   9.398  14.398  1.00  0.00     0.091 C 
HETATM   16  C14 UNL     1      -2.403   8.628  14.406  1.00  0.00     0.005 C 
HETATM   17  C15 UNL     1      -2.212   7.940  15.776  1.00  0.00     0.019 C 
HETATM   18  C16 UNL     1      -2.446   7.651  13.214  1.00  0.00     0.002 C 
HETATM   19  C17 UNL     1      -0.990   7.208  13.042  1.00  0.00     0.009 C 
HETATM   20  C18 UNL     1      -0.145   8.410  13.513  1.00  0.00     0.047 C 
HETATM   21  C19 UNL     1      -1.143   9.467  14.021  1.00  0.00     0.128 C 
ENDROOT
BRANCH  21  22
HETATM   22  O3  UNL     1      -1.460  10.302  12.889  1.00  0.00    -0.381 OA
HETATM   23  H25 UNL     1      -1.779  11.156  13.250  1.00  0.00     0.211 HD
ENDBRANCH  21  22
BRANCH  21  24
HETATM   24  C20 UNL     1      -0.650  10.431  15.115  1.00  0.00     0.185 C 
HETATM   25  O4  UNL     1      -1.278  11.483  15.306  1.00  0.00    -0.292 OA
BRANCH  24  26
HETATM   26  C21 UNL     1       0.582  10.069  15.939  1.00  0.00     0.260 C 
BRANCH  26  27
HETATM   27  O5  UNL     1       0.867  11.044  16.947  1.00  0.00    -0.314 OA
BRANCH  27  28
HETATM   28  C22 UNL     1       1.341  10.513  18.111  1.00  0.00     0.259 C 
HETATM   29  O6  UNL     1       2.403   9.914  18.219  1.00  0.00    -0.265 OA
BRANCH  28  30
HETATM   30  C23 UNL     1       0.358  10.745  19.227  1.00  0.00     0.120 C 
BRANCH  30  31
HETATM   31  C24 UNL     1       1.024  11.489  20.377  1.00  0.00     0.112 C 
BRANCH  31  32
HETATM   32  C25 UNL     1       2.105  10.668  21.040  1.00  0.00     0.218 C 
HETATM   33  O7  UNL     1       1.907   9.579  21.567  1.00  0.00    -0.274 OA
HETATM   34  N1  UNL     1       3.340  11.276  20.983  1.00  0.00    -0.361 N 
HETATM   35  H32 UNL     1       3.440  12.144  20.471  1.00  0.00     0.162 HD
BRANCH  34  36
HETATM   36  C26 UNL     1       4.537  10.652  21.516  1.00  0.00     0.127 C 
BRANCH  36  37
HETATM   37  C27 UNL     1       4.837  11.103  22.948  1.00  0.00     0.058 C 
BRANCH  37  38
HETATM   38  C28 UNL     1       5.944  12.128  22.992  1.00  0.00    -0.057 A 
HETATM   39  C29 UNL     1       5.642  13.498  23.013  1.00  0.00     0.010 A 
HETATM   40  C30 UNL     1       6.663  14.447  23.078  1.00  0.00     0.037 A 
HETATM   41  C31 UNL     1       7.987  14.024  23.125  1.00  0.00     0.065 A 
HETATM   42  C32 UNL     1       8.306  12.671  23.109  1.00  0.00     0.037 A 
HETATM   43  C33 UNL     1       7.285  11.722  23.043  1.00  0.00     0.010 A 
BRANCH  41  44
HETATM   44  O8  UNL     1       9.016  14.917  23.190  1.00  0.00    -0.361 OA
HETATM   45  H39 UNL     1       8.648  15.816  23.157  1.00  0.00     0.217 HD
ENDBRANCH  41  44
ENDBRANCH  37  38
ENDBRANCH  36  37
ENDBRANCH  34  36
ENDBRANCH  31  32
ENDBRANCH  30  31
ENDBRANCH  28  30
ENDBRANCH  27  28
ENDBRANCH  26  27
ENDBRANCH  24  26
ENDBRANCH  21  24
TORSDOF 12
ENDMDL
MODEL 8
REMARK minimizedAffinity -7.96876478
REMARK CNNscore 0.285354972
REMARK CNNaffinity 6.04471779
REMARK  12 active torsions:
REMARK  status: ('A' for Active; 'I' for Inactive)
REMARK    1  A    between atoms: C19_21  and  O3_22 
REMARK    2  A    between atoms: C19_21  and  C20_23 
REMARK    3  A    between atoms: C20_23  and  C21_25 
REMARK    4  A    between atoms: C21_25  and  O5_26 
REMARK    5  A    between atoms: O5_26  and  C22_27 
REMARK    6  A    between atoms: C22_27  and  C23_29 
REMARK    7  A    between atoms: C23_29  and  C24_30 
REMARK    8  A    between atoms: C24_30  and  C25_31 
REMARK       I    between atoms: C25_31  and  N1_33 
REMARK    9  A    between atoms: N1_33  and  C26_34 
REMARK   10  A    between atoms: C26_34  and  C27_35 
REMARK   11  A    between atoms: C27_35  and  C28_36 
REMARK   12  A    between atoms: C31_39  and  O8_40 
ROOT
HETATM    1  C1  UNL     1      -2.231   7.093  12.794  1.00  0.00     0.021 C 
HETATM    2  C2  UNL     1      -3.129   6.637  13.974  1.00  0.00    -0.009 C 
HETATM    3  C3  UNL     1      -2.834   5.134  14.280  1.00  0.00     0.022 C 
HETATM    4  C4  UNL     1      -3.328   4.179  13.201  1.00  0.00     0.084 C 
HETATM    5  C5  UNL     1      -4.802   4.383  12.965  1.00  0.00     0.149 C 
HETATM    6  O1  UNL     1      -5.542   3.475  12.598  1.00  0.00    -0.293 OA
HETATM    7  C6  UNL     1      -5.341   5.757  13.088  1.00  0.00     0.053 C 
HETATM    8  C7  UNL     1      -4.578   6.789  13.492  1.00  0.00    -0.067 C 
HETATM    9  C8  UNL     1      -5.153   8.183  13.408  1.00  0.00     0.035 C 
HETATM   10  C9  UNL     1      -4.362   9.245  14.173  1.00  0.00     0.010 C 
HETATM   11  C10 UNL     1      -3.843   8.684  15.496  1.00  0.00     0.003 C 
HETATM   12  C11 UNL     1      -2.890   7.456  15.313  1.00  0.00     0.072 C 
HETATM   13  C12 UNL     1      -1.394   7.734  15.599  1.00  0.00     0.133 C 
HETATM   14  O2  UNL     1      -0.496   7.038  15.120  1.00  0.00    -0.297 OA
HETATM   15  C13 UNL     1      -1.024   8.784  16.629  1.00  0.00     0.091 C 
HETATM   16  C14 UNL     1      -1.816  10.071  16.407  1.00  0.00     0.005 C 
HETATM   17  C15 UNL     1      -1.419  10.698  15.053  1.00  0.00     0.019 C 
HETATM   18  C16 UNL     1      -3.310   9.703  16.513  1.00  0.00     0.002 C 
HETATM   19  C17 UNL     1      -4.016  11.051  16.676  1.00  0.00     0.009 C 
HETATM   20  C18 UNL     1      -2.999  11.953  17.406  1.00  0.00     0.047 C 
HETATM   21  C19 UNL     1      -1.714  11.118  17.560  1.00  0.00     0.128 C 
ENDROOT
BRANCH  21  22
HETATM   22  O3  UNL     1      -1.822  10.438  18.827  1.00  0.00    -0.381 OA
HETATM   23  H25 UNL     1      -0.909  10.212  19.104  1.00  0.00     0.211 HD
ENDBRANCH  21  22
BRANCH  21  24
HETATM   24  C20 UNL     1      -0.380  11.885  17.621  1.00  0.00     0.185 C 
HETATM   25  O4  UNL     1       0.088  12.345  16.569  1.00  0.00    -0.292 OA
BRANCH  24  26
HETATM   26  C21 UNL     1       0.322  12.068  18.963  1.00  0.00     0.260 C 
BRANCH  26  27
HETATM   27  O5  UNL     1       0.762  10.825  19.519  1.00  0.00    -0.314 OA
BRANCH  27  28
HETATM   28  C22 UNL     1       2.118  10.711  19.614  1.00  0.00     0.259 C 
HETATM   29  O6  UNL     1       2.730   9.653  19.557  1.00  0.00    -0.265 OA
BRANCH  28  30
HETATM   30  C23 UNL     1       2.741  12.065  19.827  1.00  0.00     0.120 C 
BRANCH  30  31
HETATM   31  C24 UNL     1       3.566  12.076  21.107  1.00  0.00     0.112 C 
BRANCH  31  32
HETATM   32  C25 UNL     1       5.032  12.331  20.841  1.00  0.00     0.218 C 
HETATM   33  O7  UNL     1       5.866  12.491  21.724  1.00  0.00    -0.274 OA
HETATM   34  N1  UNL     1       5.328  12.358  19.496  1.00  0.00    -0.361 N 
HETATM   35  H32 UNL     1       4.598  12.149  18.825  1.00  0.00     0.162 HD
BRANCH  34  36
HETATM   36  C26 UNL     1       6.680  12.544  19.003  1.00  0.00     0.127 C 
BRANCH  36  37
HETATM   37  C27 UNL     1       7.455  11.226  18.928  1.00  0.00     0.058 C 
BRANCH  37  38
HETATM   38  C28 UNL     1       8.889  11.394  19.365  1.00  0.00    -0.057 A 
HETATM   39  C29 UNL     1       9.925  10.768  18.656  1.00  0.00     0.010 A 
HETATM   40  C30 UNL     1      11.255  10.942  19.044  1.00  0.00     0.037 A 
HETATM   41  C31 UNL     1      11.548  11.746  20.140  1.00  0.00     0.065 A 
HETATM   42  C32 UNL     1      10.535  12.378  20.852  1.00  0.00     0.037 A 
HETATM   43  C33 UNL     1       9.206  12.204  20.465  1.00  0.00     0.010 A 
BRANCH  41  44
HETATM   44  O8  UNL     1      12.832  11.943  20.553  1.00  0.00    -0.361 OA
HETATM   45  H39 UNL     1      13.423  11.416  19.990  1.00  0.00     0.217 HD
ENDBRANCH  41  44
ENDBRANCH  37  38
ENDBRANCH  36  37
ENDBRANCH  34  36
ENDBRANCH  31  32
ENDBRANCH  30  31
ENDBRANCH  28  30
ENDBRANCH  27  28
ENDBRANCH  26  27
ENDBRANCH  24  26
ENDBRANCH  21  24
TORSDOF 12
ENDMDL
MODEL 9
REMARK minimizedAffinity -7.49801445
REMARK CNNscore 0.262749672
REMARK CNNaffinity 6.57182646
REMARK  12 active torsions:
REMARK  status: ('A' for Active; 'I' for Inactive)
REMARK    1  A    between atoms: C19_21  and  O3_22 
REMARK    2  A    between atoms: C19_21  and  C20_23 
REMARK    3  A    between atoms: C20_23  and  C21_25 
REMARK    4  A    between atoms: C21_25  and  O5_26 
REMARK    5  A    between atoms: O5_26  and  C22_27 
REMARK    6  A    between atoms: C22_27  and  C23_29 
REMARK    7  A    between atoms: C23_29  and  C24_30 
REMARK    8  A    between atoms: C24_30  and  C25_31 
REMARK       I    between atoms: C25_31  and  N1_33 
REMARK    9  A    between atoms: N1_33  and  C26_34 
REMARK   10  A    between atoms: C26_34  and  C27_35 
REMARK   11  A    between atoms: C27_35  and  C28_36 
REMARK   12  A    between atoms: C31_39  and  O8_40 
ROOT
HETATM    1  C1  UNL     1      -7.081   7.196  13.508  1.00  0.00     0.021 C 
HETATM    2  C2  UNL     1      -8.066   6.092  13.975  1.00  0.00    -0.009 C 
HETATM    3  C3  UNL     1      -7.275   5.024  14.795  1.00  0.00     0.022 C 
HETATM    4  C4  UNL     1      -6.328   4.180  13.953  1.00  0.00     0.084 C 
HETATM    5  C5  UNL     1      -7.083   3.518  12.831  1.00  0.00     0.149 C 
HETATM    6  O1  UNL     1      -6.748   2.436  12.359  1.00  0.00    -0.293 OA
HETATM    7  C6  UNL     1      -8.208   4.262  12.218  1.00  0.00     0.053 C 
HETATM    8  C7  UNL     1      -8.623   5.450  12.697  1.00  0.00    -0.067 C 
HETATM    9  C8  UNL     1      -9.646   6.225  11.903  1.00  0.00     0.035 C 
HETATM   10  C9  UNL     1     -10.293   7.386  12.660  1.00  0.00     0.010 C 
HETATM   11  C10 UNL     1     -10.548   7.006  14.117  1.00  0.00     0.003 C 
HETATM   12  C11 UNL     1      -9.242   6.631  14.895  1.00  0.00     0.072 C 
HETATM   13  C12 UNL     1      -8.771   7.676  15.935  1.00  0.00     0.133 C 
HETATM   14  O2  UNL     1      -7.599   7.744  16.311  1.00  0.00    -0.297 OA
HETATM   15  C13 UNL     1      -9.806   8.532  16.640  1.00  0.00     0.091 C 
HETATM   16  C14 UNL     1     -10.800   9.121  15.641  1.00  0.00     0.005 C 
HETATM   17  C15 UNL     1     -10.068  10.099  14.695  1.00  0.00     0.019 C 
HETATM   18  C16 UNL     1     -11.470   7.935  14.920  1.00  0.00     0.002 C 
HETATM   19  C17 UNL     1     -12.696   8.553  14.244  1.00  0.00     0.009 C 
HETATM   20  C18 UNL     1     -13.111   9.726  15.155  1.00  0.00     0.047 C 
HETATM   21  C19 UNL     1     -12.058   9.795  16.277  1.00  0.00     0.128 C 
ENDROOT
BRANCH  21  22
HETATM   22  O3  UNL     1     -12.550   8.962  17.346  1.00  0.00    -0.381 OA
HETATM   23  H25 UNL     1     -12.109   9.269  18.167  1.00  0.00     0.211 HD
ENDBRANCH  21  22
BRANCH  21  24
HETATM   24  C20 UNL     1     -11.800  11.172  16.916  1.00  0.00     0.185 C 
HETATM   25  O4  UNL     1     -12.179  12.187  16.314  1.00  0.00    -0.292 OA
BRANCH  24  26
HETATM   26  C21 UNL     1     -11.099  11.254  18.269  1.00  0.00     0.260 C 
BRANCH  26  27
HETATM   27  O5  UNL     1     -11.998  11.036  19.360  1.00  0.00    -0.314 OA
BRANCH  27  28
HETATM   28  C22 UNL     1     -11.489  10.243  20.347  1.00  0.00     0.259 C 
HETATM   29  O6  UNL     1     -11.460   9.020  20.308  1.00  0.00    -0.265 OA
BRANCH  28  30
HETATM   30  C23 UNL     1     -10.999  11.087  21.493  1.00  0.00     0.120 C 
BRANCH  30  31
HETATM   31  C24 UNL     1     -10.436  10.206  22.600  1.00  0.00     0.112 C 
BRANCH  31  32
HETATM   32  C25 UNL     1     -11.522   9.589  23.450  1.00  0.00     0.218 C 
HETATM   33  O7  UNL     1     -12.243  10.232  24.206  1.00  0.00    -0.274 OA
HETATM   34  N1  UNL     1     -11.617   8.226  23.279  1.00  0.00    -0.361 N 
HETATM   35  H32 UNL     1     -11.034   7.773  22.587  1.00  0.00     0.162 HD
BRANCH  34  36
HETATM   36  C26 UNL     1     -12.619   7.427  23.960  1.00  0.00     0.127 C 
BRANCH  36  37
HETATM   37  C27 UNL     1     -13.535   6.688  22.980  1.00  0.00     0.058 C 
BRANCH  37  38
HETATM   38  C28 UNL     1     -13.819   5.278  23.435  1.00  0.00    -0.057 A 
HETATM   39  C29 UNL     1     -13.899   4.234  22.501  1.00  0.00     0.010 A 
HETATM   40  C30 UNL     1     -14.139   2.924  22.922  1.00  0.00     0.037 A 
HETATM   41  C31 UNL     1     -14.295   2.660  24.279  1.00  0.00     0.065 A 
HETATM   42  C32 UNL     1     -14.214   3.681  25.219  1.00  0.00     0.037 A 
HETATM   43  C33 UNL     1     -13.976   4.990  24.799  1.00  0.00     0.010 A 
BRANCH  41  44
HETATM   44  O8  UNL     1     -14.529   1.396  24.733  1.00  0.00    -0.361 OA
HETATM   45  H39 UNL     1     -14.596   0.799  23.969  1.00  0.00     0.217 HD
ENDBRANCH  41  44
ENDBRANCH  37  38
ENDBRANCH  36  37
ENDBRANCH  34  36
ENDBRANCH  31  32
ENDBRANCH  30  31
ENDBRANCH  28  30
ENDBRANCH  27  28
ENDBRANCH  26  27
ENDBRANCH  24  26
ENDBRANCH  21  24
TORSDOF 12
ENDMDL
