MODEL 1
REMARK minimizedAffinity -8.68203926
REMARK CNNscore 0.566605747
REMARK CNNaffinity 6.16241884
REMARK  13 active torsions:
REMARK  status: ('A' for Active; 'I' for Inactive)
REMARK    1  A    between atoms: C19_21  and  O3_22 
REMARK    2  A    between atoms: C19_21  and  C20_23 
REMARK    3  A    between atoms: C20_23  and  C21_25 
REMARK    4  A    between atoms: C21_25  and  O5_26 
REMARK    5  A    between atoms: O5_26  and  C22_27 
REMARK    6  A    between atoms: C22_27  and  C23_29 
REMARK    7  A    between atoms: C23_29  and  C24_30 
REMARK    8  A    between atoms: C24_30  and  C25_31 
REMARK       I    between atoms: C25_31  and  N1_33 
REMARK    9  A    between atoms: N1_33  and  C26_34 
REMARK   10  A    between atoms: C26_34  and  C27_35 
REMARK   11  A    between atoms: C26_34  and  C34_42 
REMARK   12  A    between atoms: C27_35  and  C28_36 
REMARK   13  A    between atoms: C34_42  and  O9_44 
ROOT
HETATM    1  C20 UNL     1     -10.687  47.718 -26.005  1.00  0.00     0.185 C 
HETATM    2  O4  UNL     1     -10.697  47.339 -24.827  1.00  0.00    -0.292 OA
ENDROOT
BRANCH   1   3
HETATM    3  C19 UNL     1      -9.331  48.051 -26.654  1.00  0.00     0.128 C 
HETATM    4  C14 UNL     1      -9.108  47.362 -28.032  1.00  0.00     0.005 C 
HETATM    5  C13 UNL     1      -9.926  47.901 -29.213  1.00  0.00     0.091 C 
HETATM    6  C15 UNL     1      -9.339  45.830 -27.917  1.00  0.00     0.019 C 
HETATM    7  C16 UNL     1      -7.627  47.748 -28.282  1.00  0.00     0.002 C 
HETATM    8  C12 UNL     1      -9.373  47.316 -30.506  1.00  0.00     0.133 C 
HETATM    9  C11 UNL     1      -7.875  47.555 -30.785  1.00  0.00     0.072 C 
HETATM   10  O2  UNL     1     -10.118  46.709 -31.274  1.00  0.00    -0.297 OA
HETATM   11  C2  UNL     1      -7.335  46.971 -32.141  1.00  0.00    -0.009 C 
HETATM   12  C10 UNL     1      -7.037  47.112 -29.549  1.00  0.00     0.003 C 
HETATM   13  C1  UNL     1      -7.541  45.443 -32.258  1.00  0.00     0.021 C 
HETATM   14  C3  UNL     1      -8.060  47.692 -33.316  1.00  0.00     0.022 C 
HETATM   15  C7  UNL     1      -5.822  47.239 -32.231  1.00  0.00    -0.067 C 
HETATM   16  C4  UNL     1      -7.384  47.502 -34.667  1.00  0.00     0.084 C 
HETATM   17  C5  UNL     1      -5.947  47.941 -34.598  1.00  0.00     0.149 C 
HETATM   18  O1  UNL     1      -5.350  48.408 -35.565  1.00  0.00    -0.293 OA
HETATM   19  C6  UNL     1      -5.214  47.718 -33.332  1.00  0.00     0.053 C 
HETATM   20  C8  UNL     1      -4.994  46.905 -31.013  1.00  0.00     0.035 C 
HETATM   21  C9  UNL     1      -5.570  47.518 -29.744  1.00  0.00     0.010 C 
HETATM   22  C17 UNL     1      -6.948  47.461 -26.947  1.00  0.00     0.009 C 
HETATM   23  C18 UNL     1      -8.039  47.708 -25.883  1.00  0.00     0.047 C 
BRANCH   3  24
HETATM   24  O3  UNL     1      -9.339  49.481 -26.830  1.00  0.00    -0.381 OA
HETATM   25  H25 UNL     1     -10.245  49.722 -27.112  1.00  0.00     0.211 HD
ENDBRANCH   3  24
ENDBRANCH   1   3
BRANCH   1  26
HETATM   26  C21 UNL     1     -11.991  47.928 -26.771  1.00  0.00     0.260 C 
BRANCH  26  27
HETATM   27  O5  UNL     1     -12.798  46.780 -27.008  1.00  0.00    -0.314 OA
BRANCH  27  28
HETATM   28  C22 UNL     1     -13.860  46.635 -26.170  1.00  0.00     0.259 C 
HETATM   29  O6  UNL     1     -14.309  47.527 -25.465  1.00  0.00    -0.265 OA
BRANCH  28  30
HETATM   30  C23 UNL     1     -14.361  45.208 -26.130  1.00  0.00     0.120 C 
BRANCH  30  31
HETATM   31  C24 UNL     1     -14.747  44.705 -24.743  1.00  0.00     0.112 C 
BRANCH  31  32
HETATM   32  C25 UNL     1     -16.232  44.842 -24.478  1.00  0.00     0.218 C 
HETATM   33  O7  UNL     1     -16.986  43.887 -24.343  1.00  0.00    -0.274 OA
HETATM   34  N1  UNL     1     -16.654  46.147 -24.410  1.00  0.00    -0.346 N 
HETATM   35  H32 UNL     1     -15.976  46.902 -24.356  1.00  0.00     0.163 HD
BRANCH  34  36
HETATM   36  C26 UNL     1     -18.037  46.497 -24.048  1.00  0.00     0.186 C 
BRANCH  36  37
HETATM   37  C27 UNL     1     -18.512  45.704 -22.821  1.00  0.00     0.074 C 
BRANCH  37  38
HETATM   38  C28 UNL     1     -18.064  46.327 -21.520  1.00  0.00    -0.056 A 
HETATM   39  C29 UNL     1     -16.713  46.336 -21.151  1.00  0.00     0.007 A 
HETATM   40  C30 UNL     1     -16.316  46.901 -19.937  1.00  0.00     0.001 A 
HETATM   41  C31 UNL     1     -17.264  47.463 -19.083  1.00  0.00     0.000 A 
HETATM   42  C32 UNL     1     -18.610  47.454 -19.439  1.00  0.00     0.001 A 
HETATM   43  C33 UNL     1     -19.011  46.887 -20.650  1.00  0.00     0.007 A 
ENDBRANCH  37  38
ENDBRANCH  36  37
BRANCH  36  44
HETATM   44  C34 UNL     1     -18.956  46.210 -25.245  1.00  0.00     0.163 C 
HETATM   45  O8  UNL     1     -18.642  45.749 -26.329  1.00  0.00    -0.648 OA
BRANCH  44  46
HETATM   46  O9  UNL     1     -20.254  46.532 -25.013  1.00  0.00    -0.775 OA
HETATM   47  H41 UNL     1     -20.694  46.301 -25.860  1.00  0.00     0.167 HD
ENDBRANCH  44  46
ENDBRANCH  36  44
ENDBRANCH  34  36
ENDBRANCH  31  32
ENDBRANCH  30  31
ENDBRANCH  28  30
ENDBRANCH  27  28
ENDBRANCH  26  27
ENDBRANCH   1  26
TORSDOF 13
ENDMDL
MODEL 2
REMARK minimizedAffinity -9.51167297
REMARK CNNscore 0.525646806
REMARK CNNaffinity 7.54058981
REMARK  13 active torsions:
REMARK  status: ('A' for Active; 'I' for Inactive)
REMARK    1  A    between atoms: C19_21  and  O3_22 
REMARK    2  A    between atoms: C19_21  and  C20_23 
REMARK    3  A    between atoms: C20_23  and  C21_25 
REMARK    4  A    between atoms: C21_25  and  O5_26 
REMARK    5  A    between atoms: O5_26  and  C22_27 
REMARK    6  A    between atoms: C22_27  and  C23_29 
REMARK    7  A    between atoms: C23_29  and  C24_30 
REMARK    8  A    between atoms: C24_30  and  C25_31 
REMARK       I    between atoms: C25_31  and  N1_33 
REMARK    9  A    between atoms: N1_33  and  C26_34 
REMARK   10  A    between atoms: C26_34  and  C27_35 
REMARK   11  A    between atoms: C26_34  and  C34_42 
REMARK   12  A    between atoms: C27_35  and  C28_36 
REMARK   13  A    between atoms: C34_42  and  O9_44 
ROOT
HETATM    1  C20 UNL     1      -6.768  47.810 -20.502  1.00  0.00     0.185 C 
HETATM    2  O4  UNL     1      -6.562  46.601 -20.343  1.00  0.00    -0.292 OA
ENDROOT
BRANCH   1   3
HETATM    3  C19 UNL     1      -5.927  48.808 -19.686  1.00  0.00     0.128 C 
HETATM    4  C14 UNL     1      -4.476  48.993 -20.221  1.00  0.00     0.005 C 
HETATM    5  C13 UNL     1      -4.319  49.770 -21.534  1.00  0.00     0.091 C 
HETATM    6  C15 UNL     1      -3.772  47.616 -20.363  1.00  0.00     0.019 C 
HETATM    7  C16 UNL     1      -3.890  49.875 -19.089  1.00  0.00     0.002 C 
HETATM    8  C12 UNL     1      -2.846  50.096 -21.743  1.00  0.00     0.133 C 
HETATM    9  C11 UNL     1      -2.147  50.878 -20.612  1.00  0.00     0.072 C 
HETATM   10  O2  UNL     1      -2.282  49.756 -22.782  1.00  0.00    -0.297 OA
HETATM   11  C2  UNL     1      -0.636  51.232 -20.865  1.00  0.00    -0.009 C 
HETATM   12  C10 UNL     1      -2.389  50.158 -19.253  1.00  0.00     0.003 C 
HETATM   13  C1  UNL     1       0.239  49.980 -21.107  1.00  0.00     0.021 C 
HETATM   14  C3  UNL     1      -0.548  52.183 -22.096  1.00  0.00     0.022 C 
HETATM   15  C7  UNL     1      -0.078  51.949 -19.622  1.00  0.00    -0.067 C 
HETATM   16  C4  UNL     1       0.790  52.897 -22.228  1.00  0.00     0.084 C 
HETATM   17  C5  UNL     1       1.106  53.652 -20.967  1.00  0.00     0.149 C 
HETATM   18  O1  UNL     1       1.765  54.689 -20.964  1.00  0.00    -0.293 OA
HETATM   19  C6  UNL     1       0.671  53.065 -19.680  1.00  0.00     0.053 C 
HETATM   20  C8  UNL     1      -0.375  51.324 -18.280  1.00  0.00     0.035 C 
HETATM   21  C9  UNL     1      -1.857  51.025 -18.103  1.00  0.00     0.010 C 
HETATM   22  C17 UNL     1      -4.360  49.186 -17.812  1.00  0.00     0.009 C 
HETATM   23  C18 UNL     1      -5.710  48.536 -18.183  1.00  0.00     0.047 C 
BRANCH   3  24
HETATM   24  O3  UNL     1      -6.634  50.061 -19.780  1.00  0.00    -0.381 OA
HETATM   25  H25 UNL     1      -6.966  50.125 -20.699  1.00  0.00     0.211 HD
ENDBRANCH   3  24
ENDBRANCH   1   3
BRANCH   1  26
HETATM   26  C21 UNL     1      -7.883  48.300 -21.424  1.00  0.00     0.260 C 
BRANCH  26  27
HETATM   27  O5  UNL     1      -7.492  48.953 -22.626  1.00  0.00    -0.314 OA
BRANCH  27  28
HETATM   28  C22 UNL     1      -7.788  48.284 -23.773  1.00  0.00     0.259 C 
HETATM   29  O6  UNL     1      -8.856  47.732 -23.993  1.00  0.00    -0.265 OA
BRANCH  28  30
HETATM   30  C23 UNL     1      -6.601  48.209 -24.709  1.00  0.00     0.120 C 
BRANCH  30  31
HETATM   31  C24 UNL     1      -5.470  49.179 -24.386  1.00  0.00     0.112 C 
BRANCH  31  32
HETATM   32  C25 UNL     1      -4.293  49.018 -25.326  1.00  0.00     0.218 C 
HETATM   33  O7  UNL     1      -3.507  48.080 -25.271  1.00  0.00    -0.274 OA
HETATM   34  N1  UNL     1      -4.187  50.033 -26.244  1.00  0.00    -0.346 N 
HETATM   35  H32 UNL     1      -4.948  50.695 -26.366  1.00  0.00     0.163 HD
BRANCH  34  36
HETATM   36  C26 UNL     1      -3.180  50.005 -27.317  1.00  0.00     0.186 C 
BRANCH  36  37
HETATM   37  C27 UNL     1      -2.562  51.394 -27.542  1.00  0.00     0.074 C 
BRANCH  37  38
HETATM   38  C28 UNL     1      -1.097  51.442 -27.179  1.00  0.00    -0.056 A 
HETATM   39  C29 UNL     1      -0.670  51.211 -25.866  1.00  0.00     0.007 A 
HETATM   40  C30 UNL     1       0.687  51.275 -25.542  1.00  0.00     0.001 A 
HETATM   41  C31 UNL     1       1.628  51.568 -26.528  1.00  0.00     0.000 A 
HETATM   42  C32 UNL     1       1.213  51.805 -27.836  1.00  0.00     0.001 A 
HETATM   43  C33 UNL     1      -0.143  51.745 -28.162  1.00  0.00     0.007 A 
ENDBRANCH  37  38
ENDBRANCH  36  37
BRANCH  36  44
HETATM   44  C34 UNL     1      -3.842  49.512 -28.613  1.00  0.00     0.163 C 
HETATM   45  O8  UNL     1      -4.345  48.421 -28.821  1.00  0.00    -0.648 OA
BRANCH  44  46
HETATM   46  O9  UNL     1      -3.830  50.436 -29.607  1.00  0.00    -0.775 OA
HETATM   47  H41 UNL     1      -4.272  49.968 -30.348  1.00  0.00     0.167 HD
ENDBRANCH  44  46
ENDBRANCH  36  44
ENDBRANCH  34  36
ENDBRANCH  31  32
ENDBRANCH  30  31
ENDBRANCH  28  30
ENDBRANCH  27  28
ENDBRANCH  26  27
ENDBRANCH   1  26
TORSDOF 13
ENDMDL
MODEL 3
REMARK minimizedAffinity -8.9517889
REMARK CNNscore 0.477424771
REMARK CNNaffinity 5.62262726
REMARK  13 active torsions:
REMARK  status: ('A' for Active; 'I' for Inactive)
REMARK    1  A    between atoms: C19_21  and  O3_22 
REMARK    2  A    between atoms: C19_21  and  C20_23 
REMARK    3  A    between atoms: C20_23  and  C21_25 
REMARK    4  A    between atoms: C21_25  and  O5_26 
REMARK    5  A    between atoms: O5_26  and  C22_27 
REMARK    6  A    between atoms: C22_27  and  C23_29 
REMARK    7  A    between atoms: C23_29  and  C24_30 
REMARK    8  A    between atoms: C24_30  and  C25_31 
REMARK       I    between atoms: C25_31  and  N1_33 
REMARK    9  A    between atoms: N1_33  and  C26_34 
REMARK   10  A    between atoms: C26_34  and  C27_35 
REMARK   11  A    between atoms: C26_34  and  C34_42 
REMARK   12  A    between atoms: C27_35  and  C28_36 
REMARK   13  A    between atoms: C34_42  and  O9_44 
ROOT
HETATM    1  C20 UNL     1      -8.910  48.214 -24.300  1.00  0.00     0.185 C 
HETATM    2  O4  UNL     1      -9.023  49.341 -24.799  1.00  0.00    -0.292 OA
ENDROOT
BRANCH   1   3
HETATM    3  C19 UNL     1      -7.803  47.985 -23.256  1.00  0.00     0.128 C 
HETATM    4  C14 UNL     1      -6.422  48.581 -23.664  1.00  0.00     0.005 C 
HETATM    5  C13 UNL     1      -6.292  50.108 -23.623  1.00  0.00     0.091 C 
HETATM    6  C15 UNL     1      -6.008  48.076 -25.073  1.00  0.00     0.019 C 
HETATM    7  C16 UNL     1      -5.544  48.012 -22.519  1.00  0.00     0.002 C 
HETATM    8  C12 UNL     1      -4.822  50.484 -23.764  1.00  0.00     0.133 C 
HETATM    9  C11 UNL     1      -3.853  49.872 -22.733  1.00  0.00     0.072 C 
HETATM   10  O2  UNL     1      -4.468  51.255 -24.655  1.00  0.00    -0.297 OA
HETATM   11  C2  UNL     1      -2.347  50.299 -22.879  1.00  0.00    -0.009 C 
HETATM   12  C10 UNL     1      -4.049  48.328 -22.684  1.00  0.00     0.003 C 
HETATM   13  C1  UNL     1      -1.757  49.947 -24.265  1.00  0.00     0.021 C 
HETATM   14  C3  UNL     1      -2.241  51.835 -22.636  1.00  0.00     0.022 C 
HETATM   15  C7  UNL     1      -1.513  49.554 -21.821  1.00  0.00    -0.067 C 
HETATM   16  C4  UNL     1      -0.822  52.321 -22.378  1.00  0.00     0.084 C 
HETATM   17  C5  UNL     1      -0.214  51.572 -21.225  1.00  0.00     0.149 C 
HETATM   18  O1  UNL     1       0.620  52.073 -20.476  1.00  0.00    -0.293 OA
HETATM   19  C6  UNL     1      -0.584  50.149 -21.051  1.00  0.00     0.053 C 
HETATM   20  C8  UNL     1      -1.748  48.069 -21.686  1.00  0.00     0.035 C 
HETATM   21  C9  UNL     1      -3.225  47.735 -21.533  1.00  0.00     0.010 C 
HETATM   22  C17 UNL     1      -5.967  46.549 -22.430  1.00  0.00     0.009 C 
HETATM   23  C18 UNL     1      -7.450  46.536 -22.859  1.00  0.00     0.047 C 
BRANCH   3  24
HETATM   24  O3  UNL     1      -8.271  48.638 -22.060  1.00  0.00    -0.381 OA
HETATM   25  H25 UNL     1      -8.699  49.471 -22.347  1.00  0.00     0.211 HD
ENDBRANCH   3  24
ENDBRANCH   1   3
BRANCH   1  26
HETATM   26  C21 UNL     1      -9.794  47.059 -24.766  1.00  0.00     0.260 C 
BRANCH  26  27
HETATM   27  O5  UNL     1     -11.074  46.934 -24.156  1.00  0.00    -0.314 OA
BRANCH  27  28
HETATM   28  C22 UNL     1     -12.134  47.143 -24.983  1.00  0.00     0.259 C 
HETATM   29  O6  UNL     1     -12.091  47.819 -26.000  1.00  0.00    -0.265 OA
BRANCH  28  30
HETATM   30  C23 UNL     1     -13.406  46.527 -24.443  1.00  0.00     0.120 C 
BRANCH  30  31
HETATM   31  C24 UNL     1     -14.648  46.778 -25.293  1.00  0.00     0.112 C 
BRANCH  31  32
HETATM   32  C25 UNL     1     -15.886  46.142 -24.696  1.00  0.00     0.218 C 
HETATM   33  O7  UNL     1     -15.965  44.954 -24.410  1.00  0.00    -0.274 OA
HETATM   34  N1  UNL     1     -16.919  47.027 -24.514  1.00  0.00    -0.346 N 
HETATM   35  H32 UNL     1     -16.759  48.026 -24.603  1.00  0.00     0.163 HD
BRANCH  34  36
HETATM   36  C26 UNL     1     -18.169  46.634 -23.843  1.00  0.00     0.186 C 
BRANCH  36  37
HETATM   37  C27 UNL     1     -17.904  45.626 -22.713  1.00  0.00     0.074 C 
BRANCH  37  38
HETATM   38  C28 UNL     1     -17.597  46.300 -21.397  1.00  0.00    -0.056 A 
HETATM   39  C29 UNL     1     -18.625  46.737 -20.552  1.00  0.00     0.007 A 
HETATM   40  C30 UNL     1     -18.326  47.373 -19.345  1.00  0.00     0.001 A 
HETATM   41  C31 UNL     1     -16.997  47.576 -18.972  1.00  0.00     0.000 A 
HETATM   42  C32 UNL     1     -15.969  47.150 -19.807  1.00  0.00     0.001 A 
HETATM   43  C33 UNL     1     -16.264  46.517 -21.015  1.00  0.00     0.007 A 
ENDBRANCH  37  38
ENDBRANCH  36  37
BRANCH  36  44
HETATM   44  C34 UNL     1     -19.123  46.019 -24.879  1.00  0.00     0.163 C 
HETATM   45  O8  UNL     1     -20.115  46.530 -25.369  1.00  0.00    -0.648 OA
BRANCH  44  46
HETATM   46  O9  UNL     1     -18.775  44.760 -25.248  1.00  0.00    -0.775 OA
HETATM   47  H41 UNL     1     -19.476  44.517 -25.890  1.00  0.00     0.167 HD
ENDBRANCH  44  46
ENDBRANCH  36  44
ENDBRANCH  34  36
ENDBRANCH  31  32
ENDBRANCH  30  31
ENDBRANCH  28  30
ENDBRANCH  27  28
ENDBRANCH  26  27
ENDBRANCH   1  26
TORSDOF 13
ENDMDL
MODEL 4
REMARK minimizedAffinity -9.1676445
REMARK CNNscore 0.473012835
REMARK CNNaffinity 7.27613688
REMARK  13 active torsions:
REMARK  status: ('A' for Active; 'I' for Inactive)
REMARK    1  A    between atoms: C19_21  and  O3_22 
REMARK    2  A    between atoms: C19_21  and  C20_23 
REMARK    3  A    between atoms: C20_23  and  C21_25 
REMARK    4  A    between atoms: C21_25  and  O5_26 
REMARK    5  A    between atoms: O5_26  and  C22_27 
REMARK    6  A    between atoms: C22_27  and  C23_29 
REMARK    7  A    between atoms: C23_29  and  C24_30 
REMARK    8  A    between atoms: C24_30  and  C25_31 
REMARK       I    between atoms: C25_31  and  N1_33 
REMARK    9  A    between atoms: N1_33  and  C26_34 
REMARK   10  A    between atoms: C26_34  and  C27_35 
REMARK   11  A    between atoms: C26_34  and  C34_42 
REMARK   12  A    between atoms: C27_35  and  C28_36 
REMARK   13  A    between atoms: C34_42  and  O9_44 
ROOT
HETATM    1  C20 UNL     1      -3.054  50.872 -13.283  1.00  0.00     0.185 C 
HETATM    2  O4  UNL     1      -3.249  49.708 -12.910  1.00  0.00    -0.292 OA
ENDROOT
BRANCH   1   3
HETATM    3  C19 UNL     1      -2.926  51.970 -12.212  1.00  0.00     0.128 C 
HETATM    4  C14 UNL     1      -1.491  52.111 -11.624  1.00  0.00     0.005 C 
HETATM    5  C13 UNL     1      -0.428  52.732 -12.539  1.00  0.00     0.091 C 
HETATM    6  C15 UNL     1      -0.977  50.737 -11.114  1.00  0.00     0.019 C 
HETATM    7  C16 UNL     1      -1.773  53.128 -10.487  1.00  0.00     0.002 C 
HETATM    8  C12 UNL     1       0.811  53.052 -11.714  1.00  0.00     0.133 C 
HETATM    9  C11 UNL     1       0.606  53.970 -10.492  1.00  0.00     0.072 C 
HETATM   10  O2  UNL     1       1.906  52.600 -12.047  1.00  0.00    -0.297 OA
HETATM   11  C2  UNL     1       1.904  54.312  -9.674  1.00  0.00    -0.009 C 
HETATM   12  C10 UNL     1      -0.546  53.410  -9.606  1.00  0.00     0.003 C 
HETATM   13  C1  UNL     1       2.620  53.053  -9.132  1.00  0.00     0.021 C 
HETATM   14  C3  UNL     1       2.873  55.114 -10.594  1.00  0.00     0.022 C 
HETATM   15  C7  UNL     1       1.515  55.177  -8.462  1.00  0.00    -0.067 C 
HETATM   16  C4  UNL     1       3.989  55.826  -9.842  1.00  0.00     0.084 C 
HETATM   17  C5  UNL     1       3.413  56.728  -8.785  1.00  0.00     0.149 C 
HETATM   18  O1  UNL     1       3.965  57.767  -8.430  1.00  0.00    -0.293 OA
HETATM   19  C6  UNL     1       2.179  56.290  -8.097  1.00  0.00     0.053 C 
HETATM   20  C8  UNL     1       0.342  54.709  -7.635  1.00  0.00     0.035 C 
HETATM   21  C9  UNL     1      -0.880  54.413  -8.493  1.00  0.00     0.010 C 
HETATM   22  C17 UNL     1      -3.032  52.587  -9.820  1.00  0.00     0.009 C 
HETATM   23  C18 UNL     1      -3.810  51.878 -10.950  1.00  0.00     0.047 C 
BRANCH   3  24
HETATM   24  O3  UNL     1      -3.290  53.194 -12.882  1.00  0.00    -0.381 OA
HETATM   25  H25 UNL     1      -2.902  53.145 -13.780  1.00  0.00     0.211 HD
ENDBRANCH   3  24
ENDBRANCH   1   3
BRANCH   1  26
HETATM   26  C21 UNL     1      -3.021  51.224 -14.769  1.00  0.00     0.260 C 
BRANCH  26  27
HETATM   27  O5  UNL     1      -2.035  50.579 -15.567  1.00  0.00    -0.314 OA
BRANCH  27  28
HETATM   28  C22 UNL     1      -2.015  50.949 -16.876  1.00  0.00     0.259 C 
HETATM   29  O6  UNL     1      -3.012  51.209 -17.534  1.00  0.00    -0.265 OA
BRANCH  28  30
HETATM   30  C23 UNL     1      -0.620  50.898 -17.461  1.00  0.00     0.120 C 
BRANCH  30  31
HETATM   31  C24 UNL     1      -0.512  50.167 -18.795  1.00  0.00     0.112 C 
BRANCH  31  32
HETATM   32  C25 UNL     1      -0.774  51.084 -19.972  1.00  0.00     0.218 C 
HETATM   33  O7  UNL     1      -1.858  51.170 -20.534  1.00  0.00    -0.274 OA
HETATM   34  N1  UNL     1       0.329  51.807 -20.354  1.00  0.00    -0.346 N 
HETATM   35  H32 UNL     1       1.153  51.835 -19.760  1.00  0.00     0.163 HD
BRANCH  34  36
HETATM   36  C26 UNL     1       0.255  52.838 -21.402  1.00  0.00     0.186 C 
BRANCH  36  37
HETATM   37  C27 UNL     1       0.674  52.276 -22.769  1.00  0.00     0.074 C 
BRANCH  37  38
HETATM   38  C28 UNL     1      -0.503  52.043 -23.686  1.00  0.00    -0.056 A 
HETATM   39  C29 UNL     1      -0.399  51.195 -24.795  1.00  0.00     0.007 A 
HETATM   40  C30 UNL     1      -1.492  51.002 -25.643  1.00  0.00     0.001 A 
HETATM   41  C31 UNL     1      -2.698  51.654 -25.389  1.00  0.00     0.000 A 
HETATM   42  C32 UNL     1      -2.810  52.504 -24.291  1.00  0.00     0.001 A 
HETATM   43  C33 UNL     1      -1.719  52.701 -23.444  1.00  0.00     0.007 A 
ENDBRANCH  37  38
ENDBRANCH  36  37
BRANCH  36  44
HETATM   44  C34 UNL     1       1.168  54.011 -21.016  1.00  0.00     0.163 C 
HETATM   45  O8  UNL     1       1.689  54.823 -21.761  1.00  0.00    -0.648 OA
BRANCH  44  46
HETATM   46  O9  UNL     1       1.392  54.100 -19.680  1.00  0.00    -0.775 OA
HETATM   47  H41 UNL     1       1.987  54.877 -19.607  1.00  0.00     0.167 HD
ENDBRANCH  44  46
ENDBRANCH  36  44
ENDBRANCH  34  36
ENDBRANCH  31  32
ENDBRANCH  30  31
ENDBRANCH  28  30
ENDBRANCH  27  28
ENDBRANCH  26  27
ENDBRANCH   1  26
TORSDOF 13
ENDMDL
MODEL 5
REMARK minimizedAffinity -10.1723652
REMARK CNNscore 0.457735211
REMARK CNNaffinity 7.22586584
REMARK  13 active torsions:
REMARK  status: ('A' for Active; 'I' for Inactive)
REMARK    1  A    between atoms: C19_21  and  O3_22 
REMARK    2  A    between atoms: C19_21  and  C20_23 
REMARK    3  A    between atoms: C20_23  and  C21_25 
REMARK    4  A    between atoms: C21_25  and  O5_26 
REMARK    5  A    between atoms: O5_26  and  C22_27 
REMARK    6  A    between atoms: C22_27  and  C23_29 
REMARK    7  A    between atoms: C23_29  and  C24_30 
REMARK    8  A    between atoms: C24_30  and  C25_31 
REMARK       I    between atoms: C25_31  and  N1_33 
REMARK    9  A    between atoms: N1_33  and  C26_34 
REMARK   10  A    between atoms: C26_34  and  C27_35 
REMARK   11  A    between atoms: C26_34  and  C34_42 
REMARK   12  A    between atoms: C27_35  and  C28_36 
REMARK   13  A    between atoms: C34_42  and  O9_44 
ROOT
HETATM    1  C20 UNL     1      -3.217  49.462 -19.849  1.00  0.00     0.185 C 
HETATM    2  O4  UNL     1      -3.772  48.819 -18.949  1.00  0.00    -0.292 OA
ENDROOT
BRANCH   1   3
HETATM    3  C19 UNL     1      -1.843  50.091 -19.558  1.00  0.00     0.128 C 
HETATM    4  C14 UNL     1      -1.458  50.089 -18.049  1.00  0.00     0.005 C 
HETATM    5  C13 UNL     1      -1.086  48.733 -17.434  1.00  0.00     0.091 C 
HETATM    6  C15 UNL     1      -2.587  50.735 -17.200  1.00  0.00     0.019 C 
HETATM    7  C16 UNL     1      -0.163  50.940 -18.108  1.00  0.00     0.002 C 
HETATM    8  C12 UNL     1      -0.469  48.965 -16.061  1.00  0.00     0.133 C 
HETATM    9  C11 UNL     1       0.761  49.892 -16.007  1.00  0.00     0.072 C 
HETATM   10  O2  UNL     1      -0.943  48.406 -15.072  1.00  0.00    -0.297 OA
HETATM   11  C2  UNL     1       1.401  50.090 -14.584  1.00  0.00    -0.009 C 
HETATM   12  C10 UNL     1       0.434  51.236 -16.723  1.00  0.00     0.003 C 
HETATM   13  C1  UNL     1       0.401  50.664 -13.554  1.00  0.00     0.021 C 
HETATM   14  C3  UNL     1       1.939  48.715 -14.086  1.00  0.00     0.022 C 
HETATM   15  C7  UNL     1       2.568  51.087 -14.697  1.00  0.00    -0.067 C 
HETATM   16  C4  UNL     1       2.901  48.819 -12.912  1.00  0.00     0.084 C 
HETATM   17  C5  UNL     1       4.047  49.730 -13.254  1.00  0.00     0.149 C 
HETATM   18  O1  UNL     1       5.173  49.584 -12.782  1.00  0.00    -0.293 OA
HETATM   19  C6  UNL     1       3.772  50.892 -14.128  1.00  0.00     0.053 C 
HETATM   20  C8  UNL     1       2.309  52.360 -15.466  1.00  0.00     0.035 C 
HETATM   21  C9  UNL     1       1.706  52.088 -16.837  1.00  0.00     0.010 C 
HETATM   22  C17 UNL     1      -0.544  52.119 -18.997  1.00  0.00     0.009 C 
HETATM   23  C18 UNL     1      -1.599  51.557 -19.975  1.00  0.00     0.047 C 
BRANCH   3  24
HETATM   24  O3  UNL     1      -0.898  49.290 -20.294  1.00  0.00    -0.381 OA
HETATM   25  H25 UNL     1      -1.193  48.360 -20.206  1.00  0.00     0.211 HD
ENDBRANCH   3  24
ENDBRANCH   1   3
BRANCH   1  26
HETATM   26  C21 UNL     1      -3.913  49.694 -21.189  1.00  0.00     0.260 C 
BRANCH  26  27
HETATM   27  O5  UNL     1      -3.119  49.571 -22.363  1.00  0.00    -0.314 OA
BRANCH  27  28
HETATM   28  C22 UNL     1      -2.751  50.746 -22.941  1.00  0.00     0.259 C 
HETATM   29  O6  UNL     1      -1.633  50.979 -23.378  1.00  0.00    -0.265 OA
BRANCH  28  30
HETATM   30  C23 UNL     1      -3.857  51.778 -22.886  1.00  0.00     0.120 C 
BRANCH  30  31
HETATM   31  C24 UNL     1      -4.678  51.903 -24.166  1.00  0.00     0.112 C 
BRANCH  31  32
HETATM   32  C25 UNL     1      -3.808  51.885 -25.406  1.00  0.00     0.218 C 
HETATM   33  O7  UNL     1      -3.377  52.896 -25.945  1.00  0.00    -0.274 OA
HETATM   34  N1  UNL     1      -3.554  50.619 -25.874  1.00  0.00    -0.346 N 
HETATM   35  H32 UNL     1      -3.784  49.808 -25.308  1.00  0.00     0.163 HD
BRANCH  34  36
HETATM   36  C26 UNL     1      -2.637  50.379 -27.001  1.00  0.00     0.186 C 
BRANCH  36  37
HETATM   37  C27 UNL     1      -1.971  51.682 -27.468  1.00  0.00     0.074 C 
BRANCH  37  38
HETATM   38  C28 UNL     1      -0.470  51.659 -27.298  1.00  0.00    -0.056 A 
HETATM   39  C29 UNL     1       0.383  51.889 -28.385  1.00  0.00     0.007 A 
HETATM   40  C30 UNL     1       1.769  51.848 -28.216  1.00  0.00     0.001 A 
HETATM   41  C31 UNL     1       2.313  51.578 -26.961  1.00  0.00     0.000 A 
HETATM   42  C32 UNL     1       1.473  51.342 -25.876  1.00  0.00     0.001 A 
HETATM   43  C33 UNL     1       0.088  51.380 -26.042  1.00  0.00     0.007 A 
ENDBRANCH  37  38
ENDBRANCH  36  37
BRANCH  36  44
HETATM   44  C34 UNL     1      -3.422  49.747 -28.160  1.00  0.00     0.163 C 
HETATM   45  O8  UNL     1      -3.922  48.636 -28.201  1.00  0.00    -0.648 OA
BRANCH  44  46
HETATM   46  O9  UNL     1      -3.534  50.563 -29.239  1.00  0.00    -0.775 OA
HETATM   47  H41 UNL     1      -4.042  50.017 -29.877  1.00  0.00     0.167 HD
ENDBRANCH  44  46
ENDBRANCH  36  44
ENDBRANCH  34  36
ENDBRANCH  31  32
ENDBRANCH  30  31
ENDBRANCH  28  30
ENDBRANCH  27  28
ENDBRANCH  26  27
ENDBRANCH   1  26
TORSDOF 13
ENDMDL
MODEL 6
REMARK minimizedAffinity -8.49251842
REMARK CNNscore 0.348510444
REMARK CNNaffinity 6.02382421
REMARK  13 active torsions:
REMARK  status: ('A' for Active; 'I' for Inactive)
REMARK    1  A    between atoms: C19_21  and  O3_22 
REMARK    2  A    between atoms: C19_21  and  C20_23 
REMARK    3  A    between atoms: C20_23  and  C21_25 
REMARK    4  A    between atoms: C21_25  and  O5_26 
REMARK    5  A    between atoms: O5_26  and  C22_27 
REMARK    6  A    between atoms: C22_27  and  C23_29 
REMARK    7  A    between atoms: C23_29  and  C24_30 
REMARK    8  A    between atoms: C24_30  and  C25_31 
REMARK       I    between atoms: C25_31  and  N1_33 
REMARK    9  A    between atoms: N1_33  and  C26_34 
REMARK   10  A    between atoms: C26_34  and  C27_35 
REMARK   11  A    between atoms: C26_34  and  C34_42 
REMARK   12  A    between atoms: C27_35  and  C28_36 
REMARK   13  A    between atoms: C34_42  and  O9_44 
ROOT
HETATM    1  C20 UNL     1      -7.093  48.456 -23.573  1.00  0.00     0.185 C 
HETATM    2  O4  UNL     1      -6.684  48.594 -24.733  1.00  0.00    -0.292 OA
ENDROOT
BRANCH   1   3
HETATM    3  C19 UNL     1      -6.576  49.426 -22.496  1.00  0.00     0.128 C 
HETATM    4  C14 UNL     1      -5.028  49.408 -22.327  1.00  0.00     0.005 C 
HETATM    5  C13 UNL     1      -4.204  50.049 -23.450  1.00  0.00     0.091 C 
HETATM    6  C15 UNL     1      -4.524  47.958 -22.095  1.00  0.00     0.019 C 
HETATM    7  C16 UNL     1      -4.891  50.319 -21.078  1.00  0.00     0.002 C 
HETATM    8  C12 UNL     1      -2.762  50.199 -22.984  1.00  0.00     0.133 C 
HETATM    9  C11 UNL     1      -2.538  50.996 -21.683  1.00  0.00     0.072 C 
HETATM   10  O2  UNL     1      -1.847  49.712 -23.647  1.00  0.00    -0.297 OA
HETATM   11  C2  UNL     1      -1.039  51.165 -21.239  1.00  0.00    -0.009 C 
HETATM   12  C10 UNL     1      -3.450  50.425 -20.557  1.00  0.00     0.003 C 
HETATM   13  C1  UNL     1      -0.323  49.811 -21.025  1.00  0.00     0.021 C 
HETATM   14  C3  UNL     1      -0.289  51.992 -22.326  1.00  0.00     0.022 C 
HETATM   15  C7  UNL     1      -0.999  51.923 -19.900  1.00  0.00    -0.067 C 
HETATM   16  C4  UNL     1       1.051  52.546 -21.863  1.00  0.00     0.084 C 
HETATM   17  C5  UNL     1       0.873  53.370 -20.617  1.00  0.00     0.149 C 
HETATM   18  O1  UNL     1       1.594  54.327 -20.348  1.00  0.00    -0.293 OA
HETATM   19  C6  UNL     1      -0.161  52.945 -19.647  1.00  0.00     0.053 C 
HETATM   20  C8  UNL     1      -1.940  51.451 -18.817  1.00  0.00     0.035 C 
HETATM   21  C9  UNL     1      -3.372  51.327 -19.317  1.00  0.00     0.010 C 
HETATM   22  C17 UNL     1      -5.965  49.795 -20.129  1.00  0.00     0.009 C 
HETATM   23  C18 UNL     1      -7.085  49.262 -21.049  1.00  0.00     0.047 C 
BRANCH   3  24
HETATM   24  O3  UNL     1      -6.994  50.733 -22.935  1.00  0.00    -0.381 OA
HETATM   25  H25 UNL     1      -6.873  50.753 -23.906  1.00  0.00     0.211 HD
ENDBRANCH   3  24
ENDBRANCH   1   3
BRANCH   1  26
HETATM   26  C21 UNL     1      -8.025  47.303 -23.203  1.00  0.00     0.260 C 
BRANCH  26  27
HETATM   27  O5  UNL     1      -7.768  46.629 -21.977  1.00  0.00    -0.314 OA
BRANCH  27  28
HETATM   28  C22 UNL     1      -8.869  46.340 -21.231  1.00  0.00     0.259 C 
HETATM   29  O6  UNL     1      -8.858  45.642 -20.228  1.00  0.00    -0.265 OA
BRANCH  28  30
HETATM   30  C23 UNL     1     -10.134  46.896 -21.847  1.00  0.00     0.120 C 
BRANCH  30  31
HETATM   31  C24 UNL     1     -11.401  46.112 -21.521  1.00  0.00     0.112 C 
BRANCH  31  32
HETATM   32  C25 UNL     1     -12.160  46.712 -20.355  1.00  0.00     0.218 C 
HETATM   33  O7  UNL     1     -12.085  47.892 -20.035  1.00  0.00    -0.274 OA
HETATM   34  N1  UNL     1     -12.935  45.800 -19.683  1.00  0.00    -0.346 N 
HETATM   35  H32 UNL     1     -13.102  44.879 -20.080  1.00  0.00     0.163 HD
BRANCH  34  36
HETATM   36  C26 UNL     1     -13.837  46.203 -18.592  1.00  0.00     0.186 C 
BRANCH  36  37
HETATM   37  C27 UNL     1     -14.638  47.461 -18.964  1.00  0.00     0.074 C 
BRANCH  37  38
HETATM   38  C28 UNL     1     -16.002  47.135 -19.523  1.00  0.00    -0.056 A 
HETATM   39  C29 UNL     1     -16.149  46.254 -20.602  1.00  0.00     0.007 A 
HETATM   40  C30 UNL     1     -17.416  45.974 -21.119  1.00  0.00     0.001 A 
HETATM   41  C31 UNL     1     -18.546  46.571 -20.562  1.00  0.00     0.000 A 
HETATM   42  C32 UNL     1     -18.410  47.453 -19.493  1.00  0.00     0.001 A 
HETATM   43  C33 UNL     1     -17.145  47.736 -18.975  1.00  0.00     0.007 A 
ENDBRANCH  37  38
ENDBRANCH  36  37
BRANCH  36  44
HETATM   44  C34 UNL     1     -13.007  46.466 -17.327  1.00  0.00     0.163 C 
HETATM   45  O8  UNL     1     -11.926  45.985 -17.035  1.00  0.00    -0.648 OA
BRANCH  44  46
HETATM   46  O9  UNL     1     -13.597  47.338 -16.469  1.00  0.00    -0.775 OA
HETATM   47  H41 UNL     1     -12.955  47.386 -15.728  1.00  0.00     0.167 HD
ENDBRANCH  44  46
ENDBRANCH  36  44
ENDBRANCH  34  36
ENDBRANCH  31  32
ENDBRANCH  30  31
ENDBRANCH  28  30
ENDBRANCH  27  28
ENDBRANCH  26  27
ENDBRANCH   1  26
TORSDOF 13
ENDMDL
MODEL 7
REMARK minimizedAffinity -10.1581125
REMARK CNNscore 0.327563614
REMARK CNNaffinity 6.93581629
REMARK  13 active torsions:
REMARK  status: ('A' for Active; 'I' for Inactive)
REMARK    1  A    between atoms: C19_21  and  O3_22 
REMARK    2  A    between atoms: C19_21  and  C20_23 
REMARK    3  A    between atoms: C20_23  and  C21_25 
REMARK    4  A    between atoms: C21_25  and  O5_26 
REMARK    5  A    between atoms: O5_26  and  C22_27 
REMARK    6  A    between atoms: C22_27  and  C23_29 
REMARK    7  A    between atoms: C23_29  and  C24_30 
REMARK    8  A    between atoms: C24_30  and  C25_31 
REMARK       I    between atoms: C25_31  and  N1_33 
REMARK    9  A    between atoms: N1_33  and  C26_34 
REMARK   10  A    between atoms: C26_34  and  C27_35 
REMARK   11  A    between atoms: C26_34  and  C34_42 
REMARK   12  A    between atoms: C27_35  and  C28_36 
REMARK   13  A    between atoms: C34_42  and  O9_44 
ROOT
HETATM    1  C20 UNL     1       0.409  53.317 -24.271  1.00  0.00     0.185 C 
HETATM    2  O4  UNL     1       0.773  54.434 -24.662  1.00  0.00    -0.292 OA
ENDROOT
BRANCH   1   3
HETATM    3  C19 UNL     1      -0.537  52.502 -25.170  1.00  0.00     0.128 C 
HETATM    4  C14 UNL     1      -1.548  51.619 -24.381  1.00  0.00     0.005 C 
HETATM    5  C13 UNL     1      -2.689  52.350 -23.664  1.00  0.00     0.091 C 
HETATM    6  C15 UNL     1      -0.801  50.722 -23.357  1.00  0.00     0.019 C 
HETATM    7  C16 UNL     1      -2.176  50.825 -25.557  1.00  0.00     0.002 C 
HETATM    8  C12 UNL     1      -3.720  51.329 -23.202  1.00  0.00     0.133 C 
HETATM    9  C11 UNL     1      -4.319  50.416 -24.291  1.00  0.00     0.072 C 
HETATM   10  O2  UNL     1      -4.049  51.279 -22.017  1.00  0.00    -0.297 OA
HETATM   11  C2  UNL     1      -5.405  49.391 -23.796  1.00  0.00    -0.009 C 
HETATM   12  C10 UNL     1      -3.170  49.746 -25.101  1.00  0.00     0.003 C 
HETATM   13  C1  UNL     1      -4.873  48.439 -22.700  1.00  0.00     0.021 C 
HETATM   14  C3  UNL     1      -6.628  50.189 -23.253  1.00  0.00     0.022 C 
HETATM   15  C7  UNL     1      -5.847  48.521 -24.987  1.00  0.00    -0.067 C 
HETATM   16  C4  UNL     1      -7.888  49.349 -23.090  1.00  0.00     0.084 C 
HETATM   17  C5  UNL     1      -8.241  48.680 -24.390  1.00  0.00     0.149 C 
HETATM   18  O1  UNL     1      -9.400  48.425 -24.709  1.00  0.00    -0.293 OA
HETATM   19  C6  UNL     1      -7.133  48.244 -25.269  1.00  0.00     0.053 C 
HETATM   20  C8  UNL     1      -4.756  47.932 -25.848  1.00  0.00     0.035 C 
HETATM   21  C9  UNL     1      -3.754  48.986 -26.300  1.00  0.00     0.010 C 
HETATM   22  C17 UNL     1      -0.972  50.393 -26.387  1.00  0.00     0.009 C 
HETATM   23  C18 UNL     1       0.077  51.508 -26.179  1.00  0.00     0.047 C 
BRANCH   3  24
HETATM   24  O3  UNL     1      -1.259  53.481 -25.944  1.00  0.00    -0.381 OA
HETATM   25  H25 UNL     1      -1.456  54.224 -25.337  1.00  0.00     0.211 HD
ENDBRANCH   3  24
ENDBRANCH   1   3
BRANCH   1  26
HETATM   26  C21 UNL     1       0.823  52.794 -22.897  1.00  0.00     0.260 C 
BRANCH  26  27
HETATM   27  O5  UNL     1       0.123  53.306 -21.769  1.00  0.00    -0.314 OA
BRANCH  27  28
HETATM   28  C22 UNL     1       0.907  53.715 -20.735  1.00  0.00     0.259 C 
HETATM   29  O6  UNL     1       1.825  54.515 -20.841  1.00  0.00    -0.265 OA
BRANCH  28  30
HETATM   30  C23 UNL     1       0.581  52.983 -19.452  1.00  0.00     0.120 C 
BRANCH  30  31
HETATM   31  C24 UNL     1      -0.474  51.890 -19.589  1.00  0.00     0.112 C 
BRANCH  31  32
HETATM   32  C25 UNL     1      -1.126  51.555 -18.263  1.00  0.00     0.218 C 
HETATM   33  O7  UNL     1      -2.329  51.651 -18.058  1.00  0.00    -0.274 OA
HETATM   34  N1  UNL     1      -0.232  51.140 -17.308  1.00  0.00    -0.346 N 
HETATM   35  H32 UNL     1       0.724  50.912 -17.565  1.00  0.00     0.163 HD
BRANCH  34  36
HETATM   36  C26 UNL     1      -0.675  50.659 -15.989  1.00  0.00     0.186 C 
BRANCH  36  37
HETATM   37  C27 UNL     1       0.048  51.399 -14.852  1.00  0.00     0.074 C 
BRANCH  37  38
HETATM   38  C28 UNL     1       1.496  51.682 -15.174  1.00  0.00    -0.056 A 
HETATM   39  C29 UNL     1       1.849  52.612 -16.159  1.00  0.00     0.007 A 
HETATM   40  C30 UNL     1       3.192  52.851 -16.457  1.00  0.00     0.001 A 
HETATM   41  C31 UNL     1       4.194  52.164 -15.772  1.00  0.00     0.000 A 
HETATM   42  C32 UNL     1       3.853  51.233 -14.795  1.00  0.00     0.001 A 
HETATM   43  C33 UNL     1       2.512  50.989 -14.497  1.00  0.00     0.007 A 
ENDBRANCH  37  38
ENDBRANCH  36  37
BRANCH  36  44
HETATM   44  C34 UNL     1      -0.402  49.151 -15.887  1.00  0.00     0.163 C 
HETATM   45  O8  UNL     1      -0.189  48.500 -14.879  1.00  0.00    -0.648 OA
BRANCH  44  46
HETATM   46  O9  UNL     1      -0.404  48.523 -17.091  1.00  0.00    -0.775 OA
HETATM   47  H41 UNL     1      -0.209  47.591 -16.854  1.00  0.00     0.167 HD
ENDBRANCH  44  46
ENDBRANCH  36  44
ENDBRANCH  34  36
ENDBRANCH  31  32
ENDBRANCH  30  31
ENDBRANCH  28  30
ENDBRANCH  27  28
ENDBRANCH  26  27
ENDBRANCH   1  26
TORSDOF 13
ENDMDL
MODEL 8
REMARK minimizedAffinity -10.0698481
REMARK CNNscore 0.309162945
REMARK CNNaffinity 6.99520636
REMARK  13 active torsions:
REMARK  status: ('A' for Active; 'I' for Inactive)
REMARK    1  A    between atoms: C19_21  and  O3_22 
REMARK    2  A    between atoms: C19_21  and  C20_23 
REMARK    3  A    between atoms: C20_23  and  C21_25 
REMARK    4  A    between atoms: C21_25  and  O5_26 
REMARK    5  A    between atoms: O5_26  and  C22_27 
REMARK    6  A    between atoms: C22_27  and  C23_29 
REMARK    7  A    between atoms: C23_29  and  C24_30 
REMARK    8  A    between atoms: C24_30  and  C25_31 
REMARK       I    between atoms: C25_31  and  N1_33 
REMARK    9  A    between atoms: N1_33  and  C26_34 
REMARK   10  A    between atoms: C26_34  and  C27_35 
REMARK   11  A    between atoms: C26_34  and  C34_42 
REMARK   12  A    between atoms: C27_35  and  C28_36 
REMARK   13  A    between atoms: C34_42  and  O9_44 
ROOT
HETATM    1  C20 UNL     1      -3.475  49.688 -20.089  1.00  0.00     0.185 C 
HETATM    2  O4  UNL     1      -4.125  49.280 -19.118  1.00  0.00    -0.292 OA
ENDROOT
BRANCH   1   3
HETATM    3  C19 UNL     1      -2.070  50.263 -19.838  1.00  0.00     0.128 C 
HETATM    4  C14 UNL     1      -1.661  50.289 -18.335  1.00  0.00     0.005 C 
HETATM    5  C13 UNL     1      -1.341  48.938 -17.684  1.00  0.00     0.091 C 
HETATM    6  C15 UNL     1      -2.746  51.012 -17.490  1.00  0.00     0.019 C 
HETATM    7  C16 UNL     1      -0.330  51.078 -18.440  1.00  0.00     0.002 C 
HETATM    8  C12 UNL     1      -0.692  49.183 -16.328  1.00  0.00     0.133 C 
HETATM    9  C11 UNL     1       0.580  50.055 -16.321  1.00  0.00     0.072 C 
HETATM   10  O2  UNL     1      -1.174  48.677 -15.315  1.00  0.00    -0.297 OA
HETATM   11  C2  UNL     1       1.251  50.267 -14.915  1.00  0.00    -0.009 C 
HETATM   12  C10 UNL     1       0.303  51.389 -17.075  1.00  0.00     0.003 C 
HETATM   13  C1  UNL     1       0.295  50.918 -13.889  1.00  0.00     0.021 C 
HETATM   14  C3  UNL     1       1.734  48.885 -14.382  1.00  0.00     0.022 C 
HETATM   15  C7  UNL     1       2.460  51.205 -15.076  1.00  0.00    -0.067 C 
HETATM   16  C4  UNL     1       2.719  48.980 -13.225  1.00  0.00     0.084 C 
HETATM   17  C5  UNL     1       3.900  49.827 -13.613  1.00  0.00     0.149 C 
HETATM   18  O1  UNL     1       5.024  49.645 -13.153  1.00  0.00    -0.293 OA
HETATM   19  C6  UNL     1       3.663  50.973 -14.519  1.00  0.00     0.053 C 
HETATM   20  C8  UNL     1       2.247  52.465 -15.881  1.00  0.00     0.035 C 
HETATM   21  C9  UNL     1       1.610  52.178 -17.234  1.00  0.00     0.010 C 
HETATM   22  C17 UNL     1      -0.672  52.246 -19.360  1.00  0.00     0.009 C 
HETATM   23  C18 UNL     1      -1.766  51.702 -20.304  1.00  0.00     0.047 C 
BRANCH   3  24
HETATM   24  O3  UNL     1      -1.174  49.397 -20.562  1.00  0.00    -0.381 OA
HETATM   25  H25 UNL     1      -1.509  48.485 -20.440  1.00  0.00     0.211 HD
ENDBRANCH   3  24
ENDBRANCH   1   3
BRANCH   1  26
HETATM   26  C21 UNL     1      -4.082  49.696 -21.491  1.00  0.00     0.260 C 
BRANCH  26  27
HETATM   27  O5  UNL     1      -3.217  50.022 -22.572  1.00  0.00    -0.314 OA
BRANCH  27  28
HETATM   28  C22 UNL     1      -3.739  49.830 -23.813  1.00  0.00     0.259 C 
HETATM   29  O6  UNL     1      -4.727  50.408 -24.242  1.00  0.00    -0.265 OA
BRANCH  28  30
HETATM   30  C23 UNL     1      -3.020  48.734 -24.569  1.00  0.00     0.120 C 
BRANCH  30  31
HETATM   31  C24 UNL     1      -3.592  48.429 -25.950  1.00  0.00     0.112 C 
BRANCH  31  32
HETATM   32  C25 UNL     1      -3.071  49.381 -27.007  1.00  0.00     0.218 C 
HETATM   33  O7  UNL     1      -3.524  49.443 -28.143  1.00  0.00    -0.274 OA
HETATM   34  N1  UNL     1      -2.033  50.165 -26.569  1.00  0.00    -0.346 N 
HETATM   35  H32 UNL     1      -1.802  50.204 -25.580  1.00  0.00     0.163 HD
BRANCH  34  36
HETATM   36  C26 UNL     1      -1.461  51.233 -27.405  1.00  0.00     0.186 C 
BRANCH  36  37
HETATM   37  C27 UNL     1       0.009  51.497 -27.048  1.00  0.00     0.074 C 
BRANCH  37  38
HETATM   38  C28 UNL     1       0.175  52.067 -25.659  1.00  0.00    -0.056 A 
HETATM   39  C29 UNL     1       0.662  53.365 -25.464  1.00  0.00     0.007 A 
HETATM   40  C30 UNL     1       0.825  53.873 -24.173  1.00  0.00     0.001 A 
HETATM   41  C31 UNL     1       0.501  53.088 -23.067  1.00  0.00     0.000 A 
HETATM   42  C32 UNL     1       0.021  51.794 -23.250  1.00  0.00     0.001 A 
HETATM   43  C33 UNL     1      -0.140  51.283 -24.539  1.00  0.00     0.007 A 
ENDBRANCH  37  38
ENDBRANCH  36  37
BRANCH  36  44
HETATM   44  C34 UNL     1      -2.285  52.515 -27.213  1.00  0.00     0.163 C 
HETATM   45  O8  UNL     1      -3.103  52.749 -26.339  1.00  0.00    -0.648 OA
BRANCH  44  46
HETATM   46  O9  UNL     1      -2.038  53.458 -28.157  1.00  0.00    -0.775 OA
HETATM   47  H41 UNL     1      -2.638  54.191 -27.900  1.00  0.00     0.167 HD
ENDBRANCH  44  46
ENDBRANCH  36  44
ENDBRANCH  34  36
ENDBRANCH  31  32
ENDBRANCH  30  31
ENDBRANCH  28  30
ENDBRANCH  27  28
ENDBRANCH  26  27
ENDBRANCH   1  26
TORSDOF 13
ENDMDL
MODEL 9
REMARK minimizedAffinity -8.94241428
REMARK CNNscore 0.29263401
REMARK CNNaffinity 6.67837858
REMARK  13 active torsions:
REMARK  status: ('A' for Active; 'I' for Inactive)
REMARK    1  A    between atoms: C19_21  and  O3_22 
REMARK    2  A    between atoms: C19_21  and  C20_23 
REMARK    3  A    between atoms: C20_23  and  C21_25 
REMARK    4  A    between atoms: C21_25  and  O5_26 
REMARK    5  A    between atoms: O5_26  and  C22_27 
REMARK    6  A    between atoms: C22_27  and  C23_29 
REMARK    7  A    between atoms: C23_29  and  C24_30 
REMARK    8  A    between atoms: C24_30  and  C25_31 
REMARK       I    between atoms: C25_31  and  N1_33 
REMARK    9  A    between atoms: N1_33  and  C26_34 
REMARK   10  A    between atoms: C26_34  and  C27_35 
REMARK   11  A    between atoms: C26_34  and  C34_42 
REMARK   12  A    between atoms: C27_35  and  C28_36 
REMARK   13  A    between atoms: C34_42  and  O9_44 
ROOT
HETATM    1  C20 UNL     1      -2.439  49.652 -18.578  1.00  0.00     0.185 C 
HETATM    2  O4  UNL     1      -3.470  49.142 -19.035  1.00  0.00    -0.292 OA
ENDROOT
BRANCH   1   3
HETATM    3  C19 UNL     1      -1.789  50.809 -19.357  1.00  0.00     0.128 C 
HETATM    4  C14 UNL     1      -1.644  50.535 -20.883  1.00  0.00     0.005 C 
HETATM    5  C13 UNL     1      -2.933  50.559 -21.714  1.00  0.00     0.091 C 
HETATM    6  C15 UNL     1      -0.913  49.185 -21.125  1.00  0.00     0.019 C 
HETATM    7  C16 UNL     1      -0.807  51.775 -21.293  1.00  0.00     0.002 C 
HETATM    8  C12 UNL     1      -2.569  50.563 -23.193  1.00  0.00     0.133 C 
HETATM    9  C11 UNL     1      -1.645  51.700 -23.672  1.00  0.00     0.072 C 
HETATM   10  O2  UNL     1      -3.025  49.698 -23.941  1.00  0.00    -0.297 OA
HETATM   11  C2  UNL     1      -1.309  51.702 -25.208  1.00  0.00    -0.009 C 
HETATM   12  C10 UNL     1      -0.377  51.758 -22.768  1.00  0.00     0.003 C 
HETATM   13  C1  UNL     1      -0.632  50.392 -25.674  1.00  0.00     0.021 C 
HETATM   14  C3  UNL     1      -2.630  51.925 -26.004  1.00  0.00     0.022 C 
HETATM   15  C7  UNL     1      -0.333  52.854 -25.503  1.00  0.00    -0.067 C 
HETATM   16  C4  UNL     1      -2.414  52.318 -27.459  1.00  0.00     0.084 C 
HETATM   17  C5  UNL     1      -1.545  53.542 -27.545  1.00  0.00     0.149 C 
HETATM   18  O1  UNL     1      -1.647  54.364 -28.453  1.00  0.00    -0.293 OA
HETATM   19  C6  UNL     1      -0.474  53.705 -26.536  1.00  0.00     0.053 C 
HETATM   20  C8  UNL     1       0.859  52.993 -24.587  1.00  0.00     0.035 C 
HETATM   21  C9  UNL     1       0.454  53.000 -23.119  1.00  0.00     0.010 C 
HETATM   22  C17 UNL     1       0.280  51.848 -20.226  1.00  0.00     0.009 C 
HETATM   23  C18 UNL     1      -0.373  51.269 -18.952  1.00  0.00     0.047 C 
BRANCH   3  24
HETATM   24  O3  UNL     1      -2.662  51.937 -19.155  1.00  0.00    -0.381 OA
HETATM   25  H25 UNL     1      -3.578  51.591 -19.194  1.00  0.00     0.211 HD
ENDBRANCH   3  24
ENDBRANCH   1   3
BRANCH   1  26
HETATM   26  C21 UNL     1      -1.784  49.096 -17.315  1.00  0.00     0.260 C 
BRANCH  26  27
HETATM   27  O5  UNL     1      -0.580  49.718 -16.880  1.00  0.00    -0.314 OA
BRANCH  27  28
HETATM   28  C22 UNL     1      -0.645  50.321 -15.662  1.00  0.00     0.259 C 
HETATM   29  O6  UNL     1      -1.684  50.672 -15.122  1.00  0.00    -0.265 OA
BRANCH  28  30
HETATM   30  C23 UNL     1       0.729  50.605 -15.095  1.00  0.00     0.120 C 
BRANCH  30  31
HETATM   31  C24 UNL     1       0.908  52.010 -14.528  1.00  0.00     0.112 C 
BRANCH  31  32
HETATM   32  C25 UNL     1       0.752  52.042 -13.022  1.00  0.00     0.218 C 
HETATM   33  O7  UNL     1       0.637  51.037 -12.332  1.00  0.00    -0.274 OA
HETATM   34  N1  UNL     1       0.743  53.313 -12.503  1.00  0.00    -0.346 N 
HETATM   35  H32 UNL     1       1.010  54.104 -13.082  1.00  0.00     0.163 HD
BRANCH  34  36
HETATM   36  C26 UNL     1       0.716  53.558 -11.052  1.00  0.00     0.186 C 
BRANCH  36  37
HETATM   37  C27 UNL     1      -0.526  54.365 -10.644  1.00  0.00     0.074 C 
BRANCH  37  38
HETATM   38  C28 UNL     1      -1.766  53.508 -10.540  1.00  0.00    -0.056 A 
HETATM   39  C29 UNL     1      -1.685  52.165 -10.152  1.00  0.00     0.007 A 
HETATM   40  C30 UNL     1      -2.838  51.381 -10.077  1.00  0.00     0.001 A 
HETATM   41  C31 UNL     1      -4.081  51.932 -10.387  1.00  0.00     0.000 A 
HETATM   42  C32 UNL     1      -4.170  53.265 -10.780  1.00  0.00     0.001 A 
HETATM   43  C33 UNL     1      -3.020  54.051 -10.859  1.00  0.00     0.007 A 
ENDBRANCH  37  38
ENDBRANCH  36  37
BRANCH  36  44
HETATM   44  C34 UNL     1       1.989  54.316 -10.647  1.00  0.00     0.163 C 
HETATM   45  O8  UNL     1       3.141  54.045 -10.942  1.00  0.00    -0.648 OA
BRANCH  44  46
HETATM   46  O9  UNL     1       1.743  55.399  -9.867  1.00  0.00    -0.775 OA
HETATM   47  H41 UNL     1       2.642  55.756  -9.694  1.00  0.00     0.167 HD
ENDBRANCH  44  46
ENDBRANCH  36  44
ENDBRANCH  34  36
ENDBRANCH  31  32
ENDBRANCH  30  31
ENDBRANCH  28  30
ENDBRANCH  27  28
ENDBRANCH  26  27
ENDBRANCH   1  26
TORSDOF 13
ENDMDL
