MODEL 1
REMARK minimizedAffinity -6.74336863
REMARK CNNscore 0.468901724
REMARK CNNaffinity 6.11157942
REMARK  13 active torsions:
REMARK  status: ('A' for Active; 'I' for Inactive)
REMARK    1  A    between atoms: C2_2  and  C3_3 
REMARK    2  A    between atoms: C2_2  and  C14_14 
REMARK    3  A    between atoms: C4_4  and  C5_5 
REMARK    4  A    between atoms: C6_6  and  C8_8 
REMARK    5  A    between atoms: C8_8  and  C9_9 
REMARK    6  A    between atoms: C9_9  and  C10_10 
REMARK    7  A    between atoms: C18_18  and  C19_19 
REMARK    8  A    between atoms: C19_19  and  C20_20 
REMARK    9  A    between atoms: C20_20  and  C21_21 
REMARK   10  A    between atoms: C21_21  and  O1_22 
REMARK   11  A    between atoms: C23_24  and  C25_26 
REMARK   12  A    between atoms: C28_30  and  O3_32 
REMARK   13  A    between atoms: C30_33  and  O4_34 
ROOT
HETATM    1  C14 UNL     1      13.248  -3.826   3.581  1.00  0.00     0.047 C 
HETATM    2  C15 UNL     1      11.864  -3.851   4.241  1.00  0.00     0.013 C 
HETATM    3  C16 UNL     1      11.676  -5.335   4.531  1.00  0.00     0.017 C 
HETATM    4  C17 UNL     1      13.070  -5.873   5.005  1.00  0.00     0.024 C 
HETATM    5  C18 UNL     1      13.100  -6.201   6.562  1.00  0.00     0.029 C 
HETATM    6  C22 UNL     1      14.466  -6.826   6.971  1.00  0.00    -0.066 C 
HETATM    7  C23 UNL     1      15.406  -6.402   7.859  1.00  0.00    -0.021 C 
HETATM    8  C24 UNL     1      16.601  -7.224   8.288  1.00  0.00     0.052 C 
HETATM    9  C26 UNL     1      14.694  -8.120   6.196  1.00  0.00     0.038 C 
HETATM   10  C27 UNL     1      14.710  -7.844   4.698  1.00  0.00     0.042 C 
HETATM   11  C28 UNL     1      13.404  -7.200   4.195  1.00  0.00     0.065 C 
HETATM   12  C29 UNL     1      12.274  -8.258   4.225  1.00  0.00     0.047 C 
HETATM   13  C30 UNL     1      14.053  -4.715   4.568  1.00  0.00     0.138 C 
ENDROOT
BRANCH   5  14
HETATM   14  C19 UNL     1      12.439  -5.141   7.491  1.00  0.00     0.012 C 
BRANCH  14  15
HETATM   15  C20 UNL     1      11.311  -5.712   8.371  1.00  0.00     0.027 C 
BRANCH  15  16
HETATM   16  C21 UNL     1      11.809  -6.142   9.747  1.00  0.00     0.164 C 
BRANCH  16  17
HETATM   17  O1  UNL     1      10.905  -7.034  10.382  1.00  0.00    -0.401 OA
HETATM   18  H32 UNL     1      10.854  -7.834   9.833  1.00  0.00     0.209 HD
ENDBRANCH  16  17
ENDBRANCH  15  16
ENDBRANCH  14  15
ENDBRANCH   5  14
BRANCH  11  19
HETATM   19  O3  UNL     1      13.599  -6.879   2.807  1.00  0.00    -0.389 OA
HETATM   20  H44 UNL     1      13.853  -7.697   2.343  1.00  0.00     0.210 HD
ENDBRANCH  11  19
BRANCH  13  21
HETATM   21  O4  UNL     1      14.493  -3.943   5.683  1.00  0.00    -0.394 OA
HETATM   22  H46 UNL     1      14.954  -3.161   5.330  1.00  0.00     0.210 HD
ENDBRANCH  13  21
BRANCH   1  23
HETATM   23  C2  UNL     1      13.847  -2.458   3.255  1.00  0.00    -0.061 C 
HETATM   24  C1  UNL     1      13.471  -1.328   3.881  1.00  0.00     0.019 C 
BRANCH  23  25
HETATM   25  C3  UNL     1      14.865  -2.352   2.210  1.00  0.00     0.007 C 
HETATM   26  C4  UNL     1      14.688  -2.491   0.886  1.00  0.00     0.001 C 
BRANCH  26  27
HETATM   27  C5  UNL     1      15.792  -2.427  -0.053  1.00  0.00     0.002 C 
HETATM   28  C6  UNL     1      16.217  -3.416  -0.862  1.00  0.00    -0.084 C 
HETATM   29  C7  UNL     1      15.571  -4.772  -0.984  1.00  0.00     0.043 C 
BRANCH  28  30
HETATM   30  C8  UNL     1      17.431  -3.200  -1.750  1.00  0.00     0.037 C 
BRANCH  30  31
HETATM   31  C9  UNL     1      17.063  -2.641  -3.128  1.00  0.00     0.031 C 
BRANCH  31  32
HETATM   32  C10 UNL     1      17.875  -3.275  -4.226  1.00  0.00    -0.024 C 
HETATM   33  C11 UNL     1      18.843  -2.692  -4.959  1.00  0.00    -0.091 C 
HETATM   34  C12 UNL     1      19.330  -1.281  -4.769  1.00  0.00     0.042 C 
HETATM   35  C13 UNL     1      19.542  -3.447  -6.055  1.00  0.00     0.042 C 
ENDBRANCH  31  32
ENDBRANCH  30  31
ENDBRANCH  28  30
ENDBRANCH  26  27
ENDBRANCH  23  25
ENDBRANCH   1  23
BRANCH   7  36
HETATM   36  C25 UNL     1      15.403  -5.062   8.517  1.00  0.00     0.265 C 
HETATM   37  O2  UNL     1      15.335  -4.909   9.734  1.00  0.00    -0.302 OA
ENDBRANCH   7  36
TORSDOF 13
ENDMDL
MODEL 2
REMARK minimizedAffinity -7.43247652
REMARK CNNscore 0.399854451
REMARK CNNaffinity 6.16655493
REMARK  13 active torsions:
REMARK  status: ('A' for Active; 'I' for Inactive)
REMARK    1  A    between atoms: C2_2  and  C3_3 
REMARK    2  A    between atoms: C2_2  and  C14_14 
REMARK    3  A    between atoms: C4_4  and  C5_5 
REMARK    4  A    between atoms: C6_6  and  C8_8 
REMARK    5  A    between atoms: C8_8  and  C9_9 
REMARK    6  A    between atoms: C9_9  and  C10_10 
REMARK    7  A    between atoms: C18_18  and  C19_19 
REMARK    8  A    between atoms: C19_19  and  C20_20 
REMARK    9  A    between atoms: C20_20  and  C21_21 
REMARK   10  A    between atoms: C21_21  and  O1_22 
REMARK   11  A    between atoms: C23_24  and  C25_26 
REMARK   12  A    between atoms: C28_30  and  O3_32 
REMARK   13  A    between atoms: C30_33  and  O4_34 
ROOT
HETATM    1  C14 UNL     1      -1.809   8.256  14.698  1.00  0.00     0.047 C 
HETATM    2  C15 UNL     1      -1.628   9.473  13.783  1.00  0.00     0.013 C 
HETATM    3  C16 UNL     1      -2.285  10.582  14.596  1.00  0.00     0.017 C 
HETATM    4  C17 UNL     1      -1.886  10.331  16.090  1.00  0.00     0.024 C 
HETATM    5  C18 UNL     1      -0.835  11.398  16.629  1.00  0.00     0.029 C 
HETATM    6  C22 UNL     1      -0.544  11.174  18.142  1.00  0.00    -0.066 C 
HETATM    7  C23 UNL     1       0.620  10.894  18.790  1.00  0.00    -0.021 C 
HETATM    8  C24 UNL     1       0.775  10.893  20.295  1.00  0.00     0.052 C 
HETATM    9  C26 UNL     1      -1.835  11.314  18.943  1.00  0.00     0.038 C 
HETATM   10  C27 UNL     1      -2.857  10.283  18.483  1.00  0.00     0.042 C 
HETATM   11  C28 UNL     1      -3.198  10.407  16.986  1.00  0.00     0.065 C 
HETATM   12  C29 UNL     1      -4.041  11.686  16.762  1.00  0.00     0.047 C 
HETATM   13  C30 UNL     1      -1.343   8.847  16.057  1.00  0.00     0.138 C 
ENDROOT
BRANCH   5  14
HETATM   14  C19 UNL     1       0.342  11.735  15.668  1.00  0.00     0.012 C 
BRANCH  14  15
HETATM   15  C20 UNL     1       1.079  10.491  15.138  1.00  0.00     0.027 C 
BRANCH  15  16
HETATM   16  C21 UNL     1       2.497  10.810  14.673  1.00  0.00     0.164 C 
BRANCH  16  17
HETATM   17  O1  UNL     1       2.520  11.284  13.333  1.00  0.00    -0.401 OA
HETATM   18  H32 UNL     1       2.018  12.114  13.311  1.00  0.00     0.209 HD
ENDBRANCH  16  17
ENDBRANCH  15  16
ENDBRANCH  14  15
ENDBRANCH   5  14
BRANCH  11  19
HETATM   19  O3  UNL     1      -4.066   9.308  16.658  1.00  0.00    -0.389 OA
HETATM   20  H44 UNL     1      -4.836   9.347  17.254  1.00  0.00     0.210 HD
ENDBRANCH  11  19
BRANCH  13  21
HETATM   21  O4  UNL     1       0.079   8.799  16.157  1.00  0.00    -0.394 OA
HETATM   22  H46 UNL     1       0.352   7.884  15.966  1.00  0.00     0.210 HD
ENDBRANCH  13  21
BRANCH   1  23
HETATM   23  C2  UNL     1      -1.150   6.946  14.266  1.00  0.00    -0.061 C 
HETATM   24  C1  UNL     1      -1.585   5.740  14.675  1.00  0.00     0.019 C 
BRANCH  23  25
HETATM   25  C3  UNL     1       0.012   6.987  13.379  1.00  0.00     0.007 C 
HETATM   26  C4  UNL     1       0.689   5.940  12.879  1.00  0.00     0.001 C 
BRANCH  26  27
HETATM   27  C5  UNL     1       1.873   6.105  12.057  1.00  0.00     0.002 C 
HETATM   28  C6  UNL     1       2.223   7.205  11.364  1.00  0.00    -0.084 C 
HETATM   29  C7  UNL     1       1.465   8.508  11.368  1.00  0.00     0.043 C 
BRANCH  28  30
HETATM   30  C8  UNL     1       3.475   7.192  10.502  1.00  0.00     0.037 C 
BRANCH  30  31
HETATM   31  C9  UNL     1       3.549   5.966   9.588  1.00  0.00     0.031 C 
BRANCH  31  32
HETATM   32  C10 UNL     1       2.673   6.119   8.373  1.00  0.00    -0.024 C 
HETATM   33  C11 UNL     1       2.448   7.247   7.673  1.00  0.00    -0.091 C 
HETATM   34  C12 UNL     1       3.089   8.578   7.961  1.00  0.00     0.042 C 
HETATM   35  C13 UNL     1       1.511   7.252   6.497  1.00  0.00     0.042 C 
ENDBRANCH  31  32
ENDBRANCH  30  31
ENDBRANCH  28  30
ENDBRANCH  26  27
ENDBRANCH  23  25
ENDBRANCH   1  23
BRANCH   7  36
HETATM   36  C25 UNL     1       1.898  10.526  18.111  1.00  0.00     0.265 C 
HETATM   37  O2  UNL     1       2.342   9.382  18.087  1.00  0.00    -0.302 OA
ENDBRANCH   7  36
TORSDOF 13
ENDMDL
MODEL 3
REMARK minimizedAffinity -6.77757978
REMARK CNNscore 0.375968367
REMARK CNNaffinity 6.35016251
REMARK  13 active torsions:
REMARK  status: ('A' for Active; 'I' for Inactive)
REMARK    1  A    between atoms: C2_2  and  C3_3 
REMARK    2  A    between atoms: C2_2  and  C14_14 
REMARK    3  A    between atoms: C4_4  and  C5_5 
REMARK    4  A    between atoms: C6_6  and  C8_8 
REMARK    5  A    between atoms: C8_8  and  C9_9 
REMARK    6  A    between atoms: C9_9  and  C10_10 
REMARK    7  A    between atoms: C18_18  and  C19_19 
REMARK    8  A    between atoms: C19_19  and  C20_20 
REMARK    9  A    between atoms: C20_20  and  C21_21 
REMARK   10  A    between atoms: C21_21  and  O1_22 
REMARK   11  A    between atoms: C23_24  and  C25_26 
REMARK   12  A    between atoms: C28_30  and  O3_32 
REMARK   13  A    between atoms: C30_33  and  O4_34 
ROOT
HETATM    1  C14 UNL     1     -12.902   7.635  14.058  1.00  0.00     0.047 C 
HETATM    2  C15 UNL     1     -13.385   6.179  14.071  1.00  0.00     0.013 C 
HETATM    3  C16 UNL     1     -14.603   6.256  14.984  1.00  0.00     0.017 C 
HETATM    4  C17 UNL     1     -15.335   7.597  14.632  1.00  0.00     0.024 C 
HETATM    5  C18 UNL     1     -16.702   7.359  13.850  1.00  0.00     0.029 C 
HETATM    6  C22 UNL     1     -17.445   8.706  13.610  1.00  0.00    -0.066 C 
HETATM    7  C23 UNL     1     -17.822   9.318  12.455  1.00  0.00    -0.021 C 
HETATM    8  C24 UNL     1     -18.711  10.540  12.392  1.00  0.00     0.052 C 
HETATM    9  C26 UNL     1     -17.758   9.368  14.948  1.00  0.00     0.038 C 
HETATM   10  C27 UNL     1     -16.471   9.648  15.714  1.00  0.00     0.042 C 
HETATM   11  C28 UNL     1     -15.647   8.375  15.984  1.00  0.00     0.065 C 
HETATM   12  C29 UNL     1     -16.372   7.519  17.050  1.00  0.00     0.047 C 
HETATM   13  C30 UNL     1     -14.241   8.379  13.801  1.00  0.00     0.138 C 
ENDROOT
BRANCH   5  14
HETATM   14  C19 UNL     1     -16.654   6.301  12.710  1.00  0.00     0.012 C 
BRANCH  14  15
HETATM   15  C20 UNL     1     -17.885   5.376  12.677  1.00  0.00     0.027 C 
BRANCH  15  16
HETATM   16  C21 UNL     1     -17.951   4.453  13.889  1.00  0.00     0.164 C 
BRANCH  16  17
HETATM   17  O1  UNL     1     -16.767   3.682  14.033  1.00  0.00    -0.401 OA
HETATM   18  H32 UNL     1     -16.035   4.301  14.184  1.00  0.00     0.209 HD
ENDBRANCH  16  17
ENDBRANCH  15  16
ENDBRANCH  14  15
ENDBRANCH   5  14
BRANCH  11  19
HETATM   19  O3  UNL     1     -14.412   8.792  16.592  1.00  0.00    -0.389 OA
HETATM   20  H44 UNL     1     -14.631   9.310  17.389  1.00  0.00     0.210 HD
ENDBRANCH  11  19
BRANCH  13  21
HETATM   21  O4  UNL     1     -14.542   8.392  12.407  1.00  0.00    -0.394 OA
HETATM   22  H46 UNL     1     -13.758   8.739  11.945  1.00  0.00     0.210 HD
ENDBRANCH  13  21
BRANCH   1  23
HETATM   23  C2  UNL     1     -11.743   7.983  13.126  1.00  0.00    -0.061 C 
HETATM   24  C1  UNL     1     -11.581   9.205  12.585  1.00  0.00     0.019 C 
BRANCH  23  25
HETATM   25  C3  UNL     1     -10.763   6.952  12.783  1.00  0.00     0.007 C 
HETATM   26  C4  UNL     1      -9.697   6.573  13.507  1.00  0.00     0.001 C 
BRANCH  26  27
HETATM   27  C5  UNL     1      -8.754   5.578  13.032  1.00  0.00     0.002 C 
HETATM   28  C6  UNL     1      -7.421   5.575  13.229  1.00  0.00    -0.084 C 
HETATM   29  C7  UNL     1      -6.666   6.591  14.046  1.00  0.00     0.043 C 
BRANCH  28  30
HETATM   30  C8  UNL     1      -6.566   4.481  12.611  1.00  0.00     0.037 C 
BRANCH  30  31
HETATM   31  C9  UNL     1      -5.145   4.452  13.179  1.00  0.00     0.031 C 
BRANCH  31  32
HETATM   32  C10 UNL     1      -4.105   4.418  12.090  1.00  0.00    -0.024 C 
HETATM   33  C11 UNL     1      -3.652   3.331  11.435  1.00  0.00    -0.091 C 
HETATM   34  C12 UNL     1      -4.156   1.930  11.648  1.00  0.00     0.042 C 
HETATM   35  C13 UNL     1      -2.577   3.452  10.392  1.00  0.00     0.042 C 
ENDBRANCH  31  32
ENDBRANCH  30  31
ENDBRANCH  28  30
ENDBRANCH  26  27
ENDBRANCH  23  25
ENDBRANCH   1  23
BRANCH   7  36
HETATM   36  C25 UNL     1     -17.394   8.885  11.091  1.00  0.00     0.265 C 
HETATM   37  O2  UNL     1     -16.387   9.313  10.533  1.00  0.00    -0.302 OA
ENDBRANCH   7  36
TORSDOF 13
ENDMDL
MODEL 4
REMARK minimizedAffinity -6.18555021
REMARK CNNscore 0.361452848
REMARK CNNaffinity 6.16680479
REMARK  13 active torsions:
REMARK  status: ('A' for Active; 'I' for Inactive)
REMARK    1  A    between atoms: C2_2  and  C3_3 
REMARK    2  A    between atoms: C2_2  and  C14_14 
REMARK    3  A    between atoms: C4_4  and  C5_5 
REMARK    4  A    between atoms: C6_6  and  C8_8 
REMARK    5  A    between atoms: C8_8  and  C9_9 
REMARK    6  A    between atoms: C9_9  and  C10_10 
REMARK    7  A    between atoms: C18_18  and  C19_19 
REMARK    8  A    between atoms: C19_19  and  C20_20 
REMARK    9  A    between atoms: C20_20  and  C21_21 
REMARK   10  A    between atoms: C21_21  and  O1_22 
REMARK   11  A    between atoms: C23_24  and  C25_26 
REMARK   12  A    between atoms: C28_30  and  O3_32 
REMARK   13  A    between atoms: C30_33  and  O4_34 
ROOT
HETATM    1  C14 UNL     1      -9.848  10.913  15.892  1.00  0.00     0.047 C 
HETATM    2  C15 UNL     1     -10.682  11.393  17.087  1.00  0.00     0.013 C 
HETATM    3  C16 UNL     1     -10.128  12.794  17.319  1.00  0.00     0.017 C 
HETATM    4  C17 UNL     1      -9.884  13.413  15.899  1.00  0.00     0.024 C 
HETATM    5  C18 UNL     1     -10.935  14.553  15.541  1.00  0.00     0.029 C 
HETATM    6  C22 UNL     1     -10.596  15.210  14.171  1.00  0.00    -0.066 C 
HETATM    7  C23 UNL     1     -11.323  15.295  13.023  1.00  0.00    -0.021 C 
HETATM    8  C24 UNL     1     -10.930  16.136  11.829  1.00  0.00     0.052 C 
HETATM    9  C26 UNL     1      -9.204  15.831  14.226  1.00  0.00     0.038 C 
HETATM   10  C27 UNL     1      -8.160  14.764  14.530  1.00  0.00     0.042 C 
HETATM   11  C28 UNL     1      -8.421  14.036  15.863  1.00  0.00     0.065 C 
HETATM   12  C29 UNL     1      -8.116  15.000  17.034  1.00  0.00     0.047 C 
HETATM   13  C30 UNL     1      -9.953  12.148  14.955  1.00  0.00     0.138 C 
ENDROOT
BRANCH   5  14
HETATM   14  C19 UNL     1     -12.420  14.239  15.890  1.00  0.00     0.012 C 
BRANCH  14  15
HETATM   15  C20 UNL     1     -13.181  15.441  16.479  1.00  0.00     0.027 C 
BRANCH  15  16
HETATM   16  C21 UNL     1     -14.606  15.545  15.946  1.00  0.00     0.164 C 
BRANCH  16  17
HETATM   17  O1  UNL     1     -14.637  16.031  14.611  1.00  0.00    -0.401 OA
HETATM   18  H32 UNL     1     -14.171  15.384  14.057  1.00  0.00     0.209 HD
ENDBRANCH  16  17
ENDBRANCH  15  16
ENDBRANCH  14  15
ENDBRANCH   5  14
BRANCH  11  19
HETATM   19  O3  UNL     1      -7.448  12.981  15.964  1.00  0.00    -0.389 OA
HETATM   20  H44 UNL     1      -6.563  13.382  15.887  1.00  0.00     0.210 HD
ENDBRANCH  11  19
BRANCH  13  21
HETATM   21  O4  UNL     1     -11.171  12.105  14.214  1.00  0.00    -0.394 OA
HETATM   22  H46 UNL     1     -11.218  11.230  13.786  1.00  0.00     0.210 HD
ENDBRANCH  13  21
BRANCH   1  23
HETATM   23  C2  UNL     1     -10.212   9.562  15.279  1.00  0.00    -0.061 C 
HETATM   24  C1  UNL     1     -11.479   9.204  14.999  1.00  0.00     0.019 C 
BRANCH  23  25
HETATM   25  C3  UNL     1      -9.152   8.597  14.988  1.00  0.00     0.007 C 
HETATM   26  C4  UNL     1      -9.222   7.260  15.087  1.00  0.00     0.001 C 
BRANCH  26  27
HETATM   27  C5  UNL     1      -8.078   6.404  14.833  1.00  0.00     0.002 C 
HETATM   28  C6  UNL     1      -7.852   5.673  13.725  1.00  0.00    -0.084 C 
HETATM   29  C7  UNL     1      -8.733   5.660  12.503  1.00  0.00     0.043 C 
BRANCH  28  30
HETATM   30  C8  UNL     1      -6.624   4.781  13.642  1.00  0.00     0.037 C 
BRANCH  30  31
HETATM   31  C9  UNL     1      -6.416   4.190  12.245  1.00  0.00     0.031 C 
BRANCH  31  32
HETATM   32  C10 UNL     1      -5.083   3.500  12.120  1.00  0.00    -0.024 C 
HETATM   33  C11 UNL     1      -4.858   2.244  11.689  1.00  0.00    -0.091 C 
HETATM   34  C12 UNL     1      -5.923   1.302  11.197  1.00  0.00     0.042 C 
HETATM   35  C13 UNL     1      -3.466   1.678  11.656  1.00  0.00     0.042 C 
ENDBRANCH  31  32
ENDBRANCH  30  31
ENDBRANCH  28  30
ENDBRANCH  26  27
ENDBRANCH  23  25
ENDBRANCH   1  23
BRANCH   7  36
HETATM   36  C25 UNL     1     -12.596  14.555  12.772  1.00  0.00     0.265 C 
HETATM   37  O2  UNL     1     -13.358  14.821  11.846  1.00  0.00    -0.302 OA
ENDBRANCH   7  36
TORSDOF 13
ENDMDL
MODEL 5
REMARK minimizedAffinity -6.19515228
REMARK CNNscore 0.355177283
REMARK CNNaffinity 5.90271378
REMARK  13 active torsions:
REMARK  status: ('A' for Active; 'I' for Inactive)
REMARK    1  A    between atoms: C2_2  and  C3_3 
REMARK    2  A    between atoms: C2_2  and  C14_14 
REMARK    3  A    between atoms: C4_4  and  C5_5 
REMARK    4  A    between atoms: C6_6  and  C8_8 
REMARK    5  A    between atoms: C8_8  and  C9_9 
REMARK    6  A    between atoms: C9_9  and  C10_10 
REMARK    7  A    between atoms: C18_18  and  C19_19 
REMARK    8  A    between atoms: C19_19  and  C20_20 
REMARK    9  A    between atoms: C20_20  and  C21_21 
REMARK   10  A    between atoms: C21_21  and  O1_22 
REMARK   11  A    between atoms: C23_24  and  C25_26 
REMARK   12  A    between atoms: C28_30  and  O3_32 
REMARK   13  A    between atoms: C30_33  and  O4_34 
ROOT
HETATM    1  C14 UNL     1       1.175  12.134  19.425  1.00  0.00     0.047 C 
HETATM    2  C15 UNL     1       1.415  10.781  20.107  1.00  0.00     0.013 C 
HETATM    3  C16 UNL     1       2.937  10.711  20.148  1.00  0.00     0.017 C 
HETATM    4  C17 UNL     1       3.436  12.157  20.491  1.00  0.00     0.024 C 
HETATM    5  C18 UNL     1       4.013  12.268  21.971  1.00  0.00     0.029 C 
HETATM    6  C22 UNL     1       4.590  13.690  22.235  1.00  0.00    -0.066 C 
HETATM    7  C23 UNL     1       4.247  14.630  23.158  1.00  0.00    -0.021 C 
HETATM    8  C24 UNL     1       5.034  15.896  23.414  1.00  0.00     0.052 C 
HETATM    9  C26 UNL     1       5.717  13.981  21.250  1.00  0.00     0.038 C 
HETATM   10  C27 UNL     1       5.198  13.921  19.819  1.00  0.00     0.042 C 
HETATM   11  C28 UNL     1       4.583  12.554  19.463  1.00  0.00     0.065 C 
HETATM   12  C29 UNL     1       5.715  11.506  19.344  1.00  0.00     0.047 C 
HETATM   13  C30 UNL     1       2.150  13.037  20.229  1.00  0.00     0.138 C 
ENDROOT
BRANCH   5  14
HETATM   14  C19 UNL     1       3.175  11.568  23.080  1.00  0.00     0.012 C 
BRANCH  14  15
HETATM   15  C20 UNL     1       3.736  10.198  23.503  1.00  0.00     0.027 C 
BRANCH  15  16
HETATM   16  C21 UNL     1       2.638   9.165  23.733  1.00  0.00     0.164 C 
BRANCH  16  17
HETATM   17  O1  UNL     1       2.491   8.292  22.622  1.00  0.00    -0.401 OA
HETATM   18  H32 UNL     1       3.326   7.806  22.524  1.00  0.00     0.209 HD
ENDBRANCH  16  17
ENDBRANCH  15  16
ENDBRANCH  14  15
ENDBRANCH   5  14
BRANCH  11  19
HETATM   19  O3  UNL     1       4.023  12.674  18.144  1.00  0.00    -0.389 OA
HETATM   20  H44 UNL     1       4.732  12.968  17.543  1.00  0.00     0.210 HD
ENDBRANCH  11  19
BRANCH  13  21
HETATM   21  O4  UNL     1       1.541  13.462  21.447  1.00  0.00    -0.394 OA
HETATM   22  H46 UNL     1       0.678  13.852  21.217  1.00  0.00     0.210 HD
ENDBRANCH  13  21
BRANCH   1  23
HETATM   23  C2  UNL     1      -0.269  12.621  19.317  1.00  0.00    -0.061 C 
HETATM   24  C1  UNL     1      -0.646  13.869  19.651  1.00  0.00     0.019 C 
BRANCH  23  25
HETATM   25  C3  UNL     1      -1.303  11.701  18.844  1.00  0.00     0.007 C 
HETATM   26  C4  UNL     1      -1.542  11.331  17.575  1.00  0.00     0.001 C 
BRANCH  26  27
HETATM   27  C5  UNL     1      -2.644  10.457  17.218  1.00  0.00     0.002 C 
HETATM   28  C6  UNL     1      -3.084  10.185  15.975  1.00  0.00    -0.084 C 
HETATM   29  C7  UNL     1      -2.461  10.702  14.705  1.00  0.00     0.043 C 
BRANCH  28  30
HETATM   30  C8  UNL     1      -4.294   9.286  15.779  1.00  0.00     0.037 C 
BRANCH  30  31
HETATM   31  C9  UNL     1      -4.571   8.982  14.304  1.00  0.00     0.031 C 
BRANCH  31  32
HETATM   32  C10 UNL     1      -5.808   8.142  14.127  1.00  0.00    -0.024 C 
HETATM   33  C11 UNL     1      -5.868   6.872  13.681  1.00  0.00    -0.091 C 
HETATM   34  C12 UNL     1      -4.673   6.031  13.322  1.00  0.00     0.042 C 
HETATM   35  C13 UNL     1      -7.189   6.172  13.520  1.00  0.00     0.042 C 
ENDBRANCH  31  32
ENDBRANCH  30  31
ENDBRANCH  28  30
ENDBRANCH  26  27
ENDBRANCH  23  25
ENDBRANCH   1  23
BRANCH   7  36
HETATM   36  C25 UNL     1       3.037  14.555  24.031  1.00  0.00     0.265 C 
HETATM   37  O2  UNL     1       2.275  13.592  24.043  1.00  0.00    -0.302 OA
ENDBRANCH   7  36
TORSDOF 13
ENDMDL
MODEL 6
REMARK minimizedAffinity -7.7457962
REMARK CNNscore 0.315829635
REMARK CNNaffinity 6.69805717
REMARK  13 active torsions:
REMARK  status: ('A' for Active; 'I' for Inactive)
REMARK    1  A    between atoms: C2_2  and  C3_3 
REMARK    2  A    between atoms: C2_2  and  C14_14 
REMARK    3  A    between atoms: C4_4  and  C5_5 
REMARK    4  A    between atoms: C6_6  and  C8_8 
REMARK    5  A    between atoms: C8_8  and  C9_9 
REMARK    6  A    between atoms: C9_9  and  C10_10 
REMARK    7  A    between atoms: C18_18  and  C19_19 
REMARK    8  A    between atoms: C19_19  and  C20_20 
REMARK    9  A    between atoms: C20_20  and  C21_21 
REMARK   10  A    between atoms: C21_21  and  O1_22 
REMARK   11  A    between atoms: C23_24  and  C25_26 
REMARK   12  A    between atoms: C28_30  and  O3_32 
REMARK   13  A    between atoms: C30_33  and  O4_34 
ROOT
HETATM    1  C14 UNL     1      -0.176   6.482  12.772  1.00  0.00     0.047 C 
HETATM    2  C15 UNL     1      -0.617   7.425  11.645  1.00  0.00     0.013 C 
HETATM    3  C16 UNL     1       0.526   8.433  11.610  1.00  0.00     0.017 C 
HETATM    4  C17 UNL     1       1.844   7.615  11.831  1.00  0.00     0.024 C 
HETATM    5  C18 UNL     1       2.721   7.499  10.508  1.00  0.00     0.029 C 
HETATM    6  C22 UNL     1       4.065   6.768  10.795  1.00  0.00    -0.066 C 
HETATM    7  C23 UNL     1       4.581   5.621  10.276  1.00  0.00    -0.021 C 
HETATM    8  C24 UNL     1       5.994   5.139  10.518  1.00  0.00     0.052 C 
HETATM    9  C26 UNL     1       4.861   7.544  11.840  1.00  0.00     0.038 C 
HETATM   10  C27 UNL     1       4.071   7.646  13.139  1.00  0.00     0.042 C 
HETATM   11  C28 UNL     1       2.707   8.338  12.955  1.00  0.00     0.065 C 
HETATM   12  C29 UNL     1       2.934   9.847  12.702  1.00  0.00     0.047 C 
HETATM   13  C30 UNL     1       1.304   6.232  12.374  1.00  0.00     0.138 C 
ENDROOT
BRANCH   5  14
HETATM   14  C19 UNL     1       1.938   7.169   9.203  1.00  0.00     0.012 C 
BRANCH  14  15
HETATM   15  C20 UNL     1       2.437   7.947   7.972  1.00  0.00     0.027 C 
BRANCH  15  16
HETATM   16  C21 UNL     1       1.922   7.357   6.663  1.00  0.00     0.164 C 
BRANCH  16  17
HETATM   17  O1  UNL     1       2.287   5.991   6.520  1.00  0.00    -0.401 OA
HETATM   18  H32 UNL     1       1.862   5.501   7.242  1.00  0.00     0.209 HD
ENDBRANCH  16  17
ENDBRANCH  15  16
ENDBRANCH  14  15
ENDBRANCH   5  14
BRANCH  11  19
HETATM   19  O3  UNL     1       2.018   8.254  14.216  1.00  0.00    -0.389 OA
HETATM   20  H44 UNL     1       2.589   8.656  14.896  1.00  0.00     0.210 HD
ENDBRANCH  11  19
BRANCH  13  21
HETATM   21  O4  UNL     1       1.386   5.206  11.387  1.00  0.00    -0.394 OA
HETATM   22  H46 UNL     1       0.892   4.437  11.727  1.00  0.00     0.210 HD
ENDBRANCH  13  21
BRANCH   1  23
HETATM   23  C2  UNL     1      -1.031   5.240  13.024  1.00  0.00    -0.061 C 
HETATM   24  C1  UNL     1      -0.758   4.042  12.474  1.00  0.00     0.019 C 
BRANCH  23  25
HETATM   25  C3  UNL     1      -2.208   5.342  13.886  1.00  0.00     0.007 C 
HETATM   26  C4  UNL     1      -3.441   5.740  13.533  1.00  0.00     0.001 C 
BRANCH  26  27
HETATM   27  C5  UNL     1      -4.519   5.863  14.497  1.00  0.00     0.002 C 
HETATM   28  C6  UNL     1      -5.401   6.877  14.591  1.00  0.00    -0.084 C 
HETATM   29  C7  UNL     1      -5.464   8.057  13.657  1.00  0.00     0.043 C 
BRANCH  28  30
HETATM   30  C8  UNL     1      -6.440   6.877  15.700  1.00  0.00     0.037 C 
BRANCH  30  31
HETATM   31  C9  UNL     1      -7.754   6.216  15.277  1.00  0.00     0.031 C 
BRANCH  31  32
HETATM   32  C10 UNL     1      -7.539   4.814  14.771  1.00  0.00    -0.024 C 
HETATM   33  C11 UNL     1      -7.761   4.360  13.522  1.00  0.00    -0.091 C 
HETATM   34  C12 UNL     1      -8.227   5.210  12.371  1.00  0.00     0.042 C 
HETATM   35  C13 UNL     1      -7.535   2.915  13.174  1.00  0.00     0.042 C 
ENDBRANCH  31  32
ENDBRANCH  30  31
ENDBRANCH  28  30
ENDBRANCH  26  27
ENDBRANCH  23  25
ENDBRANCH   1  23
BRANCH   7  36
HETATM   36  C25 UNL     1       3.820   4.667   9.414  1.00  0.00     0.265 C 
HETATM   37  O2  UNL     1       4.070   4.489   8.225  1.00  0.00    -0.302 OA
ENDBRANCH   7  36
TORSDOF 13
ENDMDL
MODEL 7
REMARK minimizedAffinity -7.32495928
REMARK CNNscore 0.289103419
REMARK CNNaffinity 6.15270805
REMARK  13 active torsions:
REMARK  status: ('A' for Active; 'I' for Inactive)
REMARK    1  A    between atoms: C2_2  and  C3_3 
REMARK    2  A    between atoms: C2_2  and  C14_14 
REMARK    3  A    between atoms: C4_4  and  C5_5 
REMARK    4  A    between atoms: C6_6  and  C8_8 
REMARK    5  A    between atoms: C8_8  and  C9_9 
REMARK    6  A    between atoms: C9_9  and  C10_10 
REMARK    7  A    between atoms: C18_18  and  C19_19 
REMARK    8  A    between atoms: C19_19  and  C20_20 
REMARK    9  A    between atoms: C20_20  and  C21_21 
REMARK   10  A    between atoms: C21_21  and  O1_22 
REMARK   11  A    between atoms: C23_24  and  C25_26 
REMARK   12  A    between atoms: C28_30  and  O3_32 
REMARK   13  A    between atoms: C30_33  and  O4_34 
ROOT
HETATM    1  C14 UNL     1      -2.225   8.770  14.889  1.00  0.00     0.047 C 
HETATM    2  C15 UNL     1      -1.720   9.815  13.886  1.00  0.00     0.013 C 
HETATM    3  C16 UNL     1      -2.096  11.122  14.573  1.00  0.00     0.017 C 
HETATM    4  C17 UNL     1      -1.811  10.917  16.101  1.00  0.00     0.024 C 
HETATM    5  C18 UNL     1      -0.539  11.733  16.600  1.00  0.00     0.029 C 
HETATM    6  C22 UNL     1      -0.352  11.583  18.138  1.00  0.00    -0.066 C 
HETATM    7  C23 UNL     1       0.687  11.082  18.861  1.00  0.00    -0.021 C 
HETATM    8  C24 UNL     1       0.799  11.179  20.366  1.00  0.00     0.052 C 
HETATM    9  C26 UNL     1      -1.585  12.112  18.862  1.00  0.00     0.038 C 
HETATM   10  C27 UNL     1      -2.823  11.331  18.440  1.00  0.00     0.042 C 
HETATM   11  C28 UNL     1      -3.084  11.399  16.924  1.00  0.00     0.065 C 
HETATM   12  C29 UNL     1      -3.571  12.821  16.557  1.00  0.00     0.047 C 
HETATM   13  C30 UNL     1      -1.660   9.347  16.215  1.00  0.00     0.138 C 
ENDROOT
BRANCH   5  14
HETATM   14  C19 UNL     1       0.709  11.677  15.671  1.00  0.00     0.012 C 
BRANCH  14  15
HETATM   15  C20 UNL     1       1.215  10.247  15.406  1.00  0.00     0.027 C 
BRANCH  15  16
HETATM   16  C21 UNL     1       2.249  10.195  14.285  1.00  0.00     0.164 C 
BRANCH  16  17
HETATM   17  O1  UNL     1       1.657   9.871  13.034  1.00  0.00    -0.401 OA
HETATM   18  H32 UNL     1       1.034  10.582  12.816  1.00  0.00     0.209 HD
ENDBRANCH  16  17
ENDBRANCH  15  16
ENDBRANCH  14  15
ENDBRANCH   5  14
BRANCH  11  19
HETATM   19  O3  UNL     1      -4.193  10.525  16.647  1.00  0.00    -0.389 OA
HETATM   20  H44 UNL     1      -4.943  10.809  17.201  1.00  0.00     0.210 HD
ENDBRANCH  11  19
BRANCH  13  21
HETATM   21  O4  UNL     1      -0.299   8.957  16.385  1.00  0.00    -0.394 OA
HETATM   22  H46 UNL     1      -0.261   7.988  16.283  1.00  0.00     0.210 HD
ENDBRANCH  13  21
BRANCH   1  23
HETATM   23  C2  UNL     1      -1.908   7.304  14.597  1.00  0.00    -0.061 C 
HETATM   24  C1  UNL     1      -0.676   6.876  14.263  1.00  0.00     0.019 C 
BRANCH  23  25
HETATM   25  C3  UNL     1      -2.979   6.310  14.664  1.00  0.00     0.007 C 
HETATM   26  C4  UNL     1      -4.020   6.180  13.826  1.00  0.00     0.001 C 
BRANCH  26  27
HETATM   27  C5  UNL     1      -5.061   5.190  14.033  1.00  0.00     0.002 C 
HETATM   28  C6  UNL     1      -6.390   5.404  14.001  1.00  0.00    -0.084 C 
HETATM   29  C7  UNL     1      -7.047   6.721  13.678  1.00  0.00     0.043 C 
BRANCH  28  30
HETATM   30  C8  UNL     1      -7.348   4.261  14.297  1.00  0.00     0.037 C 
BRANCH  30  31
HETATM   31  C9  UNL     1      -7.283   3.150  13.246  1.00  0.00     0.031 C 
BRANCH  31  32
HETATM   32  C10 UNL     1      -6.434   3.543  12.066  1.00  0.00    -0.024 C 
HETATM   33  C11 UNL     1      -5.797   2.716  11.214  1.00  0.00    -0.091 C 
HETATM   34  C12 UNL     1      -5.866   1.214  11.265  1.00  0.00     0.042 C 
HETATM   35  C13 UNL     1      -4.949   3.261  10.099  1.00  0.00     0.042 C 
ENDBRANCH  31  32
ENDBRANCH  30  31
ENDBRANCH  28  30
ENDBRANCH  26  27
ENDBRANCH  23  25
ENDBRANCH   1  23
BRANCH   7  36
HETATM   36  C25 UNL     1       1.847  10.347  18.275  1.00  0.00     0.265 C 
HETATM   37  O2  UNL     1       2.644   9.699  18.949  1.00  0.00    -0.302 OA
ENDBRANCH   7  36
TORSDOF 13
ENDMDL
MODEL 8
REMARK minimizedAffinity -7.70514536
REMARK CNNscore 0.279417753
REMARK CNNaffinity 5.77133799
REMARK  13 active torsions:
REMARK  status: ('A' for Active; 'I' for Inactive)
REMARK    1  A    between atoms: C2_2  and  C3_3 
REMARK    2  A    between atoms: C2_2  and  C14_14 
REMARK    3  A    between atoms: C4_4  and  C5_5 
REMARK    4  A    between atoms: C6_6  and  C8_8 
REMARK    5  A    between atoms: C8_8  and  C9_9 
REMARK    6  A    between atoms: C9_9  and  C10_10 
REMARK    7  A    between atoms: C18_18  and  C19_19 
REMARK    8  A    between atoms: C19_19  and  C20_20 
REMARK    9  A    between atoms: C20_20  and  C21_21 
REMARK   10  A    between atoms: C21_21  and  O1_22 
REMARK   11  A    between atoms: C23_24  and  C25_26 
REMARK   12  A    between atoms: C28_30  and  O3_32 
REMARK   13  A    between atoms: C30_33  and  O4_34 
ROOT
HETATM    1  C14 UNL     1       0.464  10.065  17.196  1.00  0.00     0.047 C 
HETATM    2  C15 UNL     1       0.874  10.906  15.980  1.00  0.00     0.013 C 
HETATM    3  C16 UNL     1       0.997   9.848  14.890  1.00  0.00     0.017 C 
HETATM    4  C17 UNL     1      -0.183   8.842  15.114  1.00  0.00     0.024 C 
HETATM    5  C18 UNL     1      -1.316   8.973  14.004  1.00  0.00     0.029 C 
HETATM    6  C22 UNL     1      -2.417   7.890  14.204  1.00  0.00    -0.066 C 
HETATM    7  C23 UNL     1      -3.752   8.014  14.435  1.00  0.00    -0.021 C 
HETATM    8  C24 UNL     1      -4.728   6.858  14.418  1.00  0.00     0.052 C 
HETATM    9  C26 UNL     1      -1.797   6.500  14.106  1.00  0.00     0.038 C 
HETATM   10  C27 UNL     1      -0.731   6.319  15.178  1.00  0.00     0.042 C 
HETATM   11  C28 UNL     1       0.399   7.362  15.080  1.00  0.00     0.065 C 
HETATM   12  C29 UNL     1       1.265   7.054  13.835  1.00  0.00     0.047 C 
HETATM   13  C30 UNL     1      -0.666   9.196  16.577  1.00  0.00     0.138 C 
ENDROOT
BRANCH   5  14
HETATM   14  C19 UNL     1      -1.735  10.425  13.631  1.00  0.00     0.012 C 
BRANCH  14  15
HETATM   15  C20 UNL     1      -2.107  11.290  14.849  1.00  0.00     0.027 C 
BRANCH  15  16
HETATM   16  C21 UNL     1      -2.126  12.780  14.519  1.00  0.00     0.164 C 
BRANCH  16  17
HETATM   17  O1  UNL     1      -0.999  13.165  13.746  1.00  0.00    -0.401 OA
HETATM   18  H32 UNL     1      -1.047  12.685  12.904  1.00  0.00     0.209 HD
ENDBRANCH  16  17
ENDBRANCH  15  16
ENDBRANCH  14  15
ENDBRANCH   5  14
BRANCH  11  19
HETATM   19  O3  UNL     1       1.260   7.159  16.214  1.00  0.00    -0.389 OA
HETATM   20  H44 UNL     1       1.562   6.232  16.199  1.00  0.00     0.210 HD
ENDBRANCH  11  19
BRANCH  13  21
HETATM   21  O4  UNL     1      -1.897   9.915  16.570  1.00  0.00    -0.394 OA
HETATM   22  H46 UNL     1      -2.047  10.240  17.477  1.00  0.00     0.210 HD
ENDBRANCH  13  21
BRANCH   1  23
HETATM   23  C2  UNL     1       0.117  10.812  18.483  1.00  0.00    -0.061 C 
HETATM   24  C1  UNL     1      -1.110  11.304  18.735  1.00  0.00     0.019 C 
BRANCH  23  25
HETATM   25  C3  UNL     1       1.155  11.023  19.492  1.00  0.00     0.007 C 
HETATM   26  C4  UNL     1       1.401  10.266  20.574  1.00  0.00     0.001 C 
BRANCH  26  27
HETATM   27  C5  UNL     1       2.422  10.613  21.545  1.00  0.00     0.002 C 
HETATM   28  C6  UNL     1       2.882   9.833  22.542  1.00  0.00    -0.084 C 
HETATM   29  C7  UNL     1       2.454   8.411  22.794  1.00  0.00     0.043 C 
BRANCH  28  30
HETATM   30  C8  UNL     1       3.920  10.375  23.511  1.00  0.00     0.037 C 
BRANCH  30  31
HETATM   31  C9  UNL     1       4.648  11.607  22.967  1.00  0.00     0.031 C 
BRANCH  31  32
HETATM   32  C10 UNL     1       6.144  11.457  23.051  1.00  0.00    -0.024 C 
HETATM   33  C11 UNL     1       7.058  12.447  23.073  1.00  0.00    -0.091 C 
HETATM   34  C12 UNL     1       6.732  13.916  23.071  1.00  0.00     0.042 C 
HETATM   35  C13 UNL     1       8.528  12.138  23.120  1.00  0.00     0.042 C 
ENDBRANCH  31  32
ENDBRANCH  30  31
ENDBRANCH  28  30
ENDBRANCH  26  27
ENDBRANCH  23  25
ENDBRANCH   1  23
BRANCH   7  36
HETATM   36  C25 UNL     1      -4.438   9.300  14.760  1.00  0.00     0.265 C 
HETATM   37  O2  UNL     1      -4.798   9.604  15.895  1.00  0.00    -0.302 OA
ENDBRANCH   7  36
TORSDOF 13
ENDMDL
MODEL 9
REMARK minimizedAffinity -7.41011763
REMARK CNNscore 0.273643792
REMARK CNNaffinity 6.20868492
REMARK  13 active torsions:
REMARK  status: ('A' for Active; 'I' for Inactive)
REMARK    1  A    between atoms: C2_2  and  C3_3 
REMARK    2  A    between atoms: C2_2  and  C14_14 
REMARK    3  A    between atoms: C4_4  and  C5_5 
REMARK    4  A    between atoms: C6_6  and  C8_8 
REMARK    5  A    between atoms: C8_8  and  C9_9 
REMARK    6  A    between atoms: C9_9  and  C10_10 
REMARK    7  A    between atoms: C18_18  and  C19_19 
REMARK    8  A    between atoms: C19_19  and  C20_20 
REMARK    9  A    between atoms: C20_20  and  C21_21 
REMARK   10  A    between atoms: C21_21  and  O1_22 
REMARK   11  A    between atoms: C23_24  and  C25_26 
REMARK   12  A    between atoms: C28_30  and  O3_32 
REMARK   13  A    between atoms: C30_33  and  O4_34 
ROOT
HETATM    1  C14 UNL     1      -3.284   5.417  14.073  1.00  0.00     0.047 C 
HETATM    2  C15 UNL     1      -3.795   6.662  14.810  1.00  0.00     0.013 C 
HETATM    3  C16 UNL     1      -2.503   7.263  15.351  1.00  0.00     0.017 C 
HETATM    4  C17 UNL     1      -1.426   7.083  14.226  1.00  0.00     0.024 C 
HETATM    5  C18 UNL     1      -1.048   8.457  13.518  1.00  0.00     0.029 C 
HETATM    6  C22 UNL     1       0.095   8.251  12.480  1.00  0.00    -0.066 C 
HETATM    7  C23 UNL     1       0.127   8.476  11.139  1.00  0.00    -0.021 C 
HETATM    8  C24 UNL     1       1.381   8.405  10.296  1.00  0.00     0.052 C 
HETATM    9  C26 UNL     1       1.335   7.706  13.181  1.00  0.00     0.038 C 
HETATM   10  C27 UNL     1       1.025   6.369  13.842  1.00  0.00     0.042 C 
HETATM   11  C28 UNL     1      -0.113   6.462  14.875  1.00  0.00     0.065 C 
HETATM   12  C29 UNL     1       0.395   7.226  16.121  1.00  0.00     0.047 C 
HETATM   13  C30 UNL     1      -2.103   6.025  13.267  1.00  0.00     0.138 C 
ENDROOT
BRANCH   5  14
HETATM   14  C19 UNL     1      -2.244   9.387  13.159  1.00  0.00     0.012 C 
BRANCH  14  15
HETATM   15  C20 UNL     1      -2.854  10.103  14.378  1.00  0.00     0.027 C 
BRANCH  15  16
HETATM   16  C21 UNL     1      -2.153  11.421  14.689  1.00  0.00     0.164 C 
BRANCH  16  17
HETATM   17  O1  UNL     1      -1.156  11.731  13.725  1.00  0.00    -0.401 OA
HETATM   18  H32 UNL     1      -1.604  11.839  12.870  1.00  0.00     0.209 HD
ENDBRANCH  16  17
ENDBRANCH  15  16
ENDBRANCH  14  15
ENDBRANCH   5  14
BRANCH  11  19
HETATM   19  O3  UNL     1      -0.387   5.124  15.324  1.00  0.00    -0.389 OA
HETATM   20  H44 UNL     1       0.443   4.748  15.669  1.00  0.00     0.210 HD
ENDBRANCH  11  19
BRANCH  13  21
HETATM   21  O4  UNL     1      -2.582   6.627  12.066  1.00  0.00    -0.394 OA
HETATM   22  H46 UNL     1      -3.124   5.962  11.605  1.00  0.00     0.210 HD
ENDBRANCH  13  21
BRANCH   1  23
HETATM   23  C2  UNL     1      -4.303   4.604  13.276  1.00  0.00    -0.061 C 
HETATM   24  C1  UNL     1      -3.958   3.564  12.494  1.00  0.00     0.019 C 
BRANCH  23  25
HETATM   25  C3  UNL     1      -5.719   4.966  13.342  1.00  0.00     0.007 C 
HETATM   26  C4  UNL     1      -6.237   6.199  13.461  1.00  0.00     0.001 C 
BRANCH  26  27
HETATM   27  C5  UNL     1      -7.665   6.429  13.583  1.00  0.00     0.002 C 
HETATM   28  C6  UNL     1      -8.287   7.121  14.557  1.00  0.00    -0.084 C 
HETATM   29  C7  UNL     1      -7.593   7.845  15.682  1.00  0.00     0.043 C 
BRANCH  28  30
HETATM   30  C8  UNL     1      -9.804   7.220  14.566  1.00  0.00     0.037 C 
BRANCH  30  31
HETATM   31  C9  UNL     1     -10.435   6.715  13.266  1.00  0.00     0.031 C 
BRANCH  31  32
HETATM   32  C10 UNL     1     -11.694   7.468  12.924  1.00  0.00    -0.024 C 
HETATM   33  C11 UNL     1     -12.947   7.178  13.324  1.00  0.00    -0.091 C 
HETATM   34  C12 UNL     1     -13.311   6.048  14.249  1.00  0.00     0.042 C 
HETATM   35  C13 UNL     1     -14.115   8.005  12.866  1.00  0.00     0.042 C 
ENDBRANCH  31  32
ENDBRANCH  30  31
ENDBRANCH  28  30
ENDBRANCH  26  27
ENDBRANCH  23  25
ENDBRANCH   1  23
BRANCH   7  36
HETATM   36  C25 UNL     1      -1.070   8.803  10.308  1.00  0.00     0.265 C 
HETATM   37  O2  UNL     1      -0.997   9.187   9.144  1.00  0.00    -0.302 OA
ENDBRANCH   7  36
TORSDOF 13
ENDMDL
