MODEL 1
REMARK minimizedAffinity -7.46259737
REMARK CNNscore 0.672019482
REMARK CNNaffinity 5.88066244
REMARK  5 active torsions:
REMARK  status: ('A' for Active; 'I' for Inactive)
REMARK    1  A    between atoms: C2_2  and  C3_3 
REMARK    2  A    between atoms: C6_6  and  C7_7 
REMARK    3  A    between atoms: C7_7  and  O1_9 
REMARK    4  A    between atoms: C23_29  and  O6_30 
REMARK    5  A    between atoms: C28_36  and  O8_37 
ROOT
HETATM    1  C3  UNL     1       1.671  69.335 -39.893  1.00  0.00     0.008 C 
HETATM    2  C4  UNL     1       2.543  68.368 -40.675  1.00  0.00    -0.023 C 
HETATM    3  C5  UNL     1       3.877  68.365 -40.835  1.00  0.00     0.004 C 
HETATM    4  C6  UNL     1       4.922  69.371 -40.392  1.00  0.00     0.183 C 
HETATM    5  O2  UNL     1       5.779  68.661 -39.472  1.00  0.00    -0.306 OA
HETATM    6  C9  UNL     1       6.435  69.409 -38.558  1.00  0.00     0.289 C 
HETATM    7  O3  UNL     1       6.431  70.631 -38.489  1.00  0.00    -0.260 OA
HETATM    8  C10 UNL     1       7.227  68.555 -37.630  1.00  0.00     0.010 C 
HETATM    9  C11 UNL     1       8.623  69.056 -37.399  1.00  0.00     0.054 C 
HETATM   10  C12 UNL     1       6.730  67.484 -36.976  1.00  0.00     0.004 C 
HETATM   11  C13 UNL     1       5.354  66.874 -37.090  1.00  0.00     0.147 C 
HETATM   12  C14 UNL     1       5.410  65.337 -36.991  1.00  0.00     0.233 C 
HETATM   13  O4  UNL     1       6.302  64.596 -37.373  1.00  0.00    -0.272 OA
HETATM   14  N1  UNL     1       4.203  64.922 -36.446  1.00  0.00    -0.327 N 
HETATM   15  C15 UNL     1       3.417  65.987 -36.118  1.00  0.00     0.056 C 
HETATM   16  C16 UNL     1       2.089  65.967 -36.072  1.00  0.00     0.084 C 
HETATM   17  C17 UNL     1       1.367  67.260 -36.053  1.00  0.00     0.185 C 
HETATM   18  O5  UNL     1       0.150  67.259 -35.936  1.00  0.00    -0.287 OA
HETATM   19  C18 UNL     1       2.143  68.520 -36.246  1.00  0.00     0.040 C 
HETATM   20  C19 UNL     1       3.545  68.504 -36.120  1.00  0.00    -0.001 C 
HETATM   21  C20 UNL     1       4.234  69.732 -36.064  1.00  0.00     0.021 C 
HETATM   22  C21 UNL     1       3.578  70.957 -36.220  1.00  0.00    -0.027 C 
HETATM   23  C22 UNL     1       4.342  72.246 -36.141  1.00  0.00     0.051 C 
HETATM   24  C23 UNL     1       2.201  70.947 -36.431  1.00  0.00     0.086 C 
HETATM   25  C24 UNL     1       1.490  69.736 -36.496  1.00  0.00     0.058 C 
HETATM   26  C25 UNL     1       0.085  69.843 -36.933  1.00  0.00     0.163 C 
HETATM   27  O7  UNL     1      -0.639  70.604 -36.284  1.00  0.00    -0.292 OA
HETATM   28  C26 UNL     1      -0.395  69.214 -38.239  1.00  0.00     0.084 C 
HETATM   29  C27 UNL     1       0.592  68.485 -39.162  1.00  0.00     0.016 C 
HETATM   30  C28 UNL     1       4.300  67.206 -35.993  1.00  0.00     0.143 C 
HETATM   31  H20 UNL     1       3.910  63.955 -36.522  1.00  0.00     0.168 HD
ENDROOT
BRANCH   4  32
HETATM   32  C7  UNL     1       5.691  69.885 -41.650  1.00  0.00     0.147 C 
HETATM   33  C8  UNL     1       4.821  70.566 -42.698  1.00  0.00     0.042 C 
BRANCH  32  34
HETATM   34  O1  UNL     1       6.726  70.805 -41.275  1.00  0.00    -0.393 OA
HETATM   35  H14 UNL     1       7.202  71.051 -42.086  1.00  0.00     0.210 HD
ENDBRANCH  32  34
ENDBRANCH   4  32
BRANCH   1  36
HETATM   36  C2  UNL     1       1.026  70.402 -40.798  1.00  0.00     0.004 C 
HETATM   37  C1  UNL     1       0.301  69.835 -42.013  1.00  0.00     0.006 C 
ENDBRANCH   1  36
BRANCH  30  38
HETATM   38  O8  UNL     1       4.895  67.199 -34.688  1.00  0.00    -0.377 OA
HETATM   39  H31 UNL     1       5.045  66.273 -34.425  1.00  0.00     0.211 HD
ENDBRANCH  30  38
BRANCH  24  40
HETATM   40  O6  UNL     1       1.566  72.158 -36.570  1.00  0.00    -0.359 OA
HETATM   41  H26 UNL     1       0.618  72.036 -36.333  1.00  0.00     0.217 HD
ENDBRANCH  24  40
TORSDOF 5
ENDMDL
MODEL 2
REMARK minimizedAffinity -6.69553232
REMARK CNNscore 0.580082536
REMARK CNNaffinity 6.24948263
REMARK  5 active torsions:
REMARK  status: ('A' for Active; 'I' for Inactive)
REMARK    1  A    between atoms: C2_2  and  C3_3 
REMARK    2  A    between atoms: C6_6  and  C7_7 
REMARK    3  A    between atoms: C7_7  and  O1_9 
REMARK    4  A    between atoms: C23_29  and  O6_30 
REMARK    5  A    between atoms: C28_36  and  O8_37 
ROOT
HETATM    1  C3  UNL     1       3.874  55.206  -8.145  1.00  0.00     0.008 C 
HETATM    2  C4  UNL     1       4.123  54.686  -9.550  1.00  0.00    -0.023 C 
HETATM    3  C5  UNL     1       4.158  53.418  -9.994  1.00  0.00     0.004 C 
HETATM    4  C6  UNL     1       4.075  52.109  -9.232  1.00  0.00     0.183 C 
HETATM    5  O2  UNL     1       2.880  51.456  -9.712  1.00  0.00    -0.306 OA
HETATM    6  C9  UNL     1       2.296  50.573  -8.872  1.00  0.00     0.289 C 
HETATM    7  O3  UNL     1       2.728  50.220  -7.783  1.00  0.00    -0.260 OA
HETATM    8  C10 UNL     1       1.040  50.023  -9.455  1.00  0.00     0.010 C 
HETATM    9  C11 UNL     1       0.918  48.534  -9.317  1.00  0.00     0.054 C 
HETATM   10  C12 UNL     1       0.053  50.781  -9.976  1.00  0.00     0.004 C 
HETATM   11  C13 UNL     1       0.023  52.279 -10.165  1.00  0.00     0.147 C 
HETATM   12  C14 UNL     1      -0.693  52.666 -11.474  1.00  0.00     0.233 C 
HETATM   13  O4  UNL     1      -0.718  52.044 -12.524  1.00  0.00    -0.272 OA
HETATM   14  N1  UNL     1      -1.259  53.917 -11.271  1.00  0.00    -0.327 N 
HETATM   15  C15 UNL     1      -1.063  54.347  -9.991  1.00  0.00     0.056 C 
HETATM   16  C16 UNL     1      -1.003  55.620  -9.617  1.00  0.00     0.084 C 
HETATM   17  C17 UNL     1      -0.439  55.935  -8.284  1.00  0.00     0.185 C 
HETATM   18  O5  UNL     1      -0.447  57.094  -7.896  1.00  0.00    -0.287 OA
HETATM   19  C18 UNL     1       0.183  54.836  -7.488  1.00  0.00     0.040 C 
HETATM   20  C19 UNL     1      -0.053  53.495  -7.845  1.00  0.00    -0.001 C 
HETATM   21  C20 UNL     1       0.335  52.478  -6.950  1.00  0.00     0.021 C 
HETATM   22  C21 UNL     1       1.026  52.757  -5.766  1.00  0.00    -0.027 C 
HETATM   23  C22 UNL     1       1.413  51.650  -4.831  1.00  0.00     0.051 C 
HETATM   24  C23 UNL     1       1.327  54.086  -5.475  1.00  0.00     0.086 C 
HETATM   25  C24 UNL     1       0.956  55.119  -6.352  1.00  0.00     0.058 C 
HETATM   26  C25 UNL     1       1.512  56.450  -6.044  1.00  0.00     0.163 C 
HETATM   27  O7  UNL     1       1.287  56.894  -4.914  1.00  0.00    -0.292 OA
HETATM   28  C26 UNL     1       2.487  57.146  -6.991  1.00  0.00     0.084 C 
HETATM   29  C27 UNL     1       2.951  56.453  -8.280  1.00  0.00     0.016 C 
HETATM   30  C28 UNL     1      -0.756  53.144  -9.131  1.00  0.00     0.143 C 
HETATM   31  H20 UNL     1      -1.557  54.480 -12.059  1.00  0.00     0.168 HD
ENDROOT
BRANCH   4  32
HETATM   32  C7  UNL     1       5.366  51.278  -9.519  1.00  0.00     0.147 C 
HETATM   33  C8  UNL     1       6.669  52.057  -9.396  1.00  0.00     0.042 C 
BRANCH  32  34
HETATM   34  O1  UNL     1       5.449  50.145  -8.642  1.00  0.00    -0.393 OA
HETATM   35  H14 UNL     1       6.239  49.639  -8.898  1.00  0.00     0.210 HD
ENDBRANCH  32  34
ENDBRANCH   4  32
BRANCH   1  36
HETATM   36  C2  UNL     1       5.182  55.552  -7.409  1.00  0.00     0.004 C 
HETATM   37  C1  UNL     1       6.411  55.594  -8.309  1.00  0.00     0.006 C 
ENDBRANCH   1  36
BRANCH  30  38
HETATM   38  O8  UNL     1      -1.996  52.521  -8.769  1.00  0.00    -0.377 OA
HETATM   39  H31 UNL     1      -2.623  52.635  -9.506  1.00  0.00     0.211 HD
ENDBRANCH  30  38
BRANCH  24  40
HETATM   40  O6  UNL     1       1.996  54.348  -4.303  1.00  0.00    -0.359 OA
HETATM   41  H26 UNL     1       1.808  55.280  -4.046  1.00  0.00     0.217 HD
ENDBRANCH  24  40
TORSDOF 5
ENDMDL
MODEL 3
REMARK minimizedAffinity -6.90604115
REMARK CNNscore 0.495343536
REMARK CNNaffinity 5.97752905
REMARK  5 active torsions:
REMARK  status: ('A' for Active; 'I' for Inactive)
REMARK    1  A    between atoms: C2_2  and  C3_3 
REMARK    2  A    between atoms: C6_6  and  C7_7 
REMARK    3  A    between atoms: C7_7  and  O1_9 
REMARK    4  A    between atoms: C23_29  and  O6_30 
REMARK    5  A    between atoms: C28_36  and  O8_37 
ROOT
HETATM    1  C3  UNL     1       3.350  53.678  -9.922  1.00  0.00     0.008 C 
HETATM    2  C4  UNL     1       3.180  53.302 -11.384  1.00  0.00    -0.023 C 
HETATM    3  C5  UNL     1       2.907  52.104 -11.929  1.00  0.00     0.004 C 
HETATM    4  C6  UNL     1       2.793  50.736 -11.284  1.00  0.00     0.183 C 
HETATM    5  O2  UNL     1       1.430  50.314 -11.507  1.00  0.00    -0.306 OA
HETATM    6  C9  UNL     1       0.922  49.424 -10.627  1.00  0.00     0.289 C 
HETATM    7  O3  UNL     1       1.531  48.886  -9.712  1.00  0.00    -0.260 OA
HETATM    8  C10 UNL     1      -0.506  49.124 -10.926  1.00  0.00     0.010 C 
HETATM    9  C11 UNL     1      -0.832  47.660 -10.889  1.00  0.00     0.054 C 
HETATM   10  C12 UNL     1      -1.453  50.067 -11.121  1.00  0.00     0.004 C 
HETATM   11  C13 UNL     1      -1.284  51.566 -11.169  1.00  0.00     0.147 C 
HETATM   12  C14 UNL     1      -2.211  52.203 -12.222  1.00  0.00     0.233 C 
HETATM   13  O4  UNL     1      -2.578  51.722 -13.283  1.00  0.00    -0.272 OA
HETATM   14  N1  UNL     1      -2.505  53.485 -11.781  1.00  0.00    -0.327 N 
HETATM   15  C15 UNL     1      -1.952  53.726 -10.558  1.00  0.00     0.056 C 
HETATM   16  C16 UNL     1      -1.603  54.925 -10.103  1.00  0.00     0.084 C 
HETATM   17  C17 UNL     1      -0.703  54.996  -8.930  1.00  0.00     0.185 C 
HETATM   18  O5  UNL     1      -0.433  56.090  -8.454  1.00  0.00    -0.287 OA
HETATM   19  C18 UNL     1      -0.099  53.735  -8.408  1.00  0.00     0.040 C 
HETATM   20  C19 UNL     1      -0.624  52.491  -8.807  1.00  0.00    -0.001 C 
HETATM   21  C20 UNL     1      -0.208  51.330  -8.126  1.00  0.00     0.021 C 
HETATM   22  C21 UNL     1       0.774  51.368  -7.130  1.00  0.00    -0.027 C 
HETATM   23  C22 UNL     1       1.183  50.113  -6.417  1.00  0.00     0.051 C 
HETATM   24  C23 UNL     1       1.344  52.598  -6.811  1.00  0.00     0.086 C 
HETATM   25  C24 UNL     1       0.951  53.771  -7.478  1.00  0.00     0.058 C 
HETATM   26  C25 UNL     1       1.770  54.967  -7.206  1.00  0.00     0.163 C 
HETATM   27  O7  UNL     1       1.888  55.297  -6.022  1.00  0.00    -0.292 OA
HETATM   28  C26 UNL     1       2.598  55.634  -8.301  1.00  0.00     0.084 C 
HETATM   29  C27 UNL     1       2.635  55.045  -9.719  1.00  0.00     0.016 C 
HETATM   30  C28 UNL     1      -1.653  52.397  -9.905  1.00  0.00     0.143 C 
HETATM   31  H20 UNL     1      -2.883  54.175 -12.420  1.00  0.00     0.168 HD
ENDROOT
BRANCH   4  32
HETATM   32  C7  UNL     1       3.831  49.778 -11.950  1.00  0.00     0.147 C 
HETATM   33  C8  UNL     1       4.069  50.026 -13.434  1.00  0.00     0.042 C 
BRANCH  32  34
HETATM   34  O1  UNL     1       5.099  49.857 -11.284  1.00  0.00    -0.393 OA
HETATM   35  H14 UNL     1       5.688  49.207 -11.704  1.00  0.00     0.210 HD
ENDBRANCH  32  34
ENDBRANCH   4  32
BRANCH   1  36
HETATM   36  C2  UNL     1       4.831  53.751  -9.506  1.00  0.00     0.004 C 
HETATM   37  C1  UNL     1       5.543  55.021  -9.956  1.00  0.00     0.006 C 
ENDBRANCH   1  36
BRANCH  30  38
HETATM   38  O8  UNL     1      -2.859  51.910  -9.302  1.00  0.00    -0.377 OA
HETATM   39  H31 UNL     1      -3.612  52.196  -9.850  1.00  0.00     0.211 HD
ENDBRANCH  30  38
BRANCH  24  40
HETATM   40  O6  UNL     1       2.299  52.623  -5.823  1.00  0.00    -0.359 OA
HETATM   41  H26 UNL     1       2.328  53.534  -5.449  1.00  0.00     0.217 HD
ENDBRANCH  24  40
TORSDOF 5
ENDMDL
MODEL 4
REMARK minimizedAffinity -6.31654215
REMARK CNNscore 0.462888926
REMARK CNNaffinity 5.65964746
REMARK  5 active torsions:
REMARK  status: ('A' for Active; 'I' for Inactive)
REMARK    1  A    between atoms: C2_2  and  C3_3 
REMARK    2  A    between atoms: C6_6  and  C7_7 
REMARK    3  A    between atoms: C7_7  and  O1_9 
REMARK    4  A    between atoms: C23_29  and  O6_30 
REMARK    5  A    between atoms: C28_36  and  O8_37 
ROOT
HETATM    1  C3  UNL     1       5.641  55.714  -7.418  1.00  0.00     0.008 C 
HETATM    2  C4  UNL     1       4.704  56.813  -7.889  1.00  0.00    -0.023 C 
HETATM    3  C5  UNL     1       3.528  56.712  -8.532  1.00  0.00     0.004 C 
HETATM    4  C6  UNL     1       2.818  55.495  -9.092  1.00  0.00     0.183 C 
HETATM    5  O2  UNL     1       1.576  55.400  -8.361  1.00  0.00    -0.306 OA
HETATM    6  C9  UNL     1       1.017  54.173  -8.276  1.00  0.00     0.289 C 
HETATM    7  O3  UNL     1       1.422  53.157  -8.824  1.00  0.00    -0.260 OA
HETATM    8  C10 UNL     1      -0.217  54.199  -7.442  1.00  0.00     0.010 C 
HETATM    9  C11 UNL     1      -1.369  53.457  -8.055  1.00  0.00     0.054 C 
HETATM   10  C12 UNL     1      -0.288  54.748  -6.212  1.00  0.00     0.004 C 
HETATM   11  C13 UNL     1       0.781  55.506  -5.462  1.00  0.00     0.147 C 
HETATM   12  C14 UNL     1       0.181  56.669  -4.648  1.00  0.00     0.233 C 
HETATM   13  O4  UNL     1      -0.792  57.352  -4.928  1.00  0.00    -0.272 OA
HETATM   14  N1  UNL     1       1.006  56.862  -3.549  1.00  0.00    -0.327 N 
HETATM   15  C15 UNL     1       2.006  55.935  -3.512  1.00  0.00     0.056 C 
HETATM   16  C16 UNL     1       3.195  56.122  -2.949  1.00  0.00     0.084 C 
HETATM   17  C17 UNL     1       4.288  55.183  -3.291  1.00  0.00     0.185 C 
HETATM   18  O5  UNL     1       5.366  55.296  -2.724  1.00  0.00    -0.287 OA
HETATM   19  C18 UNL     1       4.060  54.173  -4.365  1.00  0.00     0.040 C 
HETATM   20  C19 UNL     1       2.751  53.905  -4.807  1.00  0.00    -0.001 C 
HETATM   21  C20 UNL     1       2.531  52.789  -5.638  1.00  0.00     0.021 C 
HETATM   22  C21 UNL     1       3.584  51.997  -6.108  1.00  0.00    -0.027 C 
HETATM   23  C22 UNL     1       3.311  50.808  -6.981  1.00  0.00     0.051 C 
HETATM   24  C23 UNL     1       4.882  52.332  -5.729  1.00  0.00     0.086 C 
HETATM   25  C24 UNL     1       5.130  53.443  -4.905  1.00  0.00     0.058 C 
HETATM   26  C25 UNL     1       6.548  53.820  -4.749  1.00  0.00     0.163 C 
HETATM   27  O7  UNL     1       7.311  52.940  -4.337  1.00  0.00    -0.292 OA
HETATM   28  C26 UNL     1       7.080  55.154  -5.266  1.00  0.00     0.084 C 
HETATM   29  C27 UNL     1       6.155  56.128  -6.009  1.00  0.00     0.016 C 
HETATM   30  C28 UNL     1       1.590  54.758  -4.362  1.00  0.00     0.143 C 
HETATM   31  H20 UNL     1       0.959  57.722  -3.016  1.00  0.00     0.168 HD
ENDROOT
BRANCH   4  32
HETATM   32  C7  UNL     1       2.595  55.702 -10.624  1.00  0.00     0.147 C 
HETATM   33  C8  UNL     1       3.776  56.315 -11.364  1.00  0.00     0.042 C 
BRANCH  32  34
HETATM   34  O1  UNL     1       2.272  54.460 -11.265  1.00  0.00    -0.393 OA
HETATM   35  H14 UNL     1       2.095  54.656 -12.201  1.00  0.00     0.210 HD
ENDBRANCH  32  34
ENDBRANCH   4  32
BRANCH   1  36
HETATM   36  C2  UNL     1       6.808  55.483  -8.396  1.00  0.00     0.004 C 
HETATM   37  C1  UNL     1       6.639  54.260  -9.291  1.00  0.00     0.006 C 
ENDBRANCH   1  36
BRANCH  30  38
HETATM   38  O8  UNL     1       0.735  53.916  -3.577  1.00  0.00    -0.377 OA
HETATM   39  H31 UNL     1       0.219  54.481  -2.973  1.00  0.00     0.211 HD
ENDBRANCH  30  38
BRANCH  24  40
HETATM   40  O6  UNL     1       5.907  51.538  -6.188  1.00  0.00    -0.359 OA
HETATM   41  H26 UNL     1       6.670  51.638  -5.573  1.00  0.00     0.217 HD
ENDBRANCH  24  40
TORSDOF 5
ENDMDL
MODEL 5
REMARK minimizedAffinity -6.94394398
REMARK CNNscore 0.356012195
REMARK CNNaffinity 5.91045904
REMARK  5 active torsions:
REMARK  status: ('A' for Active; 'I' for Inactive)
REMARK    1  A    between atoms: C2_2  and  C3_3 
REMARK    2  A    between atoms: C6_6  and  C7_7 
REMARK    3  A    between atoms: C7_7  and  O1_9 
REMARK    4  A    between atoms: C23_29  and  O6_30 
REMARK    5  A    between atoms: C28_36  and  O8_37 
ROOT
HETATM    1  C3  UNL     1     -11.025  43.609 -27.261  1.00  0.00     0.008 C 
HETATM    2  C4  UNL     1      -9.661  43.150 -27.747  1.00  0.00    -0.023 C 
HETATM    3  C5  UNL     1      -9.086  43.318 -28.950  1.00  0.00     0.004 C 
HETATM    4  C6  UNL     1      -9.644  43.908 -30.231  1.00  0.00     0.183 C 
HETATM    5  O2  UNL     1      -8.830  45.067 -30.511  1.00  0.00    -0.306 OA
HETATM    6  C9  UNL     1      -9.401  46.041 -31.253  1.00  0.00     0.289 C 
HETATM    7  O3  UNL     1     -10.509  45.997 -31.770  1.00  0.00    -0.260 OA
HETATM    8  C10 UNL     1      -8.486  47.206 -31.411  1.00  0.00     0.010 C 
HETATM    9  C11 UNL     1      -8.411  47.720 -32.819  1.00  0.00     0.054 C 
HETATM   10  C12 UNL     1      -7.850  47.814 -30.388  1.00  0.00     0.004 C 
HETATM   11  C13 UNL     1      -7.842  47.426 -28.929  1.00  0.00     0.147 C 
HETATM   12  C14 UNL     1      -6.462  47.673 -28.289  1.00  0.00     0.233 C 
HETATM   13  O4  UNL     1      -5.367  47.585 -28.820  1.00  0.00    -0.272 OA
HETATM   14  N1  UNL     1      -6.682  47.946 -26.946  1.00  0.00    -0.327 N 
HETATM   15  C15 UNL     1      -8.015  47.979 -26.659  1.00  0.00     0.056 C 
HETATM   16  C16 UNL     1      -8.544  47.704 -25.471  1.00  0.00     0.084 C 
HETATM   17  C17 UNL     1      -9.999  47.433 -25.398  1.00  0.00     0.185 C 
HETATM   18  O5  UNL     1     -10.513  47.253 -24.303  1.00  0.00    -0.287 OA
HETATM   19  C18 UNL     1     -10.776  47.321 -26.667  1.00  0.00     0.040 C 
HETATM   20  C19 UNL     1     -10.215  47.781 -27.873  1.00  0.00    -0.001 C 
HETATM   21  C20 UNL     1     -11.044  47.892 -29.007  1.00  0.00     0.021 C 
HETATM   22  C21 UNL     1     -12.379  47.474 -28.991  1.00  0.00    -0.027 C 
HETATM   23  C22 UNL     1     -13.236  47.618 -30.214  1.00  0.00     0.051 C 
HETATM   24  C23 UNL     1     -12.890  46.939 -27.811  1.00  0.00     0.086 C 
HETATM   25  C24 UNL     1     -12.083  46.812 -26.667  1.00  0.00     0.058 C 
HETATM   26  C25 UNL     1     -12.669  46.042 -25.553  1.00  0.00     0.163 C 
HETATM   27  O7  UNL     1     -13.764  46.427 -25.132  1.00  0.00    -0.292 OA
HETATM   28  C26 UNL     1     -12.060  44.721 -25.090  1.00  0.00     0.084 C 
HETATM   29  C27 UNL     1     -10.837  44.133 -25.807  1.00  0.00     0.016 C 
HETATM   30  C28 UNL     1      -8.770  48.203 -27.948  1.00  0.00     0.143 C 
HETATM   31  H20 UNL     1      -5.921  47.889 -26.279  1.00  0.00     0.168 HD
ENDROOT
BRANCH   4  32
HETATM   32  C7  UNL     1      -9.560  42.831 -31.359  1.00  0.00     0.147 C 
HETATM   33  C8  UNL     1     -10.842  42.641 -32.159  1.00  0.00     0.042 C 
BRANCH  32  34
HETATM   34  O1  UNL     1      -8.509  43.144 -32.285  1.00  0.00    -0.393 OA
HETATM   35  H14 UNL     1      -8.469  42.419 -32.932  1.00  0.00     0.210 HD
ENDBRANCH  32  34
ENDBRANCH   4  32
BRANCH   1  36
HETATM   36  C2  UNL     1     -12.075  42.484 -27.321  1.00  0.00     0.004 C 
HETATM   37  C1  UNL     1     -13.117  42.661 -28.419  1.00  0.00     0.006 C 
ENDBRANCH   1  36
BRANCH  30  38
HETATM   38  O8  UNL     1      -8.762  49.607 -28.235  1.00  0.00    -0.377 OA
HETATM   39  H31 UNL     1      -7.921  49.981 -27.916  1.00  0.00     0.211 HD
ENDBRANCH  30  38
BRANCH  24  40
HETATM   40  O6  UNL     1     -14.206  46.542 -27.806  1.00  0.00    -0.359 OA
HETATM   41  H26 UNL     1     -14.525  46.554 -26.874  1.00  0.00     0.217 HD
ENDBRANCH  24  40
TORSDOF 5
ENDMDL
MODEL 6
REMARK minimizedAffinity -7.57807779
REMARK CNNscore 0.334705144
REMARK CNNaffinity 5.80601072
REMARK  5 active torsions:
REMARK  status: ('A' for Active; 'I' for Inactive)
REMARK    1  A    between atoms: C2_2  and  C3_3 
REMARK    2  A    between atoms: C6_6  and  C7_7 
REMARK    3  A    between atoms: C7_7  and  O1_9 
REMARK    4  A    between atoms: C23_29  and  O6_30 
REMARK    5  A    between atoms: C28_36  and  O8_37 
ROOT
HETATM    1  C3  UNL     1       0.436  54.841  -9.773  1.00  0.00     0.008 C 
HETATM    2  C4  UNL     1       1.668  55.319 -10.521  1.00  0.00    -0.023 C 
HETATM    3  C5  UNL     1       2.931  54.864 -10.458  1.00  0.00     0.004 C 
HETATM    4  C6  UNL     1       3.554  53.820  -9.552  1.00  0.00     0.183 C 
HETATM    5  O2  UNL     1       4.010  52.767 -10.429  1.00  0.00    -0.306 OA
HETATM    6  C9  UNL     1       4.114  51.533  -9.889  1.00  0.00     0.289 C 
HETATM    7  O3  UNL     1       3.935  51.243  -8.714  1.00  0.00    -0.260 OA
HETATM    8  C10 UNL     1       4.526  50.530 -10.910  1.00  0.00     0.010 C 
HETATM    9  C11 UNL     1       5.615  49.610 -10.440  1.00  0.00     0.054 C 
HETATM   10  C12 UNL     1       3.928  50.383 -12.111  1.00  0.00     0.004 C 
HETATM   11  C13 UNL     1       2.819  51.213 -12.712  1.00  0.00     0.147 C 
HETATM   12  C14 UNL     1       3.011  51.392 -14.230  1.00  0.00     0.233 C 
HETATM   13  O4  UNL     1       4.062  51.469 -14.846  1.00  0.00    -0.272 OA
HETATM   14  N1  UNL     1       1.746  51.533 -14.784  1.00  0.00    -0.327 N 
HETATM   15  C15 UNL     1       0.773  51.394 -13.838  1.00  0.00     0.056 C 
HETATM   16  C16 UNL     1      -0.432  51.951 -13.899  1.00  0.00     0.084 C 
HETATM   17  C17 UNL     1      -1.240  52.011 -12.659  1.00  0.00     0.185 C 
HETATM   18  O5  UNL     1      -2.379  52.452 -12.715  1.00  0.00    -0.287 OA
HETATM   19  C18 UNL     1      -0.614  51.594 -11.370  1.00  0.00     0.040 C 
HETATM   20  C19 UNL     1       0.588  50.862 -11.381  1.00  0.00    -0.001 C 
HETATM   21  C20 UNL     1       1.033  50.272 -10.181  1.00  0.00     0.021 C 
HETATM   22  C21 UNL     1       0.366  50.469  -8.968  1.00  0.00    -0.027 C 
HETATM   23  C22 UNL     1       0.862  49.815  -7.712  1.00  0.00     0.051 C 
HETATM   24  C23 UNL     1      -0.774  51.270  -8.963  1.00  0.00     0.086 C 
HETATM   25  C24 UNL     1      -1.237  51.874 -10.144  1.00  0.00     0.058 C 
HETATM   26  C25 UNL     1      -2.319  52.863  -9.976  1.00  0.00     0.163 C 
HETATM   27  O7  UNL     1      -3.337  52.474  -9.396  1.00  0.00    -0.292 OA
HETATM   28  C26 UNL     1      -2.110  54.338 -10.309  1.00  0.00     0.084 C 
HETATM   29  C27 UNL     1      -0.743  54.843 -10.791  1.00  0.00     0.016 C 
HETATM   30  C28 UNL     1       1.364  50.660 -12.658  1.00  0.00     0.143 C 
HETATM   31  H20 UNL     1       1.632  51.913 -15.717  1.00  0.00     0.168 HD
ENDROOT
BRANCH   4  32
HETATM   32  C7  UNL     1       4.722  54.479  -8.753  1.00  0.00     0.147 C 
HETATM   33  C8  UNL     1       5.943  54.843  -9.588  1.00  0.00     0.042 C 
BRANCH  32  34
HETATM   34  O1  UNL     1       4.277  55.670  -8.086  1.00  0.00    -0.393 OA
HETATM   35  H14 UNL     1       5.027  56.008  -7.567  1.00  0.00     0.210 HD
ENDBRANCH  32  34
ENDBRANCH   4  32
BRANCH   1  36
HETATM   36  C2  UNL     1       0.120  55.717  -8.547  1.00  0.00     0.004 C 
HETATM   37  C1  UNL     1       1.349  56.142  -7.751  1.00  0.00     0.006 C 
ENDBRANCH   1  36
BRANCH  30  38
HETATM   38  O8  UNL     1       1.336  49.255 -12.941  1.00  0.00    -0.377 OA
HETATM   39  H31 UNL     1       1.468  49.133 -13.899  1.00  0.00     0.211 HD
ENDBRANCH  30  38
BRANCH  24  40
HETATM   40  O6  UNL     1      -1.427  51.446  -7.766  1.00  0.00    -0.359 OA
HETATM   41  H26 UNL     1      -2.362  51.685  -7.960  1.00  0.00     0.217 HD
ENDBRANCH  24  40
TORSDOF 5
ENDMDL
MODEL 7
REMARK minimizedAffinity -6.4613061
REMARK CNNscore 0.327044576
REMARK CNNaffinity 5.49021101
REMARK  5 active torsions:
REMARK  status: ('A' for Active; 'I' for Inactive)
REMARK    1  A    between atoms: C2_2  and  C3_3 
REMARK    2  A    between atoms: C6_6  and  C7_7 
REMARK    3  A    between atoms: C7_7  and  O1_9 
REMARK    4  A    between atoms: C23_29  and  O6_30 
REMARK    5  A    between atoms: C28_36  and  O8_37 
ROOT
HETATM    1  C3  UNL     1     -16.959  45.489 -21.210  1.00  0.00     0.008 C 
HETATM    2  C4  UNL     1     -17.004  44.171 -20.456  1.00  0.00    -0.023 C 
HETATM    3  C5  UNL     1     -17.995  43.267 -20.381  1.00  0.00     0.004 C 
HETATM    4  C6  UNL     1     -19.411  43.317 -20.921  1.00  0.00     0.183 C 
HETATM    5  O2  UNL     1     -19.503  42.233 -21.871  1.00  0.00    -0.306 OA
HETATM    6  C9  UNL     1     -20.428  42.363 -22.848  1.00  0.00     0.289 C 
HETATM    7  O3  UNL     1     -21.242  43.270 -22.953  1.00  0.00    -0.260 OA
HETATM    8  C10 UNL     1     -20.374  41.217 -23.798  1.00  0.00     0.010 C 
HETATM    9  C11 UNL     1     -21.723  40.653 -24.133  1.00  0.00     0.054 C 
HETATM   10  C12 UNL     1     -19.243  40.774 -24.385  1.00  0.00     0.004 C 
HETATM   11  C13 UNL     1     -17.826  41.247 -24.165  1.00  0.00     0.147 C 
HETATM   12  C14 UNL     1     -16.826  40.076 -24.220  1.00  0.00     0.233 C 
HETATM   13  O4  UNL     1     -17.011  38.920 -23.874  1.00  0.00    -0.272 OA
HETATM   14  N1  UNL     1     -15.621  40.592 -24.674  1.00  0.00    -0.327 N 
HETATM   15  C15 UNL     1     -15.736  41.916 -24.985  1.00  0.00     0.056 C 
HETATM   16  C16 UNL     1     -14.741  42.796 -24.944  1.00  0.00     0.084 C 
HETATM   17  C17 UNL     1     -15.079  44.238 -24.957  1.00  0.00     0.185 C 
HETATM   18  O5  UNL     1     -14.173  45.058 -24.997  1.00  0.00    -0.287 OA
HETATM   19  C18 UNL     1     -16.511  44.643 -24.853  1.00  0.00     0.040 C 
HETATM   20  C19 UNL     1     -17.525  43.689 -25.067  1.00  0.00    -0.001 C 
HETATM   21  C20 UNL     1     -18.855  44.134 -25.205  1.00  0.00     0.021 C 
HETATM   22  C21 UNL     1     -19.206  45.479 -25.046  1.00  0.00    -0.027 C 
HETATM   23  C22 UNL     1     -20.631  45.918 -25.212  1.00  0.00     0.051 C 
HETATM   24  C23 UNL     1     -18.199  46.394 -24.747  1.00  0.00     0.086 C 
HETATM   25  C24 UNL     1     -16.866  45.976 -24.599  1.00  0.00     0.058 C 
HETATM   26  C25 UNL     1     -15.931  46.992 -24.077  1.00  0.00     0.163 C 
HETATM   27  O7  UNL     1     -15.867  48.055 -24.702  1.00  0.00    -0.292 OA
HETATM   28  C26 UNL     1     -15.244  46.824 -22.725  1.00  0.00     0.084 C 
HETATM   29  C27 UNL     1     -15.542  45.602 -21.845  1.00  0.00     0.016 C 
HETATM   30  C28 UNL     1     -17.198  42.224 -25.203  1.00  0.00     0.143 C 
HETATM   31  H20 UNL     1     -14.760  40.073 -24.551  1.00  0.00     0.168 HD
ENDROOT
BRANCH   4  32
HETATM   32  C7  UNL     1     -20.409  43.153 -19.731  1.00  0.00     0.147 C 
HETATM   33  C8  UNL     1     -20.110  41.984 -18.802  1.00  0.00     0.042 C 
BRANCH  32  34
HETATM   34  O1  UNL     1     -20.454  44.345 -18.934  1.00  0.00    -0.393 OA
HETATM   35  H14 UNL     1     -21.124  44.206 -18.243  1.00  0.00     0.210 HD
ENDBRANCH  32  34
ENDBRANCH   4  32
BRANCH   1  36
HETATM   36  C2  UNL     1     -17.263  46.694 -20.299  1.00  0.00     0.004 C 
HETATM   37  C1  UNL     1     -18.734  47.093 -20.263  1.00  0.00     0.006 C 
ENDBRANCH   1  36
BRANCH  30  38
HETATM   38  O8  UNL     1     -17.544  41.845 -26.542  1.00  0.00    -0.377 OA
HETATM   39  H31 UNL     1     -17.013  41.065 -26.785  1.00  0.00     0.211 HD
ENDBRANCH  30  38
BRANCH  24  40
HETATM   40  O6  UNL     1     -18.556  47.714 -24.605  1.00  0.00    -0.359 OA
HETATM   41  H26 UNL     1     -17.759  48.266 -24.777  1.00  0.00     0.217 HD
ENDBRANCH  24  40
TORSDOF 5
ENDMDL
MODEL 8
REMARK minimizedAffinity -6.2785058
REMARK CNNscore 0.323463768
REMARK CNNaffinity 5.51144266
REMARK  5 active torsions:
REMARK  status: ('A' for Active; 'I' for Inactive)
REMARK    1  A    between atoms: C2_2  and  C3_3 
REMARK    2  A    between atoms: C6_6  and  C7_7 
REMARK    3  A    between atoms: C7_7  and  O1_9 
REMARK    4  A    between atoms: C23_29  and  O6_30 
REMARK    5  A    between atoms: C28_36  and  O8_37 
ROOT
HETATM    1  C3  UNL     1       1.662  49.484  -8.938  1.00  0.00     0.008 C 
HETATM    2  C4  UNL     1       0.497  48.604  -9.357  1.00  0.00    -0.023 C 
HETATM    3  C5  UNL     1      -0.796  48.928  -9.530  1.00  0.00     0.004 C 
HETATM    4  C6  UNL     1      -1.525  50.230  -9.258  1.00  0.00     0.183 C 
HETATM    5  O2  UNL     1      -2.015  50.676 -10.542  1.00  0.00    -0.306 OA
HETATM    6  C9  UNL     1      -2.225  52.003 -10.681  1.00  0.00     0.289 C 
HETATM    7  O3  UNL     1      -2.114  52.846  -9.800  1.00  0.00    -0.260 OA
HETATM    8  C10 UNL     1      -2.660  52.339 -12.064  1.00  0.00     0.010 C 
HETATM    9  C11 UNL     1      -3.827  53.281 -12.113  1.00  0.00     0.054 C 
HETATM   10  C12 UNL     1      -2.024  51.925 -13.180  1.00  0.00     0.004 C 
HETATM   11  C13 UNL     1      -0.837  50.998 -13.291  1.00  0.00     0.147 C 
HETATM   12  C14 UNL     1      -0.952  50.081 -14.524  1.00  0.00     0.233 C 
HETATM   13  O4  UNL     1      -1.968  49.628 -15.026  1.00  0.00    -0.272 OA
HETATM   14  N1  UNL     1       0.342  49.788 -14.933  1.00  0.00    -0.327 N 
HETATM   15  C15 UNL     1       1.262  50.450 -14.174  1.00  0.00     0.056 C 
HETATM   16  C16 UNL     1       2.504  50.033 -13.949  1.00  0.00     0.084 C 
HETATM   17  C17 UNL     1       3.262  50.655 -12.838  1.00  0.00     0.185 C 
HETATM   18  O5  UNL     1       4.429  50.335 -12.666  1.00  0.00    -0.287 OA
HETATM   19  C18 UNL     1       2.555  51.599 -11.924  1.00  0.00     0.040 C 
HETATM   20  C19 UNL     1       1.308  52.133 -12.299  1.00  0.00    -0.001 C 
HETATM   21  C20 UNL     1       0.774  53.198 -11.547  1.00  0.00     0.021 C 
HETATM   22  C21 UNL     1       1.401  53.677 -10.391  1.00  0.00    -0.027 C 
HETATM   23  C22 UNL     1       0.810  54.821  -9.623  1.00  0.00     0.051 C 
HETATM   24  C23 UNL     1       2.591  53.075  -9.989  1.00  0.00     0.086 C 
HETATM   25  C24 UNL     1       3.143  52.008 -10.718  1.00  0.00     0.058 C 
HETATM   26  C25 UNL     1       4.282  51.319 -10.081  1.00  0.00     0.163 C 
HETATM   27  O7  UNL     1       5.246  52.023  -9.764  1.00  0.00    -0.292 OA
HETATM   28  C26 UNL     1       4.187  49.859  -9.644  1.00  0.00     0.084 C 
HETATM   29  C27 UNL     1       2.879  49.076  -9.818  1.00  0.00     0.016 C 
HETATM   30  C28 UNL     1       0.574  51.620 -13.511  1.00  0.00     0.143 C 
HETATM   31  H20 UNL     1       0.520  49.009 -15.556  1.00  0.00     0.168 HD
ENDROOT
BRANCH   4  32
HETATM   32  C7  UNL     1      -2.679  49.957  -8.242  1.00  0.00     0.147 C 
HETATM   33  C8  UNL     1      -3.502  48.708  -8.529  1.00  0.00     0.042 C 
BRANCH  32  34
HETATM   34  O1  UNL     1      -2.167  49.847  -6.906  1.00  0.00    -0.393 OA
HETATM   35  H14 UNL     1      -2.928  49.729  -6.313  1.00  0.00     0.210 HD
ENDBRANCH  32  34
ENDBRANCH   4  32
BRANCH   1  36
HETATM   36  C2  UNL     1       1.984  49.351  -7.438  1.00  0.00     0.004 C 
HETATM   37  C1  UNL     1       2.024  47.913  -6.933  1.00  0.00     0.006 C 
ENDBRANCH   1  36
BRANCH  30  38
HETATM   38  O8  UNL     1       0.519  52.702 -14.451  1.00  0.00    -0.377 OA
HETATM   39  H31 UNL     1       0.419  52.326 -15.345  1.00  0.00     0.211 HD
ENDBRANCH  30  38
BRANCH  24  40
HETATM   40  O6  UNL     1       3.204  53.563  -8.859  1.00  0.00    -0.359 OA
HETATM   41  H26 UNL     1       4.161  53.335  -8.908  1.00  0.00     0.217 HD
ENDBRANCH  24  40
TORSDOF 5
ENDMDL
MODEL 9
REMARK minimizedAffinity -6.48436499
REMARK CNNscore 0.308056653
REMARK CNNaffinity 5.87388611
REMARK  5 active torsions:
REMARK  status: ('A' for Active; 'I' for Inactive)
REMARK    1  A    between atoms: C2_2  and  C3_3 
REMARK    2  A    between atoms: C6_6  and  C7_7 
REMARK    3  A    between atoms: C7_7  and  O1_9 
REMARK    4  A    between atoms: C23_29  and  O6_30 
REMARK    5  A    between atoms: C28_36  and  O8_37 
ROOT
HETATM    1  C3  UNL     1       4.037  51.693  -8.169  1.00  0.00     0.008 C 
HETATM    2  C4  UNL     1       4.135  51.851  -6.661  1.00  0.00    -0.023 C 
HETATM    3  C5  UNL     1       4.457  52.937  -5.938  1.00  0.00     0.004 C 
HETATM    4  C6  UNL     1       4.931  54.306  -6.383  1.00  0.00     0.183 C 
HETATM    5  O2  UNL     1       3.915  55.232  -5.939  1.00  0.00    -0.306 OA
HETATM    6  C9  UNL     1       3.810  56.390  -6.627  1.00  0.00     0.289 C 
HETATM    7  O3  UNL     1       4.543  56.758  -7.535  1.00  0.00    -0.260 OA
HETATM    8  C10 UNL     1       2.686  57.222  -6.115  1.00  0.00     0.010 C 
HETATM    9  C11 UNL     1       3.048  58.665  -5.924  1.00  0.00     0.054 C 
HETATM   10  C12 UNL     1       1.431  56.764  -5.925  1.00  0.00     0.004 C 
HETATM   11  C13 UNL     1       0.914  55.355  -6.090  1.00  0.00     0.147 C 
HETATM   12  C14 UNL     1      -0.140  55.013  -5.019  1.00  0.00     0.233 C 
HETATM   13  O4  UNL     1      -0.194  55.418  -3.868  1.00  0.00    -0.272 OA
HETATM   14  N1  UNL     1      -1.001  54.080  -5.580  1.00  0.00    -0.327 N 
HETATM   15  C15 UNL     1      -0.683  53.836  -6.884  1.00  0.00     0.056 C 
HETATM   16  C16 UNL     1      -0.933  52.701  -7.528  1.00  0.00     0.084 C 
HETATM   17  C17 UNL     1      -0.226  52.448  -8.805  1.00  0.00     0.185 C 
HETATM   18  O5  UNL     1      -0.501  51.444  -9.446  1.00  0.00    -0.287 OA
HETATM   19  C18 UNL     1       0.847  53.392  -9.233  1.00  0.00     0.040 C 
HETATM   20  C19 UNL     1       0.957  54.653  -8.615  1.00  0.00    -0.001 C 
HETATM   21  C20 UNL     1       1.810  55.617  -9.190  1.00  0.00     0.021 C 
HETATM   22  C21 UNL     1       2.614  55.328 -10.297  1.00  0.00    -0.027 C 
HETATM   23  C22 UNL     1       3.500  56.383 -10.890  1.00  0.00     0.051 C 
HETATM   24  C23 UNL     1       2.555  54.046 -10.840  1.00  0.00     0.086 C 
HETATM   25  C24 UNL     1       1.717  53.065 -10.284  1.00  0.00     0.058 C 
HETATM   26  C25 UNL     1       1.898  51.697 -10.808  1.00  0.00     0.163 C 
HETATM   27  O7  UNL     1       1.790  51.556 -12.030  1.00  0.00    -0.292 OA
HETATM   28  C26 UNL     1       2.401  50.562  -9.919  1.00  0.00     0.084 C 
HETATM   29  C27 UNL     1       2.775  50.827  -8.454  1.00  0.00     0.016 C 
HETATM   30  C28 UNL     1       0.142  54.994  -7.394  1.00  0.00     0.143 C 
HETATM   31  H20 UNL     1      -1.611  53.524  -4.993  1.00  0.00     0.168 HD
ENDROOT
BRANCH   4  32
HETATM   32  C7  UNL     1       6.323  54.592  -5.736  1.00  0.00     0.147 C 
HETATM   33  C8  UNL     1       7.350  55.210  -6.675  1.00  0.00     0.042 C 
BRANCH  32  34
HETATM   34  O1  UNL     1       6.190  55.459  -4.600  1.00  0.00    -0.393 OA
HETATM   35  H14 UNL     1       7.074  55.561  -4.209  1.00  0.00     0.210 HD
ENDBRANCH  32  34
ENDBRANCH   4  32
BRANCH   1  36
HETATM   36  C2  UNL     1       5.303  51.058  -8.774  1.00  0.00     0.004 C 
HETATM   37  C1  UNL     1       6.331  52.068  -9.270  1.00  0.00     0.006 C 
ENDBRANCH   1  36
BRANCH  30  38
HETATM   38  O8  UNL     1      -0.750  56.050  -7.774  1.00  0.00    -0.377 OA
HETATM   39  H31 UNL     1      -1.521  56.030  -7.177  1.00  0.00     0.211 HD
ENDBRANCH  30  38
BRANCH  24  40
HETATM   40  O6  UNL     1       3.341  53.779 -11.936  1.00  0.00    -0.359 OA
HETATM   41  H26 UNL     1       2.939  53.024 -12.423  1.00  0.00     0.217 HD
ENDBRANCH  24  40
TORSDOF 5
ENDMDL
