MODEL 1
REMARK minimizedAffinity -9.06465149
REMARK  4 active torsions:
REMARK  status: ('A' for Active; 'I' for Inactive)
REMARK    1  A    between atoms: C2_2  and  C3_3 
REMARK    2  A    between atoms: C2_2  and  C9_9 
REMARK    3  A    between atoms: C3_3  and  C4_4 
REMARK    4  A    between atoms: C4_4  and  C5_5 
ROOT
HETATM    1  C9  UNL     1      -6.391   6.978  13.901  1.00  0.00     0.018 C 
HETATM    2  C10 UNL     1      -6.305   8.237  14.791  1.00  0.00     0.010 C 
HETATM    3  C11 UNL     1      -4.814   8.459  15.113  1.00  0.00     0.011 C 
HETATM    4  C12 UNL     1      -4.024   7.605  14.087  1.00  0.00    -0.032 C 
HETATM    5  C13 UNL     1      -3.982   8.434  12.770  1.00  0.00     0.016 C 
HETATM    6  C14 UNL     1      -4.968   6.384  14.004  1.00  0.00     0.002 C 
HETATM    7  C15 UNL     1      -4.585   5.397  12.918  1.00  0.00     0.006 C 
HETATM    8  C16 UNL     1      -3.092   5.370  12.594  1.00  0.00     0.006 C 
HETATM    9  C17 UNL     1      -2.089   5.845  13.691  1.00  0.00     0.003 C 
HETATM   10  C18 UNL     1      -0.603   5.969  13.129  1.00  0.00    -0.035 C 
HETATM   11  C19 UNL     1       0.406   5.839  14.306  1.00  0.00     0.016 C 
HETATM   12  C20 UNL     1      -0.277   4.829  12.126  1.00  0.00     0.017 C 
HETATM   13  C21 UNL     1       1.151   4.863  11.602  1.00  0.00     0.080 C 
HETATM   14  C22 UNL     1       1.699   6.266  11.461  1.00  0.00     0.135 C 
HETATM   15  O1  UNL     1       2.920   6.429  11.381  1.00  0.00    -0.297 OA
HETATM   16  C23 UNL     1       0.709   7.434  11.333  1.00  0.00     0.017 C 
HETATM   17  C24 UNL     1       0.150   7.366   9.890  1.00  0.00     0.023 C 
HETATM   18  C25 UNL     1       1.499   8.755  11.431  1.00  0.00     0.023 C 
HETATM   19  C26 UNL     1      -0.482   7.326  12.374  1.00  0.00     0.009 C 
HETATM   20  C27 UNL     1      -0.638   8.515  13.334  1.00  0.00     0.007 C 
HETATM   21  C28 UNL     1      -1.568   8.316  14.533  1.00  0.00     0.011 C 
HETATM   22  C29 UNL     1      -2.572   7.119  14.534  1.00  0.00    -0.032 C 
HETATM   23  C30 UNL     1      -2.593   6.646  16.033  1.00  0.00     0.016 C 
ENDROOT
BRANCH   1  24
HETATM   24  C2  UNL     1      -7.584   6.090  14.227  1.00  0.00    -0.084 C 
HETATM   25  C1  UNL     1      -8.767   6.537  14.688  1.00  0.00     0.014 C 
BRANCH  24  26
HETATM   26  C3  UNL     1      -7.368   4.590  14.077  1.00  0.00     0.037 C 
BRANCH  26  27
HETATM   27  C4  UNL     1      -7.706   4.064  12.677  1.00  0.00     0.031 C 
BRANCH  27  28
HETATM   28  C5  UNL     1      -7.119   2.696  12.449  1.00  0.00    -0.024 C 
HETATM   29  C6  UNL     1      -6.203   2.344  11.526  1.00  0.00    -0.091 C 
HETATM   30  C7  UNL     1      -5.623   3.271  10.491  1.00  0.00     0.042 C 
HETATM   31  C8  UNL     1      -5.687   0.930  11.450  1.00  0.00     0.042 C 
ENDBRANCH  27  28
ENDBRANCH  26  27
ENDBRANCH  24  26
ENDBRANCH   1  24
TORSDOF 4
ENDMDL
MODEL 2
REMARK minimizedAffinity -8.94629288
REMARK  4 active torsions:
REMARK  status: ('A' for Active; 'I' for Inactive)
REMARK    1  A    between atoms: C2_2  and  C3_3 
REMARK    2  A    between atoms: C2_2  and  C9_9 
REMARK    3  A    between atoms: C3_3  and  C4_4 
REMARK    4  A    between atoms: C4_4  and  C5_5 
ROOT
HETATM    1  C9  UNL     1      -1.779   6.640  12.957  1.00  0.00     0.018 C 
HETATM    2  C10 UNL     1      -1.956   5.337  12.147  1.00  0.00     0.010 C 
HETATM    3  C11 UNL     1      -0.787   5.267  11.146  1.00  0.00     0.011 C 
HETATM    4  C12 UNL     1       0.271   6.282  11.652  1.00  0.00    -0.032 C 
HETATM    5  C13 UNL     1       1.053   5.565  12.791  1.00  0.00     0.016 C 
HETATM    6  C14 UNL     1      -0.677   7.387  12.171  1.00  0.00     0.002 C 
HETATM    7  C15 UNL     1       0.037   8.491  12.926  1.00  0.00     0.006 C 
HETATM    8  C16 UNL     1       1.483   8.716  12.485  1.00  0.00     0.006 C 
HETATM    9  C17 UNL     1       1.893   8.281  11.044  1.00  0.00     0.003 C 
HETATM   10  C18 UNL     1       3.468   8.375  10.816  1.00  0.00    -0.035 C 
HETATM   11  C19 UNL     1       3.761   8.533   9.297  1.00  0.00     0.016 C 
HETATM   12  C20 UNL     1       4.073   9.617  11.526  1.00  0.00     0.017 C 
HETATM   13  C21 UNL     1       5.566   9.790  11.292  1.00  0.00     0.080 C 
HETATM   14  C22 UNL     1       6.303   8.475  11.162  1.00  0.00     0.135 C 
HETATM   15  O1  UNL     1       7.422   8.462  10.642  1.00  0.00    -0.297 OA
HETATM   16  C23 UNL     1       5.669   7.213  11.765  1.00  0.00     0.017 C 
HETATM   17  C24 UNL     1       5.866   7.323  13.297  1.00  0.00     0.023 C 
HETATM   18  C25 UNL     1       6.490   5.989  11.309  1.00  0.00     0.023 C 
HETATM   19  C26 UNL     1       4.123   7.102  11.431  1.00  0.00     0.009 C 
HETATM   20  C27 UNL     1       3.693   5.834  10.678  1.00  0.00     0.007 C 
HETATM   21  C28 UNL     1       2.285   5.832  10.078  1.00  0.00     0.011 C 
HETATM   22  C29 UNL     1       1.248   6.899  10.553  1.00  0.00    -0.032 C 
HETATM   23  C30 UNL     1       0.446   7.252   9.247  1.00  0.00     0.016 C 
ENDROOT
BRANCH   1  24
HETATM   24  C2  UNL     1      -3.093   7.356  13.241  1.00  0.00    -0.084 C 
HETATM   25  C1  UNL     1      -3.293   8.677  13.083  1.00  0.00     0.014 C 
BRANCH  24  26
HETATM   26  C3  UNL     1      -4.217   6.500  13.806  1.00  0.00     0.037 C 
BRANCH  26  27
HETATM   27  C4  UNL     1      -4.527   5.262  12.955  1.00  0.00     0.031 C 
BRANCH  27  28
HETATM   28  C5  UNL     1      -5.826   4.623  13.369  1.00  0.00    -0.024 C 
HETATM   29  C6  UNL     1      -6.438   3.570  12.794  1.00  0.00    -0.091 C 
HETATM   30  C7  UNL     1      -5.946   2.854  11.565  1.00  0.00     0.042 C 
HETATM   31  C8  UNL     1      -7.726   3.024  13.356  1.00  0.00     0.042 C 
ENDBRANCH  27  28
ENDBRANCH  26  27
ENDBRANCH  24  26
ENDBRANCH   1  24
TORSDOF 4
ENDMDL
MODEL 3
REMARK minimizedAffinity -8.74991322
REMARK  4 active torsions:
REMARK  status: ('A' for Active; 'I' for Inactive)
REMARK    1  A    between atoms: C2_2  and  C3_3 
REMARK    2  A    between atoms: C2_2  and  C9_9 
REMARK    3  A    between atoms: C3_3  and  C4_4 
REMARK    4  A    between atoms: C4_4  and  C5_5 
ROOT
HETATM    1  C9  UNL     1      -4.402   7.457  14.773  1.00  0.00     0.018 C 
HETATM    2  C10 UNL     1      -4.119   6.286  15.739  1.00  0.00     0.010 C 
HETATM    3  C11 UNL     1      -2.849   5.578  15.228  1.00  0.00     0.011 C 
HETATM    4  C12 UNL     1      -2.174   6.570  14.245  1.00  0.00    -0.032 C 
HETATM    5  C13 UNL     1      -1.392   7.590  15.123  1.00  0.00     0.016 C 
HETATM    6  C14 UNL     1      -3.440   7.174  13.597  1.00  0.00     0.002 C 
HETATM    7  C15 UNL     1      -3.149   8.350  12.686  1.00  0.00     0.006 C 
HETATM    8  C16 UNL     1      -1.768   8.311  12.033  1.00  0.00     0.006 C 
HETATM    9  C17 UNL     1      -1.068   6.926  11.869  1.00  0.00     0.003 C 
HETATM   10  C18 UNL     1       0.442   7.074  11.382  1.00  0.00    -0.035 C 
HETATM   11  C19 UNL     1       0.886   5.764  10.670  1.00  0.00     0.016 C 
HETATM   12  C20 UNL     1       0.598   8.225  10.350  1.00  0.00     0.017 C 
HETATM   13  C21 UNL     1       2.011   8.372   9.805  1.00  0.00     0.080 C 
HETATM   14  C22 UNL     1       3.078   8.026  10.819  1.00  0.00     0.135 C 
HETATM   15  O1  UNL     1       4.221   7.774  10.427  1.00  0.00    -0.297 OA
HETATM   16  C23 UNL     1       2.723   8.087  12.313  1.00  0.00     0.017 C 
HETATM   17  C24 UNL     1       2.676   9.591  12.681  1.00  0.00     0.023 C 
HETATM   18  C25 UNL     1       3.891   7.480  13.117  1.00  0.00     0.023 C 
HETATM   19  C26 UNL     1       1.321   7.417  12.622  1.00  0.00     0.009 C 
HETATM   20  C27 UNL     1       1.345   6.254  13.627  1.00  0.00     0.007 C 
HETATM   21  C28 UNL     1       0.081   5.396  13.719  1.00  0.00     0.011 C 
HETATM   22  C29 UNL     1      -1.255   5.930  13.109  1.00  0.00    -0.032 C 
HETATM   23  C30 UNL     1      -1.938   4.644  12.515  1.00  0.00     0.016 C 
ENDROOT
BRANCH   1  24
HETATM   24  C2  UNL     1      -5.884   7.652  14.480  1.00  0.00    -0.084 C 
HETATM   25  C1  UNL     1      -6.700   8.462  15.178  1.00  0.00     0.014 C 
BRANCH  24  26
HETATM   26  C3  UNL     1      -6.465   6.806  13.357  1.00  0.00     0.037 C 
BRANCH  26  27
HETATM   27  C4  UNL     1      -6.672   5.337  13.746  1.00  0.00     0.031 C 
BRANCH  27  28
HETATM   28  C5  UNL     1      -5.877   4.417  12.859  1.00  0.00    -0.024 C 
HETATM   29  C6  UNL     1      -6.240   3.199  12.410  1.00  0.00    -0.091 C 
HETATM   30  C7  UNL     1      -7.522   2.497  12.769  1.00  0.00     0.042 C 
HETATM   31  C8  UNL     1      -5.337   2.415  11.493  1.00  0.00     0.042 C 
ENDBRANCH  27  28
ENDBRANCH  26  27
ENDBRANCH  24  26
ENDBRANCH   1  24
TORSDOF 4
ENDMDL
MODEL 4
REMARK minimizedAffinity -8.58039665
REMARK  4 active torsions:
REMARK  status: ('A' for Active; 'I' for Inactive)
REMARK    1  A    between atoms: C2_2  and  C3_3 
REMARK    2  A    between atoms: C2_2  and  C9_9 
REMARK    3  A    between atoms: C3_3  and  C4_4 
REMARK    4  A    between atoms: C4_4  and  C5_5 
ROOT
HETATM    1  C9  UNL     1      -5.352   5.299  13.693  1.00  0.00     0.018 C 
HETATM    2  C10 UNL     1      -4.006   4.650  13.303  1.00  0.00     0.010 C 
HETATM    3  C11 UNL     1      -2.924   5.738  13.441  1.00  0.00     0.011 C 
HETATM    4  C12 UNL     1      -3.559   6.865  14.297  1.00  0.00    -0.032 C 
HETATM    5  C13 UNL     1      -3.446   6.402  15.779  1.00  0.00     0.016 C 
HETATM    6  C14 UNL     1      -5.003   6.804  13.753  1.00  0.00     0.002 C 
HETATM    7  C15 UNL     1      -5.976   7.676  14.522  1.00  0.00     0.006 C 
HETATM    8  C16 UNL     1      -5.339   8.903  15.172  1.00  0.00     0.006 C 
HETATM    9  C17 UNL     1      -4.013   9.457  14.563  1.00  0.00     0.003 C 
HETATM   10  C18 UNL     1      -3.362  10.589  15.477  1.00  0.00    -0.035 C 
HETATM   11  C19 UNL     1      -2.454  11.499  14.603  1.00  0.00     0.016 C 
HETATM   12  C20 UNL     1      -4.447  11.504  16.109  1.00  0.00     0.017 C 
HETATM   13  C21 UNL     1      -3.878  12.641  16.945  1.00  0.00     0.080 C 
HETATM   14  C22 UNL     1      -2.596  12.271  17.657  1.00  0.00     0.135 C 
HETATM   15  O1  UNL     1      -1.861  13.169  18.079  1.00  0.00    -0.297 OA
HETATM   16  C23 UNL     1      -2.296  10.785  17.910  1.00  0.00     0.017 C 
HETATM   17  C24 UNL     1      -3.221  10.353  19.074  1.00  0.00     0.023 C 
HETATM   18  C25 UNL     1      -0.851  10.662  18.437  1.00  0.00     0.023 C 
HETATM   19  C26 UNL     1      -2.587   9.891  16.634  1.00  0.00     0.009 C 
HETATM   20  C27 UNL     1      -1.394   9.085  16.099  1.00  0.00     0.007 C 
HETATM   21  C28 UNL     1      -1.551   8.457  14.712  1.00  0.00     0.011 C 
HETATM   22  C29 UNL     1      -2.976   8.334  14.084  1.00  0.00    -0.032 C 
HETATM   23  C30 UNL     1      -2.738   8.610  12.554  1.00  0.00     0.016 C 
ENDROOT
BRANCH   1  24
HETATM   24  C2  UNL     1      -6.515   4.848  12.820  1.00  0.00    -0.084 C 
HETATM   25  C1  UNL     1      -6.624   3.628  12.263  1.00  0.00     0.014 C 
BRANCH  24  26
HETATM   26  C3  UNL     1      -7.577   5.896  12.519  1.00  0.00     0.037 C 
BRANCH  26  27
HETATM   27  C4  UNL     1      -8.932   5.593  13.170  1.00  0.00     0.031 C 
BRANCH  27  28
HETATM   28  C5  UNL     1      -9.316   6.662  14.159  1.00  0.00    -0.024 C 
HETATM   29  C6  UNL     1     -10.395   7.468  14.112  1.00  0.00    -0.091 C 
HETATM   30  C7  UNL     1     -11.412   7.482  13.003  1.00  0.00     0.042 C 
HETATM   31  C8  UNL     1     -10.657   8.469  15.208  1.00  0.00     0.042 C 
ENDBRANCH  27  28
ENDBRANCH  26  27
ENDBRANCH  24  26
ENDBRANCH   1  24
TORSDOF 4
ENDMDL
MODEL 5
REMARK minimizedAffinity -8.46237564
REMARK  4 active torsions:
REMARK  status: ('A' for Active; 'I' for Inactive)
REMARK    1  A    between atoms: C2_2  and  C3_3 
REMARK    2  A    between atoms: C2_2  and  C9_9 
REMARK    3  A    between atoms: C3_3  and  C4_4 
REMARK    4  A    between atoms: C4_4  and  C5_5 
ROOT
HETATM    1  C9  UNL     1      -1.754   6.906  13.293  1.00  0.00     0.018 C 
HETATM    2  C10 UNL     1      -2.060   5.626  12.485  1.00  0.00     0.010 C 
HETATM    3  C11 UNL     1      -0.959   5.494  11.416  1.00  0.00     0.011 C 
HETATM    4  C12 UNL     1       0.189   6.435  11.867  1.00  0.00    -0.032 C 
HETATM    5  C13 UNL     1       0.990   5.656  12.951  1.00  0.00     0.016 C 
HETATM    6  C14 UNL     1      -0.654   7.591  12.449  1.00  0.00     0.002 C 
HETATM    7  C15 UNL     1       0.172   8.638  13.169  1.00  0.00     0.006 C 
HETATM    8  C16 UNL     1       1.601   8.778  12.645  1.00  0.00     0.006 C 
HETATM    9  C17 UNL     1       1.897   8.334  11.179  1.00  0.00     0.003 C 
HETATM   10  C18 UNL     1       3.458   8.330  10.859  1.00  0.00    -0.035 C 
HETATM   11  C19 UNL     1       3.671   8.487   9.326  1.00  0.00     0.016 C 
HETATM   12  C20 UNL     1       4.182   9.524  11.540  1.00  0.00     0.017 C 
HETATM   13  C21 UNL     1       5.667   9.605  11.219  1.00  0.00     0.080 C 
HETATM   14  C22 UNL     1       6.310   8.248  11.036  1.00  0.00     0.135 C 
HETATM   15  O1  UNL     1       7.393   8.170  10.451  1.00  0.00    -0.297 OA
HETATM   16  C23 UNL     1       5.633   7.021  11.666  1.00  0.00     0.017 C 
HETATM   17  C24 UNL     1       5.926   7.101  13.184  1.00  0.00     0.023 C 
HETATM   18  C25 UNL     1       6.346   5.753  11.152  1.00  0.00     0.023 C 
HETATM   19  C26 UNL     1       4.066   7.012  11.423  1.00  0.00     0.009 C 
HETATM   20  C27 UNL     1       3.513   5.782  10.687  1.00  0.00     0.007 C 
HETATM   21  C28 UNL     1       2.075   5.876  10.172  1.00  0.00     0.011 C 
HETATM   22  C29 UNL     1       1.137   7.002  10.716  1.00  0.00    -0.032 C 
HETATM   23  C30 UNL     1       0.284   7.419   9.463  1.00  0.00     0.016 C 
ENDROOT
BRANCH   1  24
HETATM   24  C2  UNL     1      -3.000   7.700  13.660  1.00  0.00    -0.084 C 
HETATM   25  C1  UNL     1      -3.616   8.575  12.845  1.00  0.00     0.014 C 
BRANCH  24  26
HETATM   26  C3  UNL     1      -3.520   7.518  15.079  1.00  0.00     0.037 C 
BRANCH  26  27
HETATM   27  C4  UNL     1      -4.299   6.213  15.280  1.00  0.00     0.031 C 
BRANCH  27  28
HETATM   28  C5  UNL     1      -5.675   6.296  14.674  1.00  0.00    -0.024 C 
HETATM   29  C6  UNL     1      -6.180   5.531  13.686  1.00  0.00    -0.091 C 
HETATM   30  C7  UNL     1      -5.420   4.458  12.954  1.00  0.00     0.042 C 
HETATM   31  C8  UNL     1      -7.599   5.720  13.214  1.00  0.00     0.042 C 
ENDBRANCH  27  28
ENDBRANCH  26  27
ENDBRANCH  24  26
ENDBRANCH   1  24
TORSDOF 4
ENDMDL
MODEL 6
REMARK minimizedAffinity -8.45018101
REMARK  4 active torsions:
REMARK  status: ('A' for Active; 'I' for Inactive)
REMARK    1  A    between atoms: C2_2  and  C3_3 
REMARK    2  A    between atoms: C2_2  and  C9_9 
REMARK    3  A    between atoms: C3_3  and  C4_4 
REMARK    4  A    between atoms: C4_4  and  C5_5 
ROOT
HETATM    1  C9  UNL     1      -5.343   5.394  13.912  1.00  0.00     0.018 C 
HETATM    2  C10 UNL     1      -3.983   4.743  13.579  1.00  0.00     0.010 C 
HETATM    3  C11 UNL     1      -2.913   5.843  13.709  1.00  0.00     0.011 C 
HETATM    4  C12 UNL     1      -3.578   6.992  14.511  1.00  0.00    -0.032 C 
HETATM    5  C13 UNL     1      -3.500   6.580  16.010  1.00  0.00     0.016 C 
HETATM    6  C14 UNL     1      -5.007   6.903  13.931  1.00  0.00     0.002 C 
HETATM    7  C15 UNL     1      -6.006   7.791  14.645  1.00  0.00     0.006 C 
HETATM    8  C16 UNL     1      -5.394   9.044  15.271  1.00  0.00     0.006 C 
HETATM    9  C17 UNL     1      -4.057   9.588  14.679  1.00  0.00     0.003 C 
HETATM   10  C18 UNL     1      -3.438  10.754  15.572  1.00  0.00    -0.035 C 
HETATM   11  C19 UNL     1      -2.513  11.643  14.692  1.00  0.00     0.016 C 
HETATM   12  C20 UNL     1      -4.546  11.682  16.144  1.00  0.00     0.017 C 
HETATM   13  C21 UNL     1      -4.007  12.850  16.958  1.00  0.00     0.080 C 
HETATM   14  C22 UNL     1      -2.742  12.513  17.715  1.00  0.00     0.135 C 
HETATM   15  O1  UNL     1      -2.025  13.430  18.126  1.00  0.00    -0.297 OA
HETATM   16  C23 UNL     1      -2.438  11.039  18.024  1.00  0.00     0.017 C 
HETATM   17  C24 UNL     1      -3.391  10.638  19.177  1.00  0.00     0.023 C 
HETATM   18  C25 UNL     1      -1.007  10.945  18.592  1.00  0.00     0.023 C 
HETATM   19  C26 UNL     1      -2.689  10.101  16.771  1.00  0.00     0.009 C 
HETATM   20  C27 UNL     1      -1.476   9.287  16.295  1.00  0.00     0.007 C 
HETATM   21  C28 UNL     1      -1.593   8.613  14.926  1.00  0.00     0.011 C 
HETATM   22  C29 UNL     1      -3.000   8.459  14.264  1.00  0.00    -0.032 C 
HETATM   23  C30 UNL     1      -2.723   8.686  12.733  1.00  0.00     0.016 C 
ENDROOT
BRANCH   1  24
HETATM   24  C2  UNL     1      -6.479   4.905  13.024  1.00  0.00    -0.084 C 
HETATM   25  C1  UNL     1      -7.487   5.677  12.577  1.00  0.00     0.014 C 
BRANCH  24  26
HETATM   26  C3  UNL     1      -6.483   3.420  12.692  1.00  0.00     0.037 C 
BRANCH  26  27
HETATM   27  C4  UNL     1      -5.858   3.099  11.329  1.00  0.00     0.031 C 
BRANCH  27  28
HETATM   28  C5  UNL     1      -4.692   2.156  11.469  1.00  0.00    -0.024 C 
HETATM   29  C6  UNL     1      -3.416   2.372  11.092  1.00  0.00    -0.091 C 
HETATM   30  C7  UNL     1      -2.923   3.611  10.395  1.00  0.00     0.042 C 
HETATM   31  C8  UNL     1      -2.353   1.332  11.337  1.00  0.00     0.042 C 
ENDBRANCH  27  28
ENDBRANCH  26  27
ENDBRANCH  24  26
ENDBRANCH   1  24
TORSDOF 4
ENDMDL
MODEL 7
REMARK minimizedAffinity -8.20311165
REMARK  4 active torsions:
REMARK  status: ('A' for Active; 'I' for Inactive)
REMARK    1  A    between atoms: C2_2  and  C3_3 
REMARK    2  A    between atoms: C2_2  and  C9_9 
REMARK    3  A    between atoms: C3_3  and  C4_4 
REMARK    4  A    between atoms: C4_4  and  C5_5 
ROOT
HETATM    1  C9  UNL     1      -6.714   7.642  15.422  1.00  0.00     0.018 C 
HETATM    2  C10 UNL     1      -6.634   6.348  16.262  1.00  0.00     0.010 C 
HETATM    3  C11 UNL     1      -5.368   5.595  15.811  1.00  0.00     0.011 C 
HETATM    4  C12 UNL     1      -4.510   6.630  15.037  1.00  0.00    -0.032 C 
HETATM    5  C13 UNL     1      -3.765   7.472  16.114  1.00  0.00     0.016 C 
HETATM    6  C14 UNL     1      -5.641   7.412  14.333  1.00  0.00     0.002 C 
HETATM    7  C15 UNL     1      -5.159   8.654  13.611  1.00  0.00     0.006 C 
HETATM    8  C16 UNL     1      -3.716   8.570  13.114  1.00  0.00     0.006 C 
HETATM    9  C17 UNL     1      -3.105   7.157  12.858  1.00  0.00     0.003 C 
HETATM   10  C18 UNL     1      -1.540   7.228  12.562  1.00  0.00    -0.035 C 
HETATM   11  C19 UNL     1      -1.112   5.974  11.747  1.00  0.00     0.016 C 
HETATM   12  C20 UNL     1      -1.179   8.470  11.703  1.00  0.00     0.017 C 
HETATM   13  C21 UNL     1       0.296   8.556  11.339  1.00  0.00     0.080 C 
HETATM   14  C22 UNL     1       1.206   8.005  12.413  1.00  0.00     0.135 C 
HETATM   15  O1  UNL     1       2.366   7.700  12.121  1.00  0.00    -0.297 OA
HETATM   16  C23 UNL     1       0.681   7.926  13.855  1.00  0.00     0.017 C 
HETATM   17  C24 UNL     1       0.701   9.376  14.398  1.00  0.00     0.023 C 
HETATM   18  C25 UNL     1       1.697   7.132  14.702  1.00  0.00     0.023 C 
HETATM   19  C26 UNL     1      -0.794   7.349  13.924  1.00  0.00     0.009 C 
HETATM   20  C27 UNL     1      -0.975   6.082  14.774  1.00  0.00     0.007 C 
HETATM   21  C28 UNL     1      -2.300   5.333  14.621  1.00  0.00     0.011 C 
HETATM   22  C29 UNL     1      -3.510   6.046  13.939  1.00  0.00    -0.032 C 
HETATM   23  C30 UNL     1      -4.210   4.901  13.119  1.00  0.00     0.016 C 
ENDROOT
BRANCH   1  24
HETATM   24  C2  UNL     1      -8.131   7.997  14.995  1.00  0.00    -0.084 C 
HETATM   25  C1  UNL     1      -8.714   9.193  15.199  1.00  0.00     0.014 C 
BRANCH  24  26
HETATM   26  C3  UNL     1      -8.942   6.878  14.357  1.00  0.00     0.037 C 
BRANCH  26  27
HETATM   27  C4  UNL     1     -10.254   7.361  13.727  1.00  0.00     0.031 C 
BRANCH  27  28
HETATM   28  C5  UNL     1     -11.436   6.606  14.275  1.00  0.00    -0.024 C 
HETATM   29  C6  UNL     1     -12.729   6.741  13.918  1.00  0.00    -0.091 C 
HETATM   30  C7  UNL     1     -13.245   7.736  12.914  1.00  0.00     0.042 C 
HETATM   31  C8  UNL     1     -13.795   5.878  14.543  1.00  0.00     0.042 C 
ENDBRANCH  27  28
ENDBRANCH  26  27
ENDBRANCH  24  26
ENDBRANCH   1  24
TORSDOF 4
ENDMDL
MODEL 8
REMARK minimizedAffinity -8.16860771
REMARK  4 active torsions:
REMARK  status: ('A' for Active; 'I' for Inactive)
REMARK    1  A    between atoms: C2_2  and  C3_3 
REMARK    2  A    between atoms: C2_2  and  C9_9 
REMARK    3  A    between atoms: C3_3  and  C4_4 
REMARK    4  A    between atoms: C4_4  and  C5_5 
ROOT
HETATM    1  C9  UNL     1      -2.532   4.765  12.855  1.00  0.00     0.018 C 
HETATM    2  C10 UNL     1      -1.023   4.637  12.554  1.00  0.00     0.010 C 
HETATM    3  C11 UNL     1      -0.391   6.016  12.825  1.00  0.00     0.011 C 
HETATM    4  C12 UNL     1      -1.429   6.802  13.669  1.00  0.00    -0.032 C 
HETATM    5  C13 UNL     1      -1.261   6.309  15.136  1.00  0.00     0.016 C 
HETATM    6  C14 UNL     1      -2.726   6.291  13.002  1.00  0.00     0.002 C 
HETATM    7  C15 UNL     1      -3.987   6.729  13.721  1.00  0.00     0.006 C 
HETATM    8  C16 UNL     1      -3.854   8.054  14.470  1.00  0.00     0.006 C 
HETATM    9  C17 UNL     1      -2.762   9.063  13.997  1.00  0.00     0.003 C 
HETATM   10  C18 UNL     1      -2.600  10.286  15.006  1.00  0.00    -0.035 C 
HETATM   11  C19 UNL     1      -2.004  11.506  14.248  1.00  0.00     0.016 C 
HETATM   12  C20 UNL     1      -3.972  10.736  15.580  1.00  0.00     0.017 C 
HETATM   13  C21 UNL     1      -3.884  11.941  16.505  1.00  0.00     0.080 C 
HETATM   14  C22 UNL     1      -2.603  11.981  17.307  1.00  0.00     0.135 C 
HETATM   15  O1  UNL     1      -2.250  13.045  17.824  1.00  0.00    -0.297 OA
HETATM   16  C23 UNL     1      -1.828  10.673  17.526  1.00  0.00     0.017 C 
HETATM   17  C24 UNL     1      -2.623   9.876  18.590  1.00  0.00     0.023 C 
HETATM   18  C25 UNL     1      -0.467  11.013  18.167  1.00  0.00     0.023 C 
HETATM   19  C26 UNL     1      -1.710   9.818  16.196  1.00  0.00     0.009 C 
HETATM   20  C27 UNL     1      -0.280   9.502  15.732  1.00  0.00     0.007 C 
HETATM   21  C28 UNL     1      -0.122   8.950  14.313  1.00  0.00     0.011 C 
HETATM   22  C29 UNL     1      -1.373   8.393  13.563  1.00  0.00    -0.032 C 
HETATM   23  C30 UNL     1      -1.144   8.832  12.071  1.00  0.00     0.016 C 
ENDROOT
BRANCH   1  24
HETATM   24  C2  UNL     1      -3.409   4.004  11.870  1.00  0.00    -0.084 C 
HETATM   25  C1  UNL     1      -3.238   4.006  10.535  1.00  0.00     0.014 C 
BRANCH  24  26
HETATM   26  C3  UNL     1      -4.594   3.255  12.462  1.00  0.00     0.037 C 
BRANCH  26  27
HETATM   27  C4  UNL     1      -5.951   3.849  12.063  1.00  0.00     0.031 C 
BRANCH  27  28
HETATM   28  C5  UNL     1      -6.565   4.624  13.199  1.00  0.00    -0.024 C 
HETATM   29  C6  UNL     1      -7.694   5.359  13.169  1.00  0.00    -0.091 C 
HETATM   30  C7  UNL     1      -8.541   5.588  11.946  1.00  0.00     0.042 C 
HETATM   31  C8  UNL     1      -8.198   6.050  14.411  1.00  0.00     0.042 C 
ENDBRANCH  27  28
ENDBRANCH  26  27
ENDBRANCH  24  26
ENDBRANCH   1  24
TORSDOF 4
ENDMDL
MODEL 9
REMARK minimizedAffinity -8.12097645
REMARK  4 active torsions:
REMARK  status: ('A' for Active; 'I' for Inactive)
REMARK    1  A    between atoms: C2_2  and  C3_3 
REMARK    2  A    between atoms: C2_2  and  C9_9 
REMARK    3  A    between atoms: C3_3  and  C4_4 
REMARK    4  A    between atoms: C4_4  and  C5_5 
ROOT
HETATM    1  C9  UNL     1      -7.756   6.811  14.471  1.00  0.00     0.018 C 
HETATM    2  C10 UNL     1      -7.692   6.090  15.834  1.00  0.00     0.010 C 
HETATM    3  C11 UNL     1      -6.202   5.880  16.164  1.00  0.00     0.011 C 
HETATM    4  C12 UNL     1      -5.419   6.835  15.224  1.00  0.00    -0.032 C 
HETATM    5  C13 UNL     1      -5.484   8.244  15.882  1.00  0.00     0.016 C 
HETATM    6  C14 UNL     1      -6.300   6.714  13.961  1.00  0.00     0.002 C 
HETATM    7  C15 UNL     1      -5.920   7.688  12.863  1.00  0.00     0.006 C 
HETATM    8  C16 UNL     1      -4.445   8.088  12.864  1.00  0.00     0.006 C 
HETATM    9  C17 UNL     1      -3.416   7.115  13.520  1.00  0.00     0.003 C 
HETATM   10  C18 UNL     1      -1.967   7.769  13.640  1.00  0.00    -0.035 C 
HETATM   11  C19 UNL     1      -0.896   6.643  13.706  1.00  0.00     0.016 C 
HETATM   12  C20 UNL     1      -1.631   8.640  12.398  1.00  0.00     0.017 C 
HETATM   13  C21 UNL     1      -0.234   9.242  12.432  1.00  0.00     0.080 C 
HETATM   14  C22 UNL     1       0.232   9.585  13.829  1.00  0.00     0.135 C 
HETATM   15  O1  UNL     1       1.437   9.751  14.037  1.00  0.00    -0.297 OA
HETATM   16  C23 UNL     1      -0.823   9.802  14.925  1.00  0.00     0.017 C 
HETATM   17  C24 UNL     1      -1.447  11.192  14.650  1.00  0.00     0.023 C 
HETATM   18  C25 UNL     1      -0.100   9.912  16.283  1.00  0.00     0.023 C 
HETATM   19  C26 UNL     1      -1.954   8.692  14.894  1.00  0.00     0.009 C 
HETATM   20  C27 UNL     1      -2.125   7.879  16.187  1.00  0.00     0.007 C 
HETATM   21  C28 UNL     1      -2.984   6.616  16.098  1.00  0.00     0.011 C 
HETATM   22  C29 UNL     1      -3.923   6.411  14.866  1.00  0.00    -0.032 C 
HETATM   23  C30 UNL     1      -3.846   4.866  14.586  1.00  0.00     0.016 C 
ENDROOT
BRANCH   1  24
HETATM   24  C2  UNL     1      -8.883   6.312  13.577  1.00  0.00    -0.084 C 
HETATM   25  C1  UNL     1     -10.079   6.915  13.446  1.00  0.00     0.014 C 
BRANCH  24  26
HETATM   26  C3  UNL     1      -8.632   5.000  12.846  1.00  0.00     0.037 C 
BRANCH  26  27
HETATM   27  C4  UNL     1      -7.181   4.515  12.947  1.00  0.00     0.031 C 
BRANCH  27  28
HETATM   28  C5  UNL     1      -7.032   3.116  12.411  1.00  0.00    -0.024 C 
HETATM   29  C6  UNL     1      -5.991   2.613  11.720  1.00  0.00    -0.091 C 
HETATM   30  C7  UNL     1      -4.776   3.396  11.302  1.00  0.00     0.042 C 
HETATM   31  C8  UNL     1      -5.980   1.170  11.282  1.00  0.00     0.042 C 
ENDBRANCH  27  28
ENDBRANCH  26  27
ENDBRANCH  24  26
ENDBRANCH   1  24
TORSDOF 4
ENDMDL
