MODEL 1
REMARK minimizedAffinity -9.53430271
REMARK  4 active torsions:
REMARK  status: ('A' for Active; 'I' for Inactive)
REMARK    1  A    between atoms: C4_4  and  C5_5 
REMARK    2  A    between atoms: C5_5  and  C6_7 
REMARK    3  A    between atoms: C6_7  and  C7_8 
REMARK    4  A    between atoms: C7_8  and  C9_10 
ROOT
HETATM    1  C9  UNL     1      -3.405  48.489 -19.850  1.00  0.00    -0.001 C 
HETATM    2  C10 UNL     1      -3.916  47.362 -20.796  1.00  0.00     0.007 C 
HETATM    3  C11 UNL     1      -3.570  47.781 -22.239  1.00  0.00     0.015 C 
HETATM    4  C12 UNL     1      -3.164  49.265 -22.132  1.00  0.00    -0.013 C 
HETATM    5  C13 UNL     1      -4.497  50.082 -22.144  1.00  0.00     0.021 C 
HETATM    6  C14 UNL     1      -2.297  49.855 -23.241  1.00  0.00    -0.070 C 
HETATM    7  C15 UNL     1      -2.417  49.472 -24.526  1.00  0.00    -0.022 C 
HETATM    8  C16 UNL     1      -1.678  50.099 -25.672  1.00  0.00     0.034 C 
HETATM    9  C17 UNL     1      -0.548  51.060 -25.243  1.00  0.00     0.013 C 
HETATM   10  C18 UNL     1       0.179  51.818 -26.420  1.00  0.00     0.018 C 
HETATM   11  C19 UNL     1      -0.505  51.625 -27.791  1.00  0.00     0.023 C 
HETATM   12  C20 UNL     1       1.625  51.287 -26.553  1.00  0.00     0.023 C 
HETATM   13  C21 UNL     1       0.306  53.328 -26.165  1.00  0.00     0.135 C 
HETATM   14  O2  UNL     1       0.248  54.150 -27.084  1.00  0.00    -0.297 OA
HETATM   15  C22 UNL     1       0.613  53.816 -24.770  1.00  0.00     0.080 C 
HETATM   16  C23 UNL     1       0.194  52.860 -23.666  1.00  0.00     0.017 C 
HETATM   17  C24 UNL     1      -1.004  51.955 -24.035  1.00  0.00    -0.031 C 
HETATM   18  C25 UNL     1      -2.239  52.822 -24.379  1.00  0.00     0.016 C 
HETATM   19  C26 UNL     1      -1.327  50.975 -22.836  1.00  0.00     0.024 C 
HETATM   20  C27 UNL     1      -1.749  51.674 -21.521  1.00  0.00     0.010 C 
HETATM   21  C28 UNL     1      -2.107  50.727 -20.348  1.00  0.00     0.011 C 
HETATM   22  C29 UNL     1      -2.398  49.267 -20.761  1.00  0.00    -0.029 C 
HETATM   23  C30 UNL     1      -1.054  48.468 -20.791  1.00  0.00     0.016 C 
ENDROOT
BRANCH   1  24
HETATM   24  C7  UNL     1      -2.931  47.942 -18.474  1.00  0.00    -0.007 C 
HETATM   25  C8  UNL     1      -3.026  46.416 -18.367  1.00  0.00     0.011 C 
BRANCH  24  26
HETATM   26  C6  UNL     1      -1.512  48.423 -18.087  1.00  0.00     0.087 C 
BRANCH  26  27
HETATM   27  C5  UNL     1      -1.419  49.394 -16.918  1.00  0.00     0.149 C 
HETATM   28  O1  UNL     1      -2.086  49.288 -15.895  1.00  0.00    -0.293 OA
BRANCH  27  29
HETATM   29  C4  UNL     1      -0.486  50.549 -17.118  1.00  0.00     0.052 C 
HETATM   30  C2  UNL     1       0.581  50.836 -16.349  1.00  0.00    -0.084 C 
HETATM   31  C1  UNL     1       1.409  52.065 -16.622  1.00  0.00     0.043 C 
HETATM   32  C3  UNL     1       1.058  50.011 -15.183  1.00  0.00     0.043 C 
ENDBRANCH  27  29
ENDBRANCH  26  27
ENDBRANCH  24  26
ENDBRANCH   1  24
TORSDOF 4
ENDMDL
MODEL 2
REMARK minimizedAffinity -9.26368809
REMARK  4 active torsions:
REMARK  status: ('A' for Active; 'I' for Inactive)
REMARK    1  A    between atoms: C4_4  and  C5_5 
REMARK    2  A    between atoms: C5_5  and  C6_7 
REMARK    3  A    between atoms: C6_7  and  C7_8 
REMARK    4  A    between atoms: C7_8  and  C9_10 
ROOT
HETATM    1  C9  UNL     1      -0.816  51.658 -21.417  1.00  0.00    -0.001 C 
HETATM    2  C10 UNL     1      -0.055  50.354 -21.036  1.00  0.00     0.007 C 
HETATM    3  C11 UNL     1      -1.069  49.194 -21.097  1.00  0.00     0.015 C 
HETATM    4  C12 UNL     1      -2.446  49.881 -21.195  1.00  0.00    -0.013 C 
HETATM    5  C13 UNL     1      -2.854  50.247 -19.730  1.00  0.00     0.021 C 
HETATM    6  C14 UNL     1      -3.611  49.078 -21.769  1.00  0.00    -0.070 C 
HETATM    7  C15 UNL     1      -3.738  47.754 -21.568  1.00  0.00    -0.022 C 
HETATM    8  C16 UNL     1      -4.919  46.937 -22.005  1.00  0.00     0.034 C 
HETATM    9  C17 UNL     1      -5.883  47.681 -22.955  1.00  0.00     0.013 C 
HETATM   10  C18 UNL     1      -7.189  46.890 -23.350  1.00  0.00     0.018 C 
HETATM   11  C19 UNL     1      -7.382  45.582 -22.550  1.00  0.00     0.023 C 
HETATM   12  C20 UNL     1      -7.120  46.503 -24.845  1.00  0.00     0.023 C 
HETATM   13  C21 UNL     1      -8.465  47.731 -23.190  1.00  0.00     0.135 C 
HETATM   14  O2  UNL     1      -9.537  47.228 -22.844  1.00  0.00    -0.297 OA
HETATM   15  C22 UNL     1      -8.434  49.193 -23.565  1.00  0.00     0.080 C 
HETATM   16  C23 UNL     1      -7.055  49.827 -23.501  1.00  0.00     0.017 C 
HETATM   17  C24 UNL     1      -6.101  49.163 -22.481  1.00  0.00    -0.031 C 
HETATM   18  C25 UNL     1      -6.705  49.243 -21.058  1.00  0.00     0.016 C 
HETATM   19  C26 UNL     1      -4.686  49.870 -22.528  1.00  0.00     0.024 C 
HETATM   20  C27 UNL     1      -4.698  51.370 -22.142  1.00  0.00     0.010 C 
HETATM   21  C28 UNL     1      -3.315  52.068 -22.145  1.00  0.00     0.011 C 
HETATM   22  C29 UNL     1      -2.105  51.108 -22.114  1.00  0.00    -0.029 C 
HETATM   23  C30 UNL     1      -1.733  50.710 -23.580  1.00  0.00     0.016 C 
ENDROOT
BRANCH   1  24
HETATM   24  C7  UNL     1       0.087  52.676 -22.169  1.00  0.00    -0.007 C 
HETATM   25  C8  UNL     1       1.274  53.163 -21.330  1.00  0.00     0.011 C 
BRANCH  24  26
HETATM   26  C6  UNL     1       0.576  52.156 -23.543  1.00  0.00     0.087 C 
BRANCH  26  27
HETATM   27  C5  UNL     1       0.743  53.196 -24.642  1.00  0.00     0.149 C 
HETATM   28  O1  UNL     1       1.121  54.343 -24.437  1.00  0.00    -0.293 OA
BRANCH  27  29
HETATM   29  C4  UNL     1       0.352  52.743 -26.015  1.00  0.00     0.052 C 
HETATM   30  C2  UNL     1       1.116  52.008 -26.845  1.00  0.00    -0.084 C 
HETATM   31  C1  UNL     1       0.629  51.666 -28.229  1.00  0.00     0.043 C 
HETATM   32  C3  UNL     1       2.481  51.464 -26.515  1.00  0.00     0.043 C 
ENDBRANCH  27  29
ENDBRANCH  26  27
ENDBRANCH  24  26
ENDBRANCH   1  24
TORSDOF 4
ENDMDL
MODEL 3
REMARK minimizedAffinity -9.25737762
REMARK  4 active torsions:
REMARK  status: ('A' for Active; 'I' for Inactive)
REMARK    1  A    between atoms: C4_4  and  C5_5 
REMARK    2  A    between atoms: C5_5  and  C6_7 
REMARK    3  A    between atoms: C6_7  and  C7_8 
REMARK    4  A    between atoms: C7_8  and  C9_10 
ROOT
HETATM    1  C9  UNL     1      -1.304  51.282 -19.010  1.00  0.00    -0.001 C 
HETATM    2  C10 UNL     1      -2.235  50.140 -18.505  1.00  0.00     0.007 C 
HETATM    3  C11 UNL     1      -2.957  49.557 -19.736  1.00  0.00     0.015 C 
HETATM    4  C12 UNL     1      -2.681  50.567 -20.869  1.00  0.00    -0.013 C 
HETATM    5  C13 UNL     1      -3.741  51.705 -20.704  1.00  0.00     0.021 C 
HETATM    6  C14 UNL     1      -2.804  50.081 -22.311  1.00  0.00    -0.070 C 
HETATM    7  C15 UNL     1      -3.716  49.164 -22.684  1.00  0.00    -0.022 C 
HETATM    8  C16 UNL     1      -3.961  48.738 -24.102  1.00  0.00     0.034 C 
HETATM    9  C17 UNL     1      -2.896  49.237 -25.103  1.00  0.00     0.013 C 
HETATM   10  C18 UNL     1      -3.180  48.897 -26.617  1.00  0.00     0.018 C 
HETATM   11  C19 UNL     1      -4.584  48.302 -26.862  1.00  0.00     0.023 C 
HETATM   12  C20 UNL     1      -2.151  47.852 -27.108  1.00  0.00     0.023 C 
HETATM   13  C21 UNL     1      -3.017  50.115 -27.540  1.00  0.00     0.135 C 
HETATM   14  O2  UNL     1      -3.722  50.272 -28.541  1.00  0.00    -0.297 OA
HETATM   15  C22 UNL     1      -1.899  51.095 -27.276  1.00  0.00     0.080 C 
HETATM   16  C23 UNL     1      -1.420  51.125 -25.834  1.00  0.00     0.017 C 
HETATM   17  C24 UNL     1      -2.500  50.726 -24.801  1.00  0.00    -0.031 C 
HETATM   18  C25 UNL     1      -3.710  51.688 -24.900  1.00  0.00     0.016 C 
HETATM   19  C26 UNL     1      -1.885  50.750 -23.344  1.00  0.00     0.024 C 
HETATM   20  C27 UNL     1      -1.379  52.136 -22.875  1.00  0.00     0.010 C 
HETATM   21  C28 UNL     1      -0.810  52.184 -21.435  1.00  0.00     0.011 C 
HETATM   22  C29 UNL     1      -1.203  50.986 -20.543  1.00  0.00    -0.029 C 
HETATM   23  C30 UNL     1      -0.164  49.835 -20.748  1.00  0.00     0.016 C 
ENDROOT
BRANCH   1  24
HETATM   24  C7  UNL     1      -0.004  51.407 -18.165  1.00  0.00    -0.007 C 
HETATM   25  C8  UNL     1       0.720  52.743 -18.367  1.00  0.00     0.011 C 
BRANCH  24  26
HETATM   26  C6  UNL     1      -0.231  51.139 -16.658  1.00  0.00     0.087 C 
BRANCH  26  27
HETATM   27  C5  UNL     1       0.651  51.916 -15.689  1.00  0.00     0.149 C 
HETATM   28  O1  UNL     1       0.263  52.328 -14.602  1.00  0.00    -0.293 OA
BRANCH  27  29
HETATM   29  C4  UNL     1       2.036  52.207 -16.179  1.00  0.00     0.052 C 
HETATM   30  C2  UNL     1       3.177  51.889 -15.537  1.00  0.00    -0.084 C 
HETATM   31  C1  UNL     1       4.511  52.291 -16.109  1.00  0.00     0.043 C 
HETATM   32  C3  UNL     1       3.260  51.132 -14.238  1.00  0.00     0.043 C 
ENDBRANCH  27  29
ENDBRANCH  26  27
ENDBRANCH  24  26
ENDBRANCH   1  24
TORSDOF 4
ENDMDL
MODEL 4
REMARK minimizedAffinity -9.12081814
REMARK  4 active torsions:
REMARK  status: ('A' for Active; 'I' for Inactive)
REMARK    1  A    between atoms: C4_4  and  C5_5 
REMARK    2  A    between atoms: C5_5  and  C6_7 
REMARK    3  A    between atoms: C6_7  and  C7_8 
REMARK    4  A    between atoms: C7_8  and  C9_10 
ROOT
HETATM    1  C9  UNL     1      -3.629  50.593 -25.120  1.00  0.00    -0.001 C 
HETATM    2  C10 UNL     1      -3.695  52.116 -24.802  1.00  0.00     0.007 C 
HETATM    3  C11 UNL     1      -3.687  52.265 -23.266  1.00  0.00     0.015 C 
HETATM    4  C12 UNL     1      -3.940  50.841 -22.732  1.00  0.00    -0.013 C 
HETATM    5  C13 UNL     1      -5.490  50.632 -22.769  1.00  0.00     0.021 C 
HETATM    6  C14 UNL     1      -3.506  50.523 -21.303  1.00  0.00    -0.070 C 
HETATM    7  C15 UNL     1      -3.564  51.434 -20.315  1.00  0.00    -0.022 C 
HETATM    8  C16 UNL     1      -3.264  51.145 -18.873  1.00  0.00     0.034 C 
HETATM    9  C17 UNL     1      -2.615  49.765 -18.629  1.00  0.00     0.013 C 
HETATM   10  C18 UNL     1      -2.383  49.384 -17.116  1.00  0.00     0.018 C 
HETATM   11  C19 UNL     1      -3.039  50.372 -16.126  1.00  0.00     0.023 C 
HETATM   12  C20 UNL     1      -0.866  49.378 -16.816  1.00  0.00     0.023 C 
HETATM   13  C21 UNL     1      -2.886  47.973 -16.775  1.00  0.00     0.135 C 
HETATM   14  O2  UNL     1      -3.368  47.703 -15.671  1.00  0.00    -0.297 OA
HETATM   15  C22 UNL     1      -2.695  46.861 -17.778  1.00  0.00     0.080 C 
HETATM   16  C23 UNL     1      -2.571  47.330 -19.217  1.00  0.00     0.017 C 
HETATM   17  C24 UNL     1      -3.299  48.662 -19.513  1.00  0.00    -0.031 C 
HETATM   18  C25 UNL     1      -4.811  48.519 -19.209  1.00  0.00     0.016 C 
HETATM   19  C26 UNL     1      -3.070  49.077 -21.022  1.00  0.00     0.024 C 
HETATM   20  C27 UNL     1      -3.632  48.078 -22.063  1.00  0.00     0.010 C 
HETATM   21  C28 UNL     1      -3.450  48.489 -23.545  1.00  0.00     0.011 C 
HETATM   22  C29 UNL     1      -3.130  49.984 -23.768  1.00  0.00    -0.029 C 
HETATM   23  C30 UNL     1      -1.583  50.192 -23.683  1.00  0.00     0.016 C 
ENDROOT
BRANCH   1  24
HETATM   24  C7  UNL     1      -2.850  50.293 -26.431  1.00  0.00    -0.007 C 
HETATM   25  C8  UNL     1      -3.287  48.989 -27.107  1.00  0.00     0.011 C 
BRANCH  24  26
HETATM   26  C6  UNL     1      -2.888  51.464 -27.443  1.00  0.00     0.087 C 
BRANCH  26  27
HETATM   27  C5  UNL     1      -1.810  52.528 -27.292  1.00  0.00     0.149 C 
HETATM   28  O1  UNL     1      -1.899  53.654 -27.768  1.00  0.00    -0.293 OA
BRANCH  27  29
HETATM   29  C4  UNL     1      -0.577  52.091 -26.562  1.00  0.00     0.052 C 
HETATM   30  C2  UNL     1       0.592  51.748 -27.135  1.00  0.00    -0.084 C 
HETATM   31  C1  UNL     1       1.743  51.267 -26.291  1.00  0.00     0.043 C 
HETATM   32  C3  UNL     1       0.883  51.799 -28.612  1.00  0.00     0.043 C 
ENDBRANCH  27  29
ENDBRANCH  26  27
ENDBRANCH  24  26
ENDBRANCH   1  24
TORSDOF 4
ENDMDL
MODEL 5
REMARK minimizedAffinity -9.06742287
REMARK  4 active torsions:
REMARK  status: ('A' for Active; 'I' for Inactive)
REMARK    1  A    between atoms: C4_4  and  C5_5 
REMARK    2  A    between atoms: C5_5  and  C6_7 
REMARK    3  A    between atoms: C6_7  and  C7_8 
REMARK    4  A    between atoms: C7_8  and  C9_10 
ROOT
HETATM    1  C9  UNL     1      -1.644  51.515 -23.239  1.00  0.00    -0.001 C 
HETATM    2  C10 UNL     1      -2.669  52.546 -23.798  1.00  0.00     0.007 C 
HETATM    3  C11 UNL     1      -4.080  52.001 -23.495  1.00  0.00     0.015 C 
HETATM    4  C12 UNL     1      -3.853  50.538 -23.064  1.00  0.00    -0.013 C 
HETATM    5  C13 UNL     1      -3.744  49.708 -24.385  1.00  0.00     0.021 C 
HETATM    6  C14 UNL     1      -4.934  49.860 -22.227  1.00  0.00    -0.070 C 
HETATM    7  C15 UNL     1      -6.243  50.123 -22.395  1.00  0.00    -0.022 C 
HETATM    8  C16 UNL     1      -7.353  49.403 -21.687  1.00  0.00     0.034 C 
HETATM    9  C17 UNL     1      -6.878  48.497 -20.529  1.00  0.00     0.013 C 
HETATM   10  C18 UNL     1      -8.006  47.644 -19.831  1.00  0.00     0.018 C 
HETATM   11  C19 UNL     1      -9.365  47.703 -20.564  1.00  0.00     0.023 C 
HETATM   12  C20 UNL     1      -8.238  48.177 -18.398  1.00  0.00     0.023 C 
HETATM   13  C21 UNL     1      -7.621  46.165 -19.674  1.00  0.00     0.135 C 
HETATM   14  O2  UNL     1      -8.459  45.262 -19.751  1.00  0.00    -0.297 OA
HETATM   15  C22 UNL     1      -6.198  45.809 -19.313  1.00  0.00     0.080 C 
HETATM   16  C23 UNL     1      -5.172  46.857 -19.708  1.00  0.00     0.017 C 
HETATM   17  C24 UNL     1      -5.579  47.711 -20.931  1.00  0.00    -0.031 C 
HETATM   18  C25 UNL     1      -5.800  46.802 -22.164  1.00  0.00     0.016 C 
HETATM   19  C26 UNL     1      -4.463  48.793 -21.227  1.00  0.00     0.024 C 
HETATM   20  C27 UNL     1      -3.076  48.211 -21.594  1.00  0.00     0.010 C 
HETATM   21  C28 UNL     1      -1.982  49.257 -21.926  1.00  0.00     0.011 C 
HETATM   22  C29 UNL     1      -2.515  50.670 -22.252  1.00  0.00    -0.029 C 
HETATM   23  C30 UNL     1      -2.665  51.477 -20.922  1.00  0.00     0.016 C 
ENDROOT
BRANCH   1  24
HETATM   24  C7  UNL     1      -0.340  52.190 -22.726  1.00  0.00    -0.007 C 
HETATM   25  C8  UNL     1       0.194  51.565 -21.433  1.00  0.00     0.011 C 
BRANCH  24  26
HETATM   26  C6  UNL     1       0.775  52.249 -23.798  1.00  0.00     0.087 C 
BRANCH  26  27
HETATM   27  C5  UNL     1       0.648  53.340 -24.852  1.00  0.00     0.149 C 
HETATM   28  O1  UNL     1       0.753  54.536 -24.604  1.00  0.00    -0.293 OA
BRANCH  27  29
HETATM   29  C4  UNL     1       0.320  52.860 -26.233  1.00  0.00     0.052 C 
HETATM   30  C2  UNL     1       1.105  52.077 -26.997  1.00  0.00    -0.084 C 
HETATM   31  C1  UNL     1       0.684  51.711 -28.396  1.00  0.00     0.043 C 
HETATM   32  C3  UNL     1       2.429  51.498 -26.573  1.00  0.00     0.043 C 
ENDBRANCH  27  29
ENDBRANCH  26  27
ENDBRANCH  24  26
ENDBRANCH   1  24
TORSDOF 4
ENDMDL
MODEL 6
REMARK minimizedAffinity -8.89910889
REMARK  4 active torsions:
REMARK  status: ('A' for Active; 'I' for Inactive)
REMARK    1  A    between atoms: C4_4  and  C5_5 
REMARK    2  A    between atoms: C5_5  and  C6_7 
REMARK    3  A    between atoms: C6_7  and  C7_8 
REMARK    4  A    between atoms: C7_8  and  C9_10 
ROOT
HETATM    1  C9  UNL     1      -0.521  52.375 -21.898  1.00  0.00    -0.001 C 
HETATM    2  C10 UNL     1       0.788  53.161 -21.592  1.00  0.00     0.007 C 
HETATM    3  C11 UNL     1       1.176  52.856 -20.130  1.00  0.00     0.015 C 
HETATM    4  C12 UNL     1      -0.068  52.171 -19.528  1.00  0.00    -0.013 C 
HETATM    5  C13 UNL     1      -1.034  53.324 -19.101  1.00  0.00     0.021 C 
HETATM    6  C14 UNL     1       0.121  51.298 -18.291  1.00  0.00    -0.070 C 
HETATM    7  C15 UNL     1       1.029  51.587 -17.340  1.00  0.00    -0.022 C 
HETATM    8  C16 UNL     1       1.178  50.836 -16.049  1.00  0.00     0.034 C 
HETATM    9  C17 UNL     1       0.378  49.515 -15.994  1.00  0.00     0.013 C 
HETATM   10  C18 UNL     1       0.426  48.753 -14.614  1.00  0.00     0.018 C 
HETATM   11  C19 UNL     1       1.097  49.566 -13.485  1.00  0.00     0.023 C 
HETATM   12  C20 UNL     1       1.238  47.447 -14.779  1.00  0.00     0.023 C 
HETATM   13  C21 UNL     1      -0.965  48.325 -14.123  1.00  0.00     0.135 C 
HETATM   14  O2  UNL     1      -1.253  48.299 -12.923  1.00  0.00    -0.297 OA
HETATM   15  C22 UNL     1      -1.978  47.824 -15.125  1.00  0.00     0.080 C 
HETATM   16  C23 UNL     1      -1.759  48.328 -16.541  1.00  0.00     0.017 C 
HETATM   17  C24 UNL     1      -1.050  49.700 -16.622  1.00  0.00    -0.031 C 
HETATM   18  C25 UNL     1      -1.884  50.773 -15.880  1.00  0.00     0.016 C 
HETATM   19  C26 UNL     1      -0.835  50.107 -18.135  1.00  0.00     0.024 C 
HETATM   20  C27 UNL     1      -2.139  50.286 -18.951  1.00  0.00     0.010 C 
HETATM   21  C28 UNL     1      -1.948  50.722 -20.424  1.00  0.00     0.011 C 
HETATM   22  C29 UNL     1      -0.558  51.314 -20.749  1.00  0.00    -0.029 C 
HETATM   23  C30 UNL     1       0.415  50.151 -21.130  1.00  0.00     0.016 C 
ENDROOT
BRANCH   1  24
HETATM   24  C7  UNL     1      -0.600  51.906 -23.379  1.00  0.00    -0.007 C 
HETATM   25  C8  UNL     1      -1.497  50.679 -23.575  1.00  0.00     0.011 C 
BRANCH  24  26
HETATM   26  C6  UNL     1      -1.012  53.037 -24.353  1.00  0.00     0.087 C 
BRANCH  26  27
HETATM   27  C5  UNL     1       0.099  53.639 -25.203  1.00  0.00     0.149 C 
HETATM   28  O1  UNL     1       0.834  54.541 -24.815  1.00  0.00    -0.293 OA
BRANCH  27  29
HETATM   29  C4  UNL     1       0.205  53.097 -26.594  1.00  0.00     0.052 C 
HETATM   30  C2  UNL     1       1.073  52.152 -27.002  1.00  0.00    -0.084 C 
HETATM   31  C1  UNL     1       1.120  51.732 -28.448  1.00  0.00     0.043 C 
HETATM   32  C3  UNL     1       2.054  51.432 -26.114  1.00  0.00     0.043 C 
ENDBRANCH  27  29
ENDBRANCH  26  27
ENDBRANCH  24  26
ENDBRANCH   1  24
TORSDOF 4
ENDMDL
MODEL 7
REMARK minimizedAffinity -8.75046921
REMARK  4 active torsions:
REMARK  status: ('A' for Active; 'I' for Inactive)
REMARK    1  A    between atoms: C4_4  and  C5_5 
REMARK    2  A    between atoms: C5_5  and  C6_7 
REMARK    3  A    between atoms: C6_7  and  C7_8 
REMARK    4  A    between atoms: C7_8  and  C9_10 
ROOT
HETATM    1  C9  UNL     1      -1.288  50.413 -22.872  1.00  0.00    -0.001 C 
HETATM    2  C10 UNL     1      -2.582  49.555 -22.986  1.00  0.00     0.007 C 
HETATM    3  C11 UNL     1      -2.973  49.121 -21.559  1.00  0.00     0.015 C 
HETATM    4  C12 UNL     1      -1.742  49.458 -20.694  1.00  0.00    -0.013 C 
HETATM    5  C13 UNL     1      -0.754  48.256 -20.859  1.00  0.00     0.021 C 
HETATM    6  C14 UNL     1      -1.945  49.633 -19.192  1.00  0.00    -0.070 C 
HETATM    7  C15 UNL     1      -2.847  48.912 -18.500  1.00  0.00    -0.022 C 
HETATM    8  C16 UNL     1      -3.007  48.957 -17.008  1.00  0.00     0.034 C 
HETATM    9  C17 UNL     1      -2.232  50.105 -16.325  1.00  0.00     0.013 C 
HETATM   10  C18 UNL     1      -2.292  50.118 -14.749  1.00  0.00     0.018 C 
HETATM   11  C19 UNL     1      -2.947  48.855 -14.148  1.00  0.00     0.023 C 
HETATM   12  C20 UNL     1      -3.128  51.331 -14.280  1.00  0.00     0.023 C 
HETATM   13  C21 UNL     1      -0.908  50.283 -14.103  1.00  0.00     0.135 C 
HETATM   14  O2  UNL     1      -0.620  49.740 -13.033  1.00  0.00    -0.297 OA
HETATM   15  C22 UNL     1       0.094  51.217 -14.738  1.00  0.00     0.080 C 
HETATM   16  C23 UNL     1      -0.117  51.444 -16.225  1.00  0.00     0.017 C 
HETATM   17  C24 UNL     1      -0.801  50.264 -16.954  1.00  0.00    -0.031 C 
HETATM   18  C25 UNL     1       0.053  48.981 -16.806  1.00  0.00     0.016 C 
HETATM   19  C26 UNL     1      -1.010  50.623 -18.481  1.00  0.00     0.024 C 
HETATM   20  C27 UNL     1       0.296  50.875 -19.273  1.00  0.00     0.010 C 
HETATM   21  C28 UNL     1       0.111  51.189 -20.778  1.00  0.00     0.011 C 
HETATM   22  C29 UNL     1      -1.268  50.801 -21.356  1.00  0.00    -0.029 C 
HETATM   23  C30 UNL     1      -2.262  51.989 -21.146  1.00  0.00     0.016 C 
ENDROOT
BRANCH   1  24
HETATM   24  C7  UNL     1      -1.218  51.531 -23.951  1.00  0.00    -0.007 C 
HETATM   25  C8  UNL     1      -2.577  52.183 -24.231  1.00  0.00     0.011 C 
BRANCH  24  26
HETATM   26  C6  UNL     1      -0.156  52.613 -23.637  1.00  0.00     0.087 C 
BRANCH  26  27
HETATM   27  C5  UNL     1       0.365  53.417 -24.820  1.00  0.00     0.149 C 
HETATM   28  O1  UNL     1       0.922  54.503 -24.707  1.00  0.00    -0.293 OA
BRANCH  27  29
HETATM   29  C4  UNL     1       0.097  52.820 -26.167  1.00  0.00     0.052 C 
HETATM   30  C2  UNL     1       0.939  52.023 -26.852  1.00  0.00    -0.084 C 
HETATM   31  C1  UNL     1       0.575  51.533 -28.229  1.00  0.00     0.043 C 
HETATM   32  C3  UNL     1       2.279  51.545 -26.356  1.00  0.00     0.043 C 
ENDBRANCH  27  29
ENDBRANCH  26  27
ENDBRANCH  24  26
ENDBRANCH   1  24
TORSDOF 4
ENDMDL
MODEL 8
REMARK minimizedAffinity -8.73249245
REMARK  4 active torsions:
REMARK  status: ('A' for Active; 'I' for Inactive)
REMARK    1  A    between atoms: C4_4  and  C5_5 
REMARK    2  A    between atoms: C5_5  and  C6_7 
REMARK    3  A    between atoms: C6_7  and  C7_8 
REMARK    4  A    between atoms: C7_8  and  C9_10 
ROOT
HETATM    1  C9  UNL     1      -3.090  51.709 -25.699  1.00  0.00    -0.001 C 
HETATM    2  C10 UNL     1      -2.562  52.846 -24.775  1.00  0.00     0.007 C 
HETATM    3  C11 UNL     1      -2.843  52.424 -23.319  1.00  0.00     0.015 C 
HETATM    4  C12 UNL     1      -3.802  51.222 -23.436  1.00  0.00    -0.013 C 
HETATM    5  C13 UNL     1      -5.235  51.824 -23.607  1.00  0.00     0.021 C 
HETATM    6  C14 UNL     1      -3.889  50.254 -22.259  1.00  0.00    -0.070 C 
HETATM    7  C15 UNL     1      -3.772  50.665 -20.982  1.00  0.00    -0.022 C 
HETATM    8  C16 UNL     1      -3.966  49.782 -19.784  1.00  0.00     0.034 C 
HETATM    9  C17 UNL     1      -4.053  48.276 -20.119  1.00  0.00     0.013 C 
HETATM   10  C18 UNL     1      -4.363  47.328 -18.896  1.00  0.00     0.018 C 
HETATM   11  C19 UNL     1      -4.735  48.091 -17.606  1.00  0.00     0.023 C 
HETATM   12  C20 UNL     1      -3.111  46.478 -18.578  1.00  0.00     0.023 C 
HETATM   13  C21 UNL     1      -5.489  46.327 -19.192  1.00  0.00     0.135 C 
HETATM   14  O2  UNL     1      -6.279  45.958 -18.319  1.00  0.00    -0.297 OA
HETATM   15  C22 UNL     1      -5.572  45.695 -20.562  1.00  0.00     0.080 C 
HETATM   16  C23 UNL     1      -4.931  46.515 -21.669  1.00  0.00     0.017 C 
HETATM   17  C24 UNL     1      -4.924  48.038 -21.404  1.00  0.00    -0.031 C 
HETATM   18  C25 UNL     1      -6.373  48.555 -21.236  1.00  0.00     0.016 C 
HETATM   19  C26 UNL     1      -4.198  48.787 -22.593  1.00  0.00     0.024 C 
HETATM   20  C27 UNL     1      -4.880  48.628 -23.974  1.00  0.00     0.010 C 
HETATM   21  C28 UNL     1      -4.204  49.387 -25.142  1.00  0.00     0.011 C 
HETATM   22  C29 UNL     1      -3.228  50.504 -24.710  1.00  0.00    -0.029 C 
HETATM   23  C30 UNL     1      -1.808  49.885 -24.496  1.00  0.00     0.016 C 
ENDROOT
BRANCH   1  24
HETATM   24  C7  UNL     1      -2.238  51.548 -26.990  1.00  0.00    -0.007 C 
HETATM   25  C8  UNL     1      -2.869  50.597 -28.013  1.00  0.00     0.011 C 
BRANCH  24  26
HETATM   26  C6  UNL     1      -1.884  52.899 -27.657  1.00  0.00     0.087 C 
BRANCH  26  27
HETATM   27  C5  UNL     1      -0.501  53.462 -27.359  1.00  0.00     0.149 C 
HETATM   28  O1  UNL     1      -0.276  54.657 -27.199  1.00  0.00    -0.293 OA
BRANCH  27  29
HETATM   29  C4  UNL     1       0.607  52.454 -27.330  1.00  0.00     0.052 C 
HETATM   30  C2  UNL     1       1.267  52.047 -26.230  1.00  0.00    -0.084 C 
HETATM   31  C1  UNL     1       2.406  51.068 -26.343  1.00  0.00     0.043 C 
HETATM   32  C3  UNL     1       0.967  52.492 -24.823  1.00  0.00     0.043 C 
ENDBRANCH  27  29
ENDBRANCH  26  27
ENDBRANCH  24  26
ENDBRANCH   1  24
TORSDOF 4
ENDMDL
MODEL 9
REMARK minimizedAffinity -8.68719006
REMARK  4 active torsions:
REMARK  status: ('A' for Active; 'I' for Inactive)
REMARK    1  A    between atoms: C4_4  and  C5_5 
REMARK    2  A    between atoms: C5_5  and  C6_7 
REMARK    3  A    between atoms: C6_7  and  C7_8 
REMARK    4  A    between atoms: C7_8  and  C9_10 
ROOT
HETATM    1  C9  UNL     1      -0.714  51.384 -20.825  1.00  0.00    -0.001 C 
HETATM    2  C10 UNL     1       0.220  50.153 -21.017  1.00  0.00     0.007 C 
HETATM    3  C11 UNL     1      -0.673  48.895 -21.032  1.00  0.00     0.015 C 
HETATM    4  C12 UNL     1      -2.048  49.384 -20.534  1.00  0.00    -0.013 C 
HETATM    5  C13 UNL     1      -1.969  49.388 -18.972  1.00  0.00     0.021 C 
HETATM    6  C14 UNL     1      -3.278  48.554 -20.891  1.00  0.00    -0.070 C 
HETATM    7  C15 UNL     1      -3.238  47.211 -20.978  1.00  0.00    -0.022 C 
HETATM    8  C16 UNL     1      -4.436  46.337 -21.208  1.00  0.00     0.034 C 
HETATM    9  C17 UNL     1      -5.712  47.110 -21.610  1.00  0.00     0.013 C 
HETATM   10  C18 UNL     1      -7.016  46.235 -21.756  1.00  0.00     0.018 C 
HETATM   11  C19 UNL     1      -6.838  44.780 -21.267  1.00  0.00     0.023 C 
HETATM   12  C20 UNL     1      -7.423  46.168 -23.246  1.00  0.00     0.023 C 
HETATM   13  C21 UNL     1      -8.221  46.836 -21.016  1.00  0.00     0.135 C 
HETATM   14  O2  UNL     1      -9.078  46.126 -20.483  1.00  0.00    -0.297 OA
HETATM   15  C22 UNL     1      -8.419  48.333 -21.027  1.00  0.00     0.080 C 
HETATM   16  C23 UNL     1      -7.146  49.132 -21.245  1.00  0.00     0.017 C 
HETATM   17  C24 UNL     1      -5.862  48.421 -20.757  1.00  0.00    -0.031 C 
HETATM   18  C25 UNL     1      -5.961  48.128 -19.240  1.00  0.00     0.016 C 
HETATM   19  C26 UNL     1      -4.598  49.319 -21.071  1.00  0.00     0.024 C 
HETATM   20  C27 UNL     1      -4.585  50.694 -20.359  1.00  0.00     0.010 C 
HETATM   21  C28 UNL     1      -3.335  51.569 -20.625  1.00  0.00     0.011 C 
HETATM   22  C29 UNL     1      -2.120  50.805 -21.198  1.00  0.00    -0.029 C 
HETATM   23  C30 UNL     1      -2.231  50.765 -22.757  1.00  0.00     0.016 C 
ENDROOT
BRANCH   1  24
HETATM   24  C7  UNL     1      -0.187  52.650 -21.557  1.00  0.00    -0.007 C 
HETATM   25  C8  UNL     1       0.434  53.681 -20.608  1.00  0.00     0.011 C 
BRANCH  24  26
HETATM   26  C6  UNL     1       0.791  52.321 -22.711  1.00  0.00     0.087 C 
BRANCH  26  27
HETATM   27  C5  UNL     1       0.663  53.166 -23.972  1.00  0.00     0.149 C 
HETATM   28  O1  UNL     1       1.073  54.318 -24.059  1.00  0.00    -0.293 OA
BRANCH  27  29
HETATM   29  C4  UNL     1      -0.063  52.514 -25.108  1.00  0.00     0.052 C 
HETATM   30  C2  UNL     1       0.504  51.769 -26.075  1.00  0.00    -0.084 C 
HETATM   31  C1  UNL     1      -0.331  51.214 -27.199  1.00  0.00     0.043 C 
HETATM   32  C3  UNL     1       1.966  51.412 -26.152  1.00  0.00     0.043 C 
ENDBRANCH  27  29
ENDBRANCH  26  27
ENDBRANCH  24  26
ENDBRANCH   1  24
TORSDOF 4
ENDMDL
