MODEL 1
REMARK minimizedAffinity -7.25614595
REMARK CNNscore 0.790804327
REMARK CNNaffinity 7.19179583
REMARK  4 active torsions:
REMARK  status: ('A' for Active; 'I' for Inactive)
REMARK    1  A    between atoms: C4_4  and  C5_5 
REMARK    2  A    between atoms: C5_5  and  C6_6 
REMARK    3  A    between atoms: C6_6  and  C7_7 
REMARK    4  A    between atoms: C7_7  and  C9_9 
ROOT
HETATM    1  C9  UNL     1       3.878  55.183  -8.395  1.00  0.00    -0.002 C 
HETATM    2  C10 UNL     1       2.983  56.208  -7.637  1.00  0.00     0.007 C 
HETATM    3  C11 UNL     1       1.526  55.950  -8.066  1.00  0.00     0.015 C 
HETATM    4  C12 UNL     1       1.564  54.599  -8.808  1.00  0.00    -0.013 C 
HETATM    5  C13 UNL     1       1.486  53.498  -7.706  1.00  0.00     0.021 C 
HETATM    6  C14 UNL     1       0.449  54.286  -9.796  1.00  0.00    -0.070 C 
HETATM    7  C15 UNL     1      -0.763  54.868  -9.761  1.00  0.00    -0.022 C 
HETATM    8  C16 UNL     1      -1.858  54.452 -10.696  1.00  0.00     0.034 C 
HETATM    9  C17 UNL     1      -1.806  52.925 -10.860  1.00  0.00     0.013 C 
HETATM   10  C18 UNL     1      -3.076  52.288 -11.506  1.00  0.00     0.018 C 
HETATM   11  C19 UNL     1      -4.192  52.154 -10.448  1.00  0.00     0.023 C 
HETATM   12  C20 UNL     1      -3.646  53.103 -12.681  1.00  0.00     0.023 C 
HETATM   13  C21 UNL     1      -2.751  50.862 -11.972  1.00  0.00     0.135 C 
HETATM   14  O1  UNL     1      -3.430  50.285 -12.824  1.00  0.00    -0.297 OA
HETATM   15  C22 UNL     1      -1.626  50.128 -11.272  1.00  0.00     0.080 C 
HETATM   16  C23 UNL     1      -0.335  50.938 -11.102  1.00  0.00     0.017 C 
HETATM   17  C24 UNL     1      -0.440  52.442 -11.471  1.00  0.00    -0.031 C 
HETATM   18  C25 UNL     1      -0.382  52.562 -13.019  1.00  0.00     0.016 C 
HETATM   19  C26 UNL     1       0.785  53.315 -10.931  1.00  0.00     0.024 C 
HETATM   20  C27 UNL     1       2.101  52.528 -10.717  1.00  0.00     0.010 C 
HETATM   21  C28 UNL     1       3.302  53.341 -10.182  1.00  0.00     0.011 C 
HETATM   22  C29 UNL     1       2.942  54.705  -9.555  1.00  0.00    -0.029 C 
HETATM   23  C30 UNL     1       2.952  55.788 -10.682  1.00  0.00     0.016 C 
ENDROOT
BRANCH   1  24
HETATM   24  C7  UNL     1       5.283  55.758  -8.727  1.00  0.00    -0.014 C 
HETATM   25  C8  UNL     1       6.244  54.703  -9.285  1.00  0.00     0.010 C 
BRANCH  24  26
HETATM   26  C6  UNL     1       5.929  56.523  -7.538  1.00  0.00     0.008 C 
BRANCH  26  27
HETATM   27  C5  UNL     1       6.382  55.720  -6.310  1.00  0.00     0.028 C 
BRANCH  27  28
HETATM   28  C4  UNL     1       7.860  55.731  -6.052  1.00  0.00    -0.025 C 
HETATM   29  C2  UNL     1       8.573  56.690  -5.430  1.00  0.00    -0.091 C 
HETATM   30  C1  UNL     1      10.058  56.539  -5.233  1.00  0.00     0.042 C 
HETATM   31  C3  UNL     1       8.003  57.973  -4.895  1.00  0.00     0.042 C 
ENDBRANCH  27  28
ENDBRANCH  26  27
ENDBRANCH  24  26
ENDBRANCH   1  24
TORSDOF 4
ENDMDL
MODEL 2
REMARK minimizedAffinity -7.20959044
REMARK CNNscore 0.697397113
REMARK CNNaffinity 6.99554443
REMARK  4 active torsions:
REMARK  status: ('A' for Active; 'I' for Inactive)
REMARK    1  A    between atoms: C4_4  and  C5_5 
REMARK    2  A    between atoms: C5_5  and  C6_6 
REMARK    3  A    between atoms: C6_6  and  C7_7 
REMARK    4  A    between atoms: C7_7  and  C9_9 
ROOT
HETATM    1  C9  UNL     1      -1.935  51.993 -10.517  1.00  0.00    -0.002 C 
HETATM    2  C10 UNL     1      -1.239  50.607 -10.381  1.00  0.00     0.007 C 
HETATM    3  C11 UNL     1       0.217  50.865  -9.949  1.00  0.00     0.015 C 
HETATM    4  C12 UNL     1       0.253  52.352  -9.542  1.00  0.00    -0.013 C 
HETATM    5  C13 UNL     1      -0.246  52.407  -8.065  1.00  0.00     0.021 C 
HETATM    6  C14 UNL     1       1.593  53.074  -9.562  1.00  0.00    -0.070 C 
HETATM    7  C15 UNL     1       2.779  52.446  -9.481  1.00  0.00    -0.022 C 
HETATM    8  C16 UNL     1       4.066  53.211  -9.404  1.00  0.00     0.034 C 
HETATM    9  C17 UNL     1       3.850  54.442  -8.512  1.00  0.00     0.013 C 
HETATM   10  C18 UNL     1       5.157  55.149  -8.036  1.00  0.00     0.018 C 
HETATM   11  C19 UNL     1       5.772  54.375  -6.851  1.00  0.00     0.023 C 
HETATM   12  C20 UNL     1       6.235  55.254  -9.131  1.00  0.00     0.023 C 
HETATM   13  C21 UNL     1       4.817  56.549  -7.507  1.00  0.00     0.135 C 
HETATM   14  O1  UNL     1       5.667  57.438  -7.422  1.00  0.00    -0.297 OA
HETATM   15  C22 UNL     1       3.417  56.784  -6.978  1.00  0.00     0.080 C 
HETATM   16  C23 UNL     1       2.292  56.272  -7.884  1.00  0.00     0.017 C 
HETATM   17  C24 UNL     1       2.748  55.406  -9.088  1.00  0.00    -0.031 C 
HETATM   18  C25 UNL     1       3.283  56.360 -10.191  1.00  0.00     0.016 C 
HETATM   19  C26 UNL     1       1.557  54.590  -9.772  1.00  0.00     0.024 C 
HETATM   20  C27 UNL     1       0.152  55.216  -9.594  1.00  0.00     0.010 C 
HETATM   21  C28 UNL     1      -1.025  54.444 -10.233  1.00  0.00     0.011 C 
HETATM   22  C29 UNL     1      -0.721  52.978 -10.605  1.00  0.00    -0.029 C 
HETATM   23  C30 UNL     1      -0.153  52.942 -12.060  1.00  0.00     0.016 C 
ENDROOT
BRANCH   1  24
HETATM   24  C7  UNL     1      -3.016  52.005 -11.634  1.00  0.00    -0.014 C 
HETATM   25  C8  UNL     1      -3.909  53.249 -11.589  1.00  0.00     0.010 C 
BRANCH  24  26
HETATM   26  C6  UNL     1      -3.872  50.708 -11.671  1.00  0.00     0.008 C 
BRANCH  26  27
HETATM   27  C5  UNL     1      -4.480  50.193 -10.358  1.00  0.00     0.028 C 
BRANCH  27  28
HETATM   28  C4  UNL     1      -5.980  50.192 -10.309  1.00  0.00    -0.025 C 
HETATM   29  C2  UNL     1      -6.811  49.244 -10.782  1.00  0.00    -0.091 C 
HETATM   30  C1  UNL     1      -8.303  49.385 -10.635  1.00  0.00     0.042 C 
HETATM   31  C3  UNL     1      -6.373  47.995 -11.494  1.00  0.00     0.042 C 
ENDBRANCH  27  28
ENDBRANCH  26  27
ENDBRANCH  24  26
ENDBRANCH   1  24
TORSDOF 4
ENDMDL
MODEL 3
REMARK minimizedAffinity -7.51549864
REMARK CNNscore 0.517760217
REMARK CNNaffinity 6.5982213
REMARK  4 active torsions:
REMARK  status: ('A' for Active; 'I' for Inactive)
REMARK    1  A    between atoms: C4_4  and  C5_5 
REMARK    2  A    between atoms: C5_5  and  C6_6 
REMARK    3  A    between atoms: C6_6  and  C7_7 
REMARK    4  A    between atoms: C7_7  and  C9_9 
ROOT
HETATM    1  C9  UNL     1       5.711  55.974  -8.185  1.00  0.00    -0.002 C 
HETATM    2  C10 UNL     1       6.404  54.948  -9.130  1.00  0.00     0.007 C 
HETATM    3  C11 UNL     1       5.296  54.084  -9.761  1.00  0.00     0.015 C 
HETATM    4  C12 UNL     1       3.980  54.815  -9.422  1.00  0.00    -0.013 C 
HETATM    5  C13 UNL     1       3.807  55.919 -10.510  1.00  0.00     0.021 C 
HETATM    6  C14 UNL     1       2.687  54.013  -9.425  1.00  0.00    -0.070 C 
HETATM    7  C15 UNL     1       2.525  52.861 -10.100  1.00  0.00    -0.022 C 
HETATM    8  C16 UNL     1       1.200  52.163 -10.150  1.00  0.00     0.034 C 
HETATM    9  C17 UNL     1       0.094  53.222 -10.274  1.00  0.00     0.013 C 
HETATM   10  C18 UNL     1      -1.303  52.669 -10.693  1.00  0.00     0.018 C 
HETATM   11  C19 UNL     1      -1.338  52.429 -12.217  1.00  0.00     0.023 C 
HETATM   12  C20 UNL     1      -1.673  51.342 -10.006  1.00  0.00     0.023 C 
HETATM   13  C21 UNL     1      -2.379  53.723 -10.398  1.00  0.00     0.135 C 
HETATM   14  O1  UNL     1      -3.569  53.425 -10.281  1.00  0.00    -0.297 OA
HETATM   15  C22 UNL     1      -1.954  55.177 -10.363  1.00  0.00     0.080 C 
HETATM   16  C23 UNL     1      -0.693  55.460  -9.538  1.00  0.00     0.017 C 
HETATM   17  C24 UNL     1       0.076  54.205  -9.046  1.00  0.00    -0.031 C 
HETATM   18  C25 UNL     1      -0.675  53.634  -7.812  1.00  0.00     0.016 C 
HETATM   19  C26 UNL     1       1.554  54.526  -8.532  1.00  0.00     0.024 C 
HETATM   20  C27 UNL     1       1.765  55.972  -8.018  1.00  0.00     0.010 C 
HETATM   21  C28 UNL     1       3.188  56.320  -7.525  1.00  0.00     0.011 C 
HETATM   22  C29 UNL     1       4.294  55.342  -7.975  1.00  0.00    -0.029 C 
HETATM   23  C30 UNL     1       4.409  54.200  -6.914  1.00  0.00     0.016 C 
ENDROOT
BRANCH   1  24
HETATM   24  C7  UNL     1       6.586  56.325  -6.950  1.00  0.00    -0.014 C 
HETATM   25  C8  UNL     1       7.195  55.090  -6.277  1.00  0.00     0.010 C 
BRANCH  24  26
HETATM   26  C6  UNL     1       5.851  57.217  -5.911  1.00  0.00     0.008 C 
BRANCH  26  27
HETATM   27  C5  UNL     1       6.621  58.381  -5.270  1.00  0.00     0.028 C 
BRANCH  27  28
HETATM   28  C4  UNL     1       8.096  58.154  -5.105  1.00  0.00    -0.025 C 
HETATM   29  C2  UNL     1       9.053  59.089  -4.947  1.00  0.00    -0.091 C 
HETATM   30  C1  UNL     1      10.495  58.692  -4.775  1.00  0.00     0.042 C 
HETATM   31  C3  UNL     1       8.812  60.572  -4.940  1.00  0.00     0.042 C 
ENDBRANCH  27  28
ENDBRANCH  26  27
ENDBRANCH  24  26
ENDBRANCH   1  24
TORSDOF 4
ENDMDL
MODEL 4
REMARK minimizedAffinity -7.34703636
REMARK CNNscore 0.445786029
REMARK CNNaffinity 6.51747751
REMARK  4 active torsions:
REMARK  status: ('A' for Active; 'I' for Inactive)
REMARK    1  A    between atoms: C4_4  and  C5_5 
REMARK    2  A    between atoms: C5_5  and  C6_6 
REMARK    3  A    between atoms: C6_6  and  C7_7 
REMARK    4  A    between atoms: C7_7  and  C9_9 
ROOT
HETATM    1  C9  UNL     1       5.321  56.126  -8.315  1.00  0.00    -0.002 C 
HETATM    2  C10 UNL     1       6.066  55.168  -9.290  1.00  0.00     0.007 C 
HETATM    3  C11 UNL     1       5.007  54.256  -9.938  1.00  0.00     0.015 C 
HETATM    4  C12 UNL     1       3.653  54.898  -9.572  1.00  0.00    -0.013 C 
HETATM    5  C13 UNL     1       3.408  56.017 -10.631  1.00  0.00     0.021 C 
HETATM    6  C14 UNL     1       2.410  54.021  -9.590  1.00  0.00    -0.070 C 
HETATM    7  C15 UNL     1       2.312  52.880 -10.293  1.00  0.00    -0.022 C 
HETATM    8  C16 UNL     1       1.030  52.105 -10.355  1.00  0.00     0.034 C 
HETATM    9  C17 UNL     1      -0.137  53.100 -10.445  1.00  0.00     0.013 C 
HETATM   10  C18 UNL     1      -1.502  52.476 -10.871  1.00  0.00     0.018 C 
HETATM   11  C19 UNL     1      -1.533  52.273 -12.401  1.00  0.00     0.023 C 
HETATM   12  C20 UNL     1      -1.789  51.112 -10.216  1.00  0.00     0.023 C 
HETATM   13  C21 UNL     1      -2.637  53.456 -10.543  1.00  0.00     0.135 C 
HETATM   14  O1  UNL     1      -3.807  53.085 -10.428  1.00  0.00    -0.297 OA
HETATM   15  C22 UNL     1      -2.298  54.932 -10.473  1.00  0.00     0.080 C 
HETATM   16  C23 UNL     1      -1.051  55.268  -9.647  1.00  0.00     0.017 C 
HETATM   17  C24 UNL     1      -0.205  54.048  -9.192  1.00  0.00    -0.031 C 
HETATM   18  C25 UNL     1      -0.913  53.403  -7.969  1.00  0.00     0.016 C 
HETATM   19  C26 UNL     1       1.254  54.444  -8.677  1.00  0.00     0.024 C 
HETATM   20  C27 UNL     1       1.383  55.886  -8.128  1.00  0.00     0.010 C 
HETATM   21  C28 UNL     1       2.787  56.305  -7.634  1.00  0.00     0.011 C 
HETATM   22  C29 UNL     1       3.945  55.406  -8.114  1.00  0.00    -0.029 C 
HETATM   23  C30 UNL     1       4.135  54.246  -7.084  1.00  0.00     0.016 C 
ENDROOT
BRANCH   1  24
HETATM   24  C7  UNL     1       6.182  56.497  -7.076  1.00  0.00    -0.014 C 
HETATM   25  C8  UNL     1       6.681  55.270  -6.305  1.00  0.00     0.010 C 
BRANCH  24  26
HETATM   26  C6  UNL     1       5.482  57.505  -6.123  1.00  0.00     0.008 C 
BRANCH  26  27
HETATM   27  C5  UNL     1       6.315  58.162  -5.012  1.00  0.00     0.028 C 
BRANCH  27  28
HETATM   28  C4  UNL     1       5.593  59.201  -4.204  1.00  0.00    -0.025 C 
HETATM   29  C2  UNL     1       4.265  59.421  -4.158  1.00  0.00    -0.091 C 
HETATM   30  C1  UNL     1       3.694  60.499  -3.276  1.00  0.00     0.042 C 
HETATM   31  C3  UNL     1       3.241  58.664  -4.956  1.00  0.00     0.042 C 
ENDBRANCH  27  28
ENDBRANCH  26  27
ENDBRANCH  24  26
ENDBRANCH   1  24
TORSDOF 4
ENDMDL
MODEL 5
REMARK minimizedAffinity -7.70767546
REMARK CNNscore 0.442887664
REMARK CNNaffinity 5.80041361
REMARK  4 active torsions:
REMARK  status: ('A' for Active; 'I' for Inactive)
REMARK    1  A    between atoms: C4_4  and  C5_5 
REMARK    2  A    between atoms: C5_5  and  C6_6 
REMARK    3  A    between atoms: C6_6  and  C7_7 
REMARK    4  A    between atoms: C7_7  and  C9_9 
ROOT
HETATM    1  C9  UNL     1      -7.267  47.924 -30.288  1.00  0.00    -0.002 C 
HETATM    2  C10 UNL     1      -7.679  47.354 -31.678  1.00  0.00     0.007 C 
HETATM    3  C11 UNL     1      -9.006  46.595 -31.487  1.00  0.00     0.015 C 
HETATM    4  C12 UNL     1      -9.496  46.997 -30.081  1.00  0.00    -0.013 C 
HETATM    5  C13 UNL     1     -10.242  48.356 -30.257  1.00  0.00     0.021 C 
HETATM    6  C14 UNL     1     -10.468  46.072 -29.363  1.00  0.00    -0.070 C 
HETATM    7  C15 UNL     1     -11.256  45.184 -29.993  1.00  0.00    -0.022 C 
HETATM    8  C16 UNL     1     -12.267  44.366 -29.248  1.00  0.00     0.034 C 
HETATM    9  C17 UNL     1     -12.912  45.252 -28.170  1.00  0.00     0.013 C 
HETATM   10  C18 UNL     1     -14.220  44.679 -27.544  1.00  0.00     0.018 C 
HETATM   11  C19 UNL     1     -15.412  44.933 -28.491  1.00  0.00     0.023 C 
HETATM   12  C20 UNL     1     -14.162  43.165 -27.268  1.00  0.00     0.023 C 
HETATM   13  C21 UNL     1     -14.536  45.431 -26.243  1.00  0.00     0.135 C 
HETATM   14  O1  UNL     1     -15.272  44.955 -25.377  1.00  0.00    -0.297 OA
HETATM   15  C22 UNL     1     -14.003  46.842 -26.095  1.00  0.00     0.080 C 
HETATM   16  C23 UNL     1     -12.525  47.014 -26.463  1.00  0.00     0.017 C 
HETATM   17  C24 UNL     1     -11.857  45.783 -27.131  1.00  0.00    -0.031 C 
HETATM   18  C25 UNL     1     -11.522  44.754 -26.016  1.00  0.00     0.016 C 
HETATM   19  C26 UNL     1     -10.462  46.119 -27.832  1.00  0.00     0.024 C 
HETATM   20  C27 UNL     1      -9.715  47.341 -27.244  1.00  0.00     0.010 C 
HETATM   21  C28 UNL     1      -8.367  47.702 -27.909  1.00  0.00     0.011 C 
HETATM   22  C29 UNL     1      -8.135  47.074 -29.300  1.00  0.00    -0.029 C 
HETATM   23  C30 UNL     1      -7.453  45.681 -29.109  1.00  0.00     0.016 C 
ENDROOT
BRANCH   1  24
HETATM   24  C7  UNL     1      -5.725  47.979 -30.106  1.00  0.00    -0.014 C 
HETATM   25  C8  UNL     1      -4.971  47.111 -31.118  1.00  0.00     0.010 C 
BRANCH  24  26
HETATM   26  C6  UNL     1      -5.269  47.662 -28.654  1.00  0.00     0.008 C 
BRANCH  26  27
HETATM   27  C5  UNL     1      -4.296  48.630 -27.965  1.00  0.00     0.028 C 
BRANCH  27  28
HETATM   28  C4  UNL     1      -4.111  48.406 -26.492  1.00  0.00    -0.025 C 
HETATM   29  C2  UNL     1      -3.151  48.925 -25.702  1.00  0.00    -0.091 C 
HETATM   30  C1  UNL     1      -3.116  48.614 -24.229  1.00  0.00     0.042 C 
HETATM   31  C3  UNL     1      -2.041  49.821 -26.174  1.00  0.00     0.042 C 
ENDBRANCH  27  28
ENDBRANCH  26  27
ENDBRANCH  24  26
ENDBRANCH   1  24
TORSDOF 4
ENDMDL
MODEL 6
REMARK minimizedAffinity -7.24813652
REMARK CNNscore 0.40750742
REMARK CNNaffinity 5.79695129
REMARK  4 active torsions:
REMARK  status: ('A' for Active; 'I' for Inactive)
REMARK    1  A    between atoms: C4_4  and  C5_5 
REMARK    2  A    between atoms: C5_5  and  C6_6 
REMARK    3  A    between atoms: C6_6  and  C7_7 
REMARK    4  A    between atoms: C7_7  and  C9_9 
ROOT
HETATM    1  C9  UNL     1     -14.114  45.589 -26.832  1.00  0.00    -0.002 C 
HETATM    2  C10 UNL     1     -13.343  45.115 -25.565  1.00  0.00     0.007 C 
HETATM    3  C11 UNL     1     -11.838  45.240 -25.870  1.00  0.00     0.015 C 
HETATM    4  C12 UNL     1     -11.764  46.067 -27.170  1.00  0.00    -0.013 C 
HETATM    5  C13 UNL     1     -11.849  47.562 -26.734  1.00  0.00     0.021 C 
HETATM    6  C14 UNL     1     -10.514  45.949 -28.030  1.00  0.00    -0.070 C 
HETATM    7  C15 UNL     1      -9.322  45.541 -27.561  1.00  0.00    -0.022 C 
HETATM    8  C16 UNL     1      -8.099  45.538 -28.429  1.00  0.00     0.034 C 
HETATM    9  C17 UNL     1      -8.125  46.794 -29.313  1.00  0.00     0.013 C 
HETATM   10  C18 UNL     1      -6.773  47.134 -30.013  1.00  0.00     0.018 C 
HETATM   11  C19 UNL     1      -5.826  47.834 -29.016  1.00  0.00     0.023 C 
HETATM   12  C20 UNL     1      -6.035  45.900 -30.565  1.00  0.00     0.023 C 
HETATM   13  C21 UNL     1      -7.023  48.138 -31.147  1.00  0.00     0.135 C 
HETATM   14  O1  UNL     1      -6.224  48.286 -32.075  1.00  0.00    -0.297 OA
HETATM   15  C22 UNL     1      -8.239  49.036 -31.041  1.00  0.00     0.080 C 
HETATM   16  C23 UNL     1      -9.541  48.316 -30.673  1.00  0.00     0.017 C 
HETATM   17  C24 UNL     1      -9.385  46.829 -30.254  1.00  0.00    -0.031 C 
HETATM   18  C25 UNL     1      -9.213  45.983 -31.545  1.00  0.00     0.016 C 
HETATM   19  C26 UNL     1     -10.677  46.235 -29.526  1.00  0.00     0.024 C 
HETATM   20  C27 UNL     1     -12.009  46.934 -29.891  1.00  0.00     0.010 C 
HETATM   21  C28 UNL     1     -13.277  46.391 -29.192  1.00  0.00     0.011 C 
HETATM   22  C29 UNL     1     -13.016  45.521 -27.946  1.00  0.00    -0.029 C 
HETATM   23  C30 UNL     1     -12.859  44.034 -28.402  1.00  0.00     0.016 C 
ENDROOT
BRANCH   1  24
HETATM   24  C7  UNL     1     -15.455  44.828 -27.026  1.00  0.00    -0.014 C 
HETATM   25  C8  UNL     1     -15.884  44.737 -28.494  1.00  0.00     0.010 C 
BRANCH  24  26
HETATM   26  C6  UNL     1     -16.608  45.383 -26.144  1.00  0.00     0.008 C 
BRANCH  26  27
HETATM   27  C5  UNL     1     -18.056  45.170 -26.612  1.00  0.00     0.028 C 
BRANCH  27  28
HETATM   28  C4  UNL     1     -18.996  44.655 -25.562  1.00  0.00    -0.025 C 
HETATM   29  C2  UNL     1     -19.505  45.337 -24.518  1.00  0.00    -0.091 C 
HETATM   30  C1  UNL     1     -20.458  44.675 -23.558  1.00  0.00     0.042 C 
HETATM   31  C3  UNL     1     -19.189  46.769 -24.191  1.00  0.00     0.042 C 
ENDBRANCH  27  28
ENDBRANCH  26  27
ENDBRANCH  24  26
ENDBRANCH   1  24
TORSDOF 4
ENDMDL
MODEL 7
REMARK minimizedAffinity -7.73388577
REMARK CNNscore 0.394003838
REMARK CNNaffinity 5.67152452
REMARK  4 active torsions:
REMARK  status: ('A' for Active; 'I' for Inactive)
REMARK    1  A    between atoms: C4_4  and  C5_5 
REMARK    2  A    between atoms: C5_5  and  C6_6 
REMARK    3  A    between atoms: C6_6  and  C7_7 
REMARK    4  A    between atoms: C7_7  and  C9_9 
ROOT
HETATM    1  C9  UNL     1       6.198  66.227 -35.232  1.00  0.00    -0.002 C 
HETATM    2  C10 UNL     1       7.266  66.970 -36.088  1.00  0.00     0.007 C 
HETATM    3  C11 UNL     1       6.539  67.581 -37.301  1.00  0.00     0.015 C 
HETATM    4  C12 UNL     1       5.038  67.454 -36.969  1.00  0.00    -0.013 C 
HETATM    5  C13 UNL     1       4.688  68.685 -36.077  1.00  0.00     0.021 C 
HETATM    6  C14 UNL     1       4.041  67.468 -38.118  1.00  0.00    -0.070 C 
HETATM    7  C15 UNL     1       4.301  68.003 -39.324  1.00  0.00    -0.022 C 
HETATM    8  C16 UNL     1       3.250  68.080 -40.390  1.00  0.00     0.034 C 
HETATM    9  C17 UNL     1       1.909  68.433 -39.728  1.00  0.00     0.013 C 
HETATM   10  C18 UNL     1       0.792  68.900 -40.712  1.00  0.00     0.018 C 
HETATM   11  C19 UNL     1       1.013  70.378 -41.096  1.00  0.00     0.023 C 
HETATM   12  C20 UNL     1       0.738  68.084 -42.017  1.00  0.00     0.023 C 
HETATM   13  C21 UNL     1      -0.570  68.837 -40.006  1.00  0.00     0.135 C 
HETATM   14  O1  UNL     1      -1.629  68.788 -40.635  1.00  0.00    -0.297 OA
HETATM   15  C22 UNL     1      -0.589  68.950 -38.495  1.00  0.00     0.080 C 
HETATM   16  C23 UNL     1       0.427  68.060 -37.770  1.00  0.00     0.017 C 
HETATM   17  C24 UNL     1       1.460  67.347 -38.683  1.00  0.00    -0.031 C 
HETATM   18  C25 UNL     1       0.760  66.121 -39.332  1.00  0.00     0.016 C 
HETATM   19  C26 UNL     1       2.708  66.750 -37.885  1.00  0.00     0.024 C 
HETATM   20  C27 UNL     1       2.430  66.408 -36.401  1.00  0.00     0.010 C 
HETATM   21  C28 UNL     1       3.622  65.841 -35.597  1.00  0.00     0.011 C 
HETATM   22  C29 UNL     1       5.009  66.063 -36.236  1.00  0.00    -0.029 C 
HETATM   23  C30 UNL     1       5.318  64.860 -37.184  1.00  0.00     0.016 C 
ENDROOT
BRANCH   1  24
HETATM   24  C7  UNL     1       6.779  64.975 -34.518  1.00  0.00    -0.014 C 
HETATM   25  C8  UNL     1       7.598  65.323 -33.270  1.00  0.00     0.010 C 
BRANCH  24  26
HETATM   26  C6  UNL     1       7.584  64.046 -35.469  1.00  0.00     0.008 C 
BRANCH  26  27
HETATM   27  C5  UNL     1       8.572  63.045 -34.851  1.00  0.00     0.028 C 
BRANCH  27  28
HETATM   28  C4  UNL     1      10.004  63.230 -35.258  1.00  0.00    -0.025 C 
HETATM   29  C2  UNL     1      11.089  63.210 -34.459  1.00  0.00    -0.091 C 
HETATM   30  C1  UNL     1      12.470  63.395 -35.031  1.00  0.00     0.042 C 
HETATM   31  C3  UNL     1      11.054  63.025 -32.968  1.00  0.00     0.042 C 
ENDBRANCH  27  28
ENDBRANCH  26  27
ENDBRANCH  24  26
ENDBRANCH   1  24
TORSDOF 4
ENDMDL
MODEL 8
REMARK minimizedAffinity -7.51381969
REMARK CNNscore 0.377699465
REMARK CNNaffinity 5.87155581
REMARK  4 active torsions:
REMARK  status: ('A' for Active; 'I' for Inactive)
REMARK    1  A    between atoms: C4_4  and  C5_5 
REMARK    2  A    between atoms: C5_5  and  C6_6 
REMARK    3  A    between atoms: C6_6  and  C7_7 
REMARK    4  A    between atoms: C7_7  and  C9_9 
ROOT
HETATM    1  C9  UNL     1     -12.839  45.726 -27.440  1.00  0.00    -0.002 C 
HETATM    2  C10 UNL     1     -13.096  44.445 -28.287  1.00  0.00     0.007 C 
HETATM    3  C11 UNL     1     -11.999  44.380 -29.366  1.00  0.00     0.015 C 
HETATM    4  C12 UNL     1     -10.958  45.434 -28.938  1.00  0.00    -0.013 C 
HETATM    5  C13 UNL     1     -10.038  44.732 -27.892  1.00  0.00     0.021 C 
HETATM    6  C14 UNL     1     -10.029  46.005 -30.000  1.00  0.00    -0.070 C 
HETATM    7  C15 UNL     1      -9.744  45.379 -31.156  1.00  0.00    -0.022 C 
HETATM    8  C16 UNL     1      -8.746  45.939 -32.123  1.00  0.00     0.034 C 
HETATM    9  C17 UNL     1      -7.574  46.532 -31.327  1.00  0.00     0.013 C 
HETATM   10  C18 UNL     1      -6.293  46.834 -32.166  1.00  0.00     0.018 C 
HETATM   11  C19 UNL     1      -5.499  45.531 -32.399  1.00  0.00     0.023 C 
HETATM   12  C20 UNL     1      -6.590  47.449 -33.545  1.00  0.00     0.023 C 
HETATM   13  C21 UNL     1      -5.369  47.765 -31.370  1.00  0.00     0.135 C 
HETATM   14  O1  UNL     1      -4.499  48.445 -31.919  1.00  0.00    -0.297 OA
HETATM   15  C22 UNL     1      -5.478  47.748 -29.859  1.00  0.00     0.080 C 
HETATM   16  C23 UNL     1      -6.909  47.830 -29.316  1.00  0.00     0.017 C 
HETATM   17  C24 UNL     1      -8.033  47.699 -30.378  1.00  0.00    -0.031 C 
HETATM   18  C25 UNL     1      -8.168  49.066 -31.104  1.00  0.00     0.016 C 
HETATM   19  C26 UNL     1      -9.473  47.409 -29.748  1.00  0.00     0.024 C 
HETATM   20  C27 UNL     1      -9.660  47.907 -28.294  1.00  0.00     0.010 C 
HETATM   21  C28 UNL     1     -11.038  47.630 -27.650  1.00  0.00     0.011 C 
HETATM   22  C29 UNL     1     -11.891  46.561 -28.364  1.00  0.00    -0.029 C 
HETATM   23  C30 UNL     1     -12.754  47.265 -29.460  1.00  0.00     0.016 C 
ENDROOT
BRANCH   1  24
HETATM   24  C7  UNL     1     -14.157  46.361 -26.915  1.00  0.00    -0.014 C 
HETATM   25  C8  UNL     1     -14.118  46.664 -25.414  1.00  0.00     0.010 C 
BRANCH  24  26
HETATM   26  C6  UNL     1     -15.423  45.539 -27.284  1.00  0.00     0.008 C 
BRANCH  26  27
HETATM   27  C5  UNL     1     -16.185  44.823 -26.158  1.00  0.00     0.028 C 
BRANCH  27  28
HETATM   28  C4  UNL     1     -17.154  45.682 -25.399  1.00  0.00    -0.025 C 
HETATM   29  C2  UNL     1     -18.498  45.673 -25.490  1.00  0.00    -0.091 C 
HETATM   30  C1  UNL     1     -19.333  46.592 -24.639  1.00  0.00     0.042 C 
HETATM   31  C3  UNL     1     -19.289  44.796 -26.420  1.00  0.00     0.042 C 
ENDBRANCH  27  28
ENDBRANCH  26  27
ENDBRANCH  24  26
ENDBRANCH   1  24
TORSDOF 4
ENDMDL
MODEL 9
REMARK minimizedAffinity -7.19900084
REMARK CNNscore 0.353022575
REMARK CNNaffinity 5.21074247
REMARK  4 active torsions:
REMARK  status: ('A' for Active; 'I' for Inactive)
REMARK    1  A    between atoms: C4_4  and  C5_5 
REMARK    2  A    between atoms: C5_5  and  C6_6 
REMARK    3  A    between atoms: C6_6  and  C7_7 
REMARK    4  A    between atoms: C7_7  and  C9_9 
ROOT
HETATM    1  C9  UNL     1       3.348  66.535 -37.284  1.00  0.00    -0.002 C 
HETATM    2  C10 UNL     1       2.274  66.320 -36.177  1.00  0.00     0.007 C 
HETATM    3  C11 UNL     1       1.009  67.084 -36.610  1.00  0.00     0.015 C 
HETATM    4  C12 UNL     1       1.258  67.462 -38.085  1.00  0.00    -0.013 C 
HETATM    5  C13 UNL     1       0.850  66.213 -38.925  1.00  0.00     0.021 C 
HETATM    6  C14 UNL     1       0.485  68.635 -38.670  1.00  0.00    -0.070 C 
HETATM    7  C15 UNL     1      -0.679  69.085 -38.170  1.00  0.00    -0.022 C 
HETATM    8  C16 UNL     1      -1.450  70.180 -38.844  1.00  0.00     0.034 C 
HETATM    9  C17 UNL     1      -1.359  69.976 -40.364  1.00  0.00     0.013 C 
HETATM   10  C18 UNL     1      -2.383  70.803 -41.201  1.00  0.00     0.018 C 
HETATM   11  C19 UNL     1      -3.764  70.114 -41.173  1.00  0.00     0.023 C 
HETATM   12  C20 UNL     1      -2.574  72.245 -40.695  1.00  0.00     0.023 C 
HETATM   13  C21 UNL     1      -1.943  70.824 -42.671  1.00  0.00     0.135 C 
HETATM   14  O1  UNL     1      -2.341  71.685 -43.459  1.00  0.00    -0.297 OA
HETATM   15  C22 UNL     1      -1.080  69.681 -43.168  1.00  0.00     0.080 C 
HETATM   16  C23 UNL     1       0.106  69.330 -42.263  1.00  0.00     0.017 C 
HETATM   17  C24 UNL     1       0.124  70.039 -40.882  1.00  0.00    -0.031 C 
HETATM   18  C25 UNL     1       0.640  71.489 -41.095  1.00  0.00     0.016 C 
HETATM   19  C26 UNL     1       1.138  69.376 -39.841  1.00  0.00     0.024 C 
HETATM   20  C27 UNL     1       2.327  68.618 -40.480  1.00  0.00     0.010 C 
HETATM   21  C28 UNL     1       3.319  67.953 -39.499  1.00  0.00     0.011 C 
HETATM   22  C29 UNL     1       2.797  67.780 -38.057  1.00  0.00    -0.029 C 
HETATM   23  C30 UNL     1       3.147  69.068 -37.244  1.00  0.00     0.016 C 
ENDROOT
BRANCH   1  24
HETATM   24  C7  UNL     1       4.792  66.565 -36.709  1.00  0.00    -0.014 C 
HETATM   25  C8  UNL     1       5.756  65.646 -37.466  1.00  0.00     0.010 C 
BRANCH  24  26
HETATM   26  C6  UNL     1       4.848  66.291 -35.180  1.00  0.00     0.008 C 
BRANCH  26  27
HETATM   27  C5  UNL     1       4.273  64.968 -34.652  1.00  0.00     0.028 C 
BRANCH  27  28
HETATM   28  C4  UNL     1       5.114  63.755 -34.923  1.00  0.00    -0.025 C 
HETATM   29  C2  UNL     1       5.005  62.541 -34.348  1.00  0.00    -0.091 C 
HETATM   30  C1  UNL     1       5.922  61.415 -34.748  1.00  0.00     0.042 C 
HETATM   31  C3  UNL     1       4.013  62.184 -33.278  1.00  0.00     0.042 C 
ENDBRANCH  27  28
ENDBRANCH  26  27
ENDBRANCH  24  26
ENDBRANCH   1  24
TORSDOF 4
ENDMDL
