MODEL 1
REMARK minimizedAffinity -8.51321316
REMARK CNNscore 0.574454129
REMARK CNNaffinity 7.19878531
REMARK  12 active torsions:
REMARK  status: ('A' for Active; 'I' for Inactive)
REMARK    1  A    between atoms: O1_2  and  C2_3 
REMARK    2  A    between atoms: C2_3  and  C3_4 
REMARK    3  A    between atoms: C2_3  and  C7_8 
REMARK    4  A    between atoms: C7_8  and  C8_9 
REMARK    5  A    between atoms: C8_9  and  C10_11 
REMARK    6  A    between atoms: C28_30  and  O3_31 
REMARK    7  A    between atoms: O3_31  and  C29_32 
REMARK    8  A    between atoms: C30_34  and  C31_35 
REMARK    9  A    between atoms: C31_35  and  O5_36 
REMARK   10  A    between atoms: C32_37  and  O6_38 
REMARK   11  A    between atoms: C33_39  and  O7_40 
REMARK   12  A    between atoms: C34_41  and  O8_42 
ROOT
HETATM    1  C10 UNL     1      -0.175  13.351  19.710  1.00  0.00    -0.002 C 
HETATM    2  C11 UNL     1      -0.328  14.638  18.833  1.00  0.00     0.006 C 
HETATM    3  C12 UNL     1      -1.149  14.257  17.582  1.00  0.00     0.011 C 
HETATM    4  C13 UNL     1      -1.790  12.907  17.948  1.00  0.00    -0.029 C 
HETATM    5  C14 UNL     1      -3.019  13.284  18.860  1.00  0.00     0.016 C 
HETATM    6  C15 UNL     1      -2.353  12.011  16.789  1.00  0.00     0.028 C 
HETATM    7  C16 UNL     1      -1.895  12.217  15.372  1.00  0.00    -0.021 C 
HETATM    8  C17 UNL     1      -1.936  11.207  14.484  1.00  0.00     0.008 C 
HETATM    9  C18 UNL     1      -2.250   9.765  14.877  1.00  0.00     0.092 C 
HETATM   10  O2  UNL     1      -3.676   9.744  15.167  1.00  0.00    -0.374 OA
HETATM   11  C19 UNL     1      -3.854  10.009  16.593  1.00  0.00     0.179 C 
HETATM   12  C20 UNL     1      -2.460  10.473  17.146  1.00  0.00    -0.004 C 
HETATM   13  C21 UNL     1      -2.291  10.186  18.645  1.00  0.00     0.014 C 
HETATM   14  C22 UNL     1      -1.122  10.904  19.358  1.00  0.00     0.011 C 
HETATM   15  C23 UNL     1      -0.618  12.218  18.715  1.00  0.00    -0.032 C 
HETATM   16  C24 UNL     1       0.596  11.932  17.789  1.00  0.00     0.016 C 
HETATM   17  C25 UNL     1      -1.684   9.460  16.271  1.00  0.00     0.036 C 
HETATM   18  C26 UNL     1      -0.195   9.196  16.218  1.00  0.00     0.011 C 
HETATM   19  C27 UNL     1       0.043   7.878  15.456  1.00  0.00     0.033 C 
HETATM   20  C28 UNL     1      -1.137   7.456  14.541  1.00  0.00     0.136 C 
HETATM   21  C35 UNL     1      -1.794   8.677  13.806  1.00  0.00     0.014 C 
HETATM   22  C36 UNL     1      -3.011   8.176  12.995  1.00  0.00     0.021 C 
HETATM   23  C37 UNL     1      -0.767   9.213  12.768  1.00  0.00     0.021 C 
ENDROOT
BRANCH  20  24
HETATM   24  O3  UNL     1      -0.648   6.513  13.579  1.00  0.00    -0.352 OA
BRANCH  24  25
HETATM   25  C29 UNL     1       0.232   7.063  12.596  1.00  0.00     0.292 C 
HETATM   26  O4  UNL     1      -0.195   6.628  11.304  1.00  0.00    -0.348 OA
HETATM   27  C30 UNL     1       0.236   5.317  10.906  1.00  0.00     0.179 C 
HETATM   28  C32 UNL     1       1.776   5.181  10.909  1.00  0.00     0.180 C 
HETATM   29  C33 UNL     1       2.468   6.299  11.697  1.00  0.00     0.183 C 
HETATM   30  C34 UNL     1       1.683   6.662  12.950  1.00  0.00     0.204 C 
BRANCH  27  31
HETATM   31  C31 UNL     1      -0.438   4.215  11.747  1.00  0.00     0.198 C 
BRANCH  31  32
HETATM   32  O5  UNL     1       0.149   2.950  11.460  1.00  0.00    -0.398 OA
HETATM   33  H48 UNL     1       0.071   2.848  10.489  1.00  0.00     0.209 HD
ENDBRANCH  31  32
ENDBRANCH  27  31
BRANCH  28  34
HETATM   34  O6  UNL     1       2.277   5.236   9.559  1.00  0.00    -0.390 OA
HETATM   35  H50 UNL     1       3.203   4.924   9.576  1.00  0.00     0.210 HD
ENDBRANCH  28  34
BRANCH  29  36
HETATM   36  O7  UNL     1       2.624   7.490  10.894  1.00  0.00    -0.390 OA
HETATM   37  H52 UNL     1       2.493   7.207   9.964  1.00  0.00     0.210 HD
ENDBRANCH  29  36
BRANCH  30  38
HETATM   38  O8  UNL     1       2.350   7.742  13.621  1.00  0.00    -0.388 OA
HETATM   39  H54 UNL     1       2.646   8.344  12.906  1.00  0.00     0.210 HD
ENDBRANCH  30  38
ENDBRANCH  24  25
ENDBRANCH  20  24
BRANCH   1  40
HETATM   40  C8  UNL     1       1.223  13.273  20.410  1.00  0.00    -0.011 C 
HETATM   41  C9  UNL     1       1.769  14.666  20.736  1.00  0.00     0.010 C 
BRANCH  40  42
HETATM   42  C7  UNL     1       2.230  12.485  19.517  1.00  0.00     0.040 C 
BRANCH  42  43
HETATM   43  C2  UNL     1       3.471  11.884  20.226  1.00  0.00     0.144 C 
BRANCH  43  44
HETATM   44  O1  UNL     1       4.237  11.117  19.300  1.00  0.00    -0.387 OA
HETATM   45  C1  UNL     1       5.537  11.644  19.071  1.00  0.00     0.202 C 
ENDBRANCH  43  44
BRANCH  43  46
HETATM   46  C3  UNL     1       3.113  11.063  21.448  1.00  0.00     0.007 C 
HETATM   47  C4  UNL     1       3.821  10.814  22.570  1.00  0.00    -0.089 C 
HETATM   48  C5  UNL     1       5.165  11.409  22.888  1.00  0.00     0.042 C 
HETATM   49  C6  UNL     1       3.286   9.886  23.627  1.00  0.00     0.042 C 
ENDBRANCH  43  46
ENDBRANCH  42  43
ENDBRANCH  40  42
ENDBRANCH   1  40
TORSDOF 12
ENDMDL
MODEL 2
REMARK minimizedAffinity -7.46130991
REMARK CNNscore 0.38501218
REMARK CNNaffinity 6.86909676
REMARK  12 active torsions:
REMARK  status: ('A' for Active; 'I' for Inactive)
REMARK    1  A    between atoms: O1_2  and  C2_3 
REMARK    2  A    between atoms: C2_3  and  C3_4 
REMARK    3  A    between atoms: C2_3  and  C7_8 
REMARK    4  A    between atoms: C7_8  and  C8_9 
REMARK    5  A    between atoms: C8_9  and  C10_11 
REMARK    6  A    between atoms: C28_30  and  O3_31 
REMARK    7  A    between atoms: O3_31  and  C29_32 
REMARK    8  A    between atoms: C30_34  and  C31_35 
REMARK    9  A    between atoms: C31_35  and  O5_36 
REMARK   10  A    between atoms: C32_37  and  O6_38 
REMARK   11  A    between atoms: C33_39  and  O7_40 
REMARK   12  A    between atoms: C34_41  and  O8_42 
ROOT
HETATM    1  C10 UNL     1      -0.321   6.720  11.505  1.00  0.00    -0.002 C 
HETATM    2  C11 UNL     1       0.121   5.543  12.436  1.00  0.00     0.006 C 
HETATM    3  C12 UNL     1      -0.556   5.750  13.808  1.00  0.00     0.011 C 
HETATM    4  C13 UNL     1      -1.668   6.776  13.528  1.00  0.00    -0.029 C 
HETATM    5  C14 UNL     1      -2.832   5.934  12.880  1.00  0.00     0.016 C 
HETATM    6  C15 UNL     1      -2.297   7.544  14.745  1.00  0.00     0.028 C 
HETATM    7  C16 UNL     1      -1.563   7.632  16.055  1.00  0.00    -0.021 C 
HETATM    8  C17 UNL     1      -1.793   8.652  16.902  1.00  0.00     0.008 C 
HETATM    9  C18 UNL     1      -2.637   9.869  16.530  1.00  0.00     0.092 C 
HETATM   10  O2  UNL     1      -4.014   9.396  16.517  1.00  0.00    -0.374 OA
HETATM   11  C19 UNL     1      -4.330   8.955  15.160  1.00  0.00     0.179 C 
HETATM   12  C20 UNL     1      -2.976   8.922  14.367  1.00  0.00    -0.004 C 
HETATM   13  C21 UNL     1      -3.170   9.106  12.855  1.00  0.00     0.014 C 
HETATM   14  C22 UNL     1      -1.965   8.746  11.955  1.00  0.00     0.011 C 
HETATM   15  C23 UNL     1      -0.946   7.735  12.531  1.00  0.00    -0.032 C 
HETATM   16  C24 UNL     1       0.238   8.487  13.199  1.00  0.00     0.016 C 
HETATM   17  C25 UNL     1      -2.452  10.210  15.045  1.00  0.00     0.036 C 
HETATM   18  C26 UNL     1      -1.154  10.949  14.804  1.00  0.00     0.011 C 
HETATM   19  C27 UNL     1      -1.251  12.338  15.465  1.00  0.00     0.033 C 
HETATM   20  C28 UNL     1      -2.331  12.435  16.574  1.00  0.00     0.136 C 
HETATM   21  C35 UNL     1      -2.403  11.141  17.460  1.00  0.00     0.014 C 
HETATM   22  C36 UNL     1      -3.561  11.292  18.472  1.00  0.00     0.021 C 
HETATM   23  C37 UNL     1      -1.094  11.070  18.299  1.00  0.00     0.021 C 
ENDROOT
BRANCH  20  24
HETATM   24  O3  UNL     1      -2.035  13.572  17.395  1.00  0.00    -0.352 OA
BRANCH  24  25
HETATM   25  C29 UNL     1      -1.041  14.452  16.864  1.00  0.00     0.292 C 
HETATM   26  O4  UNL     1       0.116  14.395  17.699  1.00  0.00    -0.348 OA
HETATM   27  C30 UNL     1       0.080  15.207  18.882  1.00  0.00     0.179 C 
HETATM   28  C32 UNL     1      -0.134  16.704  18.559  1.00  0.00     0.180 C 
HETATM   29  C33 UNL     1      -0.649  16.935  17.134  1.00  0.00     0.183 C 
HETATM   30  C34 UNL     1      -1.654  15.865  16.728  1.00  0.00     0.204 C 
BRANCH  27  31
HETATM   31  C31 UNL     1      -0.956  14.688  19.899  1.00  0.00     0.198 C 
BRANCH  31  32
HETATM   32  O5  UNL     1      -1.762  15.763  20.372  1.00  0.00    -0.398 OA
HETATM   33  H48 UNL     1      -1.127  16.425  20.715  1.00  0.00     0.209 HD
ENDBRANCH  31  32
ENDBRANCH  27  31
BRANCH  28  34
HETATM   34  O6  UNL     1       1.113  17.416  18.683  1.00  0.00    -0.390 OA
HETATM   35  H50 UNL     1       0.906  18.371  18.698  1.00  0.00     0.210 HD
ENDBRANCH  28  34
BRANCH  29  36
HETATM   36  O7  UNL     1       0.433  16.932  16.176  1.00  0.00    -0.390 OA
HETATM   37  H52 UNL     1       1.255  17.051  16.698  1.00  0.00     0.210 HD
ENDBRANCH  29  36
BRANCH  30  38
HETATM   38  O8  UNL     1      -2.066  16.104  15.373  1.00  0.00    -0.388 OA
HETATM   39  H54 UNL     1      -1.248  16.366  14.899  1.00  0.00     0.210 HD
ENDBRANCH  30  38
ENDBRANCH  24  25
ENDBRANCH  20  24
BRANCH   1  40
HETATM   40  C8  UNL     1       0.829   7.184  10.550  1.00  0.00    -0.011 C 
HETATM   41  C9  UNL     1       0.286   7.973   9.356  1.00  0.00     0.010 C 
BRANCH  40  42
HETATM   42  C7  UNL     1       1.656   5.955  10.065  1.00  0.00     0.040 C 
BRANCH  42  43
HETATM   43  C2  UNL     1       3.007   6.254   9.364  1.00  0.00     0.144 C 
BRANCH  43  44
HETATM   44  O1  UNL     1       3.133   5.456   8.189  1.00  0.00    -0.387 OA
HETATM   45  C1  UNL     1       2.512   6.032   7.047  1.00  0.00     0.202 C 
ENDBRANCH  43  44
BRANCH  43  46
HETATM   46  C3  UNL     1       4.201   6.069  10.277  1.00  0.00     0.007 C 
HETATM   47  C4  UNL     1       4.779   6.929  11.142  1.00  0.00    -0.089 C 
HETATM   48  C5  UNL     1       4.271   8.310  11.450  1.00  0.00     0.042 C 
HETATM   49  C6  UNL     1       6.027   6.543  11.891  1.00  0.00     0.042 C 
ENDBRANCH  43  46
ENDBRANCH  42  43
ENDBRANCH  40  42
ENDBRANCH   1  40
TORSDOF 12
ENDMDL
MODEL 3
REMARK minimizedAffinity -8.05531597
REMARK CNNscore 0.369399667
REMARK CNNaffinity 7.22197485
REMARK  12 active torsions:
REMARK  status: ('A' for Active; 'I' for Inactive)
REMARK    1  A    between atoms: O1_2  and  C2_3 
REMARK    2  A    between atoms: C2_3  and  C3_4 
REMARK    3  A    between atoms: C2_3  and  C7_8 
REMARK    4  A    between atoms: C7_8  and  C8_9 
REMARK    5  A    between atoms: C8_9  and  C10_11 
REMARK    6  A    between atoms: C28_30  and  O3_31 
REMARK    7  A    between atoms: O3_31  and  C29_32 
REMARK    8  A    between atoms: C30_34  and  C31_35 
REMARK    9  A    between atoms: C31_35  and  O5_36 
REMARK   10  A    between atoms: C32_37  and  O6_38 
REMARK   11  A    between atoms: C33_39  and  O7_40 
REMARK   12  A    between atoms: C34_41  and  O8_42 
ROOT
HETATM    1  C10 UNL     1      -8.721   6.586  14.263  1.00  0.00    -0.002 C 
HETATM    2  C11 UNL     1      -8.909   5.645  13.027  1.00  0.00     0.006 C 
HETATM    3  C12 UNL     1      -7.535   5.021  12.700  1.00  0.00     0.011 C 
HETATM    4  C13 UNL     1      -6.694   5.277  13.963  1.00  0.00    -0.029 C 
HETATM    5  C14 UNL     1      -7.156   4.167  14.981  1.00  0.00     0.016 C 
HETATM    6  C15 UNL     1      -5.132   5.161  13.854  1.00  0.00     0.028 C 
HETATM    7  C16 UNL     1      -4.450   5.251  12.517  1.00  0.00    -0.021 C 
HETATM    8  C17 UNL     1      -3.172   5.662  12.425  1.00  0.00     0.008 C 
HETATM    9  C18 UNL     1      -2.398   6.244  13.606  1.00  0.00     0.092 C 
HETATM   10  O2  UNL     1      -2.110   5.112  14.476  1.00  0.00    -0.374 OA
HETATM   11  C19 UNL     1      -3.198   4.996  15.444  1.00  0.00     0.179 C 
HETATM   12  C20 UNL     1      -4.339   5.961  14.965  1.00  0.00    -0.004 C 
HETATM   13  C21 UNL     1      -5.231   6.444  16.117  1.00  0.00     0.014 C 
HETATM   14  C22 UNL     1      -6.573   7.104  15.722  1.00  0.00     0.011 C 
HETATM   15  C23 UNL     1      -7.156   6.720  14.342  1.00  0.00    -0.032 C 
HETATM   16  C24 UNL     1      -6.739   7.766  13.272  1.00  0.00     0.016 C 
HETATM   17  C25 UNL     1      -3.338   7.051  14.511  1.00  0.00     0.036 C 
HETATM   18  C26 UNL     1      -3.623   8.420  13.934  1.00  0.00     0.011 C 
HETATM   19  C27 UNL     1      -2.322   9.246  13.967  1.00  0.00     0.033 C 
HETATM   20  C28 UNL     1      -1.033   8.390  14.066  1.00  0.00     0.136 C 
HETATM   21  C35 UNL     1      -1.108   7.085  13.197  1.00  0.00     0.014 C 
HETATM   22  C36 UNL     1       0.174   6.254  13.430  1.00  0.00     0.021 C 
HETATM   23  C37 UNL     1      -1.088   7.512  11.701  1.00  0.00     0.021 C 
ENDROOT
BRANCH  20  24
HETATM   24  O3  UNL     1       0.077   9.193  13.645  1.00  0.00    -0.352 OA
BRANCH  24  25
HETATM   25  C29 UNL     1       0.875   9.717  14.708  1.00  0.00     0.292 C 
HETATM   26  O4  UNL     1       2.075  10.260  14.157  1.00  0.00    -0.348 OA
HETATM   27  C30 UNL     1       3.124   9.320  13.880  1.00  0.00     0.179 C 
HETATM   28  C32 UNL     1       3.556   8.537  15.142  1.00  0.00     0.180 C 
HETATM   29  C33 UNL     1       2.535   8.637  16.280  1.00  0.00     0.183 C 
HETATM   30  C34 UNL     1       1.108   8.597  15.750  1.00  0.00     0.204 C 
BRANCH  27  31
HETATM   31  C31 UNL     1       2.753   8.375  12.720  1.00  0.00     0.198 C 
BRANCH  31  32
HETATM   32  O5  UNL     1       3.487   7.159  12.822  1.00  0.00    -0.398 OA
HETATM   33  H48 UNL     1       4.427   7.433  12.860  1.00  0.00     0.209 HD
ENDBRANCH  31  32
ENDBRANCH  27  31
BRANCH  28  34
HETATM   34  O6  UNL     1       4.804   9.058  15.640  1.00  0.00    -0.390 OA
HETATM   35  H50 UNL     1       5.158   8.412  16.282  1.00  0.00     0.210 HD
ENDBRANCH  28  34
BRANCH  29  36
HETATM   36  O7  UNL     1       2.708   9.855  17.037  1.00  0.00    -0.390 OA
HETATM   37  H52 UNL     1       3.600  10.191  16.807  1.00  0.00     0.210 HD
ENDBRANCH  29  36
BRANCH  30  38
HETATM   38  O8  UNL     1       0.198   8.741  16.852  1.00  0.00    -0.388 OA
HETATM   39  H54 UNL     1       0.602   9.422  17.430  1.00  0.00     0.210 HD
ENDBRANCH  30  38
ENDBRANCH  24  25
ENDBRANCH  20  24
BRANCH   1  40
HETATM   40  C8  UNL     1      -9.610   7.871  14.171  1.00  0.00    -0.011 C 
HETATM   41  C9  UNL     1      -9.335   8.832  15.330  1.00  0.00     0.010 C 
BRANCH  40  42
HETATM   42  C7  UNL     1     -11.119   7.481  14.128  1.00  0.00     0.040 C 
BRANCH  42  43
HETATM   43  C2  UNL     1     -11.937   7.982  12.910  1.00  0.00     0.144 C 
BRANCH  43  44
HETATM   44  O1  UNL     1     -11.652   9.357  12.665  1.00  0.00    -0.387 OA
HETATM   45  C1  UNL     1     -12.791  10.105  12.258  1.00  0.00     0.202 C 
ENDBRANCH  43  44
BRANCH  43  46
HETATM   46  C3  UNL     1     -13.426   7.754  13.063  1.00  0.00     0.007 C 
HETATM   47  C4  UNL     1     -14.098   6.734  13.638  1.00  0.00    -0.089 C 
HETATM   48  C5  UNL     1     -13.457   5.582  14.361  1.00  0.00     0.042 C 
HETATM   49  C6  UNL     1     -15.602   6.683  13.594  1.00  0.00     0.042 C 
ENDBRANCH  43  46
ENDBRANCH  42  43
ENDBRANCH  40  42
ENDBRANCH   1  40
TORSDOF 12
ENDMDL
MODEL 4
REMARK minimizedAffinity -7.62422752
REMARK CNNscore 0.301315546
REMARK CNNaffinity 7.49295759
REMARK  12 active torsions:
REMARK  status: ('A' for Active; 'I' for Inactive)
REMARK    1  A    between atoms: O1_2  and  C2_3 
REMARK    2  A    between atoms: C2_3  and  C3_4 
REMARK    3  A    between atoms: C2_3  and  C7_8 
REMARK    4  A    between atoms: C7_8  and  C8_9 
REMARK    5  A    between atoms: C8_9  and  C10_11 
REMARK    6  A    between atoms: C28_30  and  O3_31 
REMARK    7  A    between atoms: O3_31  and  C29_32 
REMARK    8  A    between atoms: C30_34  and  C31_35 
REMARK    9  A    between atoms: C31_35  and  O5_36 
REMARK   10  A    between atoms: C32_37  and  O6_38 
REMARK   11  A    between atoms: C33_39  and  O7_40 
REMARK   12  A    between atoms: C34_41  and  O8_42 
ROOT
HETATM    1  C10 UNL     1      -9.296   6.257  14.202  1.00  0.00    -0.002 C 
HETATM    2  C11 UNL     1      -9.123   6.069  12.658  1.00  0.00     0.006 C 
HETATM    3  C12 UNL     1      -7.609   6.016  12.359  1.00  0.00     0.011 C 
HETATM    4  C13 UNL     1      -6.962   5.762  13.732  1.00  0.00    -0.029 C 
HETATM    5  C14 UNL     1      -7.149   4.217  13.981  1.00  0.00     0.016 C 
HETATM    6  C15 UNL     1      -5.430   6.059  13.900  1.00  0.00     0.028 C 
HETATM    7  C16 UNL     1      -4.717   6.969  12.937  1.00  0.00    -0.021 C 
HETATM    8  C17 UNL     1      -3.609   7.633  13.314  1.00  0.00     0.008 C 
HETATM    9  C18 UNL     1      -3.115   7.676  14.758  1.00  0.00     0.092 C 
HETATM   10  O2  UNL     1      -2.570   6.352  15.021  1.00  0.00    -0.374 OA
HETATM   11  C19 UNL     1      -3.638   5.523  15.574  1.00  0.00     0.179 C 
HETATM   12  C20 UNL     1      -4.976   6.324  15.393  1.00  0.00    -0.004 C 
HETATM   13  C21 UNL     1      -6.043   5.940  16.427  1.00  0.00     0.014 C 
HETATM   14  C22 UNL     1      -7.489   6.401  16.132  1.00  0.00     0.011 C 
HETATM   15  C23 UNL     1      -7.845   6.665  14.650  1.00  0.00    -0.032 C 
HETATM   16  C24 UNL     1      -7.679   8.174  14.318  1.00  0.00     0.016 C 
HETATM   17  C25 UNL     1      -4.305   7.678  15.726  1.00  0.00     0.036 C 
HETATM   18  C26 UNL     1      -4.935   9.050  15.827  1.00  0.00     0.011 C 
HETATM   19  C27 UNL     1      -3.934  10.001  16.513  1.00  0.00     0.033 C 
HETATM   20  C28 UNL     1      -2.461   9.517  16.451  1.00  0.00     0.136 C 
HETATM   21  C35 UNL     1      -2.100   8.864  15.070  1.00  0.00     0.014 C 
HETATM   22  C36 UNL     1      -0.650   8.332  15.134  1.00  0.00     0.021 C 
HETATM   23  C37 UNL     1      -2.106   9.991  13.998  1.00  0.00     0.021 C 
ENDROOT
BRANCH  20  24
HETATM   24  O3  UNL     1      -1.606  10.640  16.698  1.00  0.00    -0.352 OA
BRANCH  24  25
HETATM   25  C29 UNL     1      -1.051  10.692  18.014  1.00  0.00     0.292 C 
HETATM   26  O4  UNL     1      -1.833  11.584  18.808  1.00  0.00    -0.348 OA
HETATM   27  C30 UNL     1      -1.535  12.982  18.665  1.00  0.00     0.179 C 
HETATM   28  C32 UNL     1      -0.060  13.302  19.000  1.00  0.00     0.180 C 
HETATM   29  C33 UNL     1       0.830  12.054  19.015  1.00  0.00     0.183 C 
HETATM   30  C34 UNL     1       0.441  11.084  17.907  1.00  0.00     0.204 C 
BRANCH  27  31
HETATM   31  C31 UNL     1      -1.933  13.511  17.274  1.00  0.00     0.198 C 
BRANCH  31  32
HETATM   32  O5  UNL     1      -3.352  13.577  17.160  1.00  0.00    -0.398 OA
HETATM   33  H48 UNL     1      -3.665  12.674  17.375  1.00  0.00     0.209 HD
ENDBRANCH  31  32
ENDBRANCH  27  31
BRANCH  28  34
HETATM   34  O6  UNL     1       0.028  13.904  20.306  1.00  0.00    -0.390 OA
HETATM   35  H50 UNL     1       0.919  14.296  20.391  1.00  0.00     0.210 HD
ENDBRANCH  28  34
BRANCH  29  36
HETATM   36  O7  UNL     1       0.744  11.361  20.279  1.00  0.00    -0.390 OA
HETATM   37  H52 UNL     1       0.349  11.999  20.910  1.00  0.00     0.210 HD
ENDBRANCH  29  36
BRANCH  30  38
HETATM   38  O8  UNL     1       1.274   9.917  17.997  1.00  0.00    -0.388 OA
HETATM   39  H54 UNL     1       1.348   9.730  18.957  1.00  0.00     0.210 HD
ENDBRANCH  30  38
ENDBRANCH  24  25
ENDBRANCH  20  24
BRANCH   1  40
HETATM   40  C8  UNL     1     -10.510   7.179  14.555  1.00  0.00    -0.011 C 
HETATM   41  C9  UNL     1     -11.178   7.739  13.297  1.00  0.00     0.010 C 
BRANCH  40  42
HETATM   42  C7  UNL     1     -10.054   8.336  15.495  1.00  0.00     0.040 C 
BRANCH  42  43
HETATM   43  C2  UNL     1     -11.172   9.187  16.150  1.00  0.00     0.144 C 
BRANCH  43  44
HETATM   44  O1  UNL     1     -11.137  10.516  15.635  1.00  0.00    -0.387 OA
HETATM   45  C1  UNL     1      -9.863  10.891  15.128  1.00  0.00     0.202 C 
ENDBRANCH  43  44
BRANCH  43  46
HETATM   46  C3  UNL     1     -11.105   9.188  17.663  1.00  0.00     0.007 C 
HETATM   47  C4  UNL     1     -11.413  10.158  18.550  1.00  0.00    -0.089 C 
HETATM   48  C5  UNL     1     -12.000  11.495  18.192  1.00  0.00     0.042 C 
HETATM   49  C6  UNL     1     -11.181   9.954  20.023  1.00  0.00     0.042 C 
ENDBRANCH  43  46
ENDBRANCH  42  43
ENDBRANCH  40  42
ENDBRANCH   1  40
TORSDOF 12
ENDMDL
MODEL 5
REMARK minimizedAffinity -7.37475204
REMARK CNNscore 0.29866758
REMARK CNNaffinity 6.68870211
REMARK  12 active torsions:
REMARK  status: ('A' for Active; 'I' for Inactive)
REMARK    1  A    between atoms: O1_2  and  C2_3 
REMARK    2  A    between atoms: C2_3  and  C3_4 
REMARK    3  A    between atoms: C2_3  and  C7_8 
REMARK    4  A    between atoms: C7_8  and  C8_9 
REMARK    5  A    between atoms: C8_9  and  C10_11 
REMARK    6  A    between atoms: C28_30  and  O3_31 
REMARK    7  A    between atoms: O3_31  and  C29_32 
REMARK    8  A    between atoms: C30_34  and  C31_35 
REMARK    9  A    between atoms: C31_35  and  O5_36 
REMARK   10  A    between atoms: C32_37  and  O6_38 
REMARK   11  A    between atoms: C33_39  and  O7_40 
REMARK   12  A    between atoms: C34_41  and  O8_42 
ROOT
HETATM    1  C10 UNL     1       0.120   5.745  11.858  1.00  0.00    -0.002 C 
HETATM    2  C11 UNL     1      -0.016   4.603  12.920  1.00  0.00     0.006 C 
HETATM    3  C12 UNL     1      -0.937   5.119  14.047  1.00  0.00     0.011 C 
HETATM    4  C13 UNL     1      -1.630   6.349  13.435  1.00  0.00    -0.029 C 
HETATM    5  C14 UNL     1      -2.773   5.753  12.529  1.00  0.00     0.016 C 
HETATM    6  C15 UNL     1      -2.317   7.376  14.404  1.00  0.00     0.028 C 
HETATM    7  C16 UNL     1      -1.941   7.424  15.859  1.00  0.00    -0.021 C 
HETATM    8  C17 UNL     1      -2.098   8.555  16.570  1.00  0.00     0.008 C 
HETATM    9  C18 UNL     1      -2.467   9.894  15.935  1.00  0.00     0.092 C 
HETATM   10  O2  UNL     1      -3.871   9.774  15.567  1.00  0.00    -0.374 OA
HETATM   11  C19 UNL     1      -3.939   9.279  14.194  1.00  0.00     0.179 C 
HETATM   12  C20 UNL     1      -2.489   8.829  13.800  1.00  0.00    -0.004 C 
HETATM   13  C21 UNL     1      -2.239   8.889  12.287  1.00  0.00     0.014 C 
HETATM   14  C22 UNL     1      -0.986   8.148  11.763  1.00  0.00     0.011 C 
HETATM   15  C23 UNL     1      -0.451   6.987  12.634  1.00  0.00    -0.032 C 
HETATM   16  C24 UNL     1       0.681   7.495  13.569  1.00  0.00     0.016 C 
HETATM   17  C25 UNL     1      -1.830  10.015  14.544  1.00  0.00     0.036 C 
HETATM   18  C26 UNL     1      -0.365  10.383  14.636  1.00  0.00     0.011 C 
HETATM   19  C27 UNL     1      -0.254  11.817  15.190  1.00  0.00     0.033 C 
HETATM   20  C28 UNL     1      -1.512  12.296  15.959  1.00  0.00     0.136 C 
HETATM   21  C35 UNL     1      -2.146  11.163  16.843  1.00  0.00     0.014 C 
HETATM   22  C36 UNL     1      -3.440  11.702  17.494  1.00  0.00     0.021 C 
HETATM   23  C37 UNL     1      -1.159  10.865  18.008  1.00  0.00     0.021 C 
ENDROOT
BRANCH  20  24
HETATM   24  O3  UNL     1      -1.142  13.408  16.784  1.00  0.00    -0.352 OA
BRANCH  24  25
HETATM   25  C29 UNL     1       0.029  14.107  16.357  1.00  0.00     0.292 C 
HETATM   26  O4  UNL     1       0.905  14.261  17.474  1.00  0.00    -0.348 OA
HETATM   27  C30 UNL     1       0.616  15.357  18.355  1.00  0.00     0.179 C 
HETATM   28  C32 UNL     1       0.625  16.717  17.621  1.00  0.00     0.180 C 
HETATM   29  C33 UNL     1       0.541  16.569  16.098  1.00  0.00     0.183 C 
HETATM   30  C34 UNL     1      -0.402  15.440  15.702  1.00  0.00     0.204 C 
BRANCH  27  31
HETATM   31  C31 UNL     1      -0.698  15.134  19.130  1.00  0.00     0.198 C 
BRANCH  31  32
HETATM   32  O5  UNL     1      -0.692  13.853  19.752  1.00  0.00    -0.398 OA
HETATM   33  H48 UNL     1      -0.517  13.220  19.026  1.00  0.00     0.209 HD
ENDBRANCH  31  32
ENDBRANCH  27  31
BRANCH  28  34
HETATM   34  O6  UNL     1       1.846  17.425  17.914  1.00  0.00    -0.390 OA
HETATM   35  H50 UNL     1       1.724  18.352  17.630  1.00  0.00     0.210 HD
ENDBRANCH  28  34
BRANCH  29  36
HETATM   36  O7  UNL     1       1.838  16.304  15.521  1.00  0.00    -0.390 OA
HETATM   37  H52 UNL     1       2.494  16.548  16.209  1.00  0.00     0.210 HD
ENDBRANCH  29  36
BRANCH  30  38
HETATM   38  O8  UNL     1      -0.406  15.317  14.271  1.00  0.00    -0.388 OA
HETATM   39  H54 UNL     1       0.529  15.437  14.002  1.00  0.00     0.210 HD
ENDBRANCH  30  38
ENDBRANCH  24  25
ENDBRANCH  20  24
BRANCH   1  40
HETATM   40  C8  UNL     1       1.554   5.806  11.234  1.00  0.00    -0.011 C 
HETATM   41  C9  UNL     1       2.516   6.614  12.108  1.00  0.00     0.010 C 
BRANCH  40  42
HETATM   42  C7  UNL     1       1.491   6.402   9.794  1.00  0.00     0.040 C 
BRANCH  42  43
HETATM   43  C2  UNL     1       2.837   6.553   9.041  1.00  0.00     0.144 C 
BRANCH  43  44
HETATM   44  O1  UNL     1       3.039   7.915   8.672  1.00  0.00    -0.387 OA
HETATM   45  C1  UNL     1       4.005   8.580   9.475  1.00  0.00     0.202 C 
ENDBRANCH  43  44
BRANCH  43  46
HETATM   46  C3  UNL     1       2.946   5.642   7.835  1.00  0.00     0.007 C 
HETATM   47  C4  UNL     1       3.538   4.436   7.704  1.00  0.00    -0.089 C 
HETATM   48  C5  UNL     1       4.182   3.668   8.824  1.00  0.00     0.042 C 
HETATM   49  C6  UNL     1       3.591   3.748   6.366  1.00  0.00     0.042 C 
ENDBRANCH  43  46
ENDBRANCH  42  43
ENDBRANCH  40  42
ENDBRANCH   1  40
TORSDOF 12
ENDMDL
MODEL 6
REMARK minimizedAffinity -8.3916378
REMARK CNNscore 0.297179282
REMARK CNNaffinity 6.59902811
REMARK  12 active torsions:
REMARK  status: ('A' for Active; 'I' for Inactive)
REMARK    1  A    between atoms: O1_2  and  C2_3 
REMARK    2  A    between atoms: C2_3  and  C3_4 
REMARK    3  A    between atoms: C2_3  and  C7_8 
REMARK    4  A    between atoms: C7_8  and  C8_9 
REMARK    5  A    between atoms: C8_9  and  C10_11 
REMARK    6  A    between atoms: C28_30  and  O3_31 
REMARK    7  A    between atoms: O3_31  and  C29_32 
REMARK    8  A    between atoms: C30_34  and  C31_35 
REMARK    9  A    between atoms: C31_35  and  O5_36 
REMARK   10  A    between atoms: C32_37  and  O6_38 
REMARK   11  A    between atoms: C33_39  and  O7_40 
REMARK   12  A    between atoms: C34_41  and  O8_42 
ROOT
HETATM    1  C10 UNL     1     -14.639   8.439  14.567  1.00  0.00    -0.002 C 
HETATM    2  C11 UNL     1     -15.180   8.856  13.159  1.00  0.00     0.006 C 
HETATM    3  C12 UNL     1     -16.267   7.837  12.755  1.00  0.00     0.011 C 
HETATM    4  C13 UNL     1     -16.618   7.117  14.069  1.00  0.00    -0.029 C 
HETATM    5  C14 UNL     1     -17.579   8.112  14.824  1.00  0.00     0.016 C 
HETATM    6  C15 UNL     1     -17.372   5.743  13.987  1.00  0.00     0.028 C 
HETATM    7  C16 UNL     1     -17.355   4.936  12.718  1.00  0.00    -0.021 C 
HETATM    8  C17 UNL     1     -17.524   3.601  12.753  1.00  0.00     0.008 C 
HETATM    9  C18 UNL     1     -17.543   2.798  14.051  1.00  0.00     0.092 C 
HETATM   10  O2  UNL     1     -18.820   3.107  14.680  1.00  0.00    -0.374 OA
HETATM   11  C19 UNL     1     -18.622   4.249  15.570  1.00  0.00     0.179 C 
HETATM   12  C20 UNL     1     -17.194   4.823  15.263  1.00  0.00    -0.004 C 
HETATM   13  C21 UNL     1     -16.580   5.562  16.461  1.00  0.00     0.014 C 
HETATM   14  C22 UNL     1     -15.352   6.454  16.167  1.00  0.00     0.011 C 
HETATM   15  C23 UNL     1     -15.205   6.980  14.720  1.00  0.00    -0.032 C 
HETATM   16  C24 UNL     1     -14.273   6.046  13.900  1.00  0.00     0.016 C 
HETATM   17  C25 UNL     1     -16.579   3.416  15.073  1.00  0.00     0.036 C 
HETATM   18  C26 UNL     1     -15.144   3.039  14.779  1.00  0.00     0.011 C 
HETATM   19  C27 UNL     1     -14.975   1.526  15.021  1.00  0.00     0.033 C 
HETATM   20  C28 UNL     1     -16.305   0.729  14.983  1.00  0.00     0.136 C 
HETATM   21  C35 UNL     1     -17.281   1.237  13.864  1.00  0.00     0.014 C 
HETATM   22  C36 UNL     1     -18.607   0.451  13.962  1.00  0.00     0.021 C 
HETATM   23  C37 UNL     1     -16.654   0.870  12.488  1.00  0.00     0.021 C 
ENDROOT
BRANCH  20  24
HETATM   24  O3  UNL     1     -15.997  -0.654  14.770  1.00  0.00    -0.352 OA
BRANCH  24  25
HETATM   25  C29 UNL     1     -15.853  -1.427  15.963  1.00  0.00     0.292 C 
HETATM   26  O4  UNL     1     -14.600  -2.112  15.920  1.00  0.00    -0.348 OA
HETATM   27  C30 UNL     1     -14.576  -3.334  15.168  1.00  0.00     0.179 C 
HETATM   28  C32 UNL     1     -15.601  -4.365  15.693  1.00  0.00     0.180 C 
HETATM   29  C33 UNL     1     -16.662  -3.736  16.602  1.00  0.00     0.183 C 
HETATM   30  C34 UNL     1     -17.079  -2.361  16.099  1.00  0.00     0.204 C 
BRANCH  27  31
HETATM   31  C31 UNL     1     -14.744  -3.078  13.657  1.00  0.00     0.198 C 
BRANCH  31  32
HETATM   32  O5  UNL     1     -13.475  -2.839  13.055  1.00  0.00    -0.398 OA
HETATM   33  H48 UNL     1     -13.086  -2.101  13.568  1.00  0.00     0.209 HD
ENDBRANCH  31  32
ENDBRANCH  27  31
BRANCH  28  34
HETATM   34  O6  UNL     1     -14.928  -5.381  16.461  1.00  0.00    -0.390 OA
HETATM   35  H50 UNL     1     -15.553  -6.123  16.581  1.00  0.00     0.210 HD
ENDBRANCH  28  34
BRANCH  29  36
HETATM   36  O7  UNL     1     -16.180  -3.600  17.957  1.00  0.00    -0.390 OA
HETATM   37  H52 UNL     1     -15.395  -4.184  18.024  1.00  0.00     0.210 HD
ENDBRANCH  29  36
BRANCH  30  38
HETATM   38  O8  UNL     1     -18.036  -1.801  17.012  1.00  0.00    -0.388 OA
HETATM   39  H54 UNL     1     -17.705  -2.036  17.904  1.00  0.00     0.210 HD
ENDBRANCH  30  38
ENDBRANCH  24  25
ENDBRANCH  20  24
BRANCH   1  40
HETATM   40  C8  UNL     1     -13.102   8.698  14.711  1.00  0.00    -0.011 C 
HETATM   41  C9  UNL     1     -12.739  10.145  14.368  1.00  0.00     0.010 C 
BRANCH  40  42
HETATM   42  C7  UNL     1     -12.300   7.705  13.815  1.00  0.00     0.040 C 
BRANCH  42  43
HETATM   43  C2  UNL     1     -10.870   7.337  14.285  1.00  0.00     0.144 C 
BRANCH  43  44
HETATM   44  O1  UNL     1     -10.177   8.511  14.701  1.00  0.00    -0.387 OA
HETATM   45  C1  UNL     1      -9.883   8.530  16.092  1.00  0.00     0.202 C 
ENDBRANCH  43  44
BRANCH  43  46
HETATM   46  C3  UNL     1     -10.079   6.581  13.237  1.00  0.00     0.007 C 
HETATM   47  C4  UNL     1      -8.888   5.953  13.328  1.00  0.00    -0.089 C 
HETATM   48  C5  UNL     1      -8.091   5.801  14.593  1.00  0.00     0.042 C 
HETATM   49  C6  UNL     1      -8.251   5.334  12.112  1.00  0.00     0.042 C 
ENDBRANCH  43  46
ENDBRANCH  42  43
ENDBRANCH  40  42
ENDBRANCH   1  40
TORSDOF 12
ENDMDL
MODEL 7
REMARK minimizedAffinity -7.13227654
REMARK CNNscore 0.284781456
REMARK CNNaffinity 6.50223398
REMARK  12 active torsions:
REMARK  status: ('A' for Active; 'I' for Inactive)
REMARK    1  A    between atoms: O1_2  and  C2_3 
REMARK    2  A    between atoms: C2_3  and  C3_4 
REMARK    3  A    between atoms: C2_3  and  C7_8 
REMARK    4  A    between atoms: C7_8  and  C8_9 
REMARK    5  A    between atoms: C8_9  and  C10_11 
REMARK    6  A    between atoms: C28_30  and  O3_31 
REMARK    7  A    between atoms: O3_31  and  C29_32 
REMARK    8  A    between atoms: C30_34  and  C31_35 
REMARK    9  A    between atoms: C31_35  and  O5_36 
REMARK   10  A    between atoms: C32_37  and  O6_38 
REMARK   11  A    between atoms: C33_39  and  O7_40 
REMARK   12  A    between atoms: C34_41  and  O8_42 
ROOT
HETATM    1  C10 UNL     1      -3.889  13.672  17.774  1.00  0.00    -0.002 C 
HETATM    2  C11 UNL     1      -4.534  12.776  18.883  1.00  0.00     0.006 C 
HETATM    3  C12 UNL     1      -3.746  11.450  18.931  1.00  0.00     0.011 C 
HETATM    4  C13 UNL     1      -2.446  11.755  18.166  1.00  0.00    -0.029 C 
HETATM    5  C14 UNL     1      -1.548  12.533  19.202  1.00  0.00     0.016 C 
HETATM    6  C15 UNL     1      -1.586  10.549  17.647  1.00  0.00     0.028 C 
HETATM    7  C16 UNL     1      -2.199   9.185  17.487  1.00  0.00    -0.021 C 
HETATM    8  C17 UNL     1      -1.690   8.303  16.607  1.00  0.00     0.008 C 
HETATM    9  C18 UNL     1      -0.612   8.670  15.590  1.00  0.00     0.092 C 
HETATM   10  O2  UNL     1       0.616   8.812  16.360  1.00  0.00    -0.374 OA
HETATM   11  C19 UNL     1       0.739  10.210  16.765  1.00  0.00     0.179 C 
HETATM   12  C20 UNL     1      -0.630  10.901  16.435  1.00  0.00    -0.004 C 
HETATM   13  C21 UNL     1      -0.491  12.411  16.194  1.00  0.00     0.014 C 
HETATM   14  C22 UNL     1      -1.798  13.237  16.210  1.00  0.00     0.011 C 
HETATM   15  C23 UNL     1      -2.986  12.643  17.001  1.00  0.00    -0.032 C 
HETATM   16  C24 UNL     1      -3.922  11.848  16.049  1.00  0.00     0.016 C 
HETATM   17  C25 UNL     1      -0.802  10.117  15.113  1.00  0.00     0.036 C 
HETATM   18  C26 UNL     1      -1.907  10.220  14.084  1.00  0.00     0.011 C 
HETATM   19  C27 UNL     1      -1.453   9.494  12.803  1.00  0.00     0.033 C 
HETATM   20  C28 UNL     1      -0.315   8.465  13.030  1.00  0.00     0.136 C 
HETATM   21  C35 UNL     1      -0.491   7.658  14.365  1.00  0.00     0.014 C 
HETATM   22  C36 UNL     1       0.730   6.729  14.552  1.00  0.00     0.021 C 
HETATM   23  C37 UNL     1      -1.727   6.729  14.197  1.00  0.00     0.021 C 
ENDROOT
BRANCH  20  24
HETATM   24  O3  UNL     1      -0.292   7.564  11.916  1.00  0.00    -0.352 OA
BRANCH  24  25
HETATM   25  C29 UNL     1       0.674   7.879  10.911  1.00  0.00     0.292 C 
HETATM   26  O4  UNL     1       0.703   6.821   9.952  1.00  0.00    -0.348 OA
HETATM   27  C30 UNL     1       1.494   5.675  10.303  1.00  0.00     0.179 C 
HETATM   28  C32 UNL     1       2.972   6.043  10.569  1.00  0.00     0.180 C 
HETATM   29  C33 UNL     1       3.178   7.545  10.793  1.00  0.00     0.183 C 
HETATM   30  C34 UNL     1       2.034   8.147  11.598  1.00  0.00     0.204 C 
BRANCH  27  31
HETATM   31  C31 UNL     1       0.878   4.894  11.481  1.00  0.00     0.198 C 
BRANCH  31  32
HETATM   32  O5  UNL     1       0.824   3.504  11.175  1.00  0.00    -0.398 OA
HETATM   33  H48 UNL     1       0.333   3.450  10.329  1.00  0.00     0.209 HD
ENDBRANCH  31  32
ENDBRANCH  27  31
BRANCH  28  34
HETATM   34  O6  UNL     1       3.783   5.664   9.440  1.00  0.00    -0.390 OA
HETATM   35  H50 UNL     1       4.718   5.697   9.725  1.00  0.00     0.210 HD
ENDBRANCH  28  34
BRANCH  29  36
HETATM   36  O7  UNL     1       3.278   8.255   9.539  1.00  0.00    -0.390 OA
HETATM   37  H52 UNL     1       3.457   7.574   8.856  1.00  0.00     0.210 HD
ENDBRANCH  29  36
BRANCH  30  38
HETATM   38  O8  UNL     1       2.255   9.560  11.736  1.00  0.00    -0.388 OA
HETATM   39  H54 UNL     1       2.590   9.853  10.862  1.00  0.00     0.210 HD
ENDBRANCH  30  38
ENDBRANCH  24  25
ENDBRANCH  20  24
BRANCH   1  40
HETATM   40  C8  UNL     1      -4.956  14.513  16.996  1.00  0.00    -0.011 C 
HETATM   41  C9  UNL     1      -4.315  15.351  15.887  1.00  0.00     0.010 C 
BRANCH  40  42
HETATM   42  C7  UNL     1      -5.748  15.424  17.983  1.00  0.00     0.040 C 
BRANCH  42  43
HETATM   43  C2  UNL     1      -6.806  14.730  18.879  1.00  0.00     0.144 C 
BRANCH  43  44
HETATM   44  O1  UNL     1      -8.069  14.715  18.218  1.00  0.00    -0.387 OA
HETATM   45  C1  UNL     1      -9.174  14.740  19.112  1.00  0.00     0.202 C 
ENDBRANCH  43  44
BRANCH  43  46
HETATM   46  C3  UNL     1      -6.919  15.356  20.254  1.00  0.00     0.007 C 
HETATM   47  C4  UNL     1      -6.833  14.795  21.478  1.00  0.00    -0.089 C 
HETATM   48  C5  UNL     1      -6.506  13.351  21.740  1.00  0.00     0.042 C 
HETATM   49  C6  UNL     1      -7.066  15.616  22.718  1.00  0.00     0.042 C 
ENDBRANCH  43  46
ENDBRANCH  42  43
ENDBRANCH  40  42
ENDBRANCH   1  40
TORSDOF 12
ENDMDL
MODEL 8
REMARK minimizedAffinity -8.40198708
REMARK CNNscore 0.262440205
REMARK CNNaffinity 6.6305995
REMARK  12 active torsions:
REMARK  status: ('A' for Active; 'I' for Inactive)
REMARK    1  A    between atoms: O1_2  and  C2_3 
REMARK    2  A    between atoms: C2_3  and  C3_4 
REMARK    3  A    between atoms: C2_3  and  C7_8 
REMARK    4  A    between atoms: C7_8  and  C8_9 
REMARK    5  A    between atoms: C8_9  and  C10_11 
REMARK    6  A    between atoms: C28_30  and  O3_31 
REMARK    7  A    between atoms: O3_31  and  C29_32 
REMARK    8  A    between atoms: C30_34  and  C31_35 
REMARK    9  A    between atoms: C31_35  and  O5_36 
REMARK   10  A    between atoms: C32_37  and  O6_38 
REMARK   11  A    between atoms: C33_39  and  O7_40 
REMARK   12  A    between atoms: C34_41  and  O8_42 
ROOT
HETATM    1  C10 UNL     1     -13.734   8.466  14.297  1.00  0.00    -0.002 C 
HETATM    2  C11 UNL     1     -14.096   8.787  12.808  1.00  0.00     0.006 C 
HETATM    3  C12 UNL     1     -15.347   7.960  12.442  1.00  0.00     0.011 C 
HETATM    4  C13 UNL     1     -15.914   7.511  13.800  1.00  0.00    -0.029 C 
HETATM    5  C14 UNL     1     -16.687   8.772  14.344  1.00  0.00     0.016 C 
HETATM    6  C15 UNL     1     -16.933   6.317  13.824  1.00  0.00     0.028 C 
HETATM    7  C16 UNL     1     -17.014   5.357  12.669  1.00  0.00    -0.021 C 
HETATM    8  C17 UNL     1     -17.459   4.101  12.852  1.00  0.00     0.008 C 
HETATM    9  C18 UNL     1     -17.719   3.502  14.233  1.00  0.00     0.092 C 
HETATM   10  O2  UNL     1     -18.937   4.144  14.710  1.00  0.00    -0.374 OA
HETATM   11  C19 UNL     1     -18.555   5.334  15.467  1.00  0.00     0.179 C 
HETATM   12  C20 UNL     1     -17.024   5.564  15.212  1.00  0.00    -0.004 C 
HETATM   13  C21 UNL     1     -16.339   6.322  16.358  1.00  0.00     0.014 C 
HETATM   14  C22 UNL     1     -14.936   6.902  16.062  1.00  0.00     0.011 C 
HETATM   15  C23 UNL     1     -14.601   7.185  14.579  1.00  0.00    -0.032 C 
HETATM   16  C24 UNL     1     -13.840   5.981  13.960  1.00  0.00     0.016 C 
HETATM   17  C25 UNL     1     -16.707   4.050  15.248  1.00  0.00     0.036 C 
HETATM   18  C26 UNL     1     -15.368   3.357  15.124  1.00  0.00     0.011 C 
HETATM   19  C27 UNL     1     -15.533   1.888  15.562  1.00  0.00     0.033 C 
HETATM   20  C28 UNL     1     -16.996   1.375  15.511  1.00  0.00     0.136 C 
HETATM   21  C35 UNL     1     -17.778   1.911  14.260  1.00  0.00     0.014 C 
HETATM   22  C36 UNL     1     -19.244   1.426  14.342  1.00  0.00     0.021 C 
HETATM   23  C37 UNL     1     -17.165   1.241  12.996  1.00  0.00     0.021 C 
ENDROOT
BRANCH  20  24
HETATM   24  O3  UNL     1     -16.972  -0.057  15.494  1.00  0.00    -0.352 OA
BRANCH  24  25
HETATM   25  C29 UNL     1     -16.651  -0.665  16.747  1.00  0.00     0.292 C 
HETATM   26  O4  UNL     1     -15.446  -1.418  16.598  1.00  0.00    -0.348 OA
HETATM   27  C30 UNL     1     -15.589  -2.732  16.038  1.00  0.00     0.179 C 
HETATM   28  C32 UNL     1     -16.543  -3.622  16.868  1.00  0.00     0.180 C 
HETATM   29  C33 UNL     1     -17.412  -2.816  17.839  1.00  0.00     0.183 C 
HETATM   30  C34 UNL     1     -17.865  -1.502  17.217  1.00  0.00     0.204 C 
BRANCH  27  31
HETATM   31  C31 UNL     1     -16.005  -2.677  14.554  1.00  0.00     0.198 C 
BRANCH  31  32
HETATM   32  O5  UNL     1     -15.136  -1.811  13.831  1.00  0.00    -0.398 OA
HETATM   33  H48 UNL     1     -15.170  -0.958  14.312  1.00  0.00     0.209 HD
ENDBRANCH  31  32
ENDBRANCH  27  31
BRANCH  28  34
HETATM   34  O6  UNL     1     -15.780  -4.558  17.654  1.00  0.00    -0.390 OA
HETATM   35  H50 UNL     1     -16.399  -5.241  17.981  1.00  0.00     0.210 HD
ENDBRANCH  28  34
BRANCH  29  36
HETATM   36  O7  UNL     1     -16.701  -2.521  19.062  1.00  0.00    -0.390 OA
HETATM   37  H52 UNL     1     -15.935  -3.133  19.082  1.00  0.00     0.210 HD
ENDBRANCH  29  36
BRANCH  30  38
HETATM   38  O8  UNL     1     -18.633  -0.769  18.184  1.00  0.00    -0.388 OA
HETATM   39  H54 UNL     1     -18.162  -0.896  19.035  1.00  0.00     0.210 HD
ENDBRANCH  30  38
ENDBRANCH  24  25
ENDBRANCH  20  24
BRANCH   1  40
HETATM   40  C8  UNL     1     -12.188   8.431  14.536  1.00  0.00    -0.011 C 
HETATM   41  C9  UNL     1     -11.502   9.683  13.983  1.00  0.00     0.010 C 
BRANCH  40  42
HETATM   42  C7  UNL     1     -11.573   7.145  13.904  1.00  0.00     0.040 C 
BRANCH  42  43
HETATM   43  C2  UNL     1     -10.049   7.165  13.622  1.00  0.00     0.144 C 
BRANCH  43  44
HETATM   44  O1  UNL     1      -9.750   6.333  12.503  1.00  0.00    -0.387 OA
HETATM   45  C1  UNL     1      -8.476   5.709  12.588  1.00  0.00     0.202 C 
ENDBRANCH  43  44
BRANCH  43  46
HETATM   46  C3  UNL     1      -9.219   6.774  14.827  1.00  0.00     0.007 C 
HETATM   47  C4  UNL     1      -8.294   7.476  15.515  1.00  0.00    -0.089 C 
HETATM   48  C5  UNL     1      -7.937   8.913  15.254  1.00  0.00     0.042 C 
HETATM   49  C6  UNL     1      -7.528   6.839  16.643  1.00  0.00     0.042 C 
ENDBRANCH  43  46
ENDBRANCH  42  43
ENDBRANCH  40  42
ENDBRANCH   1  40
TORSDOF 12
ENDMDL
MODEL 9
REMARK minimizedAffinity -9.24953461
REMARK CNNscore 0.255706757
REMARK CNNaffinity 7.60265112
REMARK  12 active torsions:
REMARK  status: ('A' for Active; 'I' for Inactive)
REMARK    1  A    between atoms: O1_2  and  C2_3 
REMARK    2  A    between atoms: C2_3  and  C3_4 
REMARK    3  A    between atoms: C2_3  and  C7_8 
REMARK    4  A    between atoms: C7_8  and  C8_9 
REMARK    5  A    between atoms: C8_9  and  C10_11 
REMARK    6  A    between atoms: C28_30  and  O3_31 
REMARK    7  A    between atoms: O3_31  and  C29_32 
REMARK    8  A    between atoms: C30_34  and  C31_35 
REMARK    9  A    between atoms: C31_35  and  O5_36 
REMARK   10  A    between atoms: C32_37  and  O6_38 
REMARK   11  A    between atoms: C33_39  and  O7_40 
REMARK   12  A    between atoms: C34_41  and  O8_42 
ROOT
HETATM    1  C10 UNL     1      -6.973   6.417  13.933  1.00  0.00    -0.002 C 
HETATM    2  C11 UNL     1      -6.998   5.770  15.358  1.00  0.00     0.006 C 
HETATM    3  C12 UNL     1      -5.758   6.277  16.125  1.00  0.00     0.011 C 
HETATM    4  C13 UNL     1      -5.280   7.490  15.308  1.00  0.00    -0.029 C 
HETATM    5  C14 UNL     1      -6.244   8.662  15.734  1.00  0.00     0.016 C 
HETATM    6  C15 UNL     1      -3.816   8.011  15.536  1.00  0.00     0.028 C 
HETATM    7  C16 UNL     1      -2.777   7.122  16.162  1.00  0.00    -0.021 C 
HETATM    8  C17 UNL     1      -1.469   7.316  15.912  1.00  0.00     0.008 C 
HETATM    9  C18 UNL     1      -0.959   8.291  14.853  1.00  0.00     0.092 C 
HETATM   10  O2  UNL     1      -1.186   9.619  15.407  1.00  0.00    -0.374 OA
HETATM   11  C19 UNL     1      -2.504  10.074  14.970  1.00  0.00     0.179 C 
HETATM   12  C20 UNL     1      -3.221   8.836  14.324  1.00  0.00    -0.004 C 
HETATM   13  C21 UNL     1      -4.280   9.238  13.287  1.00  0.00     0.014 C 
HETATM   14  C22 UNL     1      -5.275   8.137  12.853  1.00  0.00     0.011 C 
HETATM   15  C23 UNL     1      -5.507   6.978  13.851  1.00  0.00    -0.032 C 
HETATM   16  C24 UNL     1      -4.583   5.778  13.505  1.00  0.00     0.016 C 
HETATM   17  C25 UNL     1      -1.921   8.327  13.658  1.00  0.00     0.036 C 
HETATM   18  C26 UNL     1      -1.724   7.131  12.752  1.00  0.00     0.011 C 
HETATM   19  C27 UNL     1      -0.340   7.245  12.083  1.00  0.00     0.033 C 
HETATM   20  C28 UNL     1       0.648   8.176  12.832  1.00  0.00     0.136 C 
HETATM   21  C35 UNL     1       0.544   8.034  14.392  1.00  0.00     0.014 C 
HETATM   22  C36 UNL     1       1.494   9.060  15.052  1.00  0.00     0.021 C 
HETATM   23  C37 UNL     1       1.084   6.627  14.776  1.00  0.00     0.021 C 
ENDROOT
BRANCH  20  24
HETATM   24  O3  UNL     1       1.979   7.863  12.402  1.00  0.00    -0.352 OA
BRANCH  24  25
HETATM   25  C29 UNL     1       2.289   8.270  11.068  1.00  0.00     0.292 C 
HETATM   26  O4  UNL     1       1.434   7.569  10.163  1.00  0.00    -0.348 OA
HETATM   27  C30 UNL     1       1.842   6.238   9.814  1.00  0.00     0.179 C 
HETATM   28  C32 UNL     1       3.250   6.206   9.174  1.00  0.00     0.180 C 
HETATM   29  C33 UNL     1       4.040   7.496   9.416  1.00  0.00     0.183 C 
HETATM   30  C34 UNL     1       3.798   8.040  10.818  1.00  0.00     0.204 C 
BRANCH  27  31
HETATM   31  C31 UNL     1       1.737   5.275  11.013  1.00  0.00     0.198 C 
BRANCH  31  32
HETATM   32  O5  UNL     1       2.245   3.992  10.660  1.00  0.00    -0.398 OA
HETATM   33  H48 UNL     1       1.740   3.731   9.863  1.00  0.00     0.209 HD
ENDBRANCH  31  32
ENDBRANCH  27  31
BRANCH  28  34
HETATM   34  O6  UNL     1       3.137   6.034   7.748  1.00  0.00    -0.390 OA
HETATM   35  H50 UNL     1       4.022   5.792   7.410  1.00  0.00     0.210 HD
ENDBRANCH  28  34
BRANCH  29  36
HETATM   36  O7  UNL     1       3.683   8.519   8.461  1.00  0.00    -0.390 OA
HETATM   37  H52 UNL     1       3.221   8.056   7.730  1.00  0.00     0.210 HD
ENDBRANCH  29  36
BRANCH  30  38
HETATM   38  O8  UNL     1       4.523   9.271  10.971  1.00  0.00    -0.388 OA
HETATM   39  H54 UNL     1       4.410   9.742  10.119  1.00  0.00     0.210 HD
ENDBRANCH  30  38
ENDBRANCH  24  25
ENDBRANCH  20  24
BRANCH   1  40
HETATM   40  C8  UNL     1      -7.497   5.439  12.829  1.00  0.00    -0.011 C 
HETATM   41  C9  UNL     1      -9.017   5.528  12.672  1.00  0.00     0.010 C 
BRANCH  40  42
HETATM   42  C7  UNL     1      -7.064   3.977  13.153  1.00  0.00     0.040 C 
BRANCH  42  43
HETATM   43  C2  UNL     1      -6.542   3.123  11.968  1.00  0.00     0.144 C 
BRANCH  43  44
HETATM   44  O1  UNL     1      -6.986   1.776  12.106  1.00  0.00    -0.387 OA
HETATM   45  C1  UNL     1      -6.279   0.862  11.278  1.00  0.00     0.202 C 
ENDBRANCH  43  44
BRANCH  43  46
HETATM   46  C3  UNL     1      -5.036   3.186  11.814  1.00  0.00     0.007 C 
HETATM   47  C4  UNL     1      -4.279   3.352  10.709  1.00  0.00    -0.089 C 
HETATM   48  C5  UNL     1      -4.817   3.603   9.328  1.00  0.00     0.042 C 
HETATM   49  C6  UNL     1      -2.777   3.295  10.791  1.00  0.00     0.042 C 
ENDBRANCH  43  46
ENDBRANCH  42  43
ENDBRANCH  40  42
ENDBRANCH   1  40
TORSDOF 12
ENDMDL
