MODEL 1
REMARK minimizedAffinity -8.06730652
REMARK CNNscore 0.600535274
REMARK CNNaffinity 6.99504852
REMARK  20 active torsions:
REMARK  status: ('A' for Active; 'I' for Inactive)
REMARK    1  A    between atoms: C2_2  and  O2_4 
REMARK    2  A    between atoms: O2_4  and  C3_5 
REMARK    3  A    between atoms: C5_7  and  O3_8 
REMARK    4  A    between atoms: C11_14  and  O4_15 
REMARK    5  A    between atoms: O4_15  and  C12_16 
REMARK    6  A    between atoms: C12_16  and  C13_18 
REMARK    7  A    between atoms: C13_18  and  C14_19 
REMARK    8  A    between atoms: C14_19  and  C15_20 
REMARK    9  A    between atoms: C15_20  and  C16_21 
REMARK   10  A    between atoms: C16_21  and  C17_22 
REMARK   11  A    between atoms: C17_22  and  C18_23 
REMARK   12  A    between atoms: C18_23  and  C19_24 
REMARK       I    between atoms: C19_24  and  N1_26 
REMARK   13  A    between atoms: N1_26  and  C20_27 
REMARK   14  A    between atoms: C20_27  and  C21_28 
REMARK   15  A    between atoms: C20_27  and  C25_36 
REMARK   16  A    between atoms: C21_28  and  C22_29 
REMARK   17  A    between atoms: C22_29  and  C23_30 
REMARK   18  A    between atoms: C23_30  and  N2_31 
REMARK       I    between atoms: C24_33  and  N3_34 
REMARK       I    between atoms: C24_33  and  N4_35 
REMARK   19  A    between atoms: C25_36  and  O8_38 
REMARK   20  A    between atoms: C35_48  and  C36_49 
ROOT
HETATM    1  C3  UNL     1      -3.674  51.086 -24.544  1.00  0.00     0.144 C 
HETATM    2  C4  UNL     1      -4.985  50.428 -24.124  1.00  0.00     0.072 C 
HETATM    3  C5  UNL     1      -4.739  49.776 -22.730  1.00  0.00     0.072 C 
HETATM    4  C6  UNL     1      -5.906  50.185 -21.755  1.00  0.00     0.026 C 
HETATM    5  C7  UNL     1      -7.277  49.707 -22.244  1.00  0.00     0.008 C 
HETATM    6  C8  UNL     1      -7.565  48.244 -21.963  1.00  0.00     0.006 C 
HETATM    7  C9  UNL     1      -7.097  47.715 -20.590  1.00  0.00    -0.004 C 
HETATM    8  C10 UNL     1      -8.192  46.794 -20.003  1.00  0.00     0.038 C 
HETATM    9  C11 UNL     1      -9.409  47.588 -19.527  1.00  0.00     0.132 C 
HETATM   10  C26 UNL     1      -9.009  48.640 -18.493  1.00  0.00     0.033 C 
HETATM   11  C27 UNL     1      -7.902  49.560 -19.007  1.00  0.00     0.012 C 
HETATM   12  C28 UNL     1      -6.654  48.812 -19.577  1.00  0.00    -0.036 C 
HETATM   13  C29 UNL     1      -5.966  48.124 -18.362  1.00  0.00     0.016 C 
HETATM   14  C30 UNL     1      -5.678  49.864 -20.245  1.00  0.00     0.001 C 
HETATM   15  C31 UNL     1      -4.181  49.655 -19.961  1.00  0.00     0.007 C 
HETATM   16  C32 UNL     1      -3.325  50.629 -20.769  1.00  0.00     0.013 C 
HETATM   17  C33 UNL     1      -3.310  50.260 -22.269  1.00  0.00    -0.002 C 
HETATM   18  C34 UNL     1      -2.213  49.175 -22.448  1.00  0.00     0.019 C 
HETATM   19  C35 UNL     1      -3.042  51.503 -23.189  1.00  0.00     0.059 C 
ENDROOT
BRANCH   9  20
HETATM   20  O4  UNL     1     -10.345  46.676 -18.921  1.00  0.00    -0.316 OA
BRANCH  20  21
HETATM   21  C12 UNL     1     -11.590  47.189 -18.700  1.00  0.00     0.259 C 
HETATM   22  O5  UNL     1     -12.060  47.482 -17.608  1.00  0.00    -0.265 OA
BRANCH  21  23
HETATM   23  C13 UNL     1     -12.373  47.263 -19.987  1.00  0.00     0.111 C 
BRANCH  23  24
HETATM   24  C14 UNL     1     -13.560  48.215 -19.870  1.00  0.00     0.010 C 
BRANCH  24  25
HETATM   25  C15 UNL     1     -14.900  47.674 -20.381  1.00  0.00     0.000 C 
BRANCH  25  26
HETATM   26  C16 UNL     1     -14.816  46.576 -21.445  1.00  0.00     0.000 C 
BRANCH  26  27
HETATM   27  C17 UNL     1     -14.320  47.020 -22.821  1.00  0.00     0.009 C 
BRANCH  27  28
HETATM   28  C18 UNL     1     -15.450  47.427 -23.763  1.00  0.00     0.103 C 
BRANCH  28  29
HETATM   29  C19 UNL     1     -16.432  46.295 -24.010  1.00  0.00     0.218 C 
HETATM   30  O6  UNL     1     -17.211  45.867 -23.166  1.00  0.00    -0.274 OA
HETATM   31  N1  UNL     1     -16.310  45.764 -25.278  1.00  0.00    -0.347 N 
HETATM   32  H29 UNL     1     -15.956  46.394 -25.989  1.00  0.00     0.163 HD
BRANCH  31  33
HETATM   33  C20 UNL     1     -17.240  44.729 -25.758  1.00  0.00     0.182 C 
BRANCH  33  34
HETATM   34  C21 UNL     1     -16.466  43.809 -26.714  1.00  0.00     0.038 C 
BRANCH  34  35
HETATM   35  C22 UNL     1     -15.033  44.262 -27.018  1.00  0.00     0.022 C 
BRANCH  35  36
HETATM   36  C23 UNL     1     -14.899  45.646 -27.647  1.00  0.00     0.121 C 
BRANCH  36  37
HETATM   37  N2  UNL     1     -14.261  45.506 -28.952  1.00  0.00    -0.372 N 
HETATM   38  C24 UNL     1     -13.020  45.788 -29.073  1.00  0.00     0.121 C 
HETATM   39  N3  UNL     1     -12.430  45.711 -30.287  1.00  0.00    -0.279 NA
HETATM   40  N4  UNL     1     -12.118  46.199 -28.153  1.00  0.00    -0.279 NA
HETATM   41  H37 UNL     1     -13.135  45.559 -31.000  1.00  0.00     0.126 HD
HETATM   42  H38 UNL     1     -11.886  46.541 -30.493  1.00  0.00     0.126 HD
HETATM   43  H39 UNL     1     -12.412  46.041 -27.194  1.00  0.00     0.126 HD
HETATM   44  H40 UNL     1     -11.210  45.777 -28.319  1.00  0.00     0.126 HD
ATOM     45  H2  UNL     1     -14.799  45.187 -29.758  1.00  0.00     0.161 HD
ENDBRANCH  36  37
ENDBRANCH  35  36
ENDBRANCH  34  35
ENDBRANCH  33  34
BRANCH  33  46
HETATM   46  C25 UNL     1     -18.440  45.401 -26.441  1.00  0.00     0.163 C 
HETATM   47  O7  UNL     1     -19.266  46.127 -25.911  1.00  0.00    -0.648 OA
BRANCH  46  48
HETATM   48  O8  UNL     1     -18.582  45.072 -27.747  1.00  0.00    -0.775 OA
HETATM   49  H41 UNL     1     -19.400  45.556 -27.999  1.00  0.00     0.167 HD
ENDBRANCH  46  48
ENDBRANCH  33  46
ENDBRANCH  31  33
ENDBRANCH  28  29
ENDBRANCH  27  28
ENDBRANCH  26  27
ENDBRANCH  25  26
ENDBRANCH  24  25
ENDBRANCH  23  24
ENDBRANCH  21  23
ENDBRANCH  20  21
ENDBRANCH   9  20
BRANCH   3  50
HETATM   50  O3  UNL     1      -4.758  48.355 -22.865  1.00  0.00    -0.389 OA
HETATM   51  H7  UNL     1      -4.243  48.109 -23.655  1.00  0.00     0.210 HD
ENDBRANCH   3  50
BRANCH   1  52
HETATM   52  O2  UNL     1      -2.880  50.123 -25.255  1.00  0.00    -0.316 OA
BRANCH  52  53
HETATM   53  C2  UNL     1      -3.197  49.954 -26.574  1.00  0.00     0.255 C 
HETATM   54  C1  UNL     1      -3.335  48.494 -26.880  1.00  0.00     0.126 C 
HETATM   55  O1  UNL     1      -3.342  50.855 -27.389  1.00  0.00    -0.266 OA
ENDBRANCH  52  53
ENDBRANCH   1  52
BRANCH  19  56
HETATM   56  C36 UNL     1      -1.628  52.095 -23.222  1.00  0.00    -0.043 A 
HETATM   57  C37 UNL     1      -0.747  52.053 -22.212  1.00  0.00     0.090 A 
HETATM   58  C38 UNL     1       0.625  52.599 -22.319  1.00  0.00     0.287 A 
HETATM   59  O9  UNL     1       1.389  52.526 -21.367  1.00  0.00    -0.260 OA
HETATM   60  O10 UNL     1       0.987  53.155 -23.513  1.00  0.00    -0.288 OA
HETATM   61  C39 UNL     1       0.070  53.152 -24.564  1.00  0.00     0.146 A 
HETATM   62  C40 UNL     1      -1.165  52.653 -24.476  1.00  0.00     0.032 A 
ENDBRANCH  19  56
TORSDOF 20
ENDMDL
MODEL 2
REMARK minimizedAffinity -8.76334
REMARK CNNscore 0.477197081
REMARK CNNaffinity 6.49549866
REMARK  20 active torsions:
REMARK  status: ('A' for Active; 'I' for Inactive)
REMARK    1  A    between atoms: C2_2  and  O2_4 
REMARK    2  A    between atoms: O2_4  and  C3_5 
REMARK    3  A    between atoms: C5_7  and  O3_8 
REMARK    4  A    between atoms: C11_14  and  O4_15 
REMARK    5  A    between atoms: O4_15  and  C12_16 
REMARK    6  A    between atoms: C12_16  and  C13_18 
REMARK    7  A    between atoms: C13_18  and  C14_19 
REMARK    8  A    between atoms: C14_19  and  C15_20 
REMARK    9  A    between atoms: C15_20  and  C16_21 
REMARK   10  A    between atoms: C16_21  and  C17_22 
REMARK   11  A    between atoms: C17_22  and  C18_23 
REMARK   12  A    between atoms: C18_23  and  C19_24 
REMARK       I    between atoms: C19_24  and  N1_26 
REMARK   13  A    between atoms: N1_26  and  C20_27 
REMARK   14  A    between atoms: C20_27  and  C21_28 
REMARK   15  A    between atoms: C20_27  and  C25_36 
REMARK   16  A    between atoms: C21_28  and  C22_29 
REMARK   17  A    between atoms: C22_29  and  C23_30 
REMARK   18  A    between atoms: C23_30  and  N2_31 
REMARK       I    between atoms: C24_33  and  N3_34 
REMARK       I    between atoms: C24_33  and  N4_35 
REMARK   19  A    between atoms: C25_36  and  O8_38 
REMARK   20  A    between atoms: C35_48  and  C36_49 
ROOT
HETATM    1  C3  UNL     1      -0.746  51.067 -22.196  1.00  0.00     0.144 C 
HETATM    2  C4  UNL     1      -1.715  50.194 -21.405  1.00  0.00     0.072 C 
HETATM    3  C5  UNL     1      -3.083  50.247 -22.150  1.00  0.00     0.072 C 
HETATM    4  C6  UNL     1      -3.631  48.780 -22.327  1.00  0.00     0.026 C 
HETATM    5  C7  UNL     1      -3.870  48.074 -20.989  1.00  0.00     0.008 C 
HETATM    6  C8  UNL     1      -5.162  48.466 -20.299  1.00  0.00     0.006 C 
HETATM    7  C9  UNL     1      -6.391  48.643 -21.216  1.00  0.00    -0.004 C 
HETATM    8  C10 UNL     1      -7.629  48.017 -20.530  1.00  0.00     0.038 C 
HETATM    9  C11 UNL     1      -7.571  46.489 -20.537  1.00  0.00     0.132 C 
HETATM   10  C26 UNL     1      -7.439  45.950 -21.961  1.00  0.00     0.033 C 
HETATM   11  C27 UNL     1      -6.250  46.561 -22.701  1.00  0.00     0.012 C 
HETATM   12  C28 UNL     1      -6.207  48.124 -22.673  1.00  0.00    -0.036 C 
HETATM   13  C29 UNL     1      -7.409  48.608 -23.534  1.00  0.00     0.016 C 
HETATM   14  C30 UNL     1      -4.839  48.616 -23.299  1.00  0.00     0.001 C 
HETATM   15  C31 UNL     1      -4.940  49.830 -24.240  1.00  0.00     0.007 C 
HETATM   16  C32 UNL     1      -3.554  50.311 -24.669  1.00  0.00     0.013 C 
HETATM   17  C33 UNL     1      -2.812  51.005 -23.506  1.00  0.00    -0.002 C 
HETATM   18  C34 UNL     1      -3.299  52.480 -23.486  1.00  0.00     0.019 C 
HETATM   19  C35 UNL     1      -1.252  50.919 -23.656  1.00  0.00     0.059 C 
ENDROOT
BRANCH   9  20
HETATM   20  O4  UNL     1      -8.789  45.980 -19.959  1.00  0.00    -0.316 OA
BRANCH  20  21
HETATM   21  C12 UNL     1      -9.934  46.380 -20.585  1.00  0.00     0.259 C 
HETATM   22  O5  UNL     1     -10.029  46.716 -21.758  1.00  0.00    -0.265 OA
BRANCH  21  23
HETATM   23  C13 UNL     1     -11.080  46.450 -19.607  1.00  0.00     0.111 C 
BRANCH  23  24
HETATM   24  C14 UNL     1     -11.807  47.789 -19.686  1.00  0.00     0.010 C 
BRANCH  24  25
HETATM   25  C15 UNL     1     -13.134  47.872 -18.922  1.00  0.00     0.000 C 
BRANCH  25  26
HETATM   26  C16 UNL     1     -14.337  48.378 -19.723  1.00  0.00     0.000 C 
BRANCH  26  27
HETATM   27  C17 UNL     1     -14.518  47.762 -21.110  1.00  0.00     0.009 C 
BRANCH  27  28
HETATM   28  C18 UNL     1     -15.063  46.337 -21.066  1.00  0.00     0.103 C 
BRANCH  28  29
HETATM   29  C19 UNL     1     -16.560  46.282 -21.318  1.00  0.00     0.218 C 
HETATM   30  O6  UNL     1     -17.406  46.382 -20.438  1.00  0.00    -0.274 OA
HETATM   31  N1  UNL     1     -16.860  46.051 -22.645  1.00  0.00    -0.347 N 
HETATM   32  H29 UNL     1     -16.167  46.365 -23.316  1.00  0.00     0.163 HD
BRANCH  31  33
HETATM   33  C20 UNL     1     -18.252  46.068 -23.121  1.00  0.00     0.182 C 
BRANCH  33  34
HETATM   34  C21 UNL     1     -18.731  44.614 -23.226  1.00  0.00     0.038 C 
BRANCH  34  35
HETATM   35  C22 UNL     1     -19.823  44.226 -22.221  1.00  0.00     0.022 C 
BRANCH  35  36
HETATM   36  C23 UNL     1     -19.715  42.817 -21.642  1.00  0.00     0.121 C 
BRANCH  36  37
HETATM   37  N2  UNL     1     -20.590  42.722 -20.479  1.00  0.00    -0.372 N 
HETATM   38  C24 UNL     1     -21.856  42.691 -20.651  1.00  0.00     0.121 C 
HETATM   39  N3  UNL     1     -22.679  42.654 -19.579  1.00  0.00    -0.279 NA
HETATM   40  N4  UNL     1     -22.590  42.707 -21.788  1.00  0.00    -0.279 NA
HETATM   41  H37 UNL     1     -22.141  42.801 -18.731  1.00  0.00     0.126 HD
HETATM   42  H38 UNL     1     -23.423  43.338 -19.653  1.00  0.00     0.126 HD
HETATM   43  H39 UNL     1     -22.055  42.483 -22.622  1.00  0.00     0.126 HD
HETATM   44  H40 UNL     1     -23.397  42.097 -21.710  1.00  0.00     0.126 HD
ATOM     45  H2  UNL     1     -20.196  42.681 -19.539  1.00  0.00     0.161 HD
ENDBRANCH  36  37
ENDBRANCH  35  36
ENDBRANCH  34  35
ENDBRANCH  33  34
BRANCH  33  46
HETATM   46  C25 UNL     1     -18.319  46.802 -24.469  1.00  0.00     0.163 C 
HETATM   47  O7  UNL     1     -19.100  47.689 -24.777  1.00  0.00    -0.648 OA
BRANCH  46  48
HETATM   48  O8  UNL     1     -17.442  46.336 -25.390  1.00  0.00    -0.775 OA
HETATM   49  H41 UNL     1     -17.650  46.888 -26.177  1.00  0.00     0.167 HD
ENDBRANCH  46  48
ENDBRANCH  33  46
ENDBRANCH  31  33
ENDBRANCH  28  29
ENDBRANCH  27  28
ENDBRANCH  26  27
ENDBRANCH  25  26
ENDBRANCH  24  25
ENDBRANCH  23  24
ENDBRANCH  21  23
ENDBRANCH  20  21
ENDBRANCH   9  20
BRANCH   3  50
HETATM   50  O3  UNL     1      -4.023  50.972 -21.358  1.00  0.00    -0.389 OA
HETATM   51  H7  UNL     1      -3.588  51.772 -21.010  1.00  0.00     0.210 HD
ENDBRANCH   3  50
BRANCH   1  52
HETATM   52  O2  UNL     1      -0.836  52.417 -21.710  1.00  0.00    -0.316 OA
BRANCH  52  53
HETATM   53  C2  UNL     1       0.099  52.773 -20.779  1.00  0.00     0.255 C 
HETATM   54  C1  UNL     1       1.184  53.574 -21.430  1.00  0.00     0.126 C 
HETATM   55  O1  UNL     1       0.064  52.480 -19.592  1.00  0.00    -0.266 OA
ENDBRANCH  52  53
ENDBRANCH   1  52
BRANCH  19  56
HETATM   56  C36 UNL     1      -0.573  51.778 -24.729  1.00  0.00    -0.043 A 
HETATM   57  C37 UNL     1      -0.535  53.118 -24.739  1.00  0.00     0.090 A 
HETATM   58  C38 UNL     1       0.179  53.895 -25.776  1.00  0.00     0.287 A 
HETATM   59  O9  UNL     1       0.186  55.117 -25.731  1.00  0.00    -0.260 OA
HETATM   60  O10 UNL     1       0.828  53.190 -26.751  1.00  0.00    -0.288 OA
HETATM   61  C39 UNL     1       0.812  51.797 -26.700  1.00  0.00     0.146 A 
HETATM   62  C40 UNL     1       0.176  51.091 -25.762  1.00  0.00     0.032 A 
ENDBRANCH  19  56
TORSDOF 20
ENDMDL
MODEL 3
REMARK minimizedAffinity -8.6864872
REMARK CNNscore 0.449238062
REMARK CNNaffinity 6.26652145
REMARK  20 active torsions:
REMARK  status: ('A' for Active; 'I' for Inactive)
REMARK    1  A    between atoms: C2_2  and  O2_4 
REMARK    2  A    between atoms: O2_4  and  C3_5 
REMARK    3  A    between atoms: C5_7  and  O3_8 
REMARK    4  A    between atoms: C11_14  and  O4_15 
REMARK    5  A    between atoms: O4_15  and  C12_16 
REMARK    6  A    between atoms: C12_16  and  C13_18 
REMARK    7  A    between atoms: C13_18  and  C14_19 
REMARK    8  A    between atoms: C14_19  and  C15_20 
REMARK    9  A    between atoms: C15_20  and  C16_21 
REMARK   10  A    between atoms: C16_21  and  C17_22 
REMARK   11  A    between atoms: C17_22  and  C18_23 
REMARK   12  A    between atoms: C18_23  and  C19_24 
REMARK       I    between atoms: C19_24  and  N1_26 
REMARK   13  A    between atoms: N1_26  and  C20_27 
REMARK   14  A    between atoms: C20_27  and  C21_28 
REMARK   15  A    between atoms: C20_27  and  C25_36 
REMARK   16  A    between atoms: C21_28  and  C22_29 
REMARK   17  A    between atoms: C22_29  and  C23_30 
REMARK   18  A    between atoms: C23_30  and  N2_31 
REMARK       I    between atoms: C24_33  and  N3_34 
REMARK       I    between atoms: C24_33  and  N4_35 
REMARK   19  A    between atoms: C25_36  and  O8_38 
REMARK   20  A    between atoms: C35_48  and  C36_49 
ROOT
HETATM    1  C3  UNL     1      -0.880  50.758 -22.353  1.00  0.00     0.144 C 
HETATM    2  C4  UNL     1      -1.954  49.926 -21.659  1.00  0.00     0.072 C 
HETATM    3  C5  UNL     1      -3.301  50.230 -22.381  1.00  0.00     0.072 C 
HETATM    4  C6  UNL     1      -4.023  48.871 -22.719  1.00  0.00     0.026 C 
HETATM    5  C7  UNL     1      -4.353  48.051 -21.468  1.00  0.00     0.008 C 
HETATM    6  C8  UNL     1      -5.592  48.517 -20.727  1.00  0.00     0.006 C 
HETATM    7  C9  UNL     1      -6.785  48.946 -21.607  1.00  0.00    -0.004 C 
HETATM    8  C10 UNL     1      -8.093  48.402 -20.987  1.00  0.00     0.038 C 
HETATM    9  C11 UNL     1      -8.223  46.889 -21.168  1.00  0.00     0.132 C 
HETATM   10  C26 UNL     1      -8.151  46.504 -22.645  1.00  0.00     0.033 C 
HETATM   11  C27 UNL     1      -6.892  47.046 -23.321  1.00  0.00     0.012 C 
HETATM   12  C28 UNL     1      -6.658  48.578 -23.115  1.00  0.00    -0.036 C 
HETATM   13  C29 UNL     1      -7.787  49.301 -23.905  1.00  0.00     0.016 C 
HETATM   14  C30 UNL     1      -5.237  48.968 -23.693  1.00  0.00     0.001 C 
HETATM   15  C31 UNL     1      -5.183  50.284 -24.489  1.00  0.00     0.007 C 
HETATM   16  C32 UNL     1      -3.747  50.638 -24.872  1.00  0.00     0.013 C 
HETATM   17  C33 UNL     1      -2.931  51.099 -23.644  1.00  0.00    -0.002 C 
HETATM   18  C34 UNL     1      -3.235  52.611 -23.452  1.00  0.00     0.019 C 
HETATM   19  C35 UNL     1      -1.393  50.841 -23.816  1.00  0.00     0.059 C 
ENDROOT
BRANCH   9  20
HETATM   20  O4  UNL     1      -9.497  46.470 -20.641  1.00  0.00    -0.316 OA
BRANCH  20  21
HETATM   21  C12 UNL     1      -9.706  46.775 -19.328  1.00  0.00     0.259 C 
HETATM   22  O5  UNL     1      -9.083  46.317 -18.379  1.00  0.00    -0.265 OA
BRANCH  21  23
HETATM   23  C13 UNL     1     -10.891  47.696 -19.176  1.00  0.00     0.111 C 
BRANCH  23  24
HETATM   24  C14 UNL     1     -12.029  47.309 -20.115  1.00  0.00     0.010 C 
BRANCH  24  25
HETATM   25  C15 UNL     1     -12.989  46.235 -19.590  1.00  0.00     0.000 C 
BRANCH  25  26
HETATM   26  C16 UNL     1     -14.408  46.708 -19.261  1.00  0.00     0.000 C 
BRANCH  26  27
HETATM   27  C17 UNL     1     -15.170  47.374 -20.407  1.00  0.00     0.009 C 
BRANCH  27  28
HETATM   28  C18 UNL     1     -15.610  46.388 -21.486  1.00  0.00     0.103 C 
BRANCH  28  29
HETATM   29  C19 UNL     1     -17.121  46.281 -21.590  1.00  0.00     0.218 C 
HETATM   30  O6  UNL     1     -17.885  46.429 -20.643  1.00  0.00    -0.274 OA
HETATM   31  N1  UNL     1     -17.536  45.943 -22.861  1.00  0.00    -0.347 N 
HETATM   32  H29 UNL     1     -16.918  46.220 -23.616  1.00  0.00     0.163 HD
BRANCH  31  33
HETATM   33  C20 UNL     1     -18.966  45.893 -23.204  1.00  0.00     0.182 C 
BRANCH  33  34
HETATM   34  C21 UNL     1     -19.357  44.420 -23.380  1.00  0.00     0.038 C 
BRANCH  34  35
HETATM   35  C22 UNL     1     -18.369  43.591 -24.211  1.00  0.00     0.022 C 
BRANCH  35  36
HETATM   36  C23 UNL     1     -18.860  43.177 -25.597  1.00  0.00     0.121 C 
BRANCH  36  37
HETATM   37  N2  UNL     1     -17.767  43.344 -26.548  1.00  0.00    -0.372 N 
HETATM   38  C24 UNL     1     -17.757  44.369 -27.312  1.00  0.00     0.121 C 
HETATM   39  N3  UNL     1     -16.777  44.510 -28.233  1.00  0.00    -0.279 NA
HETATM   40  N4  UNL     1     -18.615  45.412 -27.396  1.00  0.00    -0.279 NA
HETATM   41  H37 UNL     1     -16.228  43.659 -28.280  1.00  0.00     0.126 HD
HETATM   42  H38 UNL     1     -17.151  44.745 -29.146  1.00  0.00     0.126 HD
HETATM   43  H39 UNL     1     -19.221  45.508 -26.587  1.00  0.00     0.126 HD
HETATM   44  H40 UNL     1     -18.118  46.280 -27.571  1.00  0.00     0.126 HD
ATOM     45  H2  UNL     1     -17.020  42.652 -26.604  1.00  0.00     0.161 HD
ENDBRANCH  36  37
ENDBRANCH  35  36
ENDBRANCH  34  35
ENDBRANCH  33  34
BRANCH  33  46
HETATM   46  C25 UNL     1     -19.213  46.717 -24.477  1.00  0.00     0.163 C 
HETATM   47  O7  UNL     1     -18.499  47.603 -24.920  1.00  0.00    -0.648 OA
BRANCH  46  48
HETATM   48  O8  UNL     1     -20.384  46.432 -25.095  1.00  0.00    -0.775 OA
HETATM   49  H41 UNL     1     -20.384  47.065 -25.848  1.00  0.00     0.167 HD
ENDBRANCH  46  48
ENDBRANCH  33  46
ENDBRANCH  31  33
ENDBRANCH  28  29
ENDBRANCH  27  28
ENDBRANCH  26  27
ENDBRANCH  25  26
ENDBRANCH  24  25
ENDBRANCH  23  24
ENDBRANCH  21  23
ENDBRANCH  20  21
ENDBRANCH   9  20
BRANCH   3  50
HETATM   50  O3  UNL     1      -4.149  50.970 -21.503  1.00  0.00    -0.389 OA
HETATM   51  H7  UNL     1      -3.621  51.665 -21.070  1.00  0.00     0.210 HD
ENDBRANCH   3  50
BRANCH   1  52
HETATM   52  O2  UNL     1      -0.808  52.045 -21.716  1.00  0.00    -0.316 OA
BRANCH  52  53
HETATM   53  C2  UNL     1       0.440  52.438 -21.320  1.00  0.00     0.255 C 
HETATM   54  C1  UNL     1       0.328  53.529 -20.301  1.00  0.00     0.126 C 
HETATM   55  O1  UNL     1       1.494  51.977 -21.737  1.00  0.00    -0.266 OA
ENDBRANCH  52  53
ENDBRANCH   1  52
BRANCH  19  56
HETATM   56  C36 UNL     1      -0.609  51.727 -24.790  1.00  0.00    -0.043 A 
HETATM   57  C37 UNL     1      -0.607  53.068 -24.787  1.00  0.00     0.090 A 
HETATM   58  C38 UNL     1       0.210  53.873 -25.722  1.00  0.00     0.287 A 
HETATM   59  O9  UNL     1       0.178  55.095 -25.669  1.00  0.00    -0.260 OA
HETATM   60  O10 UNL     1       0.997  53.196 -26.611  1.00  0.00    -0.288 OA
HETATM   61  C39 UNL     1       1.012  51.802 -26.571  1.00  0.00     0.146 A 
HETATM   62  C40 UNL     1       0.284  51.071 -25.724  1.00  0.00     0.032 A 
ENDBRANCH  19  56
TORSDOF 20
ENDMDL
MODEL 4
REMARK minimizedAffinity -8.33542347
REMARK CNNscore 0.445086896
REMARK CNNaffinity 6.19175196
REMARK  20 active torsions:
REMARK  status: ('A' for Active; 'I' for Inactive)
REMARK    1  A    between atoms: C2_2  and  O2_4 
REMARK    2  A    between atoms: O2_4  and  C3_5 
REMARK    3  A    between atoms: C5_7  and  O3_8 
REMARK    4  A    between atoms: C11_14  and  O4_15 
REMARK    5  A    between atoms: O4_15  and  C12_16 
REMARK    6  A    between atoms: C12_16  and  C13_18 
REMARK    7  A    between atoms: C13_18  and  C14_19 
REMARK    8  A    between atoms: C14_19  and  C15_20 
REMARK    9  A    between atoms: C15_20  and  C16_21 
REMARK   10  A    between atoms: C16_21  and  C17_22 
REMARK   11  A    between atoms: C17_22  and  C18_23 
REMARK   12  A    between atoms: C18_23  and  C19_24 
REMARK       I    between atoms: C19_24  and  N1_26 
REMARK   13  A    between atoms: N1_26  and  C20_27 
REMARK   14  A    between atoms: C20_27  and  C21_28 
REMARK   15  A    between atoms: C20_27  and  C25_36 
REMARK   16  A    between atoms: C21_28  and  C22_29 
REMARK   17  A    between atoms: C22_29  and  C23_30 
REMARK   18  A    between atoms: C23_30  and  N2_31 
REMARK       I    between atoms: C24_33  and  N3_34 
REMARK       I    between atoms: C24_33  and  N4_35 
REMARK   19  A    between atoms: C25_36  and  O8_38 
REMARK   20  A    between atoms: C35_48  and  C36_49 
ROOT
HETATM    1  C3  UNL     1      -1.721  51.908 -23.522  1.00  0.00     0.144 C 
HETATM    2  C4  UNL     1      -2.979  51.194 -24.006  1.00  0.00     0.072 C 
HETATM    3  C5  UNL     1      -3.303  50.087 -22.959  1.00  0.00     0.072 C 
HETATM    4  C6  UNL     1      -4.828  50.172 -22.572  1.00  0.00     0.026 C 
HETATM    5  C7  UNL     1      -5.754  49.948 -23.772  1.00  0.00     0.008 C 
HETATM    6  C8  UNL     1      -5.940  48.491 -24.152  1.00  0.00     0.006 C 
HETATM    7  C9  UNL     1      -6.076  47.498 -22.979  1.00  0.00    -0.004 C 
HETATM    8  C10 UNL     1      -7.184  46.471 -23.310  1.00  0.00     0.038 C 
HETATM    9  C11 UNL     1      -8.579  47.094 -23.231  1.00  0.00     0.132 C 
HETATM   10  C26 UNL     1      -8.832  47.702 -21.852  1.00  0.00     0.033 C 
HETATM   11  C27 UNL     1      -7.746  48.701 -21.455  1.00  0.00     0.012 C 
HETATM   12  C28 UNL     1      -6.287  48.153 -21.582  1.00  0.00    -0.036 C 
HETATM   13  C29 UNL     1      -6.137  47.058 -20.485  1.00  0.00     0.016 C 
HETATM   14  C30 UNL     1      -5.265  49.336 -21.330  1.00  0.00     0.001 C 
HETATM   15  C31 UNL     1      -4.043  48.983 -20.463  1.00  0.00     0.007 C 
HETATM   16  C32 UNL     1      -3.054  50.146 -20.408  1.00  0.00     0.013 C 
HETATM   17  C33 UNL     1      -2.315  50.325 -21.753  1.00  0.00    -0.002 C 
HETATM   18  C34 UNL     1      -1.122  49.330 -21.739  1.00  0.00     0.019 C 
HETATM   19  C35 UNL     1      -1.829  51.800 -21.977  1.00  0.00     0.059 C 
ENDROOT
BRANCH   9  20
HETATM   20  O4  UNL     1      -9.557  46.063 -23.469  1.00  0.00    -0.316 OA
BRANCH  20  21
HETATM   21  C12 UNL     1      -9.144  44.797 -23.170  1.00  0.00     0.259 C 
HETATM   22  O5  UNL     1      -8.942  44.357 -22.046  1.00  0.00    -0.265 OA
BRANCH  21  23
HETATM   23  C13 UNL     1      -8.870  44.014 -24.430  1.00  0.00     0.111 C 
BRANCH  23  24
HETATM   24  C14 UNL     1     -10.147  43.764 -25.226  1.00  0.00     0.010 C 
BRANCH  24  25
HETATM   25  C15 UNL     1     -11.458  43.883 -24.439  1.00  0.00     0.000 C 
BRANCH  25  26
HETATM   26  C16 UNL     1     -12.649  44.461 -25.207  1.00  0.00     0.000 C 
BRANCH  26  27
HETATM   27  C17 UNL     1     -12.659  45.980 -25.375  1.00  0.00     0.009 C 
BRANCH  27  28
HETATM   28  C18 UNL     1     -13.944  46.504 -26.010  1.00  0.00     0.103 C 
BRANCH  28  29
HETATM   29  C19 UNL     1     -14.969  46.931 -24.974  1.00  0.00     0.218 C 
HETATM   30  O6  UNL     1     -14.744  47.740 -24.081  1.00  0.00    -0.274 OA
HETATM   31  N1  UNL     1     -16.168  46.263 -25.116  1.00  0.00    -0.347 N 
HETATM   32  H29 UNL     1     -16.386  45.941 -26.053  1.00  0.00     0.163 HD
BRANCH  31  33
HETATM   33  C20 UNL     1     -17.330  46.605 -24.281  1.00  0.00     0.182 C 
BRANCH  33  34
HETATM   34  C21 UNL     1     -17.334  45.660 -23.071  1.00  0.00     0.038 C 
BRANCH  34  35
HETATM   35  C22 UNL     1     -16.801  46.280 -21.773  1.00  0.00     0.022 C 
BRANCH  35  36
HETATM   36  C23 UNL     1     -17.402  45.727 -20.484  1.00  0.00     0.121 C 
BRANCH  36  37
HETATM   37  N2  UNL     1     -18.302  46.727 -19.922  1.00  0.00    -0.372 N 
HETATM   38  C24 UNL     1     -19.372  46.345 -19.336  1.00  0.00     0.121 C 
HETATM   39  N3  UNL     1     -20.240  47.264 -18.855  1.00  0.00    -0.279 NA
HETATM   40  N4  UNL     1     -19.849  45.101 -19.100  1.00  0.00    -0.279 NA
HETATM   41  H37 UNL     1     -19.964  48.189 -19.168  1.00  0.00     0.126 HD
HETATM   42  H38 UNL     1     -21.193  47.061 -19.133  1.00  0.00     0.126 HD
HETATM   43  H39 UNL     1     -19.151  44.370 -19.201  1.00  0.00     0.126 HD
HETATM   44  H40 UNL     1     -20.290  45.046 -18.188  1.00  0.00     0.126 HD
ATOM     45  H2  UNL     1     -18.082  47.720 -19.996  1.00  0.00     0.161 HD
ENDBRANCH  36  37
ENDBRANCH  35  36
ENDBRANCH  34  35
ENDBRANCH  33  34
BRANCH  33  46
HETATM   46  C25 UNL     1     -18.612  46.483 -25.119  1.00  0.00     0.163 C 
HETATM   47  O7  UNL     1     -19.710  46.937 -24.839  1.00  0.00    -0.648 OA
BRANCH  46  48
HETATM   48  O8  UNL     1     -18.465  45.736 -26.239  1.00  0.00    -0.775 OA
HETATM   49  H41 UNL     1     -19.373  45.742 -26.617  1.00  0.00     0.167 HD
ENDBRANCH  46  48
ENDBRANCH  33  46
ENDBRANCH  31  33
ENDBRANCH  28  29
ENDBRANCH  27  28
ENDBRANCH  26  27
ENDBRANCH  25  26
ENDBRANCH  24  25
ENDBRANCH  23  24
ENDBRANCH  21  23
ENDBRANCH  20  21
ENDBRANCH   9  20
BRANCH   3  50
HETATM   50  O3  UNL     1      -3.071  48.805 -23.542  1.00  0.00    -0.389 OA
HETATM   51  H7  UNL     1      -2.227  48.831 -24.029  1.00  0.00     0.210 HD
ENDBRANCH   3  50
BRANCH   1  52
HETATM   52  O2  UNL     1      -0.571  51.225 -24.048  1.00  0.00    -0.316 OA
BRANCH  52  53
HETATM   53  C2  UNL     1       0.028  51.819 -25.123  1.00  0.00     0.255 C 
HETATM   54  C1  UNL     1       0.005  50.887 -26.296  1.00  0.00     0.126 C 
HETATM   55  O1  UNL     1       0.517  52.940 -25.133  1.00  0.00    -0.266 OA
ENDBRANCH  52  53
ENDBRANCH   1  52
BRANCH  19  56
HETATM   56  C36 UNL     1      -0.645  52.312 -21.149  1.00  0.00    -0.043 A 
HETATM   57  C37 UNL     1       0.318  53.130 -21.598  1.00  0.00     0.090 A 
HETATM   58  C38 UNL     1       1.412  53.632 -20.737  1.00  0.00     0.287 A 
HETATM   59  O9  UNL     1       2.261  54.382 -21.199  1.00  0.00    -0.260 OA
HETATM   60  O10 UNL     1       1.412  53.238 -19.428  1.00  0.00    -0.288 OA
HETATM   61  C39 UNL     1       0.378  52.421 -18.971  1.00  0.00     0.146 A 
HETATM   62  C40 UNL     1      -0.615  51.972 -19.741  1.00  0.00     0.032 A 
ENDBRANCH  19  56
TORSDOF 20
ENDMDL
MODEL 5
REMARK minimizedAffinity -8.01485634
REMARK CNNscore 0.442683071
REMARK CNNaffinity 7.30142832
REMARK  20 active torsions:
REMARK  status: ('A' for Active; 'I' for Inactive)
REMARK    1  A    between atoms: C2_2  and  O2_4 
REMARK    2  A    between atoms: O2_4  and  C3_5 
REMARK    3  A    between atoms: C5_7  and  O3_8 
REMARK    4  A    between atoms: C11_14  and  O4_15 
REMARK    5  A    between atoms: O4_15  and  C12_16 
REMARK    6  A    between atoms: C12_16  and  C13_18 
REMARK    7  A    between atoms: C13_18  and  C14_19 
REMARK    8  A    between atoms: C14_19  and  C15_20 
REMARK    9  A    between atoms: C15_20  and  C16_21 
REMARK   10  A    between atoms: C16_21  and  C17_22 
REMARK   11  A    between atoms: C17_22  and  C18_23 
REMARK   12  A    between atoms: C18_23  and  C19_24 
REMARK       I    between atoms: C19_24  and  N1_26 
REMARK   13  A    between atoms: N1_26  and  C20_27 
REMARK   14  A    between atoms: C20_27  and  C21_28 
REMARK   15  A    between atoms: C20_27  and  C25_36 
REMARK   16  A    between atoms: C21_28  and  C22_29 
REMARK   17  A    between atoms: C22_29  and  C23_30 
REMARK   18  A    between atoms: C23_30  and  N2_31 
REMARK       I    between atoms: C24_33  and  N3_34 
REMARK       I    between atoms: C24_33  and  N4_35 
REMARK   19  A    between atoms: C25_36  and  O8_38 
REMARK   20  A    between atoms: C35_48  and  C36_49 
ROOT
HETATM    1  C3  UNL     1       0.394  51.782 -22.032  1.00  0.00     0.144 C 
HETATM    2  C4  UNL     1      -0.211  50.797 -21.037  1.00  0.00     0.072 C 
HETATM    3  C5  UNL     1      -1.588  50.353 -21.618  1.00  0.00     0.072 C 
HETATM    4  C6  UNL     1      -1.691  48.782 -21.557  1.00  0.00     0.026 C 
HETATM    5  C7  UNL     1      -1.606  48.241 -20.126  1.00  0.00     0.008 C 
HETATM    6  C8  UNL     1      -2.900  48.349 -19.341  1.00  0.00     0.006 C 
HETATM    7  C9  UNL     1      -4.194  48.037 -20.123  1.00  0.00    -0.004 C 
HETATM    8  C10 UNL     1      -5.134  47.195 -19.230  1.00  0.00     0.038 C 
HETATM    9  C11 UNL     1      -4.630  45.761 -19.064  1.00  0.00     0.132 C 
HETATM   10  C26 UNL     1      -4.456  45.079 -20.420  1.00  0.00     0.033 C 
HETATM   11  C27 UNL     1      -3.561  45.885 -21.360  1.00  0.00     0.012 C 
HETATM   12  C28 UNL     1      -3.978  47.384 -21.521  1.00  0.00    -0.036 C 
HETATM   13  C29 UNL     1      -5.333  47.379 -22.287  1.00  0.00     0.016 C 
HETATM   14  C30 UNL     1      -2.869  48.144 -22.356  1.00  0.00     0.001 C 
HETATM   15  C31 UNL     1      -3.395  49.129 -23.415  1.00  0.00     0.007 C 
HETATM   16  C32 UNL     1      -2.251  49.912 -24.056  1.00  0.00     0.013 C 
HETATM   17  C33 UNL     1      -1.657  50.950 -23.076  1.00  0.00    -0.002 C 
HETATM   18  C34 UNL     1      -2.555  52.215 -23.173  1.00  0.00     0.019 C 
HETATM   19  C35 UNL     1      -0.158  51.285 -23.396  1.00  0.00     0.059 C 
ENDROOT
BRANCH   9  20
HETATM   20  O4  UNL     1      -5.595  45.021 -18.292  1.00  0.00    -0.316 OA
BRANCH  20  21
HETATM   21  C12 UNL     1      -6.898  45.355 -18.524  1.00  0.00     0.259 C 
HETATM   22  O5  UNL     1      -7.672  45.830 -17.703  1.00  0.00    -0.265 OA
BRANCH  21  23
HETATM   23  C13 UNL     1      -7.306  44.973 -19.925  1.00  0.00     0.111 C 
BRANCH  23  24
HETATM   24  C14 UNL     1      -8.799  44.672 -20.014  1.00  0.00     0.010 C 
BRANCH  24  25
HETATM   25  C15 UNL     1      -9.568  45.431 -21.102  1.00  0.00     0.000 C 
BRANCH  25  26
HETATM   26  C16 UNL     1      -8.726  45.971 -22.262  1.00  0.00     0.000 C 
BRANCH  26  27
HETATM   27  C17 UNL     1      -8.506  45.009 -23.429  1.00  0.00     0.009 C 
BRANCH  27  28
HETATM   28  C18 UNL     1      -7.840  45.670 -24.633  1.00  0.00     0.103 C 
BRANCH  28  29
HETATM   29  C19 UNL     1      -8.739  45.682 -25.856  1.00  0.00     0.218 C 
HETATM   30  O6  UNL     1      -8.738  44.808 -26.715  1.00  0.00    -0.274 OA
HETATM   31  N1  UNL     1      -9.521  46.817 -25.921  1.00  0.00    -0.347 N 
HETATM   32  H29 UNL     1      -9.741  47.253 -25.032  1.00  0.00     0.163 HD
BRANCH  31  33
HETATM   33  C20 UNL     1     -10.540  46.976 -26.970  1.00  0.00     0.182 C 
BRANCH  33  34
HETATM   34  C21 UNL     1      -9.887  47.702 -28.154  1.00  0.00     0.038 C 
BRANCH  34  35
HETATM   35  C22 UNL     1     -10.005  46.971 -29.498  1.00  0.00     0.022 C 
BRANCH  35  36
HETATM   36  C23 UNL     1     -11.125  45.937 -29.589  1.00  0.00     0.121 C 
BRANCH  36  37
HETATM   37  N2  UNL     1     -11.579  45.861 -30.972  1.00  0.00    -0.372 N 
HETATM   38  C24 UNL     1     -11.252  44.849 -31.681  1.00  0.00     0.121 C 
HETATM   39  N3  UNL     1     -11.624  44.791 -32.981  1.00  0.00    -0.279 NA
HETATM   40  N4  UNL     1     -10.534  43.747 -31.363  1.00  0.00    -0.279 NA
HETATM   41  H37 UNL     1     -12.021  45.681 -33.261  1.00  0.00     0.126 HD
HETATM   42  H38 UNL     1     -10.847  44.540 -33.582  1.00  0.00     0.126 HD
HETATM   43  H39 UNL     1     -10.438  43.598 -30.364  1.00  0.00     0.126 HD
HETATM   44  H40 UNL     1     -10.918  42.920 -31.810  1.00  0.00     0.126 HD
ATOM     45  H2  UNL     1     -12.150  46.607 -31.370  1.00  0.00     0.161 HD
ENDBRANCH  36  37
ENDBRANCH  35  36
ENDBRANCH  34  35
ENDBRANCH  33  34
BRANCH  33  46
HETATM   46  C25 UNL     1     -11.738  47.751 -26.402  1.00  0.00     0.163 C 
HETATM   47  O7  UNL     1     -12.185  47.672 -25.267  1.00  0.00    -0.648 OA
BRANCH  46  48
HETATM   48  O8  UNL     1     -12.361  48.540 -27.309  1.00  0.00    -0.775 OA
HETATM   49  H41 UNL     1     -13.103  48.919 -26.786  1.00  0.00     0.167 HD
ENDBRANCH  46  48
ENDBRANCH  33  46
ENDBRANCH  31  33
ENDBRANCH  28  29
ENDBRANCH  27  28
ENDBRANCH  26  27
ENDBRANCH  25  26
ENDBRANCH  24  25
ENDBRANCH  23  24
ENDBRANCH  21  23
ENDBRANCH  20  21
ENDBRANCH   9  20
BRANCH   3  50
HETATM   50  O3  UNL     1      -2.635  50.892 -20.813  1.00  0.00    -0.389 OA
HETATM   51  H7  UNL     1      -2.429  51.823 -20.614  1.00  0.00     0.210 HD
ENDBRANCH   3  50
BRANCH   1  52
HETATM   52  O2  UNL     1      -0.052  53.107 -21.701  1.00  0.00    -0.316 OA
BRANCH  52  53
HETATM   53  C2  UNL     1       0.782  53.826 -20.891  1.00  0.00     0.255 C 
HETATM   54  C1  UNL     1       0.317  53.728 -19.470  1.00  0.00     0.126 C 
HETATM   55  O1  UNL     1       1.758  54.461 -21.264  1.00  0.00    -0.266 OA
ENDBRANCH  52  53
ENDBRANCH   1  52
BRANCH  19  56
HETATM   56  C36 UNL     1       0.152  52.134 -24.634  1.00  0.00    -0.043 A 
HETATM   57  C37 UNL     1       0.437  51.652 -25.852  1.00  0.00     0.090 A 
HETATM   58  C38 UNL     1       0.680  52.523 -27.025  1.00  0.00     0.287 A 
HETATM   59  O9  UNL     1       0.929  52.027 -28.115  1.00  0.00    -0.260 OA
HETATM   60  O10 UNL     1       0.594  53.873 -26.832  1.00  0.00    -0.288 OA
HETATM   61  C39 UNL     1       0.256  54.353 -25.567  1.00  0.00     0.146 A 
HETATM   62  C40 UNL     1       0.028  53.572 -24.508  1.00  0.00     0.032 A 
ENDBRANCH  19  56
TORSDOF 20
ENDMDL
MODEL 6
REMARK minimizedAffinity -8.0877161
REMARK CNNscore 0.414944947
REMARK CNNaffinity 6.79857969
REMARK  20 active torsions:
REMARK  status: ('A' for Active; 'I' for Inactive)
REMARK    1  A    between atoms: C2_2  and  O2_4 
REMARK    2  A    between atoms: O2_4  and  C3_5 
REMARK    3  A    between atoms: C5_7  and  O3_8 
REMARK    4  A    between atoms: C11_14  and  O4_15 
REMARK    5  A    between atoms: O4_15  and  C12_16 
REMARK    6  A    between atoms: C12_16  and  C13_18 
REMARK    7  A    between atoms: C13_18  and  C14_19 
REMARK    8  A    between atoms: C14_19  and  C15_20 
REMARK    9  A    between atoms: C15_20  and  C16_21 
REMARK   10  A    between atoms: C16_21  and  C17_22 
REMARK   11  A    between atoms: C17_22  and  C18_23 
REMARK   12  A    between atoms: C18_23  and  C19_24 
REMARK       I    between atoms: C19_24  and  N1_26 
REMARK   13  A    between atoms: N1_26  and  C20_27 
REMARK   14  A    between atoms: C20_27  and  C21_28 
REMARK   15  A    between atoms: C20_27  and  C25_36 
REMARK   16  A    between atoms: C21_28  and  C22_29 
REMARK   17  A    between atoms: C22_29  and  C23_30 
REMARK   18  A    between atoms: C23_30  and  N2_31 
REMARK       I    between atoms: C24_33  and  N3_34 
REMARK       I    between atoms: C24_33  and  N4_35 
REMARK   19  A    between atoms: C25_36  and  O8_38 
REMARK   20  A    between atoms: C35_48  and  C36_49 
ROOT
HETATM    1  C3  UNL     1       0.276  51.733 -22.020  1.00  0.00     0.144 C 
HETATM    2  C4  UNL     1      -0.294  50.753 -20.999  1.00  0.00     0.072 C 
HETATM    3  C5  UNL     1      -1.673  50.278 -21.548  1.00  0.00     0.072 C 
HETATM    4  C6  UNL     1      -1.749  48.707 -21.463  1.00  0.00     0.026 C 
HETATM    5  C7  UNL     1      -1.629  48.188 -20.027  1.00  0.00     0.008 C 
HETATM    6  C8  UNL     1      -2.909  48.287 -19.219  1.00  0.00     0.006 C 
HETATM    7  C9  UNL     1      -4.212  47.942 -19.972  1.00  0.00    -0.004 C 
HETATM    8  C10 UNL     1      -5.122  47.098 -19.049  1.00  0.00     0.038 C 
HETATM    9  C11 UNL     1      -4.590  45.675 -18.872  1.00  0.00     0.132 C 
HETATM   10  C26 UNL     1      -4.431  44.976 -20.221  1.00  0.00     0.033 C 
HETATM   11  C27 UNL     1      -3.567  45.784 -21.189  1.00  0.00     0.012 C 
HETATM   12  C28 UNL     1      -4.012  47.272 -21.363  1.00  0.00    -0.036 C 
HETATM   13  C29 UNL     1      -5.380  47.234 -22.104  1.00  0.00     0.016 C 
HETATM   14  C30 UNL     1      -2.931  48.038 -22.230  1.00  0.00     0.001 C 
HETATM   15  C31 UNL     1      -3.493  48.999 -23.293  1.00  0.00     0.007 C 
HETATM   16  C32 UNL     1      -2.374  49.792 -23.966  1.00  0.00     0.013 C 
HETATM   17  C33 UNL     1      -1.780  50.853 -23.013  1.00  0.00    -0.002 C 
HETATM   18  C34 UNL     1      -2.700  52.101 -23.111  1.00  0.00     0.019 C 
HETATM   19  C35 UNL     1      -0.292  51.208 -23.366  1.00  0.00     0.059 C 
ENDROOT
BRANCH   9  20
HETATM   20  O4  UNL     1      -5.529  44.930 -18.072  1.00  0.00    -0.316 OA
BRANCH  20  21
HETATM   21  C12 UNL     1      -6.734  45.541 -17.879  1.00  0.00     0.259 C 
HETATM   22  O5  UNL     1      -6.940  46.501 -17.148  1.00  0.00    -0.265 OA
BRANCH  21  23
HETATM   23  C13 UNL     1      -7.827  44.812 -18.620  1.00  0.00     0.111 C 
BRANCH  23  24
HETATM   24  C14 UNL     1      -7.911  45.256 -20.077  1.00  0.00     0.010 C 
BRANCH  24  25
HETATM   25  C15 UNL     1      -9.229  45.918 -20.497  1.00  0.00     0.000 C 
BRANCH  25  26
HETATM   26  C16 UNL     1     -10.454  45.566 -19.648  1.00  0.00     0.000 C 
BRANCH  26  27
HETATM   27  C17 UNL     1     -11.812  45.811 -20.306  1.00  0.00     0.009 C 
BRANCH  27  28
HETATM   28  C18 UNL     1     -12.306  47.246 -20.144  1.00  0.00     0.103 C 
BRANCH  28  29
HETATM   29  C19 UNL     1     -13.441  47.578 -21.097  1.00  0.00     0.218 C 
HETATM   30  O6  UNL     1     -14.276  48.450 -20.890  1.00  0.00    -0.274 OA
HETATM   31  N1  UNL     1     -13.458  46.749 -22.200  1.00  0.00    -0.347 N 
HETATM   32  H29 UNL     1     -12.563  46.358 -22.473  1.00  0.00     0.163 HD
BRANCH  31  33
HETATM   33  C20 UNL     1     -14.411  46.969 -23.299  1.00  0.00     0.182 C 
BRANCH  33  34
HETATM   34  C21 UNL     1     -15.482  45.872 -23.220  1.00  0.00     0.038 C 
BRANCH  34  35
HETATM   35  C22 UNL     1     -16.892  46.376 -22.891  1.00  0.00     0.022 C 
BRANCH  35  36
HETATM   36  C23 UNL     1     -17.283  46.325 -21.416  1.00  0.00     0.121 C 
BRANCH  36  37
HETATM   37  N2  UNL     1     -18.317  45.312 -21.241  1.00  0.00    -0.372 N 
HETATM   38  C24 UNL     1     -19.056  45.347 -20.199  1.00  0.00     0.121 C 
HETATM   39  N3  UNL     1     -19.984  44.384 -20.001  1.00  0.00    -0.279 NA
HETATM   40  N4  UNL     1     -19.078  46.221 -19.166  1.00  0.00    -0.279 NA
HETATM   41  H37 UNL     1     -19.862  43.647 -20.687  1.00  0.00     0.126 HD
HETATM   42  H38 UNL     1     -19.939  44.008 -19.060  1.00  0.00     0.126 HD
HETATM   43  H39 UNL     1     -18.597  47.094 -19.360  1.00  0.00     0.126 HD
HETATM   44  H40 UNL     1     -20.029  46.400 -18.860  1.00  0.00     0.126 HD
ATOM     45  H2  UNL     1     -18.449  44.583 -21.942  1.00  0.00     0.161 HD
ENDBRANCH  36  37
ENDBRANCH  35  36
ENDBRANCH  34  35
ENDBRANCH  33  34
BRANCH  33  46
HETATM   46  C25 UNL     1     -13.657  46.951 -24.637  1.00  0.00     0.163 C 
HETATM   47  O7  UNL     1     -12.482  47.234 -24.815  1.00  0.00    -0.648 OA
BRANCH  46  48
HETATM   48  O8  UNL     1     -14.436  46.643 -25.701  1.00  0.00    -0.775 OA
HETATM   49  H41 UNL     1     -13.806  46.714 -26.452  1.00  0.00     0.167 HD
ENDBRANCH  46  48
ENDBRANCH  33  46
ENDBRANCH  31  33
ENDBRANCH  28  29
ENDBRANCH  27  28
ENDBRANCH  26  27
ENDBRANCH  25  26
ENDBRANCH  24  25
ENDBRANCH  23  24
ENDBRANCH  21  23
ENDBRANCH  20  21
ENDBRANCH   9  20
BRANCH   3  50
HETATM   50  O3  UNL     1      -2.714  50.812 -20.731  1.00  0.00    -0.389 OA
HETATM   51  H7  UNL     1      -2.520  51.749 -20.550  1.00  0.00     0.210 HD
ENDBRANCH   3  50
BRANCH   1  52
HETATM   52  O2  UNL     1      -0.186  53.056 -21.699  1.00  0.00    -0.316 OA
BRANCH  52  53
HETATM   53  C2  UNL     1       0.606  53.766 -20.840  1.00  0.00     0.255 C 
HETATM   54  C1  UNL     1       1.763  54.356 -21.587  1.00  0.00     0.126 C 
HETATM   55  O1  UNL     1       0.409  53.898 -19.640  1.00  0.00    -0.266 OA
ENDBRANCH  52  53
ENDBRANCH   1  52
BRANCH  19  56
HETATM   56  C36 UNL     1      -0.020  52.044 -24.621  1.00  0.00    -0.043 A 
HETATM   57  C37 UNL     1      -0.061  53.383 -24.684  1.00  0.00     0.090 A 
HETATM   58  C38 UNL     1       0.261  54.140 -25.915  1.00  0.00     0.287 A 
HETATM   59  O9  UNL     1       0.214  55.362 -25.912  1.00  0.00    -0.260 OA
HETATM   60  O10 UNL     1       0.623  53.419 -27.018  1.00  0.00    -0.288 OA
HETATM   61  C39 UNL     1       0.699  52.030 -26.921  1.00  0.00     0.146 A 
HETATM   62  C40 UNL     1       0.418  51.343 -25.811  1.00  0.00     0.032 A 
ENDBRANCH  19  56
TORSDOF 20
ENDMDL
MODEL 7
REMARK minimizedAffinity -8.00278854
REMARK CNNscore 0.340693206
REMARK CNNaffinity 6.09529257
REMARK  20 active torsions:
REMARK  status: ('A' for Active; 'I' for Inactive)
REMARK    1  A    between atoms: C2_2  and  O2_4 
REMARK    2  A    between atoms: O2_4  and  C3_5 
REMARK    3  A    between atoms: C5_7  and  O3_8 
REMARK    4  A    between atoms: C11_14  and  O4_15 
REMARK    5  A    between atoms: O4_15  and  C12_16 
REMARK    6  A    between atoms: C12_16  and  C13_18 
REMARK    7  A    between atoms: C13_18  and  C14_19 
REMARK    8  A    between atoms: C14_19  and  C15_20 
REMARK    9  A    between atoms: C15_20  and  C16_21 
REMARK   10  A    between atoms: C16_21  and  C17_22 
REMARK   11  A    between atoms: C17_22  and  C18_23 
REMARK   12  A    between atoms: C18_23  and  C19_24 
REMARK       I    between atoms: C19_24  and  N1_26 
REMARK   13  A    between atoms: N1_26  and  C20_27 
REMARK   14  A    between atoms: C20_27  and  C21_28 
REMARK   15  A    between atoms: C20_27  and  C25_36 
REMARK   16  A    between atoms: C21_28  and  C22_29 
REMARK   17  A    between atoms: C22_29  and  C23_30 
REMARK   18  A    between atoms: C23_30  and  N2_31 
REMARK       I    between atoms: C24_33  and  N3_34 
REMARK       I    between atoms: C24_33  and  N4_35 
REMARK   19  A    between atoms: C25_36  and  O8_38 
REMARK   20  A    between atoms: C35_48  and  C36_49 
ROOT
HETATM    1  C3  UNL     1      -1.773  51.857 -23.442  1.00  0.00     0.144 C 
HETATM    2  C4  UNL     1      -3.031  51.133 -23.913  1.00  0.00     0.072 C 
HETATM    3  C5  UNL     1      -3.350  50.040 -22.849  1.00  0.00     0.072 C 
HETATM    4  C6  UNL     1      -4.873  50.127 -22.460  1.00  0.00     0.026 C 
HETATM    5  C7  UNL     1      -5.802  49.884 -23.653  1.00  0.00     0.008 C 
HETATM    6  C8  UNL     1      -5.986  48.422 -24.013  1.00  0.00     0.006 C 
HETATM    7  C9  UNL     1      -6.116  47.444 -22.825  1.00  0.00    -0.004 C 
HETATM    8  C10 UNL     1      -7.223  46.411 -23.139  1.00  0.00     0.038 C 
HETATM    9  C11 UNL     1      -8.619  47.031 -23.064  1.00  0.00     0.132 C 
HETATM   10  C26 UNL     1      -8.869  47.657 -21.693  1.00  0.00     0.033 C 
HETATM   11  C27 UNL     1      -7.785  48.665 -21.314  1.00  0.00     0.012 C 
HETATM   12  C28 UNL     1      -6.325  48.118 -21.437  1.00  0.00    -0.036 C 
HETATM   13  C29 UNL     1      -6.169  47.039 -20.326  1.00  0.00     0.016 C 
HETATM   14  C30 UNL     1      -5.305  49.307 -21.205  1.00  0.00     0.001 C 
HETATM   15  C31 UNL     1      -4.080  48.969 -20.337  1.00  0.00     0.007 C 
HETATM   16  C32 UNL     1      -3.093  50.135 -20.300  1.00  0.00     0.013 C 
HETATM   17  C33 UNL     1      -2.358  50.297 -21.650  1.00  0.00    -0.002 C 
HETATM   18  C34 UNL     1      -1.163  49.305 -21.625  1.00  0.00     0.019 C 
HETATM   19  C35 UNL     1      -1.877  51.770 -21.896  1.00  0.00     0.059 C 
ENDROOT
BRANCH   9  20
HETATM   20  O4  UNL     1      -9.595  45.994 -23.286  1.00  0.00    -0.316 OA
BRANCH  20  21
HETATM   21  C12 UNL     1      -9.926  45.784 -24.593  1.00  0.00     0.259 C 
HETATM   22  O5  UNL     1      -9.525  44.864 -25.294  1.00  0.00    -0.265 OA
BRANCH  21  23
HETATM   23  C13 UNL     1     -10.795  46.903 -25.110  1.00  0.00     0.111 C 
BRANCH  23  24
HETATM   24  C14 UNL     1     -11.930  46.377 -25.982  1.00  0.00     0.010 C 
BRANCH  24  25
HETATM   25  C15 UNL     1     -13.326  46.926 -25.661  1.00  0.00     0.000 C 
BRANCH  25  26
HETATM   26  C16 UNL     1     -13.917  46.501 -24.314  1.00  0.00     0.000 C 
BRANCH  26  27
HETATM   27  C17 UNL     1     -15.203  47.216 -23.897  1.00  0.00     0.009 C 
BRANCH  27  28
HETATM   28  C18 UNL     1     -16.176  46.310 -23.148  1.00  0.00     0.103 C 
BRANCH  28  29
HETATM   29  C19 UNL     1     -16.108  46.506 -21.644  1.00  0.00     0.218 C 
HETATM   30  O6  UNL     1     -15.261  47.188 -21.080  1.00  0.00    -0.274 OA
HETATM   31  N1  UNL     1     -17.078  45.786 -20.978  1.00  0.00    -0.347 N 
HETATM   32  H29 UNL     1     -17.924  45.592 -21.502  1.00  0.00     0.163 HD
BRANCH  31  33
HETATM   33  C20 UNL     1     -17.256  45.919 -19.523  1.00  0.00     0.182 C 
BRANCH  33  34
HETATM   34  C21 UNL     1     -17.718  44.561 -18.979  1.00  0.00     0.038 C 
BRANCH  34  35
HETATM   35  C22 UNL     1     -18.441  43.675 -20.000  1.00  0.00     0.022 C 
BRANCH  35  36
HETATM   36  C23 UNL     1     -19.966  43.690 -19.924  1.00  0.00     0.121 C 
BRANCH  36  37
HETATM   37  N2  UNL     1     -20.379  43.014 -18.699  1.00  0.00    -0.372 N 
HETATM   38  C24 UNL     1     -20.976  43.682 -17.788  1.00  0.00     0.121 C 
HETATM   39  N3  UNL     1     -21.318  43.079 -16.627  1.00  0.00    -0.279 NA
HETATM   40  N4  UNL     1     -21.345  44.984 -17.751  1.00  0.00    -0.279 NA
HETATM   41  H37 UNL     1     -20.905  42.153 -16.590  1.00  0.00     0.126 HD
HETATM   42  H38 UNL     1     -21.040  43.628 -15.822  1.00  0.00     0.126 HD
HETATM   43  H39 UNL     1     -21.351  45.432 -18.662  1.00  0.00     0.126 HD
HETATM   44  H40 UNL     1     -22.244  45.095 -17.294  1.00  0.00     0.126 HD
ATOM     45  H2  UNL     1     -20.192  42.019 -18.571  1.00  0.00     0.161 HD
ENDBRANCH  36  37
ENDBRANCH  35  36
ENDBRANCH  34  35
ENDBRANCH  33  34
BRANCH  33  46
HETATM   46  C25 UNL     1     -18.269  47.037 -19.235  1.00  0.00     0.163 C 
HETATM   47  O7  UNL     1     -19.483  46.969 -19.356  1.00  0.00    -0.648 OA
BRANCH  46  48
HETATM   48  O8  UNL     1     -17.701  48.211 -18.873  1.00  0.00    -0.775 OA
HETATM   49  H41 UNL     1     -18.482  48.800 -18.767  1.00  0.00     0.167 HD
ENDBRANCH  46  48
ENDBRANCH  33  46
ENDBRANCH  31  33
ENDBRANCH  28  29
ENDBRANCH  27  28
ENDBRANCH  26  27
ENDBRANCH  25  26
ENDBRANCH  24  25
ENDBRANCH  23  24
ENDBRANCH  21  23
ENDBRANCH  20  21
ENDBRANCH   9  20
BRANCH   3  50
HETATM   50  O3  UNL     1      -3.116  48.750 -23.415  1.00  0.00    -0.389 OA
HETATM   51  H7  UNL     1      -2.274  48.772 -23.905  1.00  0.00     0.210 HD
ENDBRANCH   3  50
BRANCH   1  52
HETATM   52  O2  UNL     1      -0.623  51.170 -23.962  1.00  0.00    -0.316 OA
BRANCH  52  53
HETATM   53  C2  UNL     1      -0.129  51.653 -25.141  1.00  0.00     0.255 C 
HETATM   54  C1  UNL     1      -0.685  53.019 -25.402  1.00  0.00     0.126 C 
HETATM   55  O1  UNL     1       0.647  51.063 -25.880  1.00  0.00    -0.266 OA
ENDBRANCH  52  53
ENDBRANCH   1  52
BRANCH  19  56
HETATM   56  C36 UNL     1      -0.692  52.296 -21.079  1.00  0.00    -0.043 A 
HETATM   57  C37 UNL     1      -0.562  52.193 -19.748  1.00  0.00     0.090 A 
HETATM   58  C38 UNL     1       0.631  52.678 -19.017  1.00  0.00     0.287 A 
HETATM   59  O9  UNL     1       0.698  52.550 -17.802  1.00  0.00    -0.260 OA
HETATM   60  O10 UNL     1       1.633  53.241 -19.755  1.00  0.00    -0.288 OA
HETATM   61  C39 UNL     1       1.497  53.302 -21.142  1.00  0.00     0.146 A 
HETATM   62  C40 UNL     1       0.427  52.859 -21.807  1.00  0.00     0.032 A 
ENDBRANCH  19  56
TORSDOF 20
ENDMDL
MODEL 8
REMARK minimizedAffinity -8.59775066
REMARK CNNscore 0.322121501
REMARK CNNaffinity 6.26179361
REMARK  20 active torsions:
REMARK  status: ('A' for Active; 'I' for Inactive)
REMARK    1  A    between atoms: C2_2  and  O2_4 
REMARK    2  A    between atoms: O2_4  and  C3_5 
REMARK    3  A    between atoms: C5_7  and  O3_8 
REMARK    4  A    between atoms: C11_14  and  O4_15 
REMARK    5  A    between atoms: O4_15  and  C12_16 
REMARK    6  A    between atoms: C12_16  and  C13_18 
REMARK    7  A    between atoms: C13_18  and  C14_19 
REMARK    8  A    between atoms: C14_19  and  C15_20 
REMARK    9  A    between atoms: C15_20  and  C16_21 
REMARK   10  A    between atoms: C16_21  and  C17_22 
REMARK   11  A    between atoms: C17_22  and  C18_23 
REMARK   12  A    between atoms: C18_23  and  C19_24 
REMARK       I    between atoms: C19_24  and  N1_26 
REMARK   13  A    between atoms: N1_26  and  C20_27 
REMARK   14  A    between atoms: C20_27  and  C21_28 
REMARK   15  A    between atoms: C20_27  and  C25_36 
REMARK   16  A    between atoms: C21_28  and  C22_29 
REMARK   17  A    between atoms: C22_29  and  C23_30 
REMARK   18  A    between atoms: C23_30  and  N2_31 
REMARK       I    between atoms: C24_33  and  N3_34 
REMARK       I    between atoms: C24_33  and  N4_35 
REMARK   19  A    between atoms: C25_36  and  O8_38 
REMARK   20  A    between atoms: C35_48  and  C36_49 
ROOT
HETATM    1  C3  UNL     1      -0.792  51.027 -22.225  1.00  0.00     0.144 C 
HETATM    2  C4  UNL     1      -1.810  50.198 -21.448  1.00  0.00     0.072 C 
HETATM    3  C5  UNL     1      -3.178  50.361 -22.176  1.00  0.00     0.072 C 
HETATM    4  C6  UNL     1      -3.823  48.940 -22.387  1.00  0.00     0.026 C 
HETATM    5  C7  UNL     1      -4.096  48.213 -21.067  1.00  0.00     0.008 C 
HETATM    6  C8  UNL     1      -5.353  48.669 -20.351  1.00  0.00     0.006 C 
HETATM    7  C9  UNL     1      -6.577  48.953 -21.249  1.00  0.00    -0.004 C 
HETATM    8  C10 UNL     1      -7.846  48.391 -20.568  1.00  0.00     0.038 C 
HETATM    9  C11 UNL     1      -7.889  46.863 -20.618  1.00  0.00     0.132 C 
HETATM   10  C26 UNL     1      -7.807  46.357 -22.057  1.00  0.00     0.033 C 
HETATM   11  C27 UNL     1      -6.587  46.910 -22.793  1.00  0.00     0.012 C 
HETATM   12  C28 UNL     1      -6.441  48.465 -22.722  1.00  0.00    -0.036 C 
HETATM   13  C29 UNL     1      -7.616  49.052 -23.556  1.00  0.00     0.016 C 
HETATM   14  C30 UNL     1      -5.049  48.884 -23.350  1.00  0.00     0.001 C 
HETATM   15  C31 UNL     1      -5.078  50.128 -24.256  1.00  0.00     0.007 C 
HETATM   16  C32 UNL     1      -3.668  50.528 -24.687  1.00  0.00     0.013 C 
HETATM   17  C33 UNL     1      -2.870  51.139 -23.513  1.00  0.00    -0.002 C 
HETATM   18  C34 UNL     1      -3.259  52.641 -23.447  1.00  0.00     0.019 C 
HETATM   19  C35 UNL     1      -1.321  50.954 -23.683  1.00  0.00     0.059 C 
ENDROOT
BRANCH   9  20
HETATM   20  O4  UNL     1      -9.133  46.420 -20.041  1.00  0.00    -0.316 OA
BRANCH  20  21
HETATM   21  C12 UNL     1      -9.129  45.136 -19.579  1.00  0.00     0.259 C 
HETATM   22  O5  UNL     1      -8.175  44.561 -19.070  1.00  0.00    -0.265 OA
BRANCH  21  23
HETATM   23  C13 UNL     1     -10.448  44.462 -19.863  1.00  0.00     0.111 C 
BRANCH  23  24
HETATM   24  C14 UNL     1     -11.625  45.397 -19.605  1.00  0.00     0.010 C 
BRANCH  24  25
HETATM   25  C15 UNL     1     -12.502  45.716 -20.821  1.00  0.00     0.000 C 
BRANCH  25  26
HETATM   26  C16 UNL     1     -12.724  47.202 -21.114  1.00  0.00     0.000 C 
BRANCH  26  27
HETATM   27  C17 UNL     1     -14.181  47.662 -21.157  1.00  0.00     0.009 C 
BRANCH  27  28
HETATM   28  C18 UNL     1     -14.982  47.009 -22.281  1.00  0.00     0.103 C 
BRANCH  28  29
HETATM   29  C19 UNL     1     -16.390  46.638 -21.848  1.00  0.00     0.218 C 
HETATM   30  O6  UNL     1     -16.746  46.552 -20.679  1.00  0.00    -0.274 OA
HETATM   31  N1  UNL     1     -17.210  46.354 -22.920  1.00  0.00    -0.347 N 
HETATM   32  H29 UNL     1     -16.970  46.812 -23.793  1.00  0.00     0.163 HD
BRANCH  31  33
HETATM   33  C20 UNL     1     -18.642  46.077 -22.726  1.00  0.00     0.182 C 
BRANCH  33  34
HETATM   34  C21 UNL     1     -18.780  44.623 -22.252  1.00  0.00     0.038 C 
BRANCH  34  35
HETATM   35  C22 UNL     1     -19.792  44.412 -21.120  1.00  0.00     0.022 C 
BRANCH  35  36
HETATM   36  C23 UNL     1     -19.193  44.194 -19.732  1.00  0.00     0.121 C 
BRANCH  36  37
HETATM   37  N2  UNL     1     -20.154  43.457 -18.920  1.00  0.00    -0.372 N 
HETATM   38  C24 UNL     1     -20.786  44.071 -17.993  1.00  0.00     0.121 C 
HETATM   39  N3  UNL     1     -21.642  43.388 -17.199  1.00  0.00    -0.279 NA
HETATM   40  N4  UNL     1     -20.748  45.368 -17.612  1.00  0.00    -0.279 NA
HETATM   41  H37 UNL     1     -21.554  42.393 -17.378  1.00  0.00     0.126 HD
HETATM   42  H38 UNL     1     -21.487  43.590 -16.218  1.00  0.00     0.126 HD
HETATM   43  H39 UNL     1     -20.331  45.984 -18.303  1.00  0.00     0.126 HD
HETATM   44  H40 UNL     1     -21.671  45.700 -17.352  1.00  0.00     0.126 HD
ATOM     45  H2  UNL     1     -20.319  42.465 -19.087  1.00  0.00     0.161 HD
ENDBRANCH  36  37
ENDBRANCH  35  36
ENDBRANCH  34  35
ENDBRANCH  33  34
BRANCH  33  46
HETATM   46  C25 UNL     1     -19.392  46.334 -24.042  1.00  0.00     0.163 C 
HETATM   47  O7  UNL     1     -20.224  45.605 -24.560  1.00  0.00    -0.648 OA
BRANCH  46  48
HETATM   48  O8  UNL     1     -19.009  47.466 -24.678  1.00  0.00    -0.775 OA
HETATM   49  H41 UNL     1     -19.558  47.445 -25.495  1.00  0.00     0.167 HD
ENDBRANCH  46  48
ENDBRANCH  33  46
ENDBRANCH  31  33
ENDBRANCH  28  29
ENDBRANCH  27  28
ENDBRANCH  26  27
ENDBRANCH  25  26
ENDBRANCH  24  25
ENDBRANCH  23  24
ENDBRANCH  21  23
ENDBRANCH  20  21
ENDBRANCH   9  20
BRANCH   3  50
HETATM   50  O3  UNL     1      -4.061  51.125 -21.353  1.00  0.00    -0.389 OA
HETATM   51  H7  UNL     1      -3.570  51.883 -20.988  1.00  0.00     0.210 HD
ENDBRANCH   3  50
BRANCH   1  52
HETATM   52  O2  UNL     1      -0.789  52.365 -21.701  1.00  0.00    -0.316 OA
BRANCH  52  53
HETATM   53  C2  UNL     1       0.246  52.667 -20.861  1.00  0.00     0.255 C 
HETATM   54  C1  UNL     1       1.262  53.495 -21.585  1.00  0.00     0.126 C 
HETATM   55  O1  UNL     1       0.338  52.313 -19.694  1.00  0.00    -0.266 OA
ENDBRANCH  52  53
ENDBRANCH   1  52
BRANCH  19  56
HETATM   56  C36 UNL     1      -0.597  51.797 -24.739  1.00  0.00    -0.043 A 
HETATM   57  C37 UNL     1      -0.543  53.136 -24.757  1.00  0.00     0.090 A 
HETATM   58  C38 UNL     1       0.214  53.897 -25.777  1.00  0.00     0.287 A 
HETATM   59  O9  UNL     1       0.234  55.119 -25.740  1.00  0.00    -0.260 OA
HETATM   60  O10 UNL     1       0.887  53.177 -26.724  1.00  0.00    -0.288 OA
HETATM   61  C39 UNL     1       0.852  51.785 -26.663  1.00  0.00     0.146 A 
HETATM   62  C40 UNL     1       0.178  51.094 -25.741  1.00  0.00     0.032 A 
ENDBRANCH  19  56
TORSDOF 20
ENDMDL
MODEL 9
REMARK minimizedAffinity -8.29104805
REMARK CNNscore 0.293940008
REMARK CNNaffinity 6.1660099
REMARK  20 active torsions:
REMARK  status: ('A' for Active; 'I' for Inactive)
REMARK    1  A    between atoms: C2_2  and  O2_4 
REMARK    2  A    between atoms: O2_4  and  C3_5 
REMARK    3  A    between atoms: C5_7  and  O3_8 
REMARK    4  A    between atoms: C11_14  and  O4_15 
REMARK    5  A    between atoms: O4_15  and  C12_16 
REMARK    6  A    between atoms: C12_16  and  C13_18 
REMARK    7  A    between atoms: C13_18  and  C14_19 
REMARK    8  A    between atoms: C14_19  and  C15_20 
REMARK    9  A    between atoms: C15_20  and  C16_21 
REMARK   10  A    between atoms: C16_21  and  C17_22 
REMARK   11  A    between atoms: C17_22  and  C18_23 
REMARK   12  A    between atoms: C18_23  and  C19_24 
REMARK       I    between atoms: C19_24  and  N1_26 
REMARK   13  A    between atoms: N1_26  and  C20_27 
REMARK   14  A    between atoms: C20_27  and  C21_28 
REMARK   15  A    between atoms: C20_27  and  C25_36 
REMARK   16  A    between atoms: C21_28  and  C22_29 
REMARK   17  A    between atoms: C22_29  and  C23_30 
REMARK   18  A    between atoms: C23_30  and  N2_31 
REMARK       I    between atoms: C24_33  and  N3_34 
REMARK       I    between atoms: C24_33  and  N4_35 
REMARK   19  A    between atoms: C25_36  and  O8_38 
REMARK   20  A    between atoms: C35_48  and  C36_49 
ROOT
HETATM    1  C3  UNL     1      -3.767  51.788 -24.384  1.00  0.00     0.144 C 
HETATM    2  C4  UNL     1      -5.121  51.121 -24.160  1.00  0.00     0.072 C 
HETATM    3  C5  UNL     1      -4.903  50.001 -23.098  1.00  0.00     0.072 C 
HETATM    4  C6  UNL     1      -6.012  50.121 -21.986  1.00  0.00     0.026 C 
HETATM    5  C7  UNL     1      -7.428  49.948 -22.544  1.00  0.00     0.008 C 
HETATM    6  C8  UNL     1      -7.833  48.505 -22.782  1.00  0.00     0.006 C 
HETATM    7  C9  UNL     1      -7.385  47.492 -21.707  1.00  0.00    -0.004 C 
HETATM    8  C10 UNL     1      -8.542  46.504 -21.430  1.00  0.00     0.038 C 
HETATM    9  C11 UNL     1      -9.677  47.164 -20.646  1.00  0.00     0.132 C 
HETATM   10  C26 UNL     1      -9.169  47.749 -19.329  1.00  0.00     0.033 C 
HETATM   11  C27 UNL     1      -7.999  48.709 -19.540  1.00  0.00     0.012 C 
HETATM   12  C28 UNL     1      -6.830  48.123 -20.396  1.00  0.00    -0.036 C 
HETATM   13  C29 UNL     1      -6.179  47.002 -19.535  1.00  0.00     0.016 C 
HETATM   14  C30 UNL     1      -5.782  49.271 -20.698  1.00  0.00     0.001 C 
HETATM   15  C31 UNL     1      -4.302  48.866 -20.579  1.00  0.00     0.007 C 
HETATM   16  C32 UNL     1      -3.383  49.999 -21.033  1.00  0.00     0.013 C 
HETATM   17  C33 UNL     1      -3.429  50.186 -22.566  1.00  0.00    -0.002 C 
HETATM   18  C34 UNL     1      -2.432  49.158 -23.168  1.00  0.00     0.019 C 
HETATM   19  C35 UNL     1      -3.075  51.651 -23.002  1.00  0.00     0.059 C 
ENDROOT
BRANCH   9  20
HETATM   20  O4  UNL     1     -10.675  46.166 -20.355  1.00  0.00    -0.316 OA
BRANCH  20  21
HETATM   21  C12 UNL     1     -11.966  46.601 -20.432  1.00  0.00     0.259 C 
HETATM   22  O5  UNL     1     -12.437  47.288 -21.330  1.00  0.00    -0.265 OA
BRANCH  21  23
HETATM   23  C13 UNL     1     -12.739  46.202 -19.200  1.00  0.00     0.111 C 
BRANCH  23  24
HETATM   24  C14 UNL     1     -13.212  47.421 -18.413  1.00  0.00     0.010 C 
BRANCH  24  25
HETATM   25  C15 UNL     1     -14.566  47.275 -17.709  1.00  0.00     0.000 C 
BRANCH  25  26
HETATM   26  C16 UNL     1     -15.641  48.289 -18.111  1.00  0.00     0.000 C 
BRANCH  26  27
HETATM   27  C17 UNL     1     -16.317  48.044 -19.460  1.00  0.00     0.009 C 
BRANCH  27  28
HETATM   28  C18 UNL     1     -16.588  46.567 -19.734  1.00  0.00     0.103 C 
BRANCH  28  29
HETATM   29  C19 UNL     1     -17.897  46.346 -20.471  1.00  0.00     0.218 C 
HETATM   30  O6  UNL     1     -18.992  46.302 -19.925  1.00  0.00    -0.274 OA
HETATM   31  N1  UNL     1     -17.708  46.146 -21.824  1.00  0.00    -0.347 N 
HETATM   32  H29 UNL     1     -16.879  46.573 -22.222  1.00  0.00     0.163 HD
BRANCH  31  33
HETATM   33  C20 UNL     1     -18.855  46.021 -22.738  1.00  0.00     0.182 C 
BRANCH  33  34
HETATM   34  C21 UNL     1     -19.083  44.526 -23.003  1.00  0.00     0.038 C 
BRANCH  34  35
HETATM   35  C22 UNL     1     -20.178  43.884 -22.142  1.00  0.00     0.022 C 
BRANCH  35  36
HETATM   36  C23 UNL     1     -21.347  43.272 -22.910  1.00  0.00     0.121 C 
BRANCH  36  37
HETATM   37  N2  UNL     1     -21.561  41.912 -22.429  1.00  0.00    -0.372 N 
HETATM   38  C24 UNL     1     -22.142  41.732 -21.305  1.00  0.00     0.121 C 
HETATM   39  N3  UNL     1     -22.301  40.478 -20.824  1.00  0.00    -0.279 NA
HETATM   40  N4  UNL     1     -22.654  42.625 -20.427  1.00  0.00    -0.279 NA
HETATM   41  H37 UNL     1     -21.782  39.824 -21.400  1.00  0.00     0.126 HD
HETATM   42  H38 UNL     1     -22.013  40.409 -19.854  1.00  0.00     0.126 HD
HETATM   43  H39 UNL     1     -22.798  43.549 -20.822  1.00  0.00     0.126 HD
HETATM   44  H40 UNL     1     -23.513  42.279 -20.012  1.00  0.00     0.126 HD
ATOM     45  H2  UNL     1     -21.249  41.113 -22.982  1.00  0.00     0.161 HD
ENDBRANCH  36  37
ENDBRANCH  35  36
ENDBRANCH  34  35
ENDBRANCH  33  34
BRANCH  33  46
HETATM   46  C25 UNL     1     -18.564  46.803 -24.028  1.00  0.00     0.163 C 
HETATM   47  O7  UNL     1     -19.387  47.216 -24.830  1.00  0.00    -0.648 OA
BRANCH  46  48
HETATM   48  O8  UNL     1     -17.244  46.969 -24.282  1.00  0.00    -0.775 OA
HETATM   49  H41 UNL     1     -17.253  47.447 -25.141  1.00  0.00     0.167 HD
ENDBRANCH  46  48
ENDBRANCH  33  46
ENDBRANCH  31  33
ENDBRANCH  28  29
ENDBRANCH  27  28
ENDBRANCH  26  27
ENDBRANCH  25  26
ENDBRANCH  24  25
ENDBRANCH  23  24
ENDBRANCH  21  23
ENDBRANCH  20  21
ENDBRANCH   9  20
BRANCH   3  50
HETATM   50  O3  UNL     1      -5.046  48.725 -23.723  1.00  0.00    -0.389 OA
HETATM   51  H7  UNL     1      -4.569  48.738 -24.573  1.00  0.00     0.210 HD
ENDBRANCH   3  50
BRANCH   1  52
HETATM   52  O2  UNL     1      -3.072  51.085 -25.427  1.00  0.00    -0.316 OA
BRANCH  52  53
HETATM   53  C2  UNL     1      -3.019  51.722 -26.635  1.00  0.00     0.255 C 
HETATM   54  C1  UNL     1      -3.194  50.727 -27.741  1.00  0.00     0.126 C 
HETATM   55  O1  UNL     1      -2.848  52.922 -26.797  1.00  0.00    -0.266 OA
ENDBRANCH  52  53
ENDBRANCH   1  52
BRANCH  19  56
HETATM   56  C36 UNL     1      -1.618  52.112 -22.893  1.00  0.00    -0.043 A 
HETATM   57  C37 UNL     1      -0.892  52.628 -23.896  1.00  0.00     0.090 A 
HETATM   58  C38 UNL     1       0.499  53.103 -23.720  1.00  0.00     0.287 A 
HETATM   59  O9  UNL     1       1.111  53.572 -24.670  1.00  0.00    -0.260 OA
HETATM   60  O10 UNL     1       1.040  53.010 -22.469  1.00  0.00    -0.288 OA
HETATM   61  C39 UNL     1       0.255  52.509 -21.431  1.00  0.00     0.146 A 
HETATM   62  C40 UNL     1      -1.002  52.087 -21.582  1.00  0.00     0.032 A 
ENDBRANCH  19  56
TORSDOF 20
ENDMDL
