MODEL 1
REMARK minimizedAffinity -6.18740988
REMARK CNNscore 0.142023578
REMARK CNNaffinity 5.22962189
REMARK  6 active torsions:
REMARK  status: ('A' for Active; 'I' for Inactive)
REMARK    1  A    between atoms: C2_2  and  O2_4 
REMARK    2  A    between atoms: O2_4  and  C3_5 
REMARK    3  A    between atoms: C12_15  and  O4_16 
REMARK    4  A    between atoms: C17_22  and  C18_23 
REMARK    5  A    between atoms: C18_23  and  C19_24 
REMARK       I    between atoms: C27_33  and  N3_34 
REMARK    6  A    between atoms: C35_45  and  O5_46 
ROOT
HETATM    1  C3  UNL     1      -0.199  14.181   4.262  1.00  0.00     0.134 C 
HETATM    2  C4  UNL     1      -0.683  14.974   5.491  1.00  0.00     0.037 C 
HETATM    3  C5  UNL     1      -0.557  16.500   5.395  1.00  0.00     0.042 C 
HETATM    4  C6  UNL     1      -1.367  17.220   6.453  1.00  0.00    -0.048 A 
HETATM    5  C7  UNL     1      -2.765  17.411   6.339  1.00  0.00    -0.015 A 
HETATM    6  C8  UNL     1      -3.541  16.936   5.137  1.00  0.00     0.044 C 
HETATM    7  C9  UNL     1      -4.921  17.573   5.078  1.00  0.00     0.031 C 
HETATM    8  C10 UNL     1      -5.546  17.493   6.456  1.00  0.00     0.176 C 
HETATM    9  O3  UNL     1      -4.808  18.258   7.409  1.00  0.00    -0.348 OA
HETATM   10  C11 UNL     1      -3.449  18.043   7.389  1.00  0.00     0.109 A 
HETATM   11  C12 UNL     1      -2.756  18.535   8.498  1.00  0.00     0.107 A 
HETATM   12  C13 UNL     1      -1.377  18.375   8.623  1.00  0.00    -0.004 A 
HETATM   13  C14 UNL     1      -0.695  17.710   7.590  1.00  0.00     0.019 A 
HETATM   14  C15 UNL     1      -0.642  18.921   9.820  1.00  0.00     0.167 C 
HETATM   15  N1  UNL     1       0.272  17.954  10.416  1.00  0.00    -0.347 N 
HETATM   16  C16 UNL     1       1.677  18.220  10.599  1.00  0.00     0.136 C 
HETATM   17  C17 UNL     1       2.072  17.367  11.819  1.00  0.00    -0.011 C 
HETATM   18  C25 UNL     1       3.539  16.863  11.786  1.00  0.00     0.032 C 
HETATM   19  C26 UNL     1       3.996  16.044  10.573  1.00  0.00     0.139 C 
HETATM   20  N2  UNL     1       4.526  16.892   9.487  1.00  0.00    -0.227 N 
HETATM   21  C27 UNL     1       4.226  16.817   8.172  1.00  0.00     0.668 C 
HETATM   22  N3  UNL     1       3.222  16.044   7.729  1.00  0.00    -0.235 N 
HETATM   23  N4  UNL     1       4.925  17.512   7.258  1.00  0.00    -0.217 N 
HETATM   24  C28 UNL     1       6.104  18.316   7.531  1.00  0.00     0.224 C 
HETATM   25  S1  UNL     1       6.516  19.313   6.080  1.00  0.00    -0.077 SA
HETATM   26  S2  UNL     1       4.997  20.707   5.994  1.00  0.00    -0.096 SA
HETATM   27  C29 UNL     1       3.638  19.899   5.067  1.00  0.00     0.086 C 
HETATM   28  C30 UNL     1       4.075  19.148   3.808  1.00  0.00     0.011 C 
HETATM   29  C31 UNL     1       2.874  18.472   3.141  1.00  0.00     0.001 C 
HETATM   30  C32 UNL     1       3.269  17.494   2.030  1.00  0.00     0.000 C 
HETATM   31  C33 UNL     1       3.999  16.220   2.475  1.00  0.00     0.002 C 
HETATM   32  C34 UNL     1       3.088  15.011   2.745  1.00  0.00     0.032 C 
HETATM   33  C35 UNL     1       2.205  15.140   3.994  1.00  0.00     0.120 C 
HETATM   34  C36 UNL     1       1.317  13.906   4.229  1.00  0.00     0.064 C 
HETATM   35  C37 UNL     1       1.051  16.210  11.743  1.00  0.00     0.114 C 
HETATM   36  C38 UNL     1      -0.166  16.853  11.139  1.00  0.00     0.220 C 
HETATM   37  O6  UNL     1      -1.301  16.430  11.246  1.00  0.00    -0.273 OA
HETATM   38  H32 UNL     1       5.237  17.553   9.764  1.00  0.00     0.177 HD
HETATM   39  H33 UNL     1       2.635  15.500   8.346  1.00  0.00     0.174 HD
HETATM   40  H34 UNL     1       3.030  15.939   6.724  1.00  0.00     0.174 HD
HETATM   41  H35 UNL     1       4.625  17.455   6.295  1.00  0.00     0.178 HD
ENDROOT
BRANCH  17  42
HETATM   42  C18 UNL     1       1.832  18.263  13.088  1.00  0.00     0.050 C 
BRANCH  42  43
HETATM   43  C19 UNL     1       1.352  17.579  14.345  1.00  0.00    -0.057 A 
HETATM   44  C20 UNL     1       2.206  16.737  15.074  1.00  0.00     0.007 A 
HETATM   45  C21 UNL     1       1.759  16.093  16.228  1.00  0.00     0.001 A 
HETATM   46  C22 UNL     1       0.446  16.270  16.659  1.00  0.00     0.000 A 
HETATM   47  C23 UNL     1      -0.417  17.100  15.945  1.00  0.00     0.001 A 
HETATM   48  C24 UNL     1       0.032  17.748  14.792  1.00  0.00     0.007 A 
ENDBRANCH  42  43
ENDBRANCH  17  42
BRANCH  11  49
HETATM   49  O4  UNL     1      -3.459  19.186   9.483  1.00  0.00    -0.357 OA
HETATM   50  H15 UNL     1      -4.389  18.949   9.313  1.00  0.00     0.217 HD
ENDBRANCH  11  49
BRANCH   1  51
HETATM   51  O2  UNL     1      -0.569  14.825   3.031  1.00  0.00    -0.316 OA
BRANCH  51  52
HETATM   52  C2  UNL     1      -1.252  14.049   2.137  1.00  0.00     0.255 C 
HETATM   53  C1  UNL     1      -2.721  14.129   2.412  1.00  0.00     0.126 C 
HETATM   54  O1  UNL     1      -0.745  13.368   1.257  1.00  0.00    -0.266 OA
ENDBRANCH  51  52
ENDBRANCH   1  51
BRANCH  33  55
HETATM   55  O5  UNL     1       3.048  15.323   5.154  1.00  0.00    -0.395 OA
HETATM   56  H51 UNL     1       3.684  14.571   5.108  1.00  0.00     0.210 HD
ENDBRANCH  33  55
TORSDOF 6
ENDMDL
MODEL 2
REMARK minimizedAffinity -7.08845806
REMARK CNNscore 0.133137748
REMARK CNNaffinity 4.5588975
REMARK  6 active torsions:
REMARK  status: ('A' for Active; 'I' for Inactive)
REMARK    1  A    between atoms: C2_2  and  O2_4 
REMARK    2  A    between atoms: O2_4  and  C3_5 
REMARK    3  A    between atoms: C12_15  and  O4_16 
REMARK    4  A    between atoms: C17_22  and  C18_23 
REMARK    5  A    between atoms: C18_23  and  C19_24 
REMARK       I    between atoms: C27_33  and  N3_34 
REMARK    6  A    between atoms: C35_45  and  O5_46 
ROOT
HETATM    1  C3  UNL     1       7.608  13.832  20.979  1.00  0.00     0.134 C 
HETATM    2  C4  UNL     1       6.254  13.501  20.322  1.00  0.00     0.037 C 
HETATM    3  C5  UNL     1       6.232  12.257  19.424  1.00  0.00     0.042 C 
HETATM    4  C6  UNL     1       4.826  11.787  19.113  1.00  0.00    -0.048 A 
HETATM    5  C7  UNL     1       4.055  11.037  20.032  1.00  0.00    -0.015 A 
HETATM    6  C8  UNL     1       4.595  10.625  21.379  1.00  0.00     0.044 C 
HETATM    7  C9  UNL     1       3.740   9.538  22.012  1.00  0.00     0.031 C 
HETATM    8  C10 UNL     1       2.284   9.930  21.875  1.00  0.00     0.176 C 
HETATM    9  O3  UNL     1       1.886   9.985  20.504  1.00  0.00    -0.348 OA
HETATM   10  C11 UNL     1       2.741  10.685  19.686  1.00  0.00     0.109 A 
HETATM   11  C12 UNL     1       2.224  11.012  18.429  1.00  0.00     0.107 A 
HETATM   12  C13 UNL     1       2.971  11.735  17.501  1.00  0.00    -0.004 A 
HETATM   13  C14 UNL     1       4.274  12.119  17.860  1.00  0.00     0.019 A 
HETATM   14  C15 UNL     1       2.403  12.070  16.146  1.00  0.00     0.167 C 
HETATM   15  N1  UNL     1       2.590  13.469  15.781  1.00  0.00    -0.347 N 
HETATM   16  C16 UNL     1       3.258  13.875  14.570  1.00  0.00     0.136 C 
HETATM   17  C17 UNL     1       2.626  15.237  14.223  1.00  0.00    -0.011 C 
HETATM   18  C25 UNL     1       3.591  16.211  13.496  1.00  0.00     0.032 C 
HETATM   19  C26 UNL     1       4.918  16.559  14.179  1.00  0.00     0.139 C 
HETATM   20  N2  UNL     1       6.000  15.619  13.823  1.00  0.00    -0.227 N 
HETATM   21  C27 UNL     1       6.869  15.018  14.665  1.00  0.00     0.668 C 
HETATM   22  N3  UNL     1       6.705  15.077  15.995  1.00  0.00    -0.235 N 
HETATM   23  N4  UNL     1       7.933  14.341  14.199  1.00  0.00    -0.217 N 
HETATM   24  C28 UNL     1       8.333  14.254  12.805  1.00  0.00     0.224 C 
HETATM   25  S1  UNL     1       9.615  12.995  12.612  1.00  0.00    -0.077 SA
HETATM   26  S2  UNL     1       8.613  11.220  12.932  1.00  0.00    -0.096 SA
HETATM   27  C29 UNL     1       8.623  10.968  14.746  1.00  0.00     0.086 C 
HETATM   28  C30 UNL     1       9.967  11.234  15.426  1.00  0.00     0.011 C 
HETATM   29  C31 UNL     1       9.851  11.043  16.941  1.00  0.00     0.001 C 
HETATM   30  C32 UNL     1      11.079  11.541  17.711  1.00  0.00     0.000 C 
HETATM   31  C33 UNL     1      11.311  13.057  17.713  1.00  0.00     0.002 C 
HETATM   32  C34 UNL     1      10.687  13.806  18.903  1.00  0.00     0.032 C 
HETATM   33  C35 UNL     1       9.154  13.874  18.886  1.00  0.00     0.120 C 
HETATM   34  C36 UNL     1       8.576  14.637  20.089  1.00  0.00     0.064 C 
HETATM   35  C37 UNL     1       2.205  15.756  15.616  1.00  0.00     0.114 C 
HETATM   36  C38 UNL     1       1.880  14.501  16.377  1.00  0.00     0.220 C 
HETATM   37  O6  UNL     1       1.162  14.450  17.357  1.00  0.00    -0.273 OA
HETATM   38  H32 UNL     1       6.132  15.468  12.834  1.00  0.00     0.177 HD
HETATM   39  H33 UNL     1       5.926  15.550  16.432  1.00  0.00     0.174 HD
HETATM   40  H34 UNL     1       7.398  14.671  16.639  1.00  0.00     0.174 HD
HETATM   41  H35 UNL     1       8.522  13.871  14.872  1.00  0.00     0.178 HD
ENDROOT
BRANCH  17  42
HETATM   42  C18 UNL     1       1.376  14.932  13.321  1.00  0.00     0.050 C 
BRANCH  42  43
HETATM   43  C19 UNL     1       1.212  15.743  12.059  1.00  0.00    -0.057 A 
HETATM   44  C20 UNL     1       1.872  15.373  10.877  1.00  0.00     0.007 A 
HETATM   45  C21 UNL     1       1.731  16.130   9.714  1.00  0.00     0.001 A 
HETATM   46  C22 UNL     1       0.943  17.278   9.722  1.00  0.00     0.000 A 
HETATM   47  C23 UNL     1       0.282  17.664  10.888  1.00  0.00     0.001 A 
HETATM   48  C24 UNL     1       0.419  16.903  12.051  1.00  0.00     0.007 A 
ENDBRANCH  42  43
ENDBRANCH  17  42
BRANCH  11  49
HETATM   49  O4  UNL     1       0.948  10.610  18.115  1.00  0.00    -0.357 OA
HETATM   50  H15 UNL     1       0.551  10.371  18.972  1.00  0.00     0.217 HD
ENDBRANCH  11  49
BRANCH   1  51
HETATM   51  O2  UNL     1       8.287  12.648  21.430  1.00  0.00    -0.316 OA
BRANCH  51  52
HETATM   52  C2  UNL     1       8.331  12.468  22.783  1.00  0.00     0.255 C 
HETATM   53  C1  UNL     1       6.998  12.000  23.279  1.00  0.00     0.126 C 
HETATM   54  O1  UNL     1       9.303  12.680  23.495  1.00  0.00    -0.266 OA
ENDBRANCH  51  52
ENDBRANCH   1  51
BRANCH  33  55
HETATM   55  O5  UNL     1       8.721  14.534  17.675  1.00  0.00    -0.395 OA
HETATM   56  H51 UNL     1       9.225  15.381  17.672  1.00  0.00     0.210 HD
ENDBRANCH  33  55
TORSDOF 6
ENDMDL
MODEL 3
REMARK minimizedAffinity -8.00715542
REMARK CNNscore 0.118624374
REMARK CNNaffinity 4.83859968
REMARK  6 active torsions:
REMARK  status: ('A' for Active; 'I' for Inactive)
REMARK    1  A    between atoms: C2_2  and  O2_4 
REMARK    2  A    between atoms: O2_4  and  C3_5 
REMARK    3  A    between atoms: C12_15  and  O4_16 
REMARK    4  A    between atoms: C17_22  and  C18_23 
REMARK    5  A    between atoms: C18_23  and  C19_24 
REMARK       I    between atoms: C27_33  and  N3_34 
REMARK    6  A    between atoms: C35_45  and  O5_46 
ROOT
HETATM    1  C3  UNL     1      11.406  18.431  18.719  1.00  0.00     0.134 C 
HETATM    2  C4  UNL     1      11.328  16.994  19.270  1.00  0.00     0.037 C 
HETATM    3  C5  UNL     1      10.918  15.912  18.262  1.00  0.00     0.042 C 
HETATM    4  C6  UNL     1      11.211  14.512  18.758  1.00  0.00    -0.048 A 
HETATM    5  C7  UNL     1      12.507  13.946  18.713  1.00  0.00    -0.015 A 
HETATM    6  C8  UNL     1      13.685  14.691  18.135  1.00  0.00     0.044 C 
HETATM    7  C9  UNL     1      14.854  13.757  17.863  1.00  0.00     0.031 C 
HETATM    8  C10 UNL     1      15.049  12.865  19.072  1.00  0.00     0.176 C 
HETATM    9  O3  UNL     1      13.920  12.018  19.282  1.00  0.00    -0.348 OA
HETATM   10  C11 UNL     1      12.704  12.660  19.242  1.00  0.00     0.109 A 
HETATM   11  C12 UNL     1      11.628  11.924  19.744  1.00  0.00     0.107 A 
HETATM   12  C13 UNL     1      10.340  12.454  19.783  1.00  0.00    -0.004 A 
HETATM   13  C14 UNL     1      10.147  13.754  19.287  1.00  0.00     0.019 A 
HETATM   14  C15 UNL     1       9.188  11.643  20.318  1.00  0.00     0.167 C 
HETATM   15  N1  UNL     1       8.364  12.382  21.267  1.00  0.00    -0.347 N 
HETATM   16  C16 UNL     1       6.944  12.561  21.092  1.00  0.00     0.136 C 
HETATM   17  C17 UNL     1       6.397  12.700  22.525  1.00  0.00    -0.011 C 
HETATM   18  C25 UNL     1       5.145  13.610  22.636  1.00  0.00     0.032 C 
HETATM   19  C26 UNL     1       5.248  15.048  22.116  1.00  0.00     0.139 C 
HETATM   20  N2  UNL     1       4.894  15.159  20.686  1.00  0.00    -0.227 N 
HETATM   21  C27 UNL     1       5.576  15.819  19.726  1.00  0.00     0.668 C 
HETATM   22  N3  UNL     1       6.805  16.308  19.954  1.00  0.00    -0.235 N 
HETATM   23  N4  UNL     1       5.046  16.013  18.505  1.00  0.00    -0.217 N 
HETATM   24  C28 UNL     1       3.698  15.651  18.104  1.00  0.00     0.224 C 
HETATM   25  S1  UNL     1       3.530  15.802  16.310  1.00  0.00    -0.077 SA
HETATM   26  S2  UNL     1       4.678  14.252  15.577  1.00  0.00    -0.096 SA
HETATM   27  C29 UNL     1       6.387  14.906  15.484  1.00  0.00     0.086 C 
HETATM   28  C30 UNL     1       6.508  16.310  14.889  1.00  0.00     0.011 C 
HETATM   29  C31 UNL     1       7.966  16.778  14.904  1.00  0.00     0.001 C 
HETATM   30  C32 UNL     1       8.130  18.263  14.568  1.00  0.00     0.000 C 
HETATM   31  C33 UNL     1       7.587  19.257  15.603  1.00  0.00     0.002 C 
HETATM   32  C34 UNL     1       8.612  19.732  16.646  1.00  0.00     0.032 C 
HETATM   33  C35 UNL     1       9.041  18.660  17.658  1.00  0.00     0.120 C 
HETATM   34  C36 UNL     1      10.059  19.181  18.685  1.00  0.00     0.064 C 
HETATM   35  C37 UNL     1       7.615  13.282  23.276  1.00  0.00     0.114 C 
HETATM   36  C38 UNL     1       8.792  12.693  22.550  1.00  0.00     0.220 C 
HETATM   37  O6  UNL     1       9.908  12.573  23.018  1.00  0.00    -0.273 OA
HETATM   38  H32 UNL     1       4.011  14.744  20.428  1.00  0.00     0.177 HD
HETATM   39  H33 UNL     1       7.285  16.196  20.835  1.00  0.00     0.174 HD
HETATM   40  H34 UNL     1       7.301  16.862  19.243  1.00  0.00     0.174 HD
HETATM   41  H35 UNL     1       5.621  16.471  17.811  1.00  0.00     0.178 HD
ENDROOT
BRANCH  17  42
HETATM   42  C18 UNL     1       6.060  11.246  23.018  1.00  0.00     0.050 C 
BRANCH  42  43
HETATM   43  C19 UNL     1       4.744  10.648  22.581  1.00  0.00    -0.057 A 
HETATM   44  C20 UNL     1       3.908  10.001  23.505  1.00  0.00     0.007 A 
HETATM   45  C21 UNL     1       2.699   9.437  23.099  1.00  0.00     0.001 A 
HETATM   46  C22 UNL     1       2.317   9.497  21.761  1.00  0.00     0.000 A 
HETATM   47  C23 UNL     1       3.137  10.133  20.829  1.00  0.00     0.001 A 
HETATM   48  C24 UNL     1       4.345  10.702  21.236  1.00  0.00     0.007 A 
ENDBRANCH  42  43
ENDBRANCH  17  42
BRANCH  11  49
HETATM   49  O4  UNL     1      11.858  10.652  20.212  1.00  0.00    -0.357 OA
HETATM   50  H15 UNL     1      12.825  10.608  20.326  1.00  0.00     0.217 HD
ENDBRANCH  11  49
BRANCH   1  51
HETATM   51  O2  UNL     1      11.976  18.468  17.400  1.00  0.00    -0.316 OA
BRANCH  51  52
HETATM   52  C2  UNL     1      13.129  19.191  17.271  1.00  0.00     0.255 C 
HETATM   53  C1  UNL     1      14.311  18.273  17.300  1.00  0.00     0.126 C 
HETATM   54  O1  UNL     1      13.195  20.408  17.174  1.00  0.00    -0.266 OA
ENDBRANCH  51  52
ENDBRANCH   1  51
BRANCH  33  55
HETATM   55  O5  UNL     1       7.875  18.186  18.369  1.00  0.00    -0.395 OA
HETATM   56  H51 UNL     1       7.454  19.008  18.712  1.00  0.00     0.210 HD
ENDBRANCH  33  55
TORSDOF 6
ENDMDL
MODEL 4
REMARK minimizedAffinity -6.19592953
REMARK CNNscore 0.106670603
REMARK CNNaffinity 4.5857482
REMARK  6 active torsions:
REMARK  status: ('A' for Active; 'I' for Inactive)
REMARK    1  A    between atoms: C2_2  and  O2_4 
REMARK    2  A    between atoms: O2_4  and  C3_5 
REMARK    3  A    between atoms: C12_15  and  O4_16 
REMARK    4  A    between atoms: C17_22  and  C18_23 
REMARK    5  A    between atoms: C18_23  and  C19_24 
REMARK       I    between atoms: C27_33  and  N3_34 
REMARK    6  A    between atoms: C35_45  and  O5_46 
ROOT
HETATM    1  C3  UNL     1       2.331  10.081  16.657  1.00  0.00     0.134 C 
HETATM    2  C4  UNL     1       2.617  11.010  17.853  1.00  0.00     0.037 C 
HETATM    3  C5  UNL     1       1.446  11.236  18.818  1.00  0.00     0.042 C 
HETATM    4  C6  UNL     1       1.885  11.844  20.134  1.00  0.00    -0.048 A 
HETATM    5  C7  UNL     1       2.480  11.077  21.164  1.00  0.00    -0.015 A 
HETATM    6  C8  UNL     1       2.688   9.589  21.033  1.00  0.00     0.044 C 
HETATM    7  C9  UNL     1       2.989   8.948  22.380  1.00  0.00     0.031 C 
HETATM    8  C10 UNL     1       4.025   9.793  23.093  1.00  0.00     0.176 C 
HETATM    9  O3  UNL     1       3.522  11.096  23.389  1.00  0.00    -0.348 OA
HETATM   10  C11 UNL     1       2.906  11.727  22.333  1.00  0.00     0.109 A 
HETATM   11  C12 UNL     1       2.688  13.096  22.507  1.00  0.00     0.107 A 
HETATM   12  C13 UNL     1       2.089  13.869  21.514  1.00  0.00    -0.004 A 
HETATM   13  C14 UNL     1       1.694  13.227  20.328  1.00  0.00     0.019 A 
HETATM   14  C15 UNL     1       1.852  15.343  21.720  1.00  0.00     0.167 C 
HETATM   15  N1  UNL     1       2.286  16.153  20.589  1.00  0.00    -0.347 N 
HETATM   16  C16 UNL     1       1.403  17.056  19.894  1.00  0.00     0.136 C 
HETATM   17  C17 UNL     1       2.334  18.155  19.347  1.00  0.00    -0.011 C 
HETATM   18  C25 UNL     1       1.851  18.783  18.013  1.00  0.00     0.032 C 
HETATM   19  C26 UNL     1       1.606  17.849  16.821  1.00  0.00     0.139 C 
HETATM   20  N2  UNL     1       0.224  17.329  16.787  1.00  0.00    -0.227 N 
HETATM   21  C27 UNL     1      -0.160  16.048  16.593  1.00  0.00     0.668 C 
HETATM   22  N3  UNL     1       0.730  15.044  16.599  1.00  0.00    -0.235 N 
HETATM   23  N4  UNL     1      -1.451  15.734  16.384  1.00  0.00    -0.217 N 
HETATM   24  C28 UNL     1      -2.538  16.687  16.241  1.00  0.00     0.224 C 
HETATM   25  S1  UNL     1      -4.124  15.820  16.296  1.00  0.00    -0.077 SA
HETATM   26  S2  UNL     1      -4.282  15.208  18.260  1.00  0.00    -0.096 SA
HETATM   27  C29 UNL     1      -3.393  13.609  18.351  1.00  0.00     0.086 C 
HETATM   28  C30 UNL     1      -3.695  12.638  17.208  1.00  0.00     0.011 C 
HETATM   29  C31 UNL     1      -2.865  11.360  17.355  1.00  0.00     0.001 C 
HETATM   30  C32 UNL     1      -2.918  10.457  16.118  1.00  0.00     0.000 C 
HETATM   31  C33 UNL     1      -2.239  10.997  14.853  1.00  0.00     0.002 C 
HETATM   32  C34 UNL     1      -0.771  10.575  14.674  1.00  0.00     0.032 C 
HETATM   33  C35 UNL     1       0.206  11.214  15.672  1.00  0.00     0.120 C 
HETATM   34  C36 UNL     1       1.661  10.771  15.451  1.00  0.00     0.064 C 
HETATM   35  C37 UNL     1       3.668  17.392  19.189  1.00  0.00     0.114 C 
HETATM   36  C38 UNL     1       3.623  16.371  20.290  1.00  0.00     0.220 C 
HETATM   37  O6  UNL     1       4.598  15.824  20.771  1.00  0.00    -0.273 OA
HETATM   38  H32 UNL     1      -0.502  18.027  16.853  1.00  0.00     0.177 HD
HETATM   39  H33 UNL     1       1.716  15.186  16.764  1.00  0.00     0.174 HD
HETATM   40  H34 UNL     1       0.447  14.077  16.393  1.00  0.00     0.174 HD
HETATM   41  H35 UNL     1      -1.687  14.756  16.294  1.00  0.00     0.178 HD
ENDROOT
BRANCH  17  42
HETATM   42  C18 UNL     1       2.431  19.256  20.464  1.00  0.00     0.050 C 
BRANCH  42  43
HETATM   43  C19 UNL     1       3.742  19.990  20.609  1.00  0.00    -0.057 A 
HETATM   44  C20 UNL     1       4.128  20.960  19.672  1.00  0.00     0.007 A 
HETATM   45  C21 UNL     1       5.346  21.629  19.798  1.00  0.00     0.001 A 
HETATM   46  C22 UNL     1       6.202  21.323  20.854  1.00  0.00     0.000 A 
HETATM   47  C23 UNL     1       5.836  20.358  21.793  1.00  0.00     0.001 A 
HETATM   48  C24 UNL     1       4.614  19.693  21.669  1.00  0.00     0.007 A 
ENDBRANCH  42  43
ENDBRANCH  17  42
BRANCH  11  49
HETATM   49  O4  UNL     1       3.082  13.685  23.685  1.00  0.00    -0.357 OA
HETATM   50  H15 UNL     1       3.686  13.035  24.089  1.00  0.00     0.217 HD
ENDBRANCH  11  49
BRANCH   1  51
HETATM   51  O2  UNL     1       1.526   8.953  17.037  1.00  0.00    -0.316 OA
BRANCH  51  52
HETATM   52  C2  UNL     1       1.637   7.848  16.240  1.00  0.00     0.255 C 
HETATM   53  C1  UNL     1       0.276   7.336  15.887  1.00  0.00     0.126 C 
HETATM   54  O1  UNL     1       2.688   7.332  15.887  1.00  0.00    -0.266 OA
ENDBRANCH  51  52
ENDBRANCH   1  51
BRANCH  33  55
HETATM   55  O5  UNL     1       0.142  12.653  15.542  1.00  0.00    -0.395 OA
HETATM   56  H51 UNL     1       0.287  12.812  14.580  1.00  0.00     0.210 HD
ENDBRANCH  33  55
TORSDOF 6
ENDMDL
MODEL 5
REMARK minimizedAffinity -6.27432489
REMARK CNNscore 0.092686303
REMARK CNNaffinity 4.52815676
REMARK  6 active torsions:
REMARK  status: ('A' for Active; 'I' for Inactive)
REMARK    1  A    between atoms: C2_2  and  O2_4 
REMARK    2  A    between atoms: O2_4  and  C3_5 
REMARK    3  A    between atoms: C12_15  and  O4_16 
REMARK    4  A    between atoms: C17_22  and  C18_23 
REMARK    5  A    between atoms: C18_23  and  C19_24 
REMARK       I    between atoms: C27_33  and  N3_34 
REMARK    6  A    between atoms: C35_45  and  O5_46 
ROOT
HETATM    1  C3  UNL     1       1.024  17.294  -2.873  1.00  0.00     0.134 C 
HETATM    2  C4  UNL     1       2.281  16.644  -2.263  1.00  0.00     0.037 C 
HETATM    3  C5  UNL     1       2.035  15.424  -1.366  1.00  0.00     0.042 C 
HETATM    4  C6  UNL     1       3.298  14.629  -1.103  1.00  0.00    -0.048 A 
HETATM    5  C7  UNL     1       3.836  13.724  -2.047  1.00  0.00    -0.015 A 
HETATM    6  C8  UNL     1       3.168  13.463  -3.374  1.00  0.00     0.044 C 
HETATM    7  C9  UNL     1       3.716  12.207  -4.036  1.00  0.00     0.031 C 
HETATM    8  C10 UNL     1       5.228  12.239  -3.949  1.00  0.00     0.176 C 
HETATM    9  O3  UNL     1       5.674  12.188  -2.593  1.00  0.00    -0.348 OA
HETATM   10  C11 UNL     1       5.039  13.066  -1.746  1.00  0.00     0.109 A 
HETATM   11  C12 UNL     1       5.661  13.250  -0.508  1.00  0.00     0.107 A 
HETATM   12  C13 UNL     1       5.140  14.124   0.445  1.00  0.00    -0.004 A 
HETATM   13  C14 UNL     1       3.955  14.810   0.130  1.00  0.00     0.019 A 
HETATM   14  C15 UNL     1       5.817  14.303   1.779  1.00  0.00     0.167 C 
HETATM   15  N1  UNL     1       5.983  15.703   2.149  1.00  0.00    -0.347 N 
HETATM   16  C16 UNL     1       5.472  16.249   3.382  1.00  0.00     0.136 C 
HETATM   17  C17 UNL     1       6.422  17.417   3.705  1.00  0.00    -0.011 C 
HETATM   18  C25 UNL     1       5.743  18.588   4.465  1.00  0.00     0.032 C 
HETATM   19  C26 UNL     1       4.515  19.248   3.827  1.00  0.00     0.139 C 
HETATM   20  N2  UNL     1       3.253  18.591   4.222  1.00  0.00    -0.227 N 
HETATM   21  C27 UNL     1       2.237  18.222   3.410  1.00  0.00     0.668 C 
HETATM   22  N3  UNL     1       2.366  18.250   2.075  1.00  0.00    -0.235 N 
HETATM   23  N4  UNL     1       1.058  17.815   3.914  1.00  0.00    -0.217 N 
HETATM   24  C28 UNL     1       0.697  17.816   5.321  1.00  0.00     0.224 C 
HETATM   25  S1  UNL     1      -0.842  16.898   5.559  1.00  0.00    -0.077 SA
HETATM   26  S2  UNL     1      -0.304  14.938   5.206  1.00  0.00    -0.096 SA
HETATM   27  C29 UNL     1      -0.435  14.709   3.393  1.00  0.00     0.086 C 
HETATM   28  C30 UNL     1      -1.699  15.293   2.760  1.00  0.00     0.011 C 
HETATM   29  C31 UNL     1      -1.683  15.092   1.242  1.00  0.00     0.001 C 
HETATM   30  C32 UNL     1      -2.782  15.873   0.515  1.00  0.00     0.000 C 
HETATM   31  C33 UNL     1      -2.644  17.401   0.519  1.00  0.00     0.002 C 
HETATM   32  C34 UNL     1      -1.900  17.989  -0.692  1.00  0.00     0.032 C 
HETATM   33  C35 UNL     1      -0.396  17.688  -0.728  1.00  0.00     0.120 C 
HETATM   34  C36 UNL     1       0.308  18.300  -1.951  1.00  0.00     0.064 C 
HETATM   35  C37 UNL     1       6.908  17.832   2.299  1.00  0.00     0.114 C 
HETATM   36  C38 UNL     1       6.898  16.541   1.528  1.00  0.00     0.220 C 
HETATM   37  O6  UNL     1       7.550  16.327   0.523  1.00  0.00    -0.273 OA
HETATM   38  H32 UNL     1       3.122  18.470   5.215  1.00  0.00     0.177 HD
HETATM   39  H33 UNL     1       3.220  18.526   1.612  1.00  0.00     0.174 HD
HETATM   40  H34 UNL     1       1.575  18.026   1.456  1.00  0.00     0.174 HD
HETATM   41  H35 UNL     1       0.352  17.505   3.262  1.00  0.00     0.178 HD
ENDROOT
BRANCH  17  42
HETATM   42  C18 UNL     1       7.593  16.817   4.564  1.00  0.00     0.050 C 
BRANCH  42  43
HETATM   43  C19 UNL     1       7.732  17.296   5.988  1.00  0.00    -0.057 A 
HETATM   44  C20 UNL     1       8.643  18.311   6.318  1.00  0.00     0.007 A 
HETATM   45  C21 UNL     1       8.782  18.745   7.636  1.00  0.00     0.001 A 
HETATM   46  C22 UNL     1       8.023  18.158   8.646  1.00  0.00     0.000 A 
HETATM   47  C23 UNL     1       7.115  17.145   8.337  1.00  0.00     0.001 A 
HETATM   48  C24 UNL     1       6.973  16.714   7.017  1.00  0.00     0.007 A 
ENDBRANCH  42  43
ENDBRANCH  17  42
BRANCH  11  49
HETATM   49  O4  UNL     1       6.814  12.553  -0.238  1.00  0.00    -0.357 OA
HETATM   50  H15 UNL     1       7.113  12.232  -1.108  1.00  0.00     0.217 HD
ENDBRANCH  11  49
BRANCH   1  51
HETATM   51  O2  UNL     1       0.067  16.310  -3.299  1.00  0.00    -0.316 OA
BRANCH  51  52
HETATM   52  C2  UNL     1      -0.763  16.689  -4.316  1.00  0.00     0.255 C 
HETATM   53  C1  UNL     1      -2.169  16.282  -4.005  1.00  0.00     0.126 C 
HETATM   54  O1  UNL     1      -0.413  17.253  -5.343  1.00  0.00    -0.266 OA
ENDBRANCH  51  52
ENDBRANCH   1  51
BRANCH  33  55
HETATM   55  O5  UNL     1       0.223  18.216   0.467  1.00  0.00    -0.395 OA
HETATM   56  H51 UNL     1      -0.063  19.159   0.486  1.00  0.00     0.210 HD
ENDBRANCH  33  55
TORSDOF 6
ENDMDL
MODEL 6
REMARK minimizedAffinity -4.45845509
REMARK CNNscore 0.0923995078
REMARK CNNaffinity 4.34785795
REMARK  6 active torsions:
REMARK  status: ('A' for Active; 'I' for Inactive)
REMARK    1  A    between atoms: C2_2  and  O2_4 
REMARK    2  A    between atoms: O2_4  and  C3_5 
REMARK    3  A    between atoms: C12_15  and  O4_16 
REMARK    4  A    between atoms: C17_22  and  C18_23 
REMARK    5  A    between atoms: C18_23  and  C19_24 
REMARK       I    between atoms: C27_33  and  N3_34 
REMARK    6  A    between atoms: C35_45  and  O5_46 
ROOT
HETATM    1  C3  UNL     1      -0.363  15.514  -5.821  1.00  0.00     0.134 C 
HETATM    2  C4  UNL     1      -0.766  16.593  -4.797  1.00  0.00     0.037 C 
HETATM    3  C5  UNL     1       0.349  17.555  -4.365  1.00  0.00     0.042 C 
HETATM    4  C6  UNL     1      -0.184  18.785  -3.660  1.00  0.00    -0.048 A 
HETATM    5  C7  UNL     1      -0.744  19.879  -4.361  1.00  0.00    -0.015 A 
HETATM    6  C8  UNL     1      -0.821  19.909  -5.867  1.00  0.00     0.044 C 
HETATM    7  C9  UNL     1      -1.110  21.310  -6.382  1.00  0.00     0.031 C 
HETATM    8  C10 UNL     1      -2.238  21.901  -5.560  1.00  0.00     0.176 C 
HETATM    9  O3  UNL     1      -1.858  22.063  -4.193  1.00  0.00    -0.348 OA
HETATM   10  C11 UNL     1      -1.263  20.959  -3.628  1.00  0.00     0.109 A 
HETATM   11  C12 UNL     1      -1.168  20.985  -2.234  1.00  0.00     0.107 A 
HETATM   12  C13 UNL     1      -0.605  19.927  -1.524  1.00  0.00    -0.004 A 
HETATM   13  C14 UNL     1      -0.118  18.829  -2.253  1.00  0.00     0.019 A 
HETATM   14  C15 UNL     1      -0.501  19.975  -0.021  1.00  0.00     0.167 C 
HETATM   15  N1  UNL     1      -0.964  18.751   0.621  1.00  0.00    -0.347 N 
HETATM   16  C16 UNL     1      -0.139  17.981   1.518  1.00  0.00     0.136 C 
HETATM   17  C17 UNL     1      -1.142  17.294   2.464  1.00  0.00    -0.011 C 
HETATM   18  C25 UNL     1      -0.670  15.910   2.984  1.00  0.00     0.032 C 
HETATM   19  C26 UNL     1      -0.307  14.836   1.953  1.00  0.00     0.139 C 
HETATM   20  N2  UNL     1       1.114  14.892   1.556  1.00  0.00    -0.227 N 
HETATM   21  C27 UNL     1       1.612  14.849   0.300  1.00  0.00     0.668 C 
HETATM   22  N3  UNL     1       0.810  14.946  -0.771  1.00  0.00    -0.235 N 
HETATM   23  N4  UNL     1       2.931  14.707   0.081  1.00  0.00    -0.217 N 
HETATM   24  C28 UNL     1       3.937  14.484   1.105  1.00  0.00     0.224 C 
HETATM   25  S1  UNL     1       5.588  14.672   0.393  1.00  0.00    -0.077 SA
HETATM   26  S2  UNL     1       5.733  16.694   0.013  1.00  0.00    -0.096 SA
HETATM   27  C29 UNL     1       4.980  16.941  -1.640  1.00  0.00     0.086 C 
HETATM   28  C30 UNL     1       5.401  15.920  -2.698  1.00  0.00     0.011 C 
HETATM   29  C31 UNL     1       4.679  16.188  -4.021  1.00  0.00     0.001 C 
HETATM   30  C32 UNL     1       4.849  15.060  -5.044  1.00  0.00     0.000 C 
HETATM   31  C33 UNL     1       4.169  13.727  -4.706  1.00  0.00     0.002 C 
HETATM   32  C34 UNL     1       2.749  13.562  -5.273  1.00  0.00     0.032 C 
HETATM   33  C35 UNL     1       1.689  14.460  -4.618  1.00  0.00     0.120 C 
HETATM   34  C36 UNL     1       0.284  14.256  -5.209  1.00  0.00     0.064 C 
HETATM   35  C37 UNL     1      -2.400  17.190   1.575  1.00  0.00     0.114 C 
HETATM   36  C38 UNL     1      -2.305  18.399   0.686  1.00  0.00     0.220 C 
HETATM   37  O6  UNL     1      -3.245  18.914   0.111  1.00  0.00    -0.273 OA
HETATM   38  H32 UNL     1       1.775  14.897   2.318  1.00  0.00     0.177 HD
HETATM   39  H33 UNL     1      -0.189  15.070  -0.700  1.00  0.00     0.174 HD
HETATM   40  H34 UNL     1       1.181  14.854  -1.727  1.00  0.00     0.174 HD
HETATM   41  H35 UNL     1       3.252  14.730  -0.877  1.00  0.00     0.178 HD
ENDROOT
BRANCH  17  42
HETATM   42  C18 UNL     1      -1.369  18.280   3.667  1.00  0.00     0.050 C 
BRANCH  42  43
HETATM   43  C19 UNL     1      -1.867  17.694   4.966  1.00  0.00    -0.057 A 
HETATM   44  C20 UNL     1      -3.213  17.326   5.117  1.00  0.00     0.007 A 
HETATM   45  C21 UNL     1      -3.677  16.798   6.322  1.00  0.00     0.001 A 
HETATM   46  C22 UNL     1      -2.805  16.646   7.397  1.00  0.00     0.000 A 
HETATM   47  C23 UNL     1      -1.465  17.010   7.266  1.00  0.00     0.001 A 
HETATM   48  C24 UNL     1      -0.999  17.535   6.058  1.00  0.00     0.007 A 
ENDBRANCH  42  43
ENDBRANCH  17  42
BRANCH  11  49
HETATM   49  O4  UNL     1      -1.650  22.081  -1.559  1.00  0.00    -0.357 OA
HETATM   50  H15 UNL     1      -2.209  22.540  -2.212  1.00  0.00     0.217 HD
ENDBRANCH  11  49
BRANCH   1  51
HETATM   51  O2  UNL     1       0.522  16.035  -6.826  1.00  0.00    -0.316 OA
BRANCH  51  52
HETATM   52  C2  UNL     1       0.367  15.516  -8.081  1.00  0.00     0.255 C 
HETATM   53  C1  UNL     1      -0.621  16.335  -8.852  1.00  0.00     0.126 C 
HETATM   54  O1  UNL     1       0.928  14.518  -8.509  1.00  0.00    -0.266 OA
ENDBRANCH  51  52
ENDBRANCH   1  51
BRANCH  33  55
HETATM   55  O5  UNL     1       1.634  14.173  -3.202  1.00  0.00    -0.395 OA
HETATM   56  H51 UNL     1       1.508  13.197  -3.161  1.00  0.00     0.210 HD
ENDBRANCH  33  55
TORSDOF 6
ENDMDL
MODEL 7
REMARK minimizedAffinity -7.24259472
REMARK CNNscore 0.0914668515
REMARK CNNaffinity 4.97307587
REMARK  6 active torsions:
REMARK  status: ('A' for Active; 'I' for Inactive)
REMARK    1  A    between atoms: C2_2  and  O2_4 
REMARK    2  A    between atoms: O2_4  and  C3_5 
REMARK    3  A    between atoms: C12_15  and  O4_16 
REMARK    4  A    between atoms: C17_22  and  C18_23 
REMARK    5  A    between atoms: C18_23  and  C19_24 
REMARK       I    between atoms: C27_33  and  N3_34 
REMARK    6  A    between atoms: C35_45  and  O5_46 
ROOT
HETATM    1  C3  UNL     1       7.646  13.856  20.295  1.00  0.00     0.134 C 
HETATM    2  C4  UNL     1       6.183  13.386  20.168  1.00  0.00     0.037 C 
HETATM    3  C5  UNL     1       5.981  11.961  19.637  1.00  0.00     0.042 C 
HETATM    4  C6  UNL     1       4.579  11.442  19.878  1.00  0.00    -0.048 A 
HETATM    5  C7  UNL     1       4.159  10.945  21.135  1.00  0.00    -0.015 A 
HETATM    6  C8  UNL     1       5.093  10.868  22.316  1.00  0.00     0.044 C 
HETATM    7  C9  UNL     1       4.532   9.975  23.412  1.00  0.00     0.031 C 
HETATM    8  C10 UNL     1       3.076  10.335  23.627  1.00  0.00     0.176 C 
HETATM    9  O3  UNL     1       2.293  10.059  22.465  1.00  0.00    -0.348 OA
HETATM   10  C11 UNL     1       2.826  10.531  21.288  1.00  0.00     0.109 A 
HETATM   11  C12 UNL     1       1.946  10.546  20.203  1.00  0.00     0.107 A 
HETATM   12  C13 UNL     1       2.342  11.015  18.952  1.00  0.00    -0.004 A 
HETATM   13  C14 UNL     1       3.665  11.464  18.805  1.00  0.00     0.019 A 
HETATM   14  C15 UNL     1       1.383  11.016  17.789  1.00  0.00     0.167 C 
HETATM   15  N1  UNL     1       1.365  12.282  17.067  1.00  0.00    -0.347 N 
HETATM   16  C16 UNL     1       1.625  12.376  15.652  1.00  0.00     0.136 C 
HETATM   17  C17 UNL     1       0.833  13.617  15.200  1.00  0.00    -0.011 C 
HETATM   18  C25 UNL     1       1.479  14.377  14.011  1.00  0.00     0.032 C 
HETATM   19  C26 UNL     1       2.922  14.869  14.166  1.00  0.00     0.139 C 
HETATM   20  N2  UNL     1       3.912  13.861  13.734  1.00  0.00    -0.227 N 
HETATM   21  C27 UNL     1       5.026  13.476  14.395  1.00  0.00     0.668 C 
HETATM   22  N3  UNL     1       5.252  13.858  15.661  1.00  0.00    -0.235 N 
HETATM   23  N4  UNL     1       5.949  12.696  13.806  1.00  0.00    -0.217 N 
HETATM   24  C28 UNL     1       5.930  12.270  12.417  1.00  0.00     0.224 C 
HETATM   25  S1  UNL     1       7.179  10.990  12.152  1.00  0.00    -0.077 SA
HETATM   26  S2  UNL     1       6.430   9.355  13.163  1.00  0.00    -0.096 SA
HETATM   27  C29 UNL     1       6.984   9.552  14.898  1.00  0.00     0.086 C 
HETATM   28  C30 UNL     1       8.448   9.964  15.064  1.00  0.00     0.011 C 
HETATM   29  C31 UNL     1       8.791  10.149  16.545  1.00  0.00     0.001 C 
HETATM   30  C32 UNL     1      10.155  10.808  16.775  1.00  0.00     0.000 C 
HETATM   31  C33 UNL     1      10.279  12.277  16.351  1.00  0.00     0.002 C 
HETATM   32  C34 UNL     1       9.982  13.299  17.462  1.00  0.00     0.032 C 
HETATM   33  C35 UNL     1       8.509  13.373  17.888  1.00  0.00     0.120 C 
HETATM   34  C36 UNL     1       8.258  14.412  18.994  1.00  0.00     0.064 C 
HETATM   35  C37 UNL     1       0.803  14.464  16.492  1.00  0.00     0.114 C 
HETATM   36  C38 UNL     1       0.795  13.435  17.587  1.00  0.00     0.220 C 
HETATM   37  O6  UNL     1       0.398  13.630  18.721  1.00  0.00    -0.273 OA
HETATM   38  H32 UNL     1       3.760  13.474  12.815  1.00  0.00     0.177 HD
HETATM   39  H33 UNL     1       4.606  14.430  16.186  1.00  0.00     0.174 HD
HETATM   40  H34 UNL     1       6.127  13.615  16.145  1.00  0.00     0.174 HD
HETATM   41  H35 UNL     1       6.738  12.400  14.363  1.00  0.00     0.178 HD
ENDROOT
BRANCH  17  42
HETATM   42  C18 UNL     1      -0.604  13.114  14.809  1.00  0.00     0.050 C 
BRANCH  42  43
HETATM   43  C19 UNL     1      -1.743  14.098  14.922  1.00  0.00    -0.057 A 
HETATM   44  C20 UNL     1      -1.988  15.031  13.903  1.00  0.00     0.007 A 
HETATM   45  C21 UNL     1      -3.032  15.949  14.013  1.00  0.00     0.001 A 
HETATM   46  C22 UNL     1      -3.834  15.958  15.152  1.00  0.00     0.000 A 
HETATM   47  C23 UNL     1      -3.602  15.041  16.177  1.00  0.00     0.001 A 
HETATM   48  C24 UNL     1      -2.560  14.118  16.064  1.00  0.00     0.007 A 
ENDBRANCH  42  43
ENDBRANCH  17  42
BRANCH  11  49
HETATM   49  O4  UNL     1       0.662  10.092  20.387  1.00  0.00    -0.357 OA
HETATM   50  H15 UNL     1       0.549  10.072  21.354  1.00  0.00     0.217 HD
ENDBRANCH  11  49
BRANCH   1  51
HETATM   51  O2  UNL     1       8.501  12.811  20.788  1.00  0.00    -0.316 OA
BRANCH  51  52
HETATM   52  C2  UNL     1       9.088  13.046  21.999  1.00  0.00     0.255 C 
HETATM   53  C1  UNL     1       8.685  11.985  22.974  1.00  0.00     0.126 C 
HETATM   54  O1  UNL     1       9.814  13.993  22.263  1.00  0.00    -0.266 OA
ENDBRANCH  51  52
ENDBRANCH   1  51
BRANCH  33  55
HETATM   55  O5  UNL     1       7.701  13.722  16.742  1.00  0.00    -0.395 OA
HETATM   56  H51 UNL     1       8.126  14.539  16.390  1.00  0.00     0.210 HD
ENDBRANCH  33  55
TORSDOF 6
ENDMDL
MODEL 8
REMARK minimizedAffinity -6.61568451
REMARK CNNscore 0.0841362402
REMARK CNNaffinity 4.96786642
REMARK  6 active torsions:
REMARK  status: ('A' for Active; 'I' for Inactive)
REMARK    1  A    between atoms: C2_2  and  O2_4 
REMARK    2  A    between atoms: O2_4  and  C3_5 
REMARK    3  A    between atoms: C12_15  and  O4_16 
REMARK    4  A    between atoms: C17_22  and  C18_23 
REMARK    5  A    between atoms: C18_23  and  C19_24 
REMARK       I    between atoms: C27_33  and  N3_34 
REMARK    6  A    between atoms: C35_45  and  O5_46 
ROOT
HETATM    1  C3  UNL     1      -9.655  14.551   4.251  1.00  0.00     0.134 C 
HETATM    2  C4  UNL     1      -8.625  15.322   5.101  1.00  0.00     0.037 C 
HETATM    3  C5  UNL     1      -8.572  16.838   4.873  1.00  0.00     0.042 C 
HETATM    4  C6  UNL     1      -7.823  17.566   5.970  1.00  0.00    -0.048 A 
HETATM    5  C7  UNL     1      -8.409  17.858   7.225  1.00  0.00    -0.015 A 
HETATM    6  C8  UNL     1      -9.836  17.490   7.545  1.00  0.00     0.044 C 
HETATM    7  C9  UNL     1     -10.336  18.223   8.781  1.00  0.00     0.031 C 
HETATM    8  C10 UNL     1      -9.275  18.127   9.858  1.00  0.00     0.176 C 
HETATM    9  O3  UNL     1      -8.075  18.797   9.470  1.00  0.00    -0.348 OA
HETATM   10  C11 UNL     1      -7.629  18.490   8.206  1.00  0.00     0.109 A 
HETATM   11  C12 UNL     1      -6.317  18.884   7.929  1.00  0.00     0.107 A 
HETATM   12  C13 UNL     1      -5.725  18.623   6.695  1.00  0.00    -0.004 A 
HETATM   13  C14 UNL     1      -6.492  17.959   5.724  1.00  0.00     0.019 A 
HETATM   14  C15 UNL     1      -4.313  19.065   6.408  1.00  0.00     0.167 C 
HETATM   15  N1  UNL     1      -3.497  18.012   5.814  1.00  0.00    -0.347 N 
HETATM   16  C16 UNL     1      -2.814  18.172   4.555  1.00  0.00     0.136 C 
HETATM   17  C17 UNL     1      -1.591  17.242   4.663  1.00  0.00    -0.011 C 
HETATM   18  C25 UNL     1      -1.138  16.639   3.307  1.00  0.00     0.032 C 
HETATM   19  C26 UNL     1      -2.163  15.844   2.490  1.00  0.00     0.139 C 
HETATM   20  N2  UNL     1      -2.934  16.700   1.566  1.00  0.00    -0.227 N 
HETATM   21  C27 UNL     1      -4.273  16.702   1.382  1.00  0.00     0.668 C 
HETATM   22  N3  UNL     1      -5.090  16.021   2.200  1.00  0.00    -0.235 N 
HETATM   23  N4  UNL     1      -4.835  17.387   0.370  1.00  0.00    -0.217 N 
HETATM   24  C28 UNL     1      -4.111  18.094  -0.672  1.00  0.00     0.224 C 
HETATM   25  S1  UNL     1      -5.256  19.123  -1.622  1.00  0.00    -0.077 SA
HETATM   26  S2  UNL     1      -5.781  20.620  -0.304  1.00  0.00    -0.096 SA
HETATM   27  C29 UNL     1      -7.177  19.950   0.674  1.00  0.00     0.086 C 
HETATM   28  C30 UNL     1      -8.248  19.225  -0.145  1.00  0.00     0.011 C 
HETATM   29  C31 UNL     1      -9.338  18.664   0.772  1.00  0.00     0.001 C 
HETATM   30  C32 UNL     1     -10.299  17.709   0.057  1.00  0.00     0.000 C 
HETATM   31  C33 UNL     1      -9.710  16.370  -0.404  1.00  0.00     0.002 C 
HETATM   32  C34 UNL     1      -9.858  15.216   0.602  1.00  0.00     0.032 C 
HETATM   33  C35 UNL     1      -8.994  15.352   1.864  1.00  0.00     0.120 C 
HETATM   34  C36 UNL     1      -9.168  14.174   2.837  1.00  0.00     0.064 C 
HETATM   35  C37 UNL     1      -2.097  16.163   5.646  1.00  0.00     0.114 C 
HETATM   36  C38 UNL     1      -3.049  16.914   6.535  1.00  0.00     0.220 C 
HETATM   37  O6  UNL     1      -3.376  16.566   7.653  1.00  0.00    -0.273 OA
HETATM   38  H32 UNL     1      -2.382  17.297   0.969  1.00  0.00     0.177 HD
HETATM   39  H33 UNL     1      -4.757  15.493   2.994  1.00  0.00     0.174 HD
HETATM   40  H34 UNL     1      -6.103  15.973   2.026  1.00  0.00     0.174 HD
HETATM   41  H35 UNL     1      -5.843  17.392   0.310  1.00  0.00     0.178 HD
ENDROOT
BRANCH  17  42
HETATM   42  C18 UNL     1      -0.433  18.096   5.294  1.00  0.00     0.050 C 
BRANCH  42  43
HETATM   43  C19 UNL     1       0.081  17.680   6.651  1.00  0.00    -0.057 A 
HETATM   44  C20 UNL     1       0.941  16.579   6.785  1.00  0.00     0.007 A 
HETATM   45  C21 UNL     1       1.406  16.186   8.040  1.00  0.00     0.001 A 
HETATM   46  C22 UNL     1       1.002  16.878   9.180  1.00  0.00     0.000 A 
HETATM   47  C23 UNL     1       0.145  17.972   9.066  1.00  0.00     0.001 A 
HETATM   48  C24 UNL     1      -0.316  18.369   7.809  1.00  0.00     0.007 A 
ENDBRANCH  42  43
ENDBRANCH  17  42
BRANCH  11  49
HETATM   49  O4  UNL     1      -5.603  19.539   8.904  1.00  0.00    -0.357 OA
HETATM   50  H15 UNL     1      -6.105  19.374   9.723  1.00  0.00     0.217 HD
ENDBRANCH  11  49
BRANCH   1  51
HETATM   51  O2  UNL     1     -10.892  15.272   4.126  1.00  0.00    -0.316 OA
BRANCH  51  52
HETATM   52  C2  UNL     1     -11.841  14.990   5.069  1.00  0.00     0.255 C 
HETATM   53  C1  UNL     1     -13.084  15.775   4.789  1.00  0.00     0.126 C 
HETATM   54  O1  UNL     1     -11.695  14.233   6.017  1.00  0.00    -0.266 OA
ENDBRANCH  51  52
ENDBRANCH   1  51
BRANCH  33  55
HETATM   55  O5  UNL     1      -7.602  15.425   1.481  1.00  0.00    -0.395 OA
HETATM   56  H51 UNL     1      -7.470  14.634   0.908  1.00  0.00     0.210 HD
ENDBRANCH  33  55
TORSDOF 6
ENDMDL
MODEL 9
REMARK minimizedAffinity -6.56451225
REMARK CNNscore 0.0835367069
REMARK CNNaffinity 4.71517754
REMARK  6 active torsions:
REMARK  status: ('A' for Active; 'I' for Inactive)
REMARK    1  A    between atoms: C2_2  and  O2_4 
REMARK    2  A    between atoms: O2_4  and  C3_5 
REMARK    3  A    between atoms: C12_15  and  O4_16 
REMARK    4  A    between atoms: C17_22  and  C18_23 
REMARK    5  A    between atoms: C18_23  and  C19_24 
REMARK       I    between atoms: C27_33  and  N3_34 
REMARK    6  A    between atoms: C35_45  and  O5_46 
ROOT
HETATM    1  C3  UNL     1     -15.557   5.411  14.758  1.00  0.00     0.134 C 
HETATM    2  C4  UNL     1     -15.446   6.019  16.170  1.00  0.00     0.037 C 
HETATM    3  C5  UNL     1     -16.416   7.167  16.481  1.00  0.00     0.042 C 
HETATM    4  C6  UNL     1     -16.509   7.465  17.963  1.00  0.00    -0.048 A 
HETATM    5  C7  UNL     1     -17.283   6.679  18.850  1.00  0.00    -0.015 A 
HETATM    6  C8  UNL     1     -18.098   5.504  18.371  1.00  0.00     0.044 C 
HETATM    7  C9  UNL     1     -19.109   5.065  19.419  1.00  0.00     0.031 C 
HETATM    8  C10 UNL     1     -18.412   4.999  20.762  1.00  0.00     0.176 C 
HETATM    9  O3  UNL     1     -17.959   6.287  21.179  1.00  0.00    -0.348 OA
HETATM   10  C11 UNL     1     -17.273   6.993  20.218  1.00  0.00     0.109 A 
HETATM   11  C12 UNL     1     -16.565   8.101  20.690  1.00  0.00     0.107 A 
HETATM   12  C13 UNL     1     -15.809   8.900  19.833  1.00  0.00    -0.004 A 
HETATM   13  C14 UNL     1     -15.789   8.566  18.469  1.00  0.00     0.019 A 
HETATM   14  C15 UNL     1     -15.060  10.098  20.356  1.00  0.00     0.167 C 
HETATM   15  N1  UNL     1     -13.681  10.156  19.886  1.00  0.00    -0.347 N 
HETATM   16  C16 UNL     1     -13.145  11.294  19.182  1.00  0.00     0.136 C 
HETATM   17  C17 UNL     1     -11.642  11.279  19.519  1.00  0.00    -0.011 C 
HETATM   18  C25 UNL     1     -10.738  11.843  18.391  1.00  0.00     0.032 C 
HETATM   19  C26 UNL     1     -10.833  11.204  17.001  1.00  0.00     0.139 C 
HETATM   20  N2  UNL     1     -11.860  11.843  16.155  1.00  0.00    -0.227 N 
HETATM   21  C27 UNL     1     -12.803  11.226  15.409  1.00  0.00     0.668 C 
HETATM   22  N3  UNL     1     -13.025   9.907  15.519  1.00  0.00    -0.235 N 
HETATM   23  N4  UNL     1     -13.551  11.912  14.527  1.00  0.00    -0.217 N 
HETATM   24  C28 UNL     1     -13.387  13.317  14.196  1.00  0.00     0.224 C 
HETATM   25  S1  UNL     1     -14.798  13.884  13.217  1.00  0.00    -0.077 SA
HETATM   26  S2  UNL     1     -16.360  13.891  14.564  1.00  0.00    -0.096 SA
HETATM   27  C29 UNL     1     -17.026  12.184  14.555  1.00  0.00     0.086 C 
HETATM   28  C30 UNL     1     -17.202  11.568  13.166  1.00  0.00     0.011 C 
HETATM   29  C31 UNL     1     -17.714  10.130  13.276  1.00  0.00     0.001 C 
HETATM   30  C32 UNL     1     -17.667   9.366  11.950  1.00  0.00     0.000 C 
HETATM   31  C33 UNL     1     -16.271   9.044  11.401  1.00  0.00     0.002 C 
HETATM   32  C34 UNL     1     -15.712   7.672  11.815  1.00  0.00     0.032 C 
HETATM   33  C35 UNL     1     -15.337   7.555  13.299  1.00  0.00     0.120 C 
HETATM   34  C36 UNL     1     -14.776   6.172  13.667  1.00  0.00     0.064 C 
HETATM   35  C37 UNL     1     -11.389   9.777  19.780  1.00  0.00     0.114 C 
HETATM   36  C38 UNL     1     -12.696   9.292  20.342  1.00  0.00     0.220 C 
HETATM   37  O6  UNL     1     -12.830   8.295  21.027  1.00  0.00    -0.273 OA
HETATM   38  H32 UNL     1     -11.798  12.848  16.086  1.00  0.00     0.177 HD
HETATM   39  H33 UNL     1     -12.521   9.317  16.166  1.00  0.00     0.174 HD
HETATM   40  H34 UNL     1     -13.701   9.426  14.910  1.00  0.00     0.174 HD
HETATM   41  H35 UNL     1     -14.273  11.408  14.032  1.00  0.00     0.178 HD
ENDROOT
BRANCH  17  42
HETATM   42  C18 UNL     1     -11.470  12.126  20.831  1.00  0.00     0.050 C 
BRANCH  42  43
HETATM   43  C19 UNL     1     -10.066  12.500  21.242  1.00  0.00    -0.057 A 
HETATM   44  C20 UNL     1      -9.632  12.316  22.564  1.00  0.00     0.007 A 
HETATM   45  C21 UNL     1      -8.339  12.674  22.947  1.00  0.00     0.001 A 
HETATM   46  C22 UNL     1      -7.469  13.237  22.017  1.00  0.00     0.000 A 
HETATM   47  C23 UNL     1      -7.884  13.431  20.699  1.00  0.00     0.001 A 
HETATM   48  C24 UNL     1      -9.177  13.068  20.315  1.00  0.00     0.007 A 
ENDBRANCH  42  43
ENDBRANCH  17  42
BRANCH  11  49
HETATM   49  O4  UNL     1     -16.617   8.398  22.031  1.00  0.00    -0.357 OA
HETATM   50  H15 UNL     1     -16.966   7.587  22.444  1.00  0.00     0.217 HD
ENDBRANCH  11  49
BRANCH   1  51
HETATM   51  O2  UNL     1     -16.924   5.289  14.333  1.00  0.00    -0.316 OA
BRANCH  51  52
HETATM   52  C2  UNL     1     -17.289   4.065  13.849  1.00  0.00     0.255 C 
HETATM   53  C1  UNL     1     -18.053   4.230  12.572  1.00  0.00     0.126 C 
HETATM   54  O1  UNL     1     -17.055   2.992  14.385  1.00  0.00    -0.266 OA
ENDBRANCH  51  52
ENDBRANCH   1  51
BRANCH  33  55
HETATM   55  O5  UNL     1     -14.339   8.552  13.616  1.00  0.00    -0.395 OA
HETATM   56  H51 UNL     1     -13.633   8.405  12.944  1.00  0.00     0.210 HD
ENDBRANCH  33  55
TORSDOF 6
ENDMDL
