MODEL 1
REMARK minimizedAffinity -8.43213844
REMARK CNNscore 0.861280441
REMARK CNNaffinity 7.66191339
REMARK  12 active torsions:
REMARK  status: ('A' for Active; 'I' for Inactive)
REMARK    1  A    between atoms: C5_5  and  C6_6 
REMARK    2  A    between atoms: C6_6  and  C8_8 
REMARK    3  A    between atoms: C8_8  and  O1_9 
REMARK    4  A    between atoms: C13_15  and  O3_17 
REMARK    5  A    between atoms: C18_21  and  O4_23 
REMARK    6  A    between atoms: O4_23  and  C20_24 
REMARK    7  A    between atoms: C20_24  and  C21_26 
REMARK    8  A    between atoms: C21_26  and  C22_27 
REMARK    9  A    between atoms: C21_26  and  O6_29 
REMARK   10  A    between atoms: O6_29  and  C24_30 
REMARK   11  A    between atoms: C24_30  and  C25_32 
REMARK   12  A    between atoms: C25_32  and  C26_33 
ROOT
HETATM    1  C1  UNL     1      -6.997   1.443  12.661  1.00  0.00     0.015 C 
HETATM    2  C2  UNL     1      -6.562   2.602  12.136  1.00  0.00    -0.077 C 
HETATM    3  C3  UNL     1      -6.104   2.684  10.699  1.00  0.00     0.034 C 
HETATM    4  C4  UNL     1      -5.013   3.740  10.494  1.00  0.00     0.010 C 
HETATM    5  C5  UNL     1      -4.133   3.947  11.746  1.00  0.00    -0.001 C 
HETATM    6  C9  UNL     1      -5.034   4.552  12.886  1.00  0.00     0.037 C 
HETATM    7  C10 UNL     1      -6.451   3.878  12.958  1.00  0.00     0.090 C 
HETATM    8  C11 UNL     1      -7.649   4.776  12.595  1.00  0.00     0.138 C 
HETATM    9  O2  UNL     1      -7.958   5.011  11.421  1.00  0.00    -0.297 OA
HETATM   10  C12 UNL     1      -8.518   5.340  13.724  1.00  0.00     0.119 C 
HETATM   11  C13 UNL     1      -7.799   5.815  15.008  1.00  0.00     0.087 C 
HETATM   12  C14 UNL     1      -8.770   6.686  15.829  1.00  0.00     0.049 C 
HETATM   13  C15 UNL     1      -6.482   6.632  14.749  1.00  0.00     0.156 C 
HETATM   14  C16 UNL     1      -5.274   6.191  15.587  1.00  0.00     0.038 C 
HETATM   15  C17 UNL     1      -3.920   6.681  15.068  1.00  0.00     0.043 C 
HETATM   16  C18 UNL     1      -3.844   6.874  13.535  1.00  0.00     0.093 C 
HETATM   17  C19 UNL     1      -3.971   8.380  13.181  1.00  0.00     0.049 C 
HETATM   18  C28 UNL     1      -5.036   6.127  12.842  1.00  0.00     0.162 C 
HETATM   19  O8  UNL     1      -6.243   6.696  13.345  1.00  0.00    -0.374 OA
ENDROOT
BRANCH  16  20
HETATM   20  O4  UNL     1      -2.588   6.394  12.981  1.00  0.00    -0.306 OA
BRANCH  20  21
HETATM   21  C20 UNL     1      -1.505   7.227  12.943  1.00  0.00     0.289 C 
HETATM   22  O5  UNL     1      -1.475   8.359  13.413  1.00  0.00    -0.262 OA
BRANCH  21  23
HETATM   23  C21 UNL     1      -0.314   6.598  12.200  1.00  0.00     0.231 C 
BRANCH  23  24
HETATM   24  C22 UNL     1      -0.179   5.106  12.537  1.00  0.00     0.038 C 
HETATM   25  C23 UNL     1       0.804   4.354  11.653  1.00  0.00     0.008 C 
ENDBRANCH  23  24
BRANCH  23  26
HETATM   26  O6  UNL     1      -0.309   6.749  10.777  1.00  0.00    -0.306 OA
BRANCH  26  27
HETATM   27  C24 UNL     1       0.681   7.554  10.295  1.00  0.00     0.259 C 
HETATM   28  O7  UNL     1       1.740   7.775  10.865  1.00  0.00    -0.265 OA
BRANCH  27  29
HETATM   29  C25 UNL     1       0.268   8.148   8.971  1.00  0.00     0.111 C 
BRANCH  29  30
HETATM   30  C26 UNL     1       1.472   8.384   8.063  1.00  0.00     0.005 C 
HETATM   31  C27 UNL     1       1.849   7.121   7.303  1.00  0.00     0.005 C 
ENDBRANCH  29  30
ENDBRANCH  27  29
ENDBRANCH  26  27
ENDBRANCH  23  26
ENDBRANCH  21  23
ENDBRANCH  20  21
ENDBRANCH  16  20
BRANCH   5  32
HETATM   32  C6  UNL     1      -3.332   2.645  12.126  1.00  0.00     0.010 C 
HETATM   33  C7  UNL     1      -4.049   1.391  11.590  1.00  0.00     0.012 C 
BRANCH  32  34
HETATM   34  C8  UNL     1      -1.873   2.662  11.634  1.00  0.00     0.168 C 
BRANCH  34  35
HETATM   35  O1  UNL     1      -1.607   1.606  10.720  1.00  0.00    -0.400 OA
HETATM   36  H14 UNL     1      -1.802   0.769  11.175  1.00  0.00     0.209 HD
ENDBRANCH  34  35
ENDBRANCH  32  34
ENDBRANCH   5  32
BRANCH  11  37
HETATM   37  O3  UNL     1      -7.540   4.661  15.827  1.00  0.00    -0.387 OA
HETATM   38  H22 UNL     1      -8.392   4.291  16.121  1.00  0.00     0.210 HD
ENDBRANCH  11  37
TORSDOF 12
ENDMDL
MODEL 2
REMARK minimizedAffinity -7.59272528
REMARK CNNscore 0.760370374
REMARK CNNaffinity 7.3119359
REMARK  12 active torsions:
REMARK  status: ('A' for Active; 'I' for Inactive)
REMARK    1  A    between atoms: C5_5  and  C6_6 
REMARK    2  A    between atoms: C6_6  and  C8_8 
REMARK    3  A    between atoms: C8_8  and  O1_9 
REMARK    4  A    between atoms: C13_15  and  O3_17 
REMARK    5  A    between atoms: C18_21  and  O4_23 
REMARK    6  A    between atoms: O4_23  and  C20_24 
REMARK    7  A    between atoms: C20_24  and  C21_26 
REMARK    8  A    between atoms: C21_26  and  C22_27 
REMARK    9  A    between atoms: C21_26  and  O6_29 
REMARK   10  A    between atoms: O6_29  and  C24_30 
REMARK   11  A    between atoms: C24_30  and  C25_32 
REMARK   12  A    between atoms: C25_32  and  C26_33 
ROOT
HETATM    1  C1  UNL     1       2.126   9.365  13.324  1.00  0.00     0.015 C 
HETATM    2  C2  UNL     1       1.353   8.351  13.750  1.00  0.00    -0.077 C 
HETATM    3  C3  UNL     1       1.811   6.917  13.631  1.00  0.00     0.034 C 
HETATM    4  C4  UNL     1       0.643   5.945  13.437  1.00  0.00     0.010 C 
HETATM    5  C5  UNL     1      -0.556   6.585  12.703  1.00  0.00    -0.001 C 
HETATM    6  C9  UNL     1      -1.152   7.713  13.626  1.00  0.00     0.037 C 
HETATM    7  C10 UNL     1      -0.039   8.574  14.324  1.00  0.00     0.090 C 
HETATM    8  C11 UNL     1       0.057   8.444  15.856  1.00  0.00     0.138 C 
HETATM    9  O2  UNL     1       0.631   7.491  16.396  1.00  0.00    -0.297 OA
HETATM   10  C12 UNL     1      -0.518   9.563  16.729  1.00  0.00     0.119 C 
HETATM   11  C13 UNL     1      -1.852  10.205  16.281  1.00  0.00     0.087 C 
HETATM   12  C14 UNL     1      -2.445  10.999  17.460  1.00  0.00     0.049 C 
HETATM   13  C15 UNL     1      -2.927   9.177  15.772  1.00  0.00     0.156 C 
HETATM   14  C16 UNL     1      -3.600   9.552  14.444  1.00  0.00     0.038 C 
HETATM   15  C17 UNL     1      -4.323   8.398  13.744  1.00  0.00     0.043 C 
HETATM   16  C18 UNL     1      -3.716   6.999  14.004  1.00  0.00     0.093 C 
HETATM   17  C19 UNL     1      -4.565   6.239  15.059  1.00  0.00     0.049 C 
HETATM   18  C28 UNL     1      -2.267   7.143  14.584  1.00  0.00     0.162 C 
HETATM   19  O8  UNL     1      -2.369   7.865  15.809  1.00  0.00    -0.374 OA
ENDROOT
BRANCH  16  20
HETATM   20  O4  UNL     1      -3.675   6.184  12.800  1.00  0.00    -0.306 OA
BRANCH  20  21
HETATM   21  C20 UNL     1      -3.826   4.829  12.897  1.00  0.00     0.289 C 
HETATM   22  O5  UNL     1      -3.027   4.072  13.436  1.00  0.00    -0.262 OA
BRANCH  21  23
HETATM   23  C21 UNL     1      -5.112   4.337  12.211  1.00  0.00     0.231 C 
BRANCH  23  24
HETATM   24  C22 UNL     1      -4.800   3.271  11.153  1.00  0.00     0.038 C 
HETATM   25  C23 UNL     1      -5.407   1.907  11.443  1.00  0.00     0.008 C 
ENDBRANCH  23  24
BRANCH  23  26
HETATM   26  O6  UNL     1      -6.135   3.836  13.079  1.00  0.00    -0.306 OA
BRANCH  26  27
HETATM   27  C24 UNL     1      -7.291   4.560  13.070  1.00  0.00     0.259 C 
HETATM   28  O7  UNL     1      -7.927   4.845  12.066  1.00  0.00    -0.265 OA
BRANCH  27  29
HETATM   29  C25 UNL     1      -7.655   4.974  14.474  1.00  0.00     0.111 C 
BRANCH  29  30
HETATM   30  C26 UNL     1      -8.441   6.282  14.487  1.00  0.00     0.005 C 
HETATM   31  C27 UNL     1      -8.741   6.736  15.907  1.00  0.00     0.005 C 
ENDBRANCH  29  30
ENDBRANCH  27  29
ENDBRANCH  26  27
ENDBRANCH  23  26
ENDBRANCH  21  23
ENDBRANCH  20  21
ENDBRANCH  16  20
BRANCH   5  32
HETATM   32  C6  UNL     1      -0.185   7.026  11.238  1.00  0.00     0.010 C 
HETATM   33  C7  UNL     1      -0.456   8.530  11.039  1.00  0.00     0.012 C 
BRANCH  32  34
HETATM   34  C8  UNL     1       1.272   6.704  10.855  1.00  0.00     0.168 C 
BRANCH  34  35
HETATM   35  O1  UNL     1       1.363   5.556  10.021  1.00  0.00    -0.400 OA
HETATM   36  H14 UNL     1       0.967   4.812  10.505  1.00  0.00     0.209 HD
ENDBRANCH  34  35
ENDBRANCH  32  34
ENDBRANCH   5  32
BRANCH  11  37
HETATM   37  O3  UNL     1      -1.557  11.187  15.272  1.00  0.00    -0.387 OA
HETATM   38  H22 UNL     1      -1.041  11.905  15.679  1.00  0.00     0.210 HD
ENDBRANCH  11  37
TORSDOF 12
ENDMDL
MODEL 3
REMARK minimizedAffinity -6.73110437
REMARK CNNscore 0.640781403
REMARK CNNaffinity 6.8002162
REMARK  12 active torsions:
REMARK  status: ('A' for Active; 'I' for Inactive)
REMARK    1  A    between atoms: C5_5  and  C6_6 
REMARK    2  A    between atoms: C6_6  and  C8_8 
REMARK    3  A    between atoms: C8_8  and  O1_9 
REMARK    4  A    between atoms: C13_15  and  O3_17 
REMARK    5  A    between atoms: C18_21  and  O4_23 
REMARK    6  A    between atoms: O4_23  and  C20_24 
REMARK    7  A    between atoms: C20_24  and  C21_26 
REMARK    8  A    between atoms: C21_26  and  C22_27 
REMARK    9  A    between atoms: C21_26  and  O6_29 
REMARK   10  A    between atoms: O6_29  and  C24_30 
REMARK   11  A    between atoms: C24_30  and  C25_32 
REMARK   12  A    between atoms: C25_32  and  C26_33 
ROOT
HETATM    1  C1  UNL     1      -6.135   7.197  16.100  1.00  0.00     0.015 C 
HETATM    2  C2  UNL     1      -5.397   7.848  15.185  1.00  0.00    -0.077 C 
HETATM    3  C3  UNL     1      -5.956   8.175  13.820  1.00  0.00     0.034 C 
HETATM    4  C4  UNL     1      -4.874   8.195  12.736  1.00  0.00     0.010 C 
HETATM    5  C5  UNL     1      -3.703   7.235  13.036  1.00  0.00    -0.001 C 
HETATM    6  C9  UNL     1      -2.959   7.755  14.322  1.00  0.00     0.037 C 
HETATM    7  C10 UNL     1      -3.950   8.245  15.438  1.00  0.00     0.090 C 
HETATM    8  C11 UNL     1      -3.924   9.752  15.754  1.00  0.00     0.138 C 
HETATM    9  O2  UNL     1      -4.510  10.579  15.046  1.00  0.00    -0.297 OA
HETATM   10  C12 UNL     1      -3.204  10.229  17.020  1.00  0.00     0.119 C 
HETATM   11  C13 UNL     1      -1.874   9.532  17.391  1.00  0.00     0.087 C 
HETATM   12  C14 UNL     1      -1.133  10.393  18.430  1.00  0.00     0.049 C 
HETATM   13  C15 UNL     1      -0.916   9.273  16.172  1.00  0.00     0.156 C 
HETATM   14  C16 UNL     1      -0.336   7.855  16.098  1.00  0.00     0.038 C 
HETATM   15  C17 UNL     1       0.248   7.472  14.736  1.00  0.00     0.043 C 
HETATM   16  C18 UNL     1      -0.423   8.161  13.524  1.00  0.00     0.093 C 
HETATM   17  C19 UNL     1       0.461   9.334  13.022  1.00  0.00     0.049 C 
HETATM   18  C28 UNL     1      -1.806   8.764  13.951  1.00  0.00     0.162 C 
HETATM   19  O8  UNL     1      -1.553   9.721  14.977  1.00  0.00    -0.374 OA
ENDROOT
BRANCH  16  20
HETATM   20  O4  UNL     1      -0.620   7.247  12.410  1.00  0.00    -0.306 OA
BRANCH  20  21
HETATM   21  C20 UNL     1       0.215   7.310  11.329  1.00  0.00     0.289 C 
HETATM   22  O5  UNL     1       0.230   8.221  10.508  1.00  0.00    -0.262 OA
BRANCH  21  23
HETATM   23  C21 UNL     1       1.130   6.078  11.228  1.00  0.00     0.231 C 
BRANCH  23  24
HETATM   24  C22 UNL     1       0.555   4.897  12.022  1.00  0.00     0.038 C 
HETATM   25  C23 UNL     1      -0.721   4.312  11.435  1.00  0.00     0.008 C 
ENDBRANCH  23  24
BRANCH  23  26
HETATM   26  O6  UNL     1       1.440   5.632   9.904  1.00  0.00    -0.306 OA
BRANCH  26  27
HETATM   27  C24 UNL     1       2.720   5.883   9.506  1.00  0.00     0.259 C 
HETATM   28  O7  UNL     1       3.677   5.988  10.259  1.00  0.00    -0.265 OA
BRANCH  27  29
HETATM   29  C25 UNL     1       2.777   6.035   8.005  1.00  0.00     0.111 C 
BRANCH  29  30
HETATM   30  C26 UNL     1       2.111   7.329   7.547  1.00  0.00     0.005 C 
HETATM   31  C27 UNL     1       2.920   8.548   7.964  1.00  0.00     0.005 C 
ENDBRANCH  29  30
ENDBRANCH  27  29
ENDBRANCH  26  27
ENDBRANCH  23  26
ENDBRANCH  21  23
ENDBRANCH  20  21
ENDBRANCH  16  20
BRANCH   5  32
HETATM   32  C6  UNL     1      -4.168   5.731  13.077  1.00  0.00     0.010 C 
HETATM   33  C7  UNL     1      -3.636   5.033  14.343  1.00  0.00     0.012 C 
BRANCH  32  34
HETATM   34  C8  UNL     1      -5.697   5.563  12.993  1.00  0.00     0.168 C 
BRANCH  34  35
HETATM   35  O1  UNL     1      -6.144   4.399  13.677  1.00  0.00    -0.400 OA
HETATM   36  H14 UNL     1      -5.696   3.635  13.275  1.00  0.00     0.209 HD
ENDBRANCH  34  35
ENDBRANCH  32  34
ENDBRANCH   5  32
BRANCH  11  37
HETATM   37  O3  UNL     1      -2.190   8.304  18.071  1.00  0.00    -0.387 OA
HETATM   38  H22 UNL     1      -2.621   8.519  18.917  1.00  0.00     0.210 HD
ENDBRANCH  11  37
TORSDOF 12
ENDMDL
MODEL 4
REMARK minimizedAffinity -5.81399727
REMARK CNNscore 0.544724703
REMARK CNNaffinity 6.65371895
REMARK  12 active torsions:
REMARK  status: ('A' for Active; 'I' for Inactive)
REMARK    1  A    between atoms: C5_5  and  C6_6 
REMARK    2  A    between atoms: C6_6  and  C8_8 
REMARK    3  A    between atoms: C8_8  and  O1_9 
REMARK    4  A    between atoms: C13_15  and  O3_17 
REMARK    5  A    between atoms: C18_21  and  O4_23 
REMARK    6  A    between atoms: O4_23  and  C20_24 
REMARK    7  A    between atoms: C20_24  and  C21_26 
REMARK    8  A    between atoms: C21_26  and  C22_27 
REMARK    9  A    between atoms: C21_26  and  O6_29 
REMARK   10  A    between atoms: O6_29  and  C24_30 
REMARK   11  A    between atoms: C24_30  and  C25_32 
REMARK   12  A    between atoms: C25_32  and  C26_33 
ROOT
HETATM    1  C1  UNL     1      -9.199   6.234  13.081  1.00  0.00     0.015 C 
HETATM    2  C2  UNL     1      -8.205   5.865  13.908  1.00  0.00    -0.077 C 
HETATM    3  C3  UNL     1      -8.256   6.188  15.382  1.00  0.00     0.034 C 
HETATM    4  C4  UNL     1      -6.862   6.396  15.983  1.00  0.00     0.010 C 
HETATM    5  C5  UNL     1      -5.843   6.947  14.962  1.00  0.00    -0.001 C 
HETATM    6  C9  UNL     1      -5.618   5.854  13.852  1.00  0.00     0.037 C 
HETATM    7  C10 UNL     1      -6.954   5.156  13.411  1.00  0.00     0.090 C 
HETATM    8  C11 UNL     1      -7.087   3.663  13.766  1.00  0.00     0.138 C 
HETATM    9  O2  UNL     1      -7.411   3.286  14.898  1.00  0.00    -0.297 OA
HETATM   10  C12 UNL     1      -6.877   2.620  12.663  1.00  0.00     0.119 C 
HETATM   11  C13 UNL     1      -5.743   2.878  11.644  1.00  0.00     0.087 C 
HETATM   12  C14 UNL     1      -5.443   1.569  10.889  1.00  0.00     0.049 C 
HETATM   13  C15 UNL     1      -4.408   3.411  12.280  1.00  0.00     0.156 C 
HETATM   14  C16 UNL     1      -3.795   4.626  11.569  1.00  0.00     0.038 C 
HETATM   15  C17 UNL     1      -2.756   5.392  12.391  1.00  0.00     0.043 C 
HETATM   16  C18 UNL     1      -2.978   5.348  13.922  1.00  0.00     0.093 C 
HETATM   17  C19 UNL     1      -2.010   4.321  14.570  1.00  0.00     0.049 C 
HETATM   18  C28 UNL     1      -4.440   4.879  14.237  1.00  0.00     0.162 C 
HETATM   19  O8  UNL     1      -4.596   3.574  13.685  1.00  0.00    -0.374 OA
ENDROOT
BRANCH  16  20
HETATM   20  O4  UNL     1      -2.739   6.638  14.550  1.00  0.00    -0.306 OA
BRANCH  20  21
HETATM   21  C20 UNL     1      -1.469   7.142  14.595  1.00  0.00     0.289 C 
HETATM   22  O5  UNL     1      -0.755   7.152  15.592  1.00  0.00    -0.262 OA
BRANCH  21  23
HETATM   23  C21 UNL     1      -1.034   7.743  13.248  1.00  0.00     0.231 C 
BRANCH  23  24
HETATM   24  C22 UNL     1      -1.789   9.046  12.955  1.00  0.00     0.038 C 
HETATM   25  C23 UNL     1      -1.416  10.203  13.868  1.00  0.00     0.008 C 
ENDBRANCH  23  24
BRANCH  23  26
HETATM   26  O6  UNL     1       0.369   7.980  13.089  1.00  0.00    -0.306 OA
BRANCH  26  27
HETATM   27  C24 UNL     1       0.804   7.964  11.797  1.00  0.00     0.259 C 
HETATM   28  O7  UNL     1       1.344   8.903  11.231  1.00  0.00    -0.265 OA
BRANCH  27  29
HETATM   29  C25 UNL     1       0.502   6.628  11.163  1.00  0.00     0.111 C 
BRANCH  29  30
HETATM   30  C26 UNL     1       1.437   6.338   9.994  1.00  0.00     0.005 C 
HETATM   31  C27 UNL     1       2.625   5.493  10.429  1.00  0.00     0.005 C 
ENDBRANCH  29  30
ENDBRANCH  27  29
ENDBRANCH  26  27
ENDBRANCH  23  26
ENDBRANCH  21  23
ENDBRANCH  20  21
ENDBRANCH  16  20
BRANCH   5  32
HETATM   32  C6  UNL     1      -6.246   8.377  14.440  1.00  0.00     0.010 C 
HETATM   33  C7  UNL     1      -7.379   8.969  15.298  1.00  0.00     0.012 C 
BRANCH  32  34
HETATM   34  C8  UNL     1      -5.063   9.363  14.387  1.00  0.00     0.168 C 
BRANCH  34  35
HETATM   35  O1  UNL     1      -4.553   9.653  15.683  1.00  0.00    -0.400 OA
HETATM   36  H14 UNL     1      -5.282  10.025  16.207  1.00  0.00     0.209 HD
ENDBRANCH  34  35
ENDBRANCH  32  34
ENDBRANCH   5  32
BRANCH  11  37
HETATM   37  O3  UNL     1      -6.240   3.787  10.646  1.00  0.00    -0.387 OA
HETATM   38  H22 UNL     1      -6.948   3.343  10.147  1.00  0.00     0.210 HD
ENDBRANCH  11  37
TORSDOF 12
ENDMDL
MODEL 5
REMARK minimizedAffinity -5.99984121
REMARK CNNscore 0.462480545
REMARK CNNaffinity 5.57586241
REMARK  12 active torsions:
REMARK  status: ('A' for Active; 'I' for Inactive)
REMARK    1  A    between atoms: C5_5  and  C6_6 
REMARK    2  A    between atoms: C6_6  and  C8_8 
REMARK    3  A    between atoms: C8_8  and  O1_9 
REMARK    4  A    between atoms: C13_15  and  O3_17 
REMARK    5  A    between atoms: C18_21  and  O4_23 
REMARK    6  A    between atoms: O4_23  and  C20_24 
REMARK    7  A    between atoms: C20_24  and  C21_26 
REMARK    8  A    between atoms: C21_26  and  C22_27 
REMARK    9  A    between atoms: C21_26  and  O6_29 
REMARK   10  A    between atoms: O6_29  and  C24_30 
REMARK   11  A    between atoms: C24_30  and  C25_32 
REMARK   12  A    between atoms: C25_32  and  C26_33 
ROOT
HETATM    1  C1  UNL     1      -1.336  16.088   4.650  1.00  0.00     0.015 C 
HETATM    2  C2  UNL     1      -1.153  15.211   3.647  1.00  0.00    -0.077 C 
HETATM    3  C3  UNL     1      -0.807  13.768   3.926  1.00  0.00     0.034 C 
HETATM    4  C4  UNL     1       0.058  13.151   2.822  1.00  0.00     0.010 C 
HETATM    5  C5  UNL     1       0.961  14.187   2.116  1.00  0.00    -0.001 C 
HETATM    6  C9  UNL     1       0.036  15.203   1.348  1.00  0.00     0.037 C 
HETATM    7  C10 UNL     1      -1.227  15.621   2.183  1.00  0.00     0.090 C 
HETATM    8  C11 UNL     1      -2.588  15.156   1.633  1.00  0.00     0.138 C 
HETATM    9  O2  UNL     1      -3.007  14.006   1.810  1.00  0.00    -0.297 OA
HETATM   10  C12 UNL     1      -3.474  16.170   0.902  1.00  0.00     0.119 C 
HETATM   11  C13 UNL     1      -2.777  17.178  -0.041  1.00  0.00     0.087 C 
HETATM   12  C14 UNL     1      -3.838  17.823  -0.954  1.00  0.00     0.049 C 
HETATM   13  C15 UNL     1      -1.650  16.553  -0.940  1.00  0.00     0.156 C 
HETATM   14  C16 UNL     1      -0.332  17.340  -0.962  1.00  0.00     0.038 C 
HETATM   15  C17 UNL     1       0.875  16.555  -1.481  1.00  0.00     0.043 C 
HETATM   16  C18 UNL     1       0.820  15.031  -1.218  1.00  0.00     0.093 C 
HETATM   17  C19 UNL     1       0.399  14.283  -2.512  1.00  0.00     0.049 C 
HETATM   18  C28 UNL     1      -0.256  14.716  -0.122  1.00  0.00     0.162 C 
HETATM   19  O8  UNL     1      -1.513  15.170  -0.619  1.00  0.00    -0.374 OA
ENDROOT
BRANCH  16  20
HETATM   20  O4  UNL     1       2.106  14.498  -0.798  1.00  0.00    -0.306 OA
BRANCH  20  21
HETATM   21  C20 UNL     1       3.232  15.259  -0.943  1.00  0.00     0.289 C 
HETATM   22  O5  UNL     1       3.316  16.449  -0.658  1.00  0.00    -0.262 OA
BRANCH  21  23
HETATM   23  C21 UNL     1       4.399  14.461  -1.549  1.00  0.00     0.231 C 
BRANCH  23  24
HETATM   24  C22 UNL     1       5.691  14.680  -0.751  1.00  0.00     0.038 C 
HETATM   25  C23 UNL     1       5.563  14.387   0.736  1.00  0.00     0.008 C 
ENDBRANCH  23  24
BRANCH  23  26
HETATM   26  O6  UNL     1       4.186  13.053  -1.701  1.00  0.00    -0.306 OA
BRANCH  26  27
HETATM   27  C24 UNL     1       5.058  12.435  -2.548  1.00  0.00     0.259 C 
HETATM   28  O7  UNL     1       5.868  11.583  -2.215  1.00  0.00    -0.265 OA
BRANCH  27  29
HETATM   29  C25 UNL     1       4.891  12.974  -3.948  1.00  0.00     0.111 C 
BRANCH  29  30
HETATM   30  C26 UNL     1       4.605  11.857  -4.947  1.00  0.00     0.005 C 
HETATM   31  C27 UNL     1       4.756  12.343  -6.381  1.00  0.00     0.005 C 
ENDBRANCH  29  30
ENDBRANCH  27  29
ENDBRANCH  26  27
ENDBRANCH  23  26
ENDBRANCH  21  23
ENDBRANCH  20  21
ENDBRANCH  16  20
BRANCH   5  32
HETATM   32  C6  UNL     1       2.007  14.827   3.103  1.00  0.00     0.010 C 
HETATM   33  C7  UNL     1       1.894  16.363   3.092  1.00  0.00     0.012 C 
BRANCH  32  34
HETATM   34  C8  UNL     1       1.882  14.306   4.547  1.00  0.00     0.168 C 
BRANCH  34  35
HETATM   35  O1  UNL     1       2.794  14.951   5.428  1.00  0.00    -0.400 OA
HETATM   36  H14 UNL     1       3.690  14.793   5.087  1.00  0.00     0.209 HD
ENDBRANCH  34  35
ENDBRANCH  32  34
ENDBRANCH   5  32
BRANCH  11  37
HETATM   37  O3  UNL     1      -2.262  18.255   0.761  1.00  0.00    -0.387 OA
HETATM   38  H22 UNL     1      -3.012  18.736   1.155  1.00  0.00     0.210 HD
ENDBRANCH  11  37
TORSDOF 12
ENDMDL
MODEL 6
REMARK minimizedAffinity -7.10543537
REMARK CNNscore 0.446437657
REMARK CNNaffinity 6.43827677
REMARK  12 active torsions:
REMARK  status: ('A' for Active; 'I' for Inactive)
REMARK    1  A    between atoms: C5_5  and  C6_6 
REMARK    2  A    between atoms: C6_6  and  C8_8 
REMARK    3  A    between atoms: C8_8  and  O1_9 
REMARK    4  A    between atoms: C13_15  and  O3_17 
REMARK    5  A    between atoms: C18_21  and  O4_23 
REMARK    6  A    between atoms: O4_23  and  C20_24 
REMARK    7  A    between atoms: C20_24  and  C21_26 
REMARK    8  A    between atoms: C21_26  and  C22_27 
REMARK    9  A    between atoms: C21_26  and  O6_29 
REMARK   10  A    between atoms: O6_29  and  C24_30 
REMARK   11  A    between atoms: C24_30  and  C25_32 
REMARK   12  A    between atoms: C25_32  and  C26_33 
ROOT
HETATM    1  C1  UNL     1      -6.103   5.901  16.291  1.00  0.00     0.015 C 
HETATM    2  C2  UNL     1      -5.617   6.613  15.258  1.00  0.00    -0.077 C 
HETATM    3  C3  UNL     1      -6.347   6.669  13.937  1.00  0.00     0.034 C 
HETATM    4  C4  UNL     1      -5.393   6.832  12.750  1.00  0.00     0.010 C 
HETATM    5  C5  UNL     1      -4.007   6.200  13.001  1.00  0.00    -0.001 C 
HETATM    6  C9  UNL     1      -3.305   6.999  14.162  1.00  0.00     0.037 C 
HETATM    7  C10 UNL     1      -4.290   7.353  15.333  1.00  0.00     0.090 C 
HETATM    8  C11 UNL     1      -4.597   8.850  15.530  1.00  0.00     0.138 C 
HETATM    9  O2  UNL     1      -5.419   9.447  14.826  1.00  0.00    -0.297 OA
HETATM   10  C12 UNL     1      -3.911   9.600  16.677  1.00  0.00     0.119 C 
HETATM   11  C13 UNL     1      -2.428   9.265  16.962  1.00  0.00     0.087 C 
HETATM   12  C14 UNL     1      -1.830  10.371  17.853  1.00  0.00     0.049 C 
HETATM   13  C15 UNL     1      -1.538   9.118  15.675  1.00  0.00     0.156 C 
HETATM   14  C16 UNL     1      -0.645   7.870  15.648  1.00  0.00     0.038 C 
HETATM   15  C17 UNL     1      -0.100   7.501  14.266  1.00  0.00     0.043 C 
HETATM   16  C18 UNL     1      -1.012   7.897  13.081  1.00  0.00     0.093 C 
HETATM   17  C19 UNL     1      -0.476   9.188  12.405  1.00  0.00     0.049 C 
HETATM   18  C28 UNL     1      -2.459   8.205  13.600  1.00  0.00     0.162 C 
HETATM   19  O8  UNL     1      -2.358   9.289  14.521  1.00  0.00    -0.374 OA
ENDROOT
BRANCH  16  20
HETATM   20  O4  UNL     1      -1.076   6.859  12.065  1.00  0.00    -0.306 OA
BRANCH  20  21
HETATM   21  C20 UNL     1       0.010   6.056  11.851  1.00  0.00     0.289 C 
HETATM   22  O5  UNL     1       0.540   5.354  12.705  1.00  0.00    -0.262 OA
BRANCH  21  23
HETATM   23  C21 UNL     1       0.529   6.153  10.407  1.00  0.00     0.231 C 
BRANCH  23  24
HETATM   24  C22 UNL     1       0.939   7.592  10.063  1.00  0.00     0.038 C 
HETATM   25  C23 UNL     1       0.164   8.202   8.906  1.00  0.00     0.008 C 
ENDBRANCH  23  24
BRANCH  23  26
HETATM   26  O6  UNL     1       1.607   5.275  10.066  1.00  0.00    -0.306 OA
BRANCH  26  27
HETATM   27  C24 UNL     1       2.777   5.905   9.759  1.00  0.00     0.259 C 
HETATM   28  O7  UNL     1       3.180   6.115   8.624  1.00  0.00    -0.265 OA
BRANCH  27  29
HETATM   29  C25 UNL     1       3.510   6.285  11.023  1.00  0.00     0.111 C 
BRANCH  29  30
HETATM   30  C26 UNL     1       4.993   6.527  10.760  1.00  0.00     0.005 C 
HETATM   31  C27 UNL     1       5.297   8.011  10.625  1.00  0.00     0.005 C 
ENDBRANCH  29  30
ENDBRANCH  27  29
ENDBRANCH  26  27
ENDBRANCH  23  26
ENDBRANCH  21  23
ENDBRANCH  20  21
ENDBRANCH  16  20
BRANCH   5  32
HETATM   32  C6  UNL     1      -4.096   4.641  13.201  1.00  0.00     0.010 C 
HETATM   33  C7  UNL     1      -5.144   4.031  12.251  1.00  0.00     0.012 C 
BRANCH  32  34
HETATM   34  C8  UNL     1      -2.745   3.924  13.017  1.00  0.00     0.168 C 
BRANCH  34  35
HETATM   35  O1  UNL     1      -2.503   3.585  11.657  1.00  0.00    -0.400 OA
HETATM   36  H14 UNL     1      -3.233   3.013  11.364  1.00  0.00     0.209 HD
ENDBRANCH  34  35
ENDBRANCH  32  34
ENDBRANCH   5  32
BRANCH  11  37
HETATM   37  O3  UNL     1      -2.386   8.070  17.760  1.00  0.00    -0.387 OA
HETATM   38  H22 UNL     1      -2.785   8.261  18.627  1.00  0.00     0.210 HD
ENDBRANCH  11  37
TORSDOF 12
ENDMDL
MODEL 7
REMARK minimizedAffinity -6.92503881
REMARK CNNscore 0.435029536
REMARK CNNaffinity 6.81644249
REMARK  12 active torsions:
REMARK  status: ('A' for Active; 'I' for Inactive)
REMARK    1  A    between atoms: C5_5  and  C6_6 
REMARK    2  A    between atoms: C6_6  and  C8_8 
REMARK    3  A    between atoms: C8_8  and  O1_9 
REMARK    4  A    between atoms: C13_15  and  O3_17 
REMARK    5  A    between atoms: C18_21  and  O4_23 
REMARK    6  A    between atoms: O4_23  and  C20_24 
REMARK    7  A    between atoms: C20_24  and  C21_26 
REMARK    8  A    between atoms: C21_26  and  C22_27 
REMARK    9  A    between atoms: C21_26  and  O6_29 
REMARK   10  A    between atoms: O6_29  and  C24_30 
REMARK   11  A    between atoms: C24_30  and  C25_32 
REMARK   12  A    between atoms: C25_32  and  C26_33 
ROOT
HETATM    1  C1  UNL     1      -2.514  10.311  18.152  1.00  0.00     0.015 C 
HETATM    2  C2  UNL     1      -2.086  10.339  16.878  1.00  0.00    -0.077 C 
HETATM    3  C3  UNL     1      -3.045  10.578  15.736  1.00  0.00     0.034 C 
HETATM    4  C4  UNL     1      -2.611   9.868  14.450  1.00  0.00     0.010 C 
HETATM    5  C5  UNL     1      -1.815   8.572  14.718  1.00  0.00    -0.001 C 
HETATM    6  C9  UNL     1      -0.456   8.964  15.411  1.00  0.00     0.037 C 
HETATM    7  C10 UNL     1      -0.634  10.080  16.501  1.00  0.00     0.090 C 
HETATM    8  C11 UNL     1       0.022  11.439  16.193  1.00  0.00     0.138 C 
HETATM    9  O2  UNL     1      -0.508  12.265  15.441  1.00  0.00    -0.297 OA
HETATM   10  C12 UNL     1       1.336  11.801  16.893  1.00  0.00     0.119 C 
HETATM   11  C13 UNL     1       2.382  10.675  17.072  1.00  0.00     0.087 C 
HETATM   12  C14 UNL     1       3.742  11.310  17.421  1.00  0.00     0.049 C 
HETATM   13  C15 UNL     1       2.563   9.752  15.814  1.00  0.00     0.156 C 
HETATM   14  C16 UNL     1       2.550   8.246  16.112  1.00  0.00     0.038 C 
HETATM   15  C17 UNL     1       2.314   7.353  14.891  1.00  0.00     0.043 C 
HETATM   16  C18 UNL     1       1.446   7.990  13.779  1.00  0.00     0.093 C 
HETATM   17  C19 UNL     1       2.350   8.493  12.621  1.00  0.00     0.049 C 
HETATM   18  C28 UNL     1       0.676   9.231  14.347  1.00  0.00     0.162 C 
HETATM   19  O8  UNL     1       1.652  10.167  14.798  1.00  0.00    -0.374 OA
ENDROOT
BRANCH  16  20
HETATM   20  O4  UNL     1       0.492   7.046  13.218  1.00  0.00    -0.306 OA
BRANCH  20  21
HETATM   21  C20 UNL     1       0.313   6.993  11.863  1.00  0.00     0.289 C 
HETATM   22  O5  UNL     1      -0.302   7.825  11.205  1.00  0.00    -0.262 OA
BRANCH  21  23
HETATM   23  C21 UNL     1       0.944   5.736  11.242  1.00  0.00     0.231 C 
BRANCH  23  24
HETATM   24  C22 UNL     1       0.062   4.502  11.477  1.00  0.00     0.038 C 
HETATM   25  C23 UNL     1      -1.398   4.823  11.756  1.00  0.00     0.008 C 
ENDBRANCH  23  24
BRANCH  23  26
HETATM   26  O6  UNL     1       1.262   5.814   9.848  1.00  0.00    -0.306 OA
BRANCH  26  27
HETATM   27  C24 UNL     1       2.595   5.883   9.573  1.00  0.00     0.259 C 
HETATM   28  O7  UNL     1       3.479   5.941  10.415  1.00  0.00    -0.265 OA
BRANCH  27  29
HETATM   29  C25 UNL     1       2.817   5.899   8.081  1.00  0.00     0.111 C 
BRANCH  29  30
HETATM   30  C26 UNL     1       2.090   7.065   7.418  1.00  0.00     0.005 C 
HETATM   31  C27 UNL     1       2.707   8.399   7.811  1.00  0.00     0.005 C 
ENDBRANCH  29  30
ENDBRANCH  27  29
ENDBRANCH  26  27
ENDBRANCH  23  26
ENDBRANCH  21  23
ENDBRANCH  20  21
ENDBRANCH  16  20
BRANCH   5  32
HETATM   32  C6  UNL     1      -2.679   7.493  15.471  1.00  0.00     0.010 C 
HETATM   33  C7  UNL     1      -4.180   7.724  15.213  1.00  0.00     0.012 C 
BRANCH  32  34
HETATM   34  C8  UNL     1      -2.304   6.045  15.102  1.00  0.00     0.168 C 
BRANCH  34  35
HETATM   35  O1  UNL     1      -0.955   5.742  15.435  1.00  0.00    -0.400 OA
HETATM   36  H14 UNL     1      -0.388   6.372  14.959  1.00  0.00     0.209 HD
ENDBRANCH  34  35
ENDBRANCH  32  34
ENDBRANCH   5  32
BRANCH  11  37
HETATM   37  O3  UNL     1       2.014   9.906  18.231  1.00  0.00    -0.387 OA
HETATM   38  H22 UNL     1       2.096  10.472  19.019  1.00  0.00     0.210 HD
ENDBRANCH  11  37
TORSDOF 12
ENDMDL
MODEL 8
REMARK minimizedAffinity -5.5084424
REMARK CNNscore 0.411769748
REMARK CNNaffinity 5.61150503
REMARK  12 active torsions:
REMARK  status: ('A' for Active; 'I' for Inactive)
REMARK    1  A    between atoms: C5_5  and  C6_6 
REMARK    2  A    between atoms: C6_6  and  C8_8 
REMARK    3  A    between atoms: C8_8  and  O1_9 
REMARK    4  A    between atoms: C13_15  and  O3_17 
REMARK    5  A    between atoms: C18_21  and  O4_23 
REMARK    6  A    between atoms: O4_23  and  C20_24 
REMARK    7  A    between atoms: C20_24  and  C21_26 
REMARK    8  A    between atoms: C21_26  and  C22_27 
REMARK    9  A    between atoms: C21_26  and  O6_29 
REMARK   10  A    between atoms: O6_29  and  C24_30 
REMARK   11  A    between atoms: C24_30  and  C25_32 
REMARK   12  A    between atoms: C25_32  and  C26_33 
ROOT
HETATM    1  C1  UNL     1      -4.248  12.147  15.980  1.00  0.00     0.015 C 
HETATM    2  C2  UNL     1      -3.356  11.414  16.668  1.00  0.00    -0.077 C 
HETATM    3  C3  UNL     1      -3.510  11.190  18.154  1.00  0.00     0.034 C 
HETATM    4  C4  UNL     1      -2.161  11.036  18.864  1.00  0.00     0.010 C 
HETATM    5  C5  UNL     1      -1.024  11.818  18.172  1.00  0.00    -0.001 C 
HETATM    6  C9  UNL     1      -0.780  11.180  16.754  1.00  0.00     0.037 C 
HETATM    7  C10 UNL     1      -2.118  10.816  16.016  1.00  0.00     0.090 C 
HETATM    8  C11 UNL     1      -2.382   9.315  15.794  1.00  0.00     0.138 C 
HETATM    9  O2  UNL     1      -2.826   8.589  16.691  1.00  0.00    -0.297 OA
HETATM   10  C12 UNL     1      -2.150   8.722  14.400  1.00  0.00     0.119 C 
HETATM   11  C13 UNL     1      -0.918   9.221  13.609  1.00  0.00     0.087 C 
HETATM   12  C14 UNL     1      -0.645   8.248  12.446  1.00  0.00     0.049 C 
HETATM   13  C15 UNL     1       0.390   9.362  14.468  1.00  0.00     0.156 C 
HETATM   14  C16 UNL     1       1.142  10.687  14.283  1.00  0.00     0.038 C 
HETATM   15  C17 UNL     1       2.158  11.007  15.384  1.00  0.00     0.043 C 
HETATM   16  C18 UNL     1       1.804  10.437  16.778  1.00  0.00     0.093 C 
HETATM   17  C19 UNL     1       2.641   9.160  17.059  1.00  0.00     0.049 C 
HETATM   18  C28 UNL     1       0.292  10.026  16.820  1.00  0.00     0.162 C 
HETATM   19  O8  UNL     1       0.095   9.027  15.822  1.00  0.00    -0.374 OA
ENDROOT
BRANCH  16  20
HETATM   20  O4  UNL     1       2.075  11.386  17.845  1.00  0.00    -0.306 OA
BRANCH  20  21
HETATM   21  C20 UNL     1       2.316  10.929  19.111  1.00  0.00     0.289 C 
HETATM   22  O5  UNL     1       1.626  10.104  19.701  1.00  0.00    -0.262 OA
BRANCH  21  23
HETATM   23  C21 UNL     1       3.546  11.598  19.747  1.00  0.00     0.231 C 
BRANCH  23  24
HETATM   24  C22 UNL     1       3.145  12.843  20.549  1.00  0.00     0.038 C 
HETATM   25  C23 UNL     1       1.647  12.986  20.772  1.00  0.00     0.008 C 
ENDBRANCH  23  24
BRANCH  23  26
HETATM   26  O6  UNL     1       4.359  10.761  20.576  1.00  0.00    -0.306 OA
BRANCH  26  27
HETATM   27  C24 UNL     1       5.350  11.416  21.246  1.00  0.00     0.259 C 
HETATM   28  O7  UNL     1       6.284  11.998  20.714  1.00  0.00    -0.265 OA
BRANCH  27  29
HETATM   29  C25 UNL     1       5.137  11.297  22.735  1.00  0.00     0.111 C 
BRANCH  29  30
HETATM   30  C26 UNL     1       4.403  10.009  23.095  1.00  0.00     0.005 C 
HETATM   31  C27 UNL     1       3.088  10.299  23.804  1.00  0.00     0.005 C 
ENDBRANCH  29  30
ENDBRANCH  27  29
ENDBRANCH  26  27
ENDBRANCH  23  26
ENDBRANCH  21  23
ENDBRANCH  20  21
ENDBRANCH  16  20
BRANCH   5  32
HETATM   32  C6  UNL     1      -1.283  13.371  18.186  1.00  0.00     0.010 C 
HETATM   33  C7  UNL     1      -1.283  13.935  16.752  1.00  0.00     0.012 C 
BRANCH  32  34
HETATM   34  C8  UNL     1      -2.590  13.765  18.900  1.00  0.00     0.168 C 
BRANCH  34  35
HETATM   35  O1  UNL     1      -2.359  14.668  19.974  1.00  0.00    -0.400 OA
HETATM   36  H14 UNL     1      -1.751  14.233  20.596  1.00  0.00     0.209 HD
ENDBRANCH  34  35
ENDBRANCH  32  34
ENDBRANCH   5  32
BRANCH  11  37
HETATM   37  O3  UNL     1      -1.266  10.470  12.985  1.00  0.00    -0.387 OA
HETATM   38  H22 UNL     1      -1.958  10.304  12.321  1.00  0.00     0.210 HD
ENDBRANCH  11  37
TORSDOF 12
ENDMDL
MODEL 9
REMARK minimizedAffinity -6.10808325
REMARK CNNscore 0.398826182
REMARK CNNaffinity 5.94594574
REMARK  12 active torsions:
REMARK  status: ('A' for Active; 'I' for Inactive)
REMARK    1  A    between atoms: C5_5  and  C6_6 
REMARK    2  A    between atoms: C6_6  and  C8_8 
REMARK    3  A    between atoms: C8_8  and  O1_9 
REMARK    4  A    between atoms: C13_15  and  O3_17 
REMARK    5  A    between atoms: C18_21  and  O4_23 
REMARK    6  A    between atoms: O4_23  and  C20_24 
REMARK    7  A    between atoms: C20_24  and  C21_26 
REMARK    8  A    between atoms: C21_26  and  C22_27 
REMARK    9  A    between atoms: C21_26  and  O6_29 
REMARK   10  A    between atoms: O6_29  and  C24_30 
REMARK   11  A    between atoms: C24_30  and  C25_32 
REMARK   12  A    between atoms: C25_32  and  C26_33 
ROOT
HETATM    1  C1  UNL     1       7.062  13.331  15.522  1.00  0.00     0.015 C 
HETATM    2  C2  UNL     1       6.756  12.629  14.416  1.00  0.00    -0.077 C 
HETATM    3  C3  UNL     1       5.788  13.170  13.391  1.00  0.00     0.034 C 
HETATM    4  C4  UNL     1       5.012  12.058  12.678  1.00  0.00     0.010 C 
HETATM    5  C5  UNL     1       4.802  10.809  13.561  1.00  0.00    -0.001 C 
HETATM    6  C9  UNL     1       6.211  10.165  13.844  1.00  0.00     0.037 C 
HETATM    7  C10 UNL     1       7.315  11.238  14.155  1.00  0.00     0.090 C 
HETATM    8  C11 UNL     1       8.443  11.371  13.115  1.00  0.00     0.138 C 
HETATM    9  O2  UNL     1       8.294  12.011  12.068  1.00  0.00    -0.297 OA
HETATM   10  C12 UNL     1       9.808  10.747  13.422  1.00  0.00     0.119 C 
HETATM   11  C13 UNL     1       9.821   9.368  14.124  1.00  0.00     0.087 C 
HETATM   12  C14 UNL     1      11.226   8.752  13.986  1.00  0.00     0.049 C 
HETATM   13  C15 UNL     1       8.764   8.348  13.566  1.00  0.00     0.156 C 
HETATM   14  C16 UNL     1       7.935   7.628  14.639  1.00  0.00     0.038 C 
HETATM   15  C17 UNL     1       6.657   6.962  14.121  1.00  0.00     0.043 C 
HETATM   16  C18 UNL     1       6.013   7.656  12.898  1.00  0.00     0.093 C 
HETATM   17  C19 UNL     1       6.357   6.875  11.601  1.00  0.00     0.049 C 
HETATM   18  C28 UNL     1       6.590   9.105  12.740  1.00  0.00     0.162 C 
HETATM   19  O8  UNL     1       7.997   8.984  12.546  1.00  0.00    -0.374 OA
ENDROOT
BRANCH  16  20
HETATM   20  O4  UNL     1       4.564   7.722  13.002  1.00  0.00    -0.306 OA
BRANCH  20  21
HETATM   21  C20 UNL     1       3.808   7.807  11.866  1.00  0.00     0.289 C 
HETATM   22  O5  UNL     1       3.867   8.722  11.052  1.00  0.00    -0.262 OA
BRANCH  21  23
HETATM   23  C21 UNL     1       2.830   6.628  11.730  1.00  0.00     0.231 C 
BRANCH  23  24
HETATM   24  C22 UNL     1       1.733   6.695  12.800  1.00  0.00     0.038 C 
HETATM   25  C23 UNL     1       0.423   6.036  12.395  1.00  0.00     0.008 C 
ENDBRANCH  23  24
BRANCH  23  26
HETATM   26  O6  UNL     1       2.212   6.468  10.449  1.00  0.00    -0.306 OA
BRANCH  26  27
HETATM   27  C24 UNL     1       2.006   7.632   9.769  1.00  0.00     0.259 C 
HETATM   28  O7  UNL     1       1.237   8.516  10.115  1.00  0.00    -0.265 OA
BRANCH  27  29
HETATM   29  C25 UNL     1       2.850   7.658   8.517  1.00  0.00     0.111 C 
BRANCH  29  30
HETATM   30  C26 UNL     1       2.402   6.596   7.518  1.00  0.00     0.005 C 
HETATM   31  C27 UNL     1       1.695   7.220   6.324  1.00  0.00     0.005 C 
ENDBRANCH  29  30
ENDBRANCH  27  29
ENDBRANCH  26  27
ENDBRANCH  23  26
ENDBRANCH  21  23
ENDBRANCH  20  21
ENDBRANCH  16  20
BRANCH   5  32
HETATM   32  C6  UNL     1       3.928  11.125  14.833  1.00  0.00     0.010 C 
HETATM   33  C7  UNL     1       2.543  11.656  14.420  1.00  0.00     0.012 C 
BRANCH  32  34
HETATM   34  C8  UNL     1       3.764   9.918  15.775  1.00  0.00     0.168 C 
BRANCH  34  35
HETATM   35  O1  UNL     1       3.672  10.313  17.138  1.00  0.00    -0.400 OA
HETATM   36  H14 UNL     1       4.482  10.805  17.354  1.00  0.00     0.209 HD
ENDBRANCH  34  35
ENDBRANCH  32  34
ENDBRANCH   5  32
BRANCH  11  37
HETATM   37  O3  UNL     1       9.638   9.585  15.534  1.00  0.00    -0.387 OA
HETATM   38  H22 UNL     1      10.413  10.064  15.878  1.00  0.00     0.210 HD
ENDBRANCH  11  37
TORSDOF 12
ENDMDL
