MODEL 1
REMARK minimizedAffinity -7.53762245
REMARK CNNscore 0.493680954
REMARK CNNaffinity 7.33703375
REMARK  11 active torsions:
REMARK  status: ('A' for Active; 'I' for Inactive)
REMARK    1  A    between atoms: C19_20  and  O2_21 
REMARK    2  A    between atoms: C19_20  and  C20_22 
REMARK    3  A    between atoms: C20_22  and  C21_24 
REMARK    4  A    between atoms: C21_24  and  O4_25 
REMARK    5  A    between atoms: O4_25  and  C22_26 
REMARK    6  A    between atoms: C22_26  and  C23_28 
REMARK    7  A    between atoms: C23_28  and  C24_29 
REMARK    8  A    between atoms: C24_29  and  C25_30 
REMARK       I    between atoms: C25_30  and  N1_32 
REMARK    9  A    between atoms: N1_32  and  C26_33 
REMARK   10  A    between atoms: C26_33  and  C27_34 
REMARK   11  A    between atoms: C27_34  and  C28_35 
ROOT
HETATM    1  C1  UNL     1      -4.392   3.918   9.721  1.00  0.00     0.020 C 
HETATM    2  C2  UNL     1      -3.615   3.422  10.966  1.00  0.00    -0.016 C 
HETATM    3  C3  UNL     1      -2.115   3.715  10.662  1.00  0.00     0.022 C 
HETATM    4  C4  UNL     1      -1.149   2.909  11.513  1.00  0.00     0.084 C 
HETATM    5  C5  UNL     1      -1.420   1.443  11.302  1.00  0.00     0.149 C 
HETATM    6  O1  UNL     1      -0.527   0.602  11.227  1.00  0.00    -0.293 OA
HETATM    7  C6  UNL     1      -2.838   1.014  11.265  1.00  0.00     0.053 C 
HETATM    8  C7  UNL     1      -3.831   1.914  11.165  1.00  0.00    -0.068 C 
HETATM    9  C8  UNL     1      -5.258   1.486  11.401  1.00  0.00     0.035 C 
HETATM   10  C9  UNL     1      -5.783   2.175  12.662  1.00  0.00     0.010 C 
HETATM   11  C10 UNL     1      -5.609   3.706  12.612  1.00  0.00    -0.004 C 
HETATM   12  C11 UNL     1      -4.128   4.108  12.284  1.00  0.00     0.002 C 
HETATM   13  C12 UNL     1      -3.944   5.646  12.322  1.00  0.00     0.007 C 
HETATM   14  C13 UNL     1      -4.486   6.297  13.609  1.00  0.00     0.013 C 
HETATM   15  C14 UNL     1      -5.954   5.918  13.884  1.00  0.00    -0.002 C 
HETATM   16  C15 UNL     1      -6.866   6.535  12.787  1.00  0.00     0.019 C 
HETATM   17  C16 UNL     1      -6.018   4.369  13.932  1.00  0.00     0.002 C 
HETATM   18  C17 UNL     1      -7.406   4.083  14.485  1.00  0.00     0.009 C 
HETATM   19  C18 UNL     1      -7.658   5.217  15.495  1.00  0.00     0.047 C 
HETATM   20  C19 UNL     1      -6.515   6.256  15.301  1.00  0.00     0.128 C 
ENDROOT
BRANCH  20  21
HETATM   21  O2  UNL     1      -5.517   5.992  16.293  1.00  0.00    -0.381 OA
HETATM   22  H27 UNL     1      -5.936   6.084  17.170  1.00  0.00     0.211 HD
ENDBRANCH  20  21
BRANCH  20  23
HETATM   23  C20 UNL     1      -7.003   7.711  15.467  1.00  0.00     0.185 C 
HETATM   24  O3  UNL     1      -6.259   8.677  15.268  1.00  0.00    -0.292 OA
BRANCH  23  25
HETATM   25  C21 UNL     1      -8.450   7.910  15.919  1.00  0.00     0.260 C 
BRANCH  25  26
HETATM   26  O4  UNL     1      -9.342   8.051  14.813  1.00  0.00    -0.314 OA
BRANCH  26  27
HETATM   27  C22 UNL     1     -10.491   8.720  15.111  1.00  0.00     0.259 C 
HETATM   28  O5  UNL     1     -11.500   8.716  14.420  1.00  0.00    -0.265 OA
BRANCH  27  29
HETATM   29  C23 UNL     1     -10.365   9.416  16.437  1.00  0.00     0.120 C 
BRANCH  29  30
HETATM   30  C24 UNL     1     -11.646  10.169  16.760  1.00  0.00     0.112 C 
BRANCH  30  31
HETATM   31  C25 UNL     1     -11.912  10.210  18.248  1.00  0.00     0.218 C 
HETATM   32  O6  UNL     1     -11.939  11.245  18.904  1.00  0.00    -0.274 OA
HETATM   33  N1  UNL     1     -12.127   8.963  18.790  1.00  0.00    -0.361 N 
HETATM   34  H34 UNL     1     -12.336   8.193  18.167  1.00  0.00     0.162 HD
BRANCH  33  35
HETATM   35  C26 UNL     1     -12.468   8.793  20.192  1.00  0.00     0.127 C 
BRANCH  35  36
HETATM   36  C27 UNL     1     -13.802   8.069  20.400  1.00  0.00     0.058 C 
BRANCH  36  37
HETATM   37  C28 UNL     1     -13.725   7.001  21.466  1.00  0.00    -0.057 A 
HETATM   38  C29 UNL     1     -14.236   5.718  21.224  1.00  0.00     0.007 A 
HETATM   39  C30 UNL     1     -14.150   4.727  22.203  1.00  0.00     0.001 A 
HETATM   40  C31 UNL     1     -13.553   5.007  23.430  1.00  0.00     0.000 A 
HETATM   41  C32 UNL     1     -13.041   6.279  23.681  1.00  0.00     0.001 A 
HETATM   42  C33 UNL     1     -13.125   7.272  22.704  1.00  0.00     0.007 A 
ENDBRANCH  36  37
ENDBRANCH  35  36
ENDBRANCH  33  35
ENDBRANCH  30  31
ENDBRANCH  29  30
ENDBRANCH  27  29
ENDBRANCH  26  27
ENDBRANCH  25  26
ENDBRANCH  23  25
ENDBRANCH  20  23
TORSDOF 11
ENDMDL
MODEL 2
REMARK minimizedAffinity -7.30908394
REMARK CNNscore 0.48812601
REMARK CNNaffinity 6.59034157
REMARK  11 active torsions:
REMARK  status: ('A' for Active; 'I' for Inactive)
REMARK    1  A    between atoms: C19_20  and  O2_21 
REMARK    2  A    between atoms: C19_20  and  C20_22 
REMARK    3  A    between atoms: C20_22  and  C21_24 
REMARK    4  A    between atoms: C21_24  and  O4_25 
REMARK    5  A    between atoms: O4_25  and  C22_26 
REMARK    6  A    between atoms: C22_26  and  C23_28 
REMARK    7  A    between atoms: C23_28  and  C24_29 
REMARK    8  A    between atoms: C24_29  and  C25_30 
REMARK       I    between atoms: C25_30  and  N1_32 
REMARK    9  A    between atoms: N1_32  and  C26_33 
REMARK   10  A    between atoms: C26_33  and  C27_34 
REMARK   11  A    between atoms: C27_34  and  C28_35 
ROOT
HETATM    1  C1  UNL     1       4.069   8.182  10.051  1.00  0.00     0.020 C 
HETATM    2  C2  UNL     1       3.152   6.960   9.793  1.00  0.00    -0.016 C 
HETATM    3  C3  UNL     1       4.081   5.715   9.902  1.00  0.00     0.022 C 
HETATM    4  C4  UNL     1       3.517   4.469   9.240  1.00  0.00     0.084 C 
HETATM    5  C5  UNL     1       3.255   4.766   7.787  1.00  0.00     0.149 C 
HETATM    6  O1  UNL     1       3.476   3.956   6.890  1.00  0.00    -0.293 OA
HETATM    7  C6  UNL     1       2.629   6.070   7.463  1.00  0.00     0.053 C 
HETATM    8  C7  UNL     1       2.538   7.042   8.387  1.00  0.00    -0.068 C 
HETATM    9  C8  UNL     1       1.666   8.245   8.126  1.00  0.00     0.035 C 
HETATM   10  C9  UNL     1       0.499   8.239   9.116  1.00  0.00     0.010 C 
HETATM   11  C10 UNL     1       0.970   8.138  10.580  1.00  0.00    -0.004 C 
HETATM   12  C11 UNL     1       1.938   6.921  10.791  1.00  0.00     0.002 C 
HETATM   13  C12 UNL     1       2.337   6.775  12.282  1.00  0.00     0.007 C 
HETATM   14  C13 UNL     1       1.132   6.775  13.241  1.00  0.00     0.013 C 
HETATM   15  C14 UNL     1       0.221   8.001  13.039  1.00  0.00    -0.002 C 
HETATM   16  C15 UNL     1       0.981   9.289  13.459  1.00  0.00     0.019 C 
HETATM   17  C16 UNL     1      -0.209   8.001  11.549  1.00  0.00     0.002 C 
HETATM   18  C17 UNL     1      -1.314   9.045  11.494  1.00  0.00     0.009 C 
HETATM   19  C18 UNL     1      -2.046   8.901  12.841  1.00  0.00     0.047 C 
HETATM   20  C19 UNL     1      -1.181   7.957  13.725  1.00  0.00     0.128 C 
ENDROOT
BRANCH  20  21
HETATM   21  O2  UNL     1      -1.731   6.639  13.620  1.00  0.00    -0.381 OA
HETATM   22  H27 UNL     1      -2.655   6.676  13.936  1.00  0.00     0.211 HD
ENDBRANCH  20  21
BRANCH  20  23
HETATM   23  C20 UNL     1      -1.180   8.373  15.212  1.00  0.00     0.185 C 
HETATM   24  O3  UNL     1      -0.835   7.597  16.109  1.00  0.00    -0.292 OA
BRANCH  23  25
HETATM   25  C21 UNL     1      -1.654   9.791  15.536  1.00  0.00     0.260 C 
BRANCH  25  26
HETATM   26  O4  UNL     1      -3.026   9.819  15.931  1.00  0.00    -0.314 OA
BRANCH  26  27
HETATM   27  C22 UNL     1      -3.241  10.419  17.136  1.00  0.00     0.259 C 
HETATM   28  O5  UNL     1      -2.872   9.972  18.214  1.00  0.00    -0.265 OA
BRANCH  27  29
HETATM   29  C23 UNL     1      -3.946  11.733  16.951  1.00  0.00     0.120 C 
BRANCH  29  30
HETATM   30  C24 UNL     1      -2.959  12.883  17.085  1.00  0.00     0.112 C 
BRANCH  30  31
HETATM   31  C25 UNL     1      -2.767  13.611  15.774  1.00  0.00     0.218 C 
HETATM   32  O6  UNL     1      -1.865  13.359  14.984  1.00  0.00    -0.274 OA
HETATM   33  N1  UNL     1      -3.715  14.586  15.557  1.00  0.00    -0.361 N 
HETATM   34  H34 UNL     1      -4.559  14.574  16.116  1.00  0.00     0.162 HD
BRANCH  33  35
HETATM   35  C26 UNL     1      -3.746  15.352  14.324  1.00  0.00     0.127 C 
BRANCH  35  36
HETATM   36  C27 UNL     1      -3.868  16.862  14.560  1.00  0.00     0.058 C 
BRANCH  36  37
HETATM   37  C28 UNL     1      -4.955  17.496  13.723  1.00  0.00    -0.057 A 
HETATM   38  C29 UNL     1      -6.297  17.411  14.119  1.00  0.00     0.007 A 
HETATM   39  C30 UNL     1      -7.299  18.010  13.355  1.00  0.00     0.001 A 
HETATM   40  C31 UNL     1      -6.970  18.700  12.190  1.00  0.00     0.000 A 
HETATM   41  C32 UNL     1      -5.638  18.792  11.788  1.00  0.00     0.001 A 
HETATM   42  C33 UNL     1      -4.635  18.194  12.550  1.00  0.00     0.007 A 
ENDBRANCH  36  37
ENDBRANCH  35  36
ENDBRANCH  33  35
ENDBRANCH  30  31
ENDBRANCH  29  30
ENDBRANCH  27  29
ENDBRANCH  26  27
ENDBRANCH  25  26
ENDBRANCH  23  25
ENDBRANCH  20  23
TORSDOF 11
ENDMDL
MODEL 3
REMARK minimizedAffinity -9.19702339
REMARK CNNscore 0.468416095
REMARK CNNaffinity 7.12357378
REMARK  11 active torsions:
REMARK  status: ('A' for Active; 'I' for Inactive)
REMARK    1  A    between atoms: C19_20  and  O2_21 
REMARK    2  A    between atoms: C19_20  and  C20_22 
REMARK    3  A    between atoms: C20_22  and  C21_24 
REMARK    4  A    between atoms: C21_24  and  O4_25 
REMARK    5  A    between atoms: O4_25  and  C22_26 
REMARK    6  A    between atoms: C22_26  and  C23_28 
REMARK    7  A    between atoms: C23_28  and  C24_29 
REMARK    8  A    between atoms: C24_29  and  C25_30 
REMARK       I    between atoms: C25_30  and  N1_32 
REMARK    9  A    between atoms: N1_32  and  C26_33 
REMARK   10  A    between atoms: C26_33  and  C27_34 
REMARK   11  A    between atoms: C27_34  and  C28_35 
ROOT
HETATM    1  C1  UNL     1      -7.495   5.047  15.949  1.00  0.00     0.020 C 
HETATM    2  C2  UNL     1      -7.714   6.118  14.850  1.00  0.00    -0.016 C 
HETATM    3  C3  UNL     1      -8.830   7.055  15.402  1.00  0.00     0.022 C 
HETATM    4  C4  UNL     1      -9.525   7.877  14.330  1.00  0.00     0.084 C 
HETATM    5  C5  UNL     1     -10.121   6.944  13.309  1.00  0.00     0.149 C 
HETATM    6  O1  UNL     1     -11.217   7.137  12.789  1.00  0.00    -0.293 OA
HETATM    7  C6  UNL     1      -9.293   5.795  12.876  1.00  0.00     0.053 C 
HETATM    8  C7  UNL     1      -8.177   5.455  13.544  1.00  0.00    -0.068 C 
HETATM    9  C8  UNL     1      -7.212   4.467  12.937  1.00  0.00     0.035 C 
HETATM   10  C9  UNL     1      -5.897   5.183  12.625  1.00  0.00     0.010 C 
HETATM   11  C10 UNL     1      -5.321   5.918  13.851  1.00  0.00    -0.004 C 
HETATM   12  C11 UNL     1      -6.382   6.875  14.500  1.00  0.00     0.002 C 
HETATM   13  C12 UNL     1      -5.769   7.675  15.678  1.00  0.00     0.007 C 
HETATM   14  C13 UNL     1      -4.447   8.378  15.318  1.00  0.00     0.013 C 
HETATM   15  C14 UNL     1      -3.410   7.408  14.721  1.00  0.00    -0.002 C 
HETATM   16  C15 UNL     1      -2.962   6.391  15.807  1.00  0.00     0.019 C 
HETATM   17  C16 UNL     1      -4.076   6.737  13.492  1.00  0.00     0.002 C 
HETATM   18  C17 UNL     1      -2.922   6.029  12.798  1.00  0.00     0.009 C 
HETATM   19  C18 UNL     1      -1.716   6.962  13.012  1.00  0.00     0.047 C 
HETATM   20  C19 UNL     1      -2.160   8.046  14.036  1.00  0.00     0.128 C 
ENDROOT
BRANCH  20  21
HETATM   21  O2  UNL     1      -2.553   9.207  13.296  1.00  0.00    -0.381 OA
HETATM   22  H27 UNL     1      -1.782   9.504  12.775  1.00  0.00     0.211 HD
ENDBRANCH  20  21
BRANCH  20  23
HETATM   23  C20 UNL     1      -1.028   8.442  15.009  1.00  0.00     0.185 C 
HETATM   24  O3  UNL     1      -1.130   9.407  15.773  1.00  0.00    -0.292 OA
BRANCH  23  25
HETATM   25  C21 UNL     1       0.247   7.599  14.968  1.00  0.00     0.260 C 
BRANCH  25  26
HETATM   26  O4  UNL     1       0.825   7.441  16.264  1.00  0.00    -0.314 OA
BRANCH  26  27
HETATM   27  C22 UNL     1       1.961   8.171  16.455  1.00  0.00     0.259 C 
HETATM   28  O5  UNL     1       2.112   9.010  17.333  1.00  0.00    -0.265 OA
BRANCH  27  29
HETATM   29  C23 UNL     1       3.022   7.759  15.474  1.00  0.00     0.120 C 
BRANCH  29  30
HETATM   30  C24 UNL     1       3.498   8.964  14.677  1.00  0.00     0.112 C 
BRANCH  30  31
HETATM   31  C25 UNL     1       3.558   8.667  13.195  1.00  0.00     0.218 C 
HETATM   32  O6  UNL     1       3.466   9.527  12.327  1.00  0.00    -0.274 OA
HETATM   33  N1  UNL     1       3.734   7.329  12.922  1.00  0.00    -0.361 N 
HETATM   34  H34 UNL     1       4.048   6.719  13.667  1.00  0.00     0.162 HD
BRANCH  33  35
HETATM   35  C26 UNL     1       3.887   6.847  11.560  1.00  0.00     0.127 C 
BRANCH  35  36
HETATM   36  C27 UNL     1       2.612   6.200  11.008  1.00  0.00     0.058 C 
BRANCH  36  37
HETATM   37  C28 UNL     1       2.331   6.597   9.577  1.00  0.00    -0.057 A 
HETATM   38  C29 UNL     1       2.802   5.811   8.516  1.00  0.00     0.007 A 
HETATM   39  C30 UNL     1       2.529   6.169   7.196  1.00  0.00     0.001 A 
HETATM   40  C31 UNL     1       1.783   7.314   6.922  1.00  0.00     0.000 A 
HETATM   41  C32 UNL     1       1.309   8.102   7.969  1.00  0.00     0.001 A 
HETATM   42  C33 UNL     1       1.581   7.746   9.291  1.00  0.00     0.007 A 
ENDBRANCH  36  37
ENDBRANCH  35  36
ENDBRANCH  33  35
ENDBRANCH  30  31
ENDBRANCH  29  30
ENDBRANCH  27  29
ENDBRANCH  26  27
ENDBRANCH  25  26
ENDBRANCH  23  25
ENDBRANCH  20  23
TORSDOF 11
ENDMDL
MODEL 4
REMARK minimizedAffinity -7.53084469
REMARK CNNscore 0.407116294
REMARK CNNaffinity 6.47691154
REMARK  11 active torsions:
REMARK  status: ('A' for Active; 'I' for Inactive)
REMARK    1  A    between atoms: C19_20  and  O2_21 
REMARK    2  A    between atoms: C19_20  and  C20_22 
REMARK    3  A    between atoms: C20_22  and  C21_24 
REMARK    4  A    between atoms: C21_24  and  O4_25 
REMARK    5  A    between atoms: O4_25  and  C22_26 
REMARK    6  A    between atoms: C22_26  and  C23_28 
REMARK    7  A    between atoms: C23_28  and  C24_29 
REMARK    8  A    between atoms: C24_29  and  C25_30 
REMARK       I    between atoms: C25_30  and  N1_32 
REMARK    9  A    between atoms: N1_32  and  C26_33 
REMARK   10  A    between atoms: C26_33  and  C27_34 
REMARK   11  A    between atoms: C27_34  and  C28_35 
ROOT
HETATM    1  C1  UNL     1     -16.170   6.745  23.185  1.00  0.00     0.020 C 
HETATM    2  C2  UNL     1     -14.860   5.958  22.929  1.00  0.00    -0.016 C 
HETATM    3  C3  UNL     1     -15.293   4.666  22.174  1.00  0.00     0.022 C 
HETATM    4  C4  UNL     1     -14.265   3.548  22.232  1.00  0.00     0.084 C 
HETATM    5  C5  UNL     1     -13.993   3.212  23.674  1.00  0.00     0.149 C 
HETATM    6  O1  UNL     1     -13.829   2.061  24.071  1.00  0.00    -0.293 OA
HETATM    7  C6  UNL     1     -13.843   4.344  24.619  1.00  0.00     0.053 C 
HETATM    8  C7  UNL     1     -14.187   5.593  24.262  1.00  0.00    -0.068 C 
HETATM    9  C8  UNL     1     -13.778   6.759  25.126  1.00  0.00     0.035 C 
HETATM   10  C9  UNL     1     -12.782   7.626  24.354  1.00  0.00     0.010 C 
HETATM   11  C10 UNL     1     -13.319   8.053  22.974  1.00  0.00    -0.004 C 
HETATM   12  C11 UNL     1     -13.808   6.818  22.138  1.00  0.00     0.002 C 
HETATM   13  C12 UNL     1     -14.265   7.247  20.721  1.00  0.00     0.007 C 
HETATM   14  C13 UNL     1     -13.231   8.118  19.981  1.00  0.00     0.013 C 
HETATM   15  C14 UNL     1     -12.799   9.345  20.808  1.00  0.00    -0.002 C 
HETATM   16  C15 UNL     1     -14.002  10.315  20.967  1.00  0.00     0.019 C 
HETATM   17  C16 UNL     1     -12.262   8.809  22.161  1.00  0.00     0.002 C 
HETATM   18  C17 UNL     1     -11.599  10.025  22.791  1.00  0.00     0.009 C 
HETATM   19  C18 UNL     1     -10.991  10.790  21.601  1.00  0.00     0.047 C 
HETATM   20  C19 UNL     1     -11.543  10.124  20.307  1.00  0.00     0.128 C 
ENDROOT
BRANCH  20  21
HETATM   21  O2  UNL     1     -10.554   9.200  19.840  1.00  0.00    -0.381 OA
HETATM   22  H27 UNL     1      -9.736   9.704  19.660  1.00  0.00     0.211 HD
ENDBRANCH  20  21
BRANCH  20  23
HETATM   23  C20 UNL     1     -11.828  11.149  19.189  1.00  0.00     0.185 C 
HETATM   24  O3  UNL     1     -12.022  12.344  19.430  1.00  0.00    -0.292 OA
BRANCH  23  25
HETATM   25  C21 UNL     1     -11.887  10.614  17.757  1.00  0.00     0.260 C 
BRANCH  25  26
HETATM   26  O4  UNL     1     -10.594  10.273  17.259  1.00  0.00    -0.314 OA
BRANCH  26  27
HETATM   27  C22 UNL     1     -10.620   9.444  16.176  1.00  0.00     0.259 C 
HETATM   28  O5  UNL     1     -11.191   9.690  15.122  1.00  0.00    -0.265 OA
BRANCH  27  29
HETATM   29  C23 UNL     1      -9.800   8.212  16.437  1.00  0.00     0.120 C 
BRANCH  29  30
HETATM   30  C24 UNL     1      -9.865   7.273  15.243  1.00  0.00     0.112 C 
BRANCH  30  31
HETATM   31  C25 UNL     1      -8.486   6.870  14.771  1.00  0.00     0.218 C 
HETATM   32  O6  UNL     1      -7.585   7.669  14.550  1.00  0.00    -0.274 OA
HETATM   33  N1  UNL     1      -8.347   5.508  14.623  1.00  0.00    -0.361 N 
HETATM   34  H34 UNL     1      -9.033   4.900  15.053  1.00  0.00     0.162 HD
BRANCH  33  35
HETATM   35  C26 UNL     1      -7.077   4.913  14.245  1.00  0.00     0.127 C 
BRANCH  35  36
HETATM   36  C27 UNL     1      -6.924   4.740  12.730  1.00  0.00     0.058 C 
BRANCH  36  37
HETATM   37  C28 UNL     1      -5.854   3.737  12.363  1.00  0.00    -0.057 A 
HETATM   38  C29 UNL     1      -4.502   4.027  12.594  1.00  0.00     0.007 A 
HETATM   39  C30 UNL     1      -3.514   3.095  12.270  1.00  0.00     0.001 A 
HETATM   40  C31 UNL     1      -3.869   1.867  11.715  1.00  0.00     0.000 A 
HETATM   41  C32 UNL     1      -5.210   1.569  11.483  1.00  0.00     0.001 A 
HETATM   42  C33 UNL     1      -6.199   2.499  11.806  1.00  0.00     0.007 A 
ENDBRANCH  36  37
ENDBRANCH  35  36
ENDBRANCH  33  35
ENDBRANCH  30  31
ENDBRANCH  29  30
ENDBRANCH  27  29
ENDBRANCH  26  27
ENDBRANCH  25  26
ENDBRANCH  23  25
ENDBRANCH  20  23
TORSDOF 11
ENDMDL
MODEL 5
REMARK minimizedAffinity -7.5953021
REMARK CNNscore 0.359285146
REMARK CNNaffinity 6.91749239
REMARK  11 active torsions:
REMARK  status: ('A' for Active; 'I' for Inactive)
REMARK    1  A    between atoms: C19_20  and  O2_21 
REMARK    2  A    between atoms: C19_20  and  C20_22 
REMARK    3  A    between atoms: C20_22  and  C21_24 
REMARK    4  A    between atoms: C21_24  and  O4_25 
REMARK    5  A    between atoms: O4_25  and  C22_26 
REMARK    6  A    between atoms: C22_26  and  C23_28 
REMARK    7  A    between atoms: C23_28  and  C24_29 
REMARK    8  A    between atoms: C24_29  and  C25_30 
REMARK       I    between atoms: C25_30  and  N1_32 
REMARK    9  A    between atoms: N1_32  and  C26_33 
REMARK   10  A    between atoms: C26_33  and  C27_34 
REMARK   11  A    between atoms: C27_34  and  C28_35 
ROOT
HETATM    1  C1  UNL     1      -7.389   5.595  16.261  1.00  0.00     0.020 C 
HETATM    2  C2  UNL     1      -7.672   6.402  14.969  1.00  0.00    -0.016 C 
HETATM    3  C3  UNL     1      -8.759   7.446  15.362  1.00  0.00     0.022 C 
HETATM    4  C4  UNL     1      -9.515   8.020  14.176  1.00  0.00     0.084 C 
HETATM    5  C5  UNL     1     -10.162   6.892  13.417  1.00  0.00     0.149 C 
HETATM    6  O1  UNL     1     -11.286   6.975  12.927  1.00  0.00    -0.293 OA
HETATM    7  C6  UNL     1      -9.354   5.669  13.201  1.00  0.00     0.053 C 
HETATM    8  C7  UNL     1      -8.203   5.474  13.866  1.00  0.00    -0.068 C 
HETATM    9  C8  UNL     1      -7.268   4.369  13.438  1.00  0.00     0.035 C 
HETATM   10  C9  UNL     1      -5.974   4.989  12.907  1.00  0.00     0.010 C 
HETATM   11  C10 UNL     1      -5.336   5.970  13.910  1.00  0.00    -0.004 C 
HETATM   12  C11 UNL     1      -6.363   7.054  14.390  1.00  0.00     0.002 C 
HETATM   13  C12 UNL     1      -5.690   8.086  15.330  1.00  0.00     0.007 C 
HETATM   14  C13 UNL     1      -4.392   8.683  14.755  1.00  0.00     0.013 C 
HETATM   15  C14 UNL     1      -3.385   7.597  14.329  1.00  0.00    -0.002 C 
HETATM   16  C15 UNL     1      -2.876   6.838  15.585  1.00  0.00     0.019 C 
HETATM   17  C16 UNL     1      -4.115   6.680  13.314  1.00  0.00     0.002 C 
HETATM   18  C17 UNL     1      -2.998   5.828  12.730  1.00  0.00     0.009 C 
HETATM   19  C18 UNL     1      -1.786   6.776  12.669  1.00  0.00     0.047 C 
HETATM   20  C19 UNL     1      -2.178   8.061  13.455  1.00  0.00     0.128 C 
ENDROOT
BRANCH  20  21
HETATM   21  O2  UNL     1      -2.615   9.035  12.502  1.00  0.00    -0.381 OA
HETATM   22  H27 UNL     1      -1.874   9.205  11.887  1.00  0.00     0.211 HD
ENDBRANCH  20  21
BRANCH  20  23
HETATM   23  C20 UNL     1      -0.996   8.650  14.255  1.00  0.00     0.185 C 
HETATM   24  O3  UNL     1       0.019   7.991  14.503  1.00  0.00    -0.292 OA
BRANCH  23  25
HETATM   25  C21 UNL     1      -1.146  10.086  14.757  1.00  0.00     0.260 C 
BRANCH  25  26
HETATM   26  O4  UNL     1      -0.014  10.508  15.519  1.00  0.00    -0.314 OA
BRANCH  26  27
HETATM   27  C22 UNL     1      -0.268  11.556  16.353  1.00  0.00     0.259 C 
HETATM   28  O5  UNL     1      -0.839  12.587  16.024  1.00  0.00    -0.265 OA
BRANCH  27  29
HETATM   29  C23 UNL     1       0.199  11.244  17.746  1.00  0.00     0.120 C 
BRANCH  29  30
HETATM   30  C24 UNL     1      -0.993  11.090  18.679  1.00  0.00     0.112 C 
BRANCH  30  31
HETATM   31  C25 UNL     1      -1.665  12.417  18.952  1.00  0.00     0.218 C 
HETATM   32  O6  UNL     1      -1.070  13.409  19.354  1.00  0.00    -0.274 OA
HETATM   33  N1  UNL     1      -3.018  12.396  18.695  1.00  0.00    -0.361 N 
HETATM   34  H34 UNL     1      -3.394  11.638  18.138  1.00  0.00     0.162 HD
BRANCH  33  35
HETATM   35  C26 UNL     1      -3.833  13.590  18.828  1.00  0.00     0.127 C 
BRANCH  35  36
HETATM   36  C27 UNL     1      -4.149  13.941  20.286  1.00  0.00     0.058 C 
BRANCH  36  37
HETATM   37  C28 UNL     1      -5.596  13.689  20.645  1.00  0.00    -0.057 A 
HETATM   38  C29 UNL     1      -5.951  13.332  21.953  1.00  0.00     0.007 A 
HETATM   39  C30 UNL     1      -7.288  13.115  22.288  1.00  0.00     0.001 A 
HETATM   40  C31 UNL     1      -8.281  13.254  21.321  1.00  0.00     0.000 A 
HETATM   41  C32 UNL     1      -7.939  13.610  20.018  1.00  0.00     0.001 A 
HETATM   42  C33 UNL     1      -6.603  13.827  19.680  1.00  0.00     0.007 A 
ENDBRANCH  36  37
ENDBRANCH  35  36
ENDBRANCH  33  35
ENDBRANCH  30  31
ENDBRANCH  29  30
ENDBRANCH  27  29
ENDBRANCH  26  27
ENDBRANCH  25  26
ENDBRANCH  23  25
ENDBRANCH  20  23
TORSDOF 11
ENDMDL
MODEL 6
REMARK minimizedAffinity -8.59294319
REMARK CNNscore 0.355605662
REMARK CNNaffinity 6.67710686
REMARK  11 active torsions:
REMARK  status: ('A' for Active; 'I' for Inactive)
REMARK    1  A    between atoms: C19_20  and  O2_21 
REMARK    2  A    between atoms: C19_20  and  C20_22 
REMARK    3  A    between atoms: C20_22  and  C21_24 
REMARK    4  A    between atoms: C21_24  and  O4_25 
REMARK    5  A    between atoms: O4_25  and  C22_26 
REMARK    6  A    between atoms: C22_26  and  C23_28 
REMARK    7  A    between atoms: C23_28  and  C24_29 
REMARK    8  A    between atoms: C24_29  and  C25_30 
REMARK       I    between atoms: C25_30  and  N1_32 
REMARK    9  A    between atoms: N1_32  and  C26_33 
REMARK   10  A    between atoms: C26_33  and  C27_34 
REMARK   11  A    between atoms: C27_34  and  C28_35 
ROOT
HETATM    1  C1  UNL     1       4.246   8.075   9.929  1.00  0.00     0.020 C 
HETATM    2  C2  UNL     1       3.294   6.871   9.712  1.00  0.00    -0.016 C 
HETATM    3  C3  UNL     1       4.198   5.606   9.812  1.00  0.00     0.022 C 
HETATM    4  C4  UNL     1       3.588   4.366   9.181  1.00  0.00     0.084 C 
HETATM    5  C5  UNL     1       3.293   4.650   7.733  1.00  0.00     0.149 C 
HETATM    6  O1  UNL     1       3.471   3.825   6.840  1.00  0.00    -0.293 OA
HETATM    7  C6  UNL     1       2.688   5.964   7.409  1.00  0.00     0.053 C 
HETATM    8  C7  UNL     1       2.644   6.949   8.322  1.00  0.00    -0.068 C 
HETATM    9  C8  UNL     1       1.793   8.168   8.069  1.00  0.00     0.035 C 
HETATM   10  C9  UNL     1       0.654   8.202   9.089  1.00  0.00     0.010 C 
HETATM   11  C10 UNL     1       1.162   8.108  10.541  1.00  0.00    -0.004 C 
HETATM   12  C11 UNL     1       2.108   6.872  10.743  1.00  0.00     0.002 C 
HETATM   13  C12 UNL     1       2.544   6.736  12.224  1.00  0.00     0.007 C 
HETATM   14  C13 UNL     1       1.365   6.775  13.215  1.00  0.00     0.013 C 
HETATM   15  C14 UNL     1       0.477   8.019  13.021  1.00  0.00    -0.002 C 
HETATM   16  C15 UNL     1       1.278   9.295  13.403  1.00  0.00     0.019 C 
HETATM   17  C16 UNL     1       0.007   8.011  11.544  1.00  0.00     0.002 C 
HETATM   18  C17 UNL     1      -1.075   9.080  11.505  1.00  0.00     0.009 C 
HETATM   19  C18 UNL     1      -1.773   8.969  12.872  1.00  0.00     0.047 C 
HETATM   20  C19 UNL     1      -0.906   8.016  13.746  1.00  0.00     0.128 C 
ENDROOT
BRANCH  20  21
HETATM   21  O2  UNL     1      -1.489   6.711  13.673  1.00  0.00    -0.381 OA
HETATM   22  H27 UNL     1      -2.403   6.772  14.012  1.00  0.00     0.211 HD
ENDBRANCH  20  21
BRANCH  20  23
HETATM   23  C20 UNL     1      -0.856   8.451  15.226  1.00  0.00     0.185 C 
HETATM   24  O3  UNL     1      -0.883   7.632  16.150  1.00  0.00    -0.292 OA
BRANCH  23  25
HETATM   25  C21 UNL     1      -0.797   9.953  15.506  1.00  0.00     0.260 C 
BRANCH  25  26
HETATM   26  O4  UNL     1      -1.783  10.359  16.456  1.00  0.00    -0.314 OA
BRANCH  26  27
HETATM   27  C22 UNL     1      -2.957  10.765  15.896  1.00  0.00     0.259 C 
HETATM   28  O5  UNL     1      -3.078  11.721  15.143  1.00  0.00    -0.265 OA
BRANCH  27  29
HETATM   29  C23 UNL     1      -4.074   9.838  16.287  1.00  0.00     0.120 C 
BRANCH  29  30
HETATM   30  C24 UNL     1      -4.605   9.107  15.063  1.00  0.00     0.112 C 
BRANCH  30  31
HETATM   31  C25 UNL     1      -4.925   7.661  15.368  1.00  0.00     0.218 C 
HETATM   32  O6  UNL     1      -4.115   6.749  15.255  1.00  0.00    -0.274 OA
HETATM   33  N1  UNL     1      -6.221   7.477  15.794  1.00  0.00    -0.361 N 
HETATM   34  H34 UNL     1      -6.751   8.283  16.100  1.00  0.00     0.162 HD
BRANCH  33  35
HETATM   35  C26 UNL     1      -6.706   6.170  16.204  1.00  0.00     0.127 C 
BRANCH  35  36
HETATM   36  C27 UNL     1      -7.918   5.699  15.392  1.00  0.00     0.058 C 
BRANCH  36  37
HETATM   37  C28 UNL     1      -8.995   6.755  15.290  1.00  0.00    -0.057 A 
HETATM   38  C29 UNL     1      -9.228   7.637  16.354  1.00  0.00     0.007 A 
HETATM   39  C30 UNL     1     -10.212   8.621  16.254  1.00  0.00     0.001 A 
HETATM   40  C31 UNL     1     -10.970   8.734  15.090  1.00  0.00     0.000 A 
HETATM   41  C32 UNL     1     -10.746   7.863  14.026  1.00  0.00     0.001 A 
HETATM   42  C33 UNL     1      -9.763   6.878  14.124  1.00  0.00     0.007 A 
ENDBRANCH  36  37
ENDBRANCH  35  36
ENDBRANCH  33  35
ENDBRANCH  30  31
ENDBRANCH  29  30
ENDBRANCH  27  29
ENDBRANCH  26  27
ENDBRANCH  25  26
ENDBRANCH  23  25
ENDBRANCH  20  23
TORSDOF 11
ENDMDL
MODEL 7
REMARK minimizedAffinity -8.04995346
REMARK CNNscore 0.336286396
REMARK CNNaffinity 7.26982164
REMARK  11 active torsions:
REMARK  status: ('A' for Active; 'I' for Inactive)
REMARK    1  A    between atoms: C19_20  and  O2_21 
REMARK    2  A    between atoms: C19_20  and  C20_22 
REMARK    3  A    between atoms: C20_22  and  C21_24 
REMARK    4  A    between atoms: C21_24  and  O4_25 
REMARK    5  A    between atoms: O4_25  and  C22_26 
REMARK    6  A    between atoms: C22_26  and  C23_28 
REMARK    7  A    between atoms: C23_28  and  C24_29 
REMARK    8  A    between atoms: C24_29  and  C25_30 
REMARK       I    between atoms: C25_30  and  N1_32 
REMARK    9  A    between atoms: N1_32  and  C26_33 
REMARK   10  A    between atoms: C26_33  and  C27_34 
REMARK   11  A    between atoms: C27_34  and  C28_35 
ROOT
HETATM    1  C1  UNL     1      -4.543   3.971   9.806  1.00  0.00     0.020 C 
HETATM    2  C2  UNL     1      -3.754   3.467  11.040  1.00  0.00    -0.016 C 
HETATM    3  C3  UNL     1      -2.256   3.749  10.717  1.00  0.00     0.022 C 
HETATM    4  C4  UNL     1      -1.284   2.934  11.553  1.00  0.00     0.084 C 
HETATM    5  C5  UNL     1      -1.569   1.471  11.342  1.00  0.00     0.149 C 
HETATM    6  O1  UNL     1      -0.683   0.624  11.254  1.00  0.00    -0.293 OA
HETATM    7  C6  UNL     1      -2.991   1.052  11.323  1.00  0.00     0.053 C 
HETATM    8  C7  UNL     1      -3.978   1.960  11.238  1.00  0.00    -0.068 C 
HETATM    9  C8  UNL     1      -5.405   1.542  11.491  1.00  0.00     0.035 C 
HETATM   10  C9  UNL     1      -5.908   2.231  12.760  1.00  0.00     0.010 C 
HETATM   11  C10 UNL     1      -5.724   3.761  12.711  1.00  0.00    -0.004 C 
HETATM   12  C11 UNL     1      -4.245   4.153  12.366  1.00  0.00     0.002 C 
HETATM   13  C12 UNL     1      -4.049   5.690  12.405  1.00  0.00     0.007 C 
HETATM   14  C13 UNL     1      -4.570   6.341  13.700  1.00  0.00     0.013 C 
HETATM   15  C14 UNL     1      -6.037   5.972  13.993  1.00  0.00    -0.002 C 
HETATM   16  C15 UNL     1      -6.958   6.598  12.910  1.00  0.00     0.019 C 
HETATM   17  C16 UNL     1      -6.111   4.424  14.039  1.00  0.00     0.002 C 
HETATM   18  C17 UNL     1      -7.494   4.146  14.609  1.00  0.00     0.009 C 
HETATM   19  C18 UNL     1      -7.724   5.279  15.624  1.00  0.00     0.047 C 
HETATM   20  C19 UNL     1      -6.577   6.310  15.418  1.00  0.00     0.128 C 
ENDROOT
BRANCH  20  21
HETATM   21  O2  UNL     1      -5.568   6.037  16.397  1.00  0.00    -0.381 OA
HETATM   22  H27 UNL     1      -5.975   6.130  17.280  1.00  0.00     0.211 HD
ENDBRANCH  20  21
BRANCH  20  23
HETATM   23  C20 UNL     1      -7.052   7.769  15.594  1.00  0.00     0.185 C 
HETATM   24  O3  UNL     1      -6.275   8.725  15.505  1.00  0.00    -0.292 OA
BRANCH  23  25
HETATM   25  C21 UNL     1      -8.532   7.983  15.914  1.00  0.00     0.260 C 
BRANCH  25  26
HETATM   26  O4  UNL     1      -9.050   9.156  15.288  1.00  0.00    -0.314 OA
BRANCH  26  27
HETATM   27  C22 UNL     1     -10.256   8.971  14.678  1.00  0.00     0.259 C 
HETATM   28  O5  UNL     1     -10.734   9.718  13.836  1.00  0.00    -0.265 OA
BRANCH  27  29
HETATM   29  C23 UNL     1     -10.888   7.690  15.143  1.00  0.00     0.120 C 
BRANCH  29  30
HETATM   30  C24 UNL     1     -11.643   7.029  14.000  1.00  0.00     0.112 C 
BRANCH  30  31
HETATM   31  C25 UNL     1     -13.140   7.104  14.199  1.00  0.00     0.218 C 
HETATM   32  O6  UNL     1     -13.741   8.144  14.438  1.00  0.00    -0.274 OA
HETATM   33  N1  UNL     1     -13.759   5.880  14.076  1.00  0.00    -0.361 N 
HETATM   34  H34 UNL     1     -13.252   5.121  13.640  1.00  0.00     0.162 HD
BRANCH  33  35
HETATM   35  C26 UNL     1     -15.203   5.750  14.164  1.00  0.00     0.127 C 
BRANCH  35  36
HETATM   36  C27 UNL     1     -15.648   4.682  15.170  1.00  0.00     0.058 C 
BRANCH  36  37
HETATM   37  C28 UNL     1     -15.987   3.365  14.509  1.00  0.00    -0.057 A 
HETATM   38  C29 UNL     1     -15.130   2.264  14.641  1.00  0.00     0.007 A 
HETATM   39  C30 UNL     1     -15.450   1.044  14.044  1.00  0.00     0.001 A 
HETATM   40  C31 UNL     1     -16.629   0.913  13.313  1.00  0.00     0.000 A 
HETATM   41  C32 UNL     1     -17.489   2.001  13.177  1.00  0.00     0.001 A 
HETATM   42  C33 UNL     1     -17.170   3.222  13.773  1.00  0.00     0.007 A 
ENDBRANCH  36  37
ENDBRANCH  35  36
ENDBRANCH  33  35
ENDBRANCH  30  31
ENDBRANCH  29  30
ENDBRANCH  27  29
ENDBRANCH  26  27
ENDBRANCH  25  26
ENDBRANCH  23  25
ENDBRANCH  20  23
TORSDOF 11
ENDMDL
MODEL 8
REMARK minimizedAffinity -8.49897385
REMARK CNNscore 0.302803069
REMARK CNNaffinity 7.25237799
REMARK  11 active torsions:
REMARK  status: ('A' for Active; 'I' for Inactive)
REMARK    1  A    between atoms: C19_20  and  O2_21 
REMARK    2  A    between atoms: C19_20  and  C20_22 
REMARK    3  A    between atoms: C20_22  and  C21_24 
REMARK    4  A    between atoms: C21_24  and  O4_25 
REMARK    5  A    between atoms: O4_25  and  C22_26 
REMARK    6  A    between atoms: C22_26  and  C23_28 
REMARK    7  A    between atoms: C23_28  and  C24_29 
REMARK    8  A    between atoms: C24_29  and  C25_30 
REMARK       I    between atoms: C25_30  and  N1_32 
REMARK    9  A    between atoms: N1_32  and  C26_33 
REMARK   10  A    between atoms: C26_33  and  C27_34 
REMARK   11  A    between atoms: C27_34  and  C28_35 
ROOT
HETATM    1  C1  UNL     1      -4.366   3.897   9.733  1.00  0.00     0.020 C 
HETATM    2  C2  UNL     1      -3.578   3.415  10.976  1.00  0.00    -0.016 C 
HETATM    3  C3  UNL     1      -2.079   3.684  10.647  1.00  0.00     0.022 C 
HETATM    4  C4  UNL     1      -1.110   2.882  11.498  1.00  0.00     0.084 C 
HETATM    5  C5  UNL     1      -1.402   1.415  11.318  1.00  0.00     0.149 C 
HETATM    6  O1  UNL     1      -0.519   0.564  11.246  1.00  0.00    -0.293 OA
HETATM    7  C6  UNL     1      -2.825   1.003  11.308  1.00  0.00     0.053 C 
HETATM    8  C7  UNL     1      -3.808   1.913  11.205  1.00  0.00    -0.068 C 
HETATM    9  C8  UNL     1      -5.237   1.506  11.468  1.00  0.00     0.035 C 
HETATM   10  C9  UNL     1      -5.736   2.224  12.723  1.00  0.00     0.010 C 
HETATM   11  C10 UNL     1      -5.546   3.751  12.643  1.00  0.00    -0.004 C 
HETATM   12  C11 UNL     1      -4.065   4.130  12.289  1.00  0.00     0.002 C 
HETATM   13  C12 UNL     1      -3.862   5.666  12.296  1.00  0.00     0.007 C 
HETATM   14  C13 UNL     1      -4.379   6.346  13.578  1.00  0.00     0.013 C 
HETATM   15  C14 UNL     1      -5.848   5.989  13.880  1.00  0.00    -0.002 C 
HETATM   16  C15 UNL     1      -6.767   6.597  12.785  1.00  0.00     0.019 C 
HETATM   17  C16 UNL     1      -5.928   4.442  13.957  1.00  0.00     0.002 C 
HETATM   18  C17 UNL     1      -7.312   4.182  14.534  1.00  0.00     0.009 C 
HETATM   19  C18 UNL     1      -7.537   5.337  15.526  1.00  0.00     0.047 C 
HETATM   20  C19 UNL     1      -6.385   6.359  15.298  1.00  0.00     0.128 C 
ENDROOT
BRANCH  20  21
HETATM   21  O2  UNL     1      -5.376   6.101  16.281  1.00  0.00    -0.381 OA
HETATM   22  H27 UNL     1      -5.783   6.213  17.162  1.00  0.00     0.211 HD
ENDBRANCH  20  21
BRANCH  20  23
HETATM   23  C20 UNL     1      -6.853   7.822  15.445  1.00  0.00     0.185 C 
HETATM   24  O3  UNL     1      -8.016   8.110  15.748  1.00  0.00    -0.292 OA
BRANCH  23  25
HETATM   25  C21 UNL     1      -5.817   8.913  15.171  1.00  0.00     0.260 C 
BRANCH  25  26
HETATM   26  O4  UNL     1      -4.562   8.626  15.786  1.00  0.00    -0.314 OA
BRANCH  26  27
HETATM   27  C22 UNL     1      -3.635   9.616  15.642  1.00  0.00     0.259 C 
HETATM   28  O5  UNL     1      -3.810  10.786  15.953  1.00  0.00    -0.265 OA
BRANCH  27  29
HETATM   29  C23 UNL     1      -2.350   9.057  15.100  1.00  0.00     0.120 C 
BRANCH  29  30
HETATM   30  C24 UNL     1      -1.907   9.846  13.878  1.00  0.00     0.112 C 
BRANCH  30  31
HETATM   31  C25 UNL     1      -1.574   8.938  12.715  1.00  0.00     0.218 C 
HETATM   32  O6  UNL     1      -1.835   9.207  11.549  1.00  0.00    -0.274 OA
HETATM   33  N1  UNL     1      -0.941   7.779  13.103  1.00  0.00    -0.361 N 
HETATM   34  H34 UNL     1      -0.539   7.733  14.031  1.00  0.00     0.162 HD
BRANCH  33  35
HETATM   35  C26 UNL     1      -0.477   6.806  12.129  1.00  0.00     0.127 C 
BRANCH  35  36
HETATM   36  C27 UNL     1       1.022   6.926  11.832  1.00  0.00     0.058 C 
BRANCH  36  37
HETATM   37  C28 UNL     1       1.313   7.078  10.357  1.00  0.00    -0.057 A 
HETATM   38  C29 UNL     1       0.720   8.113   9.620  1.00  0.00     0.007 A 
HETATM   39  C30 UNL     1       1.000   8.263   8.261  1.00  0.00     0.001 A 
HETATM   40  C31 UNL     1       1.875   7.383   7.627  1.00  0.00     0.000 A 
HETATM   41  C32 UNL     1       2.471   6.351   8.351  1.00  0.00     0.001 A 
HETATM   42  C33 UNL     1       2.192   6.199   9.709  1.00  0.00     0.007 A 
ENDBRANCH  36  37
ENDBRANCH  35  36
ENDBRANCH  33  35
ENDBRANCH  30  31
ENDBRANCH  29  30
ENDBRANCH  27  29
ENDBRANCH  26  27
ENDBRANCH  25  26
ENDBRANCH  23  25
ENDBRANCH  20  23
TORSDOF 11
ENDMDL
MODEL 9
REMARK minimizedAffinity -7.2679925
REMARK CNNscore 0.298739791
REMARK CNNaffinity 5.77651739
REMARK  11 active torsions:
REMARK  status: ('A' for Active; 'I' for Inactive)
REMARK    1  A    between atoms: C19_20  and  O2_21 
REMARK    2  A    between atoms: C19_20  and  C20_22 
REMARK    3  A    between atoms: C20_22  and  C21_24 
REMARK    4  A    between atoms: C21_24  and  O4_25 
REMARK    5  A    between atoms: O4_25  and  C22_26 
REMARK    6  A    between atoms: C22_26  and  C23_28 
REMARK    7  A    between atoms: C23_28  and  C24_29 
REMARK    8  A    between atoms: C24_29  and  C25_30 
REMARK       I    between atoms: C25_30  and  N1_32 
REMARK    9  A    between atoms: N1_32  and  C26_33 
REMARK   10  A    between atoms: C26_33  and  C27_34 
REMARK   11  A    between atoms: C27_34  and  C28_35 
ROOT
HETATM    1  C1  UNL     1       9.402  13.890  17.914  1.00  0.00     0.020 C 
HETATM    2  C2  UNL     1       8.975  12.806  18.936  1.00  0.00    -0.016 C 
HETATM    3  C3  UNL     1       7.998  13.522  19.915  1.00  0.00     0.022 C 
HETATM    4  C4  UNL     1       7.822  12.803  21.242  1.00  0.00     0.084 C 
HETATM    5  C5  UNL     1       9.168  12.662  21.901  1.00  0.00     0.149 C 
HETATM    6  O1  UNL     1       9.336  12.797  23.111  1.00  0.00    -0.293 OA
HETATM    7  C6  UNL     1      10.307  12.265  21.040  1.00  0.00     0.053 C 
HETATM    8  C7  UNL     1      10.201  12.282  19.701  1.00  0.00    -0.068 C 
HETATM    9  C8  UNL     1      11.262  11.623  18.856  1.00  0.00     0.035 C 
HETATM   10  C9  UNL     1      10.650  10.424  18.131  1.00  0.00     0.010 C 
HETATM   11  C10 UNL     1       9.387  10.801  17.333  1.00  0.00    -0.004 C 
HETATM   12  C11 UNL     1       8.342  11.554  18.228  1.00  0.00     0.002 C 
HETATM   13  C12 UNL     1       7.040  11.852  17.441  1.00  0.00     0.007 C 
HETATM   14  C13 UNL     1       6.460  10.616  16.728  1.00  0.00     0.013 C 
HETATM   15  C14 UNL     1       7.495   9.919  15.824  1.00  0.00    -0.002 C 
HETATM   16  C15 UNL     1       7.859  10.851  14.635  1.00  0.00     0.019 C 
HETATM   17  C16 UNL     1       8.711   9.568  16.721  1.00  0.00     0.002 C 
HETATM   18  C17 UNL     1       9.547   8.645  15.847  1.00  0.00     0.009 C 
HETATM   19  C18 UNL     1       8.513   7.835  15.046  1.00  0.00     0.047 C 
HETATM   20  C19 UNL     1       7.127   8.496  15.298  1.00  0.00     0.128 C 
ENDROOT
BRANCH  20  21
HETATM   21  O2  UNL     1       6.473   7.752  16.332  1.00  0.00    -0.381 OA
HETATM   22  H27 UNL     1       6.376   6.831  16.021  1.00  0.00     0.211 HD
ENDBRANCH  20  21
BRANCH  20  23
HETATM   23  C20 UNL     1       6.229   8.490  14.042  1.00  0.00     0.185 C 
HETATM   24  O3  UNL     1       6.642   8.867  12.941  1.00  0.00    -0.292 OA
BRANCH  23  25
HETATM   25  C21 UNL     1       4.786   8.018  14.224  1.00  0.00     0.260 C 
BRANCH  25  26
HETATM   26  O4  UNL     1       4.130   8.700  15.294  1.00  0.00    -0.314 OA
BRANCH  26  27
HETATM   27  C22 UNL     1       2.885   8.221  15.574  1.00  0.00     0.259 C 
HETATM   28  O5  UNL     1       2.348   8.273  16.672  1.00  0.00    -0.265 OA
BRANCH  27  29
HETATM   29  C23 UNL     1       2.241   7.674  14.331  1.00  0.00     0.120 C 
BRANCH  29  30
HETATM   30  C24 UNL     1       1.345   8.725  13.695  1.00  0.00     0.112 C 
BRANCH  30  31
HETATM   31  C25 UNL     1      -0.092   8.584  14.145  1.00  0.00     0.218 C 
HETATM   32  O6  UNL     1      -0.653   9.384  14.884  1.00  0.00    -0.274 OA
HETATM   33  N1  UNL     1      -0.707   7.464  13.632  1.00  0.00    -0.361 N 
HETATM   34  H34 UNL     1      -0.278   6.991  12.847  1.00  0.00     0.162 HD
BRANCH  33  35
HETATM   35  C26 UNL     1      -2.109   7.184  13.889  1.00  0.00     0.127 C 
BRANCH  35  36
HETATM   36  C27 UNL     1      -2.369   5.721  14.264  1.00  0.00     0.058 C 
BRANCH  36  37
HETATM   37  C28 UNL     1      -2.860   4.899  13.095  1.00  0.00    -0.057 A 
HETATM   38  C29 UNL     1      -4.159   4.372  13.093  1.00  0.00     0.007 A 
HETATM   39  C30 UNL     1      -4.618   3.626  12.007  1.00  0.00     0.001 A 
HETATM   40  C31 UNL     1      -3.784   3.401  10.913  1.00  0.00     0.000 A 
HETATM   41  C32 UNL     1      -2.492   3.921  10.904  1.00  0.00     0.001 A 
HETATM   42  C33 UNL     1      -2.031   4.667  11.989  1.00  0.00     0.007 A 
ENDBRANCH  36  37
ENDBRANCH  35  36
ENDBRANCH  33  35
ENDBRANCH  30  31
ENDBRANCH  29  30
ENDBRANCH  27  29
ENDBRANCH  26  27
ENDBRANCH  25  26
ENDBRANCH  23  25
ENDBRANCH  20  23
TORSDOF 11
ENDMDL
