MODEL 1
REMARK minimizedAffinity -8.67558479
REMARK CNNscore 0.4590666
REMARK CNNaffinity 6.59941864
REMARK  12 active torsions:
REMARK  status: ('A' for Active; 'I' for Inactive)
REMARK    1  A    between atoms: C3_3  and  O1_4 
REMARK    2  A    between atoms: N1_14  and  O2_16 
REMARK    3  A    between atoms: O2_16  and  C13_17 
REMARK    4  A    between atoms: C13_17  and  C14_18 
REMARK       I    between atoms: C14_18  and  N2_20 
REMARK    5  A    between atoms: N2_20  and  C15_21 
REMARK    6  A    between atoms: C15_21  and  C16_22 
REMARK    7  A    between atoms: C15_21  and  C27_38 
REMARK       I    between atoms: C16_22  and  N3_24 
REMARK    8  A    between atoms: N3_24  and  C17_25 
REMARK    9  A    between atoms: C17_25  and  C18_26 
REMARK   10  A    between atoms: C17_25  and  C20_30 
REMARK   11  A    between atoms: C18_26  and  C19_27 
REMARK   12  A    between atoms: C19_27  and  O6_29 
ROOT
HETATM    1  C1  UNL     1       0.317  50.883 -18.027  1.00  0.00     0.015 C 
HETATM    2  C2  UNL     1      -0.590  50.933 -18.812  1.00  0.00    -0.078 C 
HETATM    3  C3  UNL     1      -1.707  51.016 -19.767  1.00  0.00     0.128 C 
HETATM    4  C4  UNL     1      -1.342  51.832 -21.011  1.00  0.00     0.052 C 
HETATM    5  C5  UNL     1      -2.483  51.518 -21.973  1.00  0.00     0.010 C 
HETATM    6  C6  UNL     1      -2.773  50.027 -21.749  1.00  0.00     0.002 C 
HETATM    7  C7  UNL     1      -4.226  49.568 -22.008  1.00  0.00    -0.004 C 
HETATM    8  C8  UNL     1      -5.358  50.437 -21.422  1.00  0.00     0.010 C 
HETATM    9  C9  UNL     1      -6.511  49.694 -20.726  1.00  0.00     0.035 C 
HETATM   10  C10 UNL     1      -6.871  48.322 -21.248  1.00  0.00    -0.069 C 
HETATM   11  C11 UNL     1      -8.069  47.785 -20.948  1.00  0.00     0.030 C 
HETATM   12  C12 UNL     1      -8.441  46.397 -21.363  1.00  0.00     0.032 C 
HETATM   13  N1  UNL     1      -9.630  45.874 -21.290  1.00  0.00    -0.271 N 
ATOM     14  H1  UNL     1      -9.853  44.926 -21.595  1.00  0.00     0.194 HD
HETATM   15  C30 UNL     1      -7.356  45.505 -21.947  1.00  0.00     0.060 C 
HETATM   16  C31 UNL     1      -5.947  46.043 -21.710  1.00  0.00     0.020 C 
HETATM   17  C32 UNL     1      -5.814  47.555 -22.025  1.00  0.00    -0.016 C 
HETATM   18  C33 UNL     1      -6.073  47.772 -23.541  1.00  0.00     0.020 C 
HETATM   19  C34 UNL     1      -4.381  48.073 -21.647  1.00  0.00     0.002 C 
HETATM   20  C35 UNL     1      -3.960  47.786 -20.178  1.00  0.00     0.007 C 
HETATM   21  C36 UNL     1      -3.222  48.931 -19.473  1.00  0.00     0.014 C 
HETATM   22  C37 UNL     1      -2.181  49.645 -20.355  1.00  0.00     0.003 C 
HETATM   23  C38 UNL     1      -0.989  48.676 -20.594  1.00  0.00     0.020 C 
ENDROOT
BRANCH   3  24
HETATM   24  O1  UNL     1      -2.789  51.689 -19.121  1.00  0.00    -0.377 OA
HETATM   25  H2  UNL     1      -2.424  52.495 -18.717  1.00  0.00     0.211 HD
ENDBRANCH   3  24
BRANCH  13  26
HETATM   26  O2  UNL     1     -10.570  46.762 -20.743  1.00  0.00    -0.271 OA
BRANCH  26  27
HETATM   27  C13 UNL     1     -11.844  46.137 -20.717  1.00  0.00     0.303 C 
BRANCH  27  28
HETATM   28  C14 UNL     1     -13.020  47.109 -20.827  1.00  0.00     0.244 C 
HETATM   29  O3  UNL     1     -12.980  48.185 -21.426  1.00  0.00    -0.271 OA
HETATM   30  N2  UNL     1     -14.162  46.654 -20.179  1.00  0.00    -0.346 N 
HETATM   31  H16 UNL     1     -14.223  45.654 -20.027  1.00  0.00     0.163 HD
BRANCH  30  32
HETATM   32  C15 UNL     1     -15.450  47.325 -20.355  1.00  0.00     0.180 C 
BRANCH  32  33
HETATM   33  C16 UNL     1     -16.185  46.574 -21.489  1.00  0.00     0.241 C 
HETATM   34  O4  UNL     1     -15.628  46.306 -22.554  1.00  0.00    -0.271 OA
HETATM   35  N3  UNL     1     -17.473  46.188 -21.190  1.00  0.00    -0.354 N 
HETATM   36  H18 UNL     1     -17.874  46.481 -20.308  1.00  0.00     0.162 HD
BRANCH  35  37
HETATM   37  C17 UNL     1     -18.289  45.360 -22.093  1.00  0.00     0.098 C 
BRANCH  37  38
HETATM   38  C18 UNL     1     -19.178  46.286 -22.929  1.00  0.00     0.135 C 
BRANCH  38  39
HETATM   39  C19 UNL     1     -18.739  46.453 -24.352  1.00  0.00     0.141 C 
HETATM   40  O5  UNL     1     -19.372  47.016 -25.229  1.00  0.00    -0.650 OA
BRANCH  39  41
HETATM   41  O6  UNL     1     -17.507  45.977 -24.599  1.00  0.00    -0.776 OA
HETATM   42  H22 UNL     1     -17.340  46.205 -25.539  1.00  0.00     0.167 HD
ENDBRANCH  39  41
ENDBRANCH  38  39
ENDBRANCH  37  38
BRANCH  37  43
HETATM   43  C20 UNL     1     -18.998  44.272 -21.238  1.00  0.00     0.014 C 
HETATM   44  C21 UNL     1     -20.226  43.659 -21.922  1.00  0.00     0.033 C 
HETATM   45  C22 UNL     1     -20.814  42.551 -21.057  1.00  0.00     0.169 C 
HETATM   46  O7  UNL     1     -21.153  43.034 -19.759  1.00  0.00    -0.381 OA
HETATM   47  C23 UNL     1     -20.073  43.611 -19.011  1.00  0.00     0.054 C 
HETATM   48  C24 UNL     1     -19.076  42.530 -18.567  1.00  0.00     0.045 C 
HETATM   49  C25 UNL     1     -20.711  44.220 -17.753  1.00  0.00     0.045 C 
HETATM   50  C26 UNL     1     -19.396  44.735 -19.826  1.00  0.00     0.044 C 
ENDBRANCH  37  43
ENDBRANCH  35  37
ENDBRANCH  32  33
BRANCH  32  51
HETATM   51  C27 UNL     1     -16.244  47.346 -19.028  1.00  0.00     0.009 C 
HETATM   52  C28 UNL     1     -15.804  48.490 -18.110  1.00  0.00     0.012 C 
HETATM   53  C29 UNL     1     -17.764  47.396 -19.218  1.00  0.00     0.012 C 
ENDBRANCH  32  51
ENDBRANCH  30  32
ENDBRANCH  27  28
ENDBRANCH  26  27
ENDBRANCH  13  26
TORSDOF 12
ENDMDL
MODEL 2
REMARK minimizedAffinity -9.39264584
REMARK CNNscore 0.381782055
REMARK CNNaffinity 6.68460798
REMARK  12 active torsions:
REMARK  status: ('A' for Active; 'I' for Inactive)
REMARK    1  A    between atoms: C3_3  and  O1_4 
REMARK    2  A    between atoms: N1_14  and  O2_16 
REMARK    3  A    between atoms: O2_16  and  C13_17 
REMARK    4  A    between atoms: C13_17  and  C14_18 
REMARK       I    between atoms: C14_18  and  N2_20 
REMARK    5  A    between atoms: N2_20  and  C15_21 
REMARK    6  A    between atoms: C15_21  and  C16_22 
REMARK    7  A    between atoms: C15_21  and  C27_38 
REMARK       I    between atoms: C16_22  and  N3_24 
REMARK    8  A    between atoms: N3_24  and  C17_25 
REMARK    9  A    between atoms: C17_25  and  C18_26 
REMARK   10  A    between atoms: C17_25  and  C20_30 
REMARK   11  A    between atoms: C18_26  and  C19_27 
REMARK   12  A    between atoms: C19_27  and  O6_29 
ROOT
HETATM    1  C1  UNL     1      -0.409  54.586 -28.101  1.00  0.00     0.015 C 
HETATM    2  C2  UNL     1      -0.639  53.487 -27.674  1.00  0.00    -0.078 C 
HETATM    3  C3  UNL     1      -0.920  52.133 -27.172  1.00  0.00     0.128 C 
HETATM    4  C4  UNL     1       0.358  51.307 -27.000  1.00  0.00     0.052 C 
HETATM    5  C5  UNL     1      -0.117  50.107 -26.188  1.00  0.00     0.010 C 
HETATM    6  C6  UNL     1      -1.124  50.695 -25.189  1.00  0.00     0.002 C 
HETATM    7  C7  UNL     1      -2.254  49.750 -24.722  1.00  0.00    -0.004 C 
HETATM    8  C8  UNL     1      -2.980  48.925 -25.806  1.00  0.00     0.010 C 
HETATM    9  C9  UNL     1      -4.514  48.861 -25.715  1.00  0.00     0.035 C 
HETATM   10  C10 UNL     1      -5.134  48.919 -24.337  1.00  0.00    -0.069 C 
HETATM   11  C11 UNL     1      -6.402  48.506 -24.155  1.00  0.00     0.030 C 
HETATM   12  C12 UNL     1      -7.092  48.624 -22.834  1.00  0.00     0.032 C 
HETATM   13  N1  UNL     1      -8.231  48.080 -22.519  1.00  0.00    -0.271 N 
ATOM     14  H1  UNL     1      -8.669  48.169 -21.601  1.00  0.00     0.194 HD
HETATM   15  C30 UNL     1      -6.411  49.427 -21.736  1.00  0.00     0.060 C 
HETATM   16  C31 UNL     1      -5.267  50.295 -22.251  1.00  0.00     0.020 C 
HETATM   17  C32 UNL     1      -4.317  49.537 -23.214  1.00  0.00    -0.016 C 
HETATM   18  C33 UNL     1      -3.625  48.389 -22.428  1.00  0.00     0.020 C 
HETATM   19  C34 UNL     1      -3.236  50.511 -23.803  1.00  0.00     0.002 C 
HETATM   20  C35 UNL     1      -3.818  51.774 -24.498  1.00  0.00     0.007 C 
HETATM   21  C36 UNL     1      -3.123  52.182 -25.804  1.00  0.00     0.014 C 
HETATM   22  C37 UNL     1      -1.587  52.074 -25.757  1.00  0.00     0.003 C 
HETATM   23  C38 UNL     1      -1.043  53.184 -24.815  1.00  0.00     0.020 C 
ENDROOT
BRANCH   3  24
HETATM   24  O1  UNL     1      -1.730  51.464 -28.140  1.00  0.00    -0.377 OA
HETATM   25  H2  UNL     1      -1.305  51.592 -29.005  1.00  0.00     0.211 HD
ENDBRANCH   3  24
BRANCH  13  26
HETATM   26  O2  UNL     1      -8.789  47.356 -23.585  1.00  0.00    -0.271 OA
BRANCH  26  27
HETATM   27  C13 UNL     1      -9.468  46.219 -23.074  1.00  0.00     0.303 C 
BRANCH  27  28
HETATM   28  C14 UNL     1     -10.992  46.296 -23.191  1.00  0.00     0.244 C 
HETATM   29  O3  UNL     1     -11.591  46.946 -24.049  1.00  0.00    -0.271 OA
HETATM   30  N2  UNL     1     -11.649  45.545 -22.225  1.00  0.00    -0.346 N 
HETATM   31  H16 UNL     1     -11.117  44.791 -21.804  1.00  0.00     0.163 HD
BRANCH  30  32
HETATM   32  C15 UNL     1     -13.090  45.307 -22.301  1.00  0.00     0.180 C 
BRANCH  32  33
HETATM   33  C16 UNL     1     -13.767  46.469 -21.538  1.00  0.00     0.241 C 
HETATM   34  O4  UNL     1     -13.612  47.642 -21.877  1.00  0.00    -0.271 OA
HETATM   35  N3  UNL     1     -14.589  46.082 -20.503  1.00  0.00    -0.354 N 
HETATM   36  H18 UNL     1     -14.633  45.100 -20.260  1.00  0.00     0.162 HD
BRANCH  35  37
HETATM   37  C17 UNL     1     -15.412  47.033 -19.738  1.00  0.00     0.098 C 
BRANCH  37  38
HETATM   38  C18 UNL     1     -15.128  46.831 -18.246  1.00  0.00     0.135 C 
BRANCH  38  39
HETATM   39  C19 UNL     1     -14.541  48.024 -17.557  1.00  0.00     0.141 C 
HETATM   40  O5  UNL     1     -15.025  49.143 -17.540  1.00  0.00    -0.650 OA
BRANCH  39  41
HETATM   41  O6  UNL     1     -13.423  47.754 -16.863  1.00  0.00    -0.776 OA
HETATM   42  H22 UNL     1     -13.193  48.604 -16.429  1.00  0.00     0.167 HD
ENDBRANCH  39  41
ENDBRANCH  38  39
ENDBRANCH  37  38
BRANCH  37  43
HETATM   43  C20 UNL     1     -16.885  46.882 -20.211  1.00  0.00     0.014 C 
HETATM   44  C21 UNL     1     -17.914  47.271 -19.143  1.00  0.00     0.033 C 
HETATM   45  C22 UNL     1     -19.326  47.171 -19.709  1.00  0.00     0.169 C 
HETATM   46  O7  UNL     1     -19.592  45.862 -20.205  1.00  0.00    -0.381 OA
HETATM   47  C23 UNL     1     -18.702  45.396 -21.232  1.00  0.00     0.054 C 
HETATM   48  C24 UNL     1     -18.936  46.158 -22.544  1.00  0.00     0.045 C 
HETATM   49  C25 UNL     1     -19.064  43.921 -21.464  1.00  0.00     0.045 C 
HETATM   50  C26 UNL     1     -17.237  45.486 -20.753  1.00  0.00     0.044 C 
ENDBRANCH  37  43
ENDBRANCH  35  37
ENDBRANCH  32  33
BRANCH  32  51
HETATM   51  C27 UNL     1     -13.551  45.199 -23.774  1.00  0.00     0.009 C 
HETATM   52  C28 UNL     1     -13.227  43.830 -24.381  1.00  0.00     0.012 C 
HETATM   53  C29 UNL     1     -15.037  45.513 -23.981  1.00  0.00     0.012 C 
ENDBRANCH  32  51
ENDBRANCH  30  32
ENDBRANCH  27  28
ENDBRANCH  26  27
ENDBRANCH  13  26
TORSDOF 12
ENDMDL
MODEL 3
REMARK minimizedAffinity -8.22387981
REMARK CNNscore 0.376449883
REMARK CNNaffinity 6.63545561
REMARK  12 active torsions:
REMARK  status: ('A' for Active; 'I' for Inactive)
REMARK    1  A    between atoms: C3_3  and  O1_4 
REMARK    2  A    between atoms: N1_14  and  O2_16 
REMARK    3  A    between atoms: O2_16  and  C13_17 
REMARK    4  A    between atoms: C13_17  and  C14_18 
REMARK       I    between atoms: C14_18  and  N2_20 
REMARK    5  A    between atoms: N2_20  and  C15_21 
REMARK    6  A    between atoms: C15_21  and  C16_22 
REMARK    7  A    between atoms: C15_21  and  C27_38 
REMARK       I    between atoms: C16_22  and  N3_24 
REMARK    8  A    between atoms: N3_24  and  C17_25 
REMARK    9  A    between atoms: C17_25  and  C18_26 
REMARK   10  A    between atoms: C17_25  and  C20_30 
REMARK   11  A    between atoms: C18_26  and  C19_27 
REMARK   12  A    between atoms: C19_27  and  O6_29 
ROOT
HETATM    1  C1  UNL     1      -1.671  47.870 -15.550  1.00  0.00     0.015 C 
HETATM    2  C2  UNL     1      -2.161  48.568 -16.396  1.00  0.00    -0.078 C 
HETATM    3  C3  UNL     1      -2.779  49.427 -17.418  1.00  0.00     0.128 C 
HETATM    4  C4  UNL     1      -2.521  50.914 -17.153  1.00  0.00     0.052 C 
HETATM    5  C5  UNL     1      -2.947  51.574 -18.460  1.00  0.00     0.010 C 
HETATM    6  C6  UNL     1      -2.465  50.607 -19.552  1.00  0.00     0.002 C 
HETATM    7  C7  UNL     1      -3.286  50.591 -20.861  1.00  0.00    -0.004 C 
HETATM    8  C8  UNL     1      -4.823  50.544 -20.732  1.00  0.00     0.010 C 
HETATM    9  C9  UNL     1      -5.565  49.565 -21.657  1.00  0.00     0.035 C 
HETATM   10  C10 UNL     1      -4.962  49.297 -23.017  1.00  0.00    -0.069 C 
HETATM   11  C11 UNL     1      -5.720  48.763 -23.993  1.00  0.00     0.030 C 
HETATM   12  C12 UNL     1      -5.152  48.396 -25.326  1.00  0.00     0.032 C 
HETATM   13  N1  UNL     1      -5.837  48.063 -26.380  1.00  0.00    -0.271 N 
ATOM     14  H1  UNL     1      -5.418  47.831 -27.281  1.00  0.00     0.194 HD
HETATM   15  C30 UNL     1      -3.641  48.431 -25.499  1.00  0.00     0.060 C 
HETATM   16  C31 UNL     1      -2.888  48.506 -24.173  1.00  0.00     0.020 C 
HETATM   17  C32 UNL     1      -3.476  49.561 -23.201  1.00  0.00    -0.016 C 
HETATM   18  C33 UNL     1      -3.308  50.969 -23.835  1.00  0.00     0.020 C 
HETATM   19  C34 UNL     1      -2.740  49.506 -21.815  1.00  0.00     0.002 C 
HETATM   20  C35 UNL     1      -2.728  48.101 -21.149  1.00  0.00     0.007 C 
HETATM   21  C36 UNL     1      -2.973  48.094 -19.634  1.00  0.00     0.014 C 
HETATM   22  C37 UNL     1      -2.244  49.217 -18.874  1.00  0.00     0.003 C 
HETATM   23  C38 UNL     1      -0.720  48.916 -18.892  1.00  0.00     0.020 C 
ENDROOT
BRANCH   3  24
HETATM   24  O1  UNL     1      -4.193  49.227 -17.366  1.00  0.00    -0.377 OA
HETATM   25  H2  UNL     1      -4.457  49.301 -16.433  1.00  0.00     0.211 HD
ENDBRANCH   3  24
BRANCH  13  26
HETATM   26  O2  UNL     1      -7.221  48.059 -26.136  1.00  0.00    -0.271 OA
BRANCH  26  27
HETATM   27  C13 UNL     1      -7.818  46.984 -26.844  1.00  0.00     0.303 C 
BRANCH  27  28
HETATM   28  C14 UNL     1      -9.310  47.170 -27.122  1.00  0.00     0.244 C 
HETATM   29  O3  UNL     1      -9.818  48.219 -27.520  1.00  0.00    -0.271 OA
HETATM   30  N2  UNL     1     -10.054  46.021 -26.885  1.00  0.00    -0.346 N 
HETATM   31  H16 UNL     1      -9.545  45.144 -26.907  1.00  0.00     0.163 HD
BRANCH  30  32
HETATM   32  C15 UNL     1     -11.453  45.925 -27.302  1.00  0.00     0.180 C 
BRANCH  32  33
HETATM   33  C16 UNL     1     -12.290  46.587 -26.183  1.00  0.00     0.241 C 
HETATM   34  O4  UNL     1     -12.172  47.781 -25.909  1.00  0.00    -0.271 OA
HETATM   35  N3  UNL     1     -13.202  45.756 -25.571  1.00  0.00    -0.354 N 
HETATM   36  H18 UNL     1     -13.210  44.776 -25.824  1.00  0.00     0.162 HD
BRANCH  35  37
HETATM   37  C17 UNL     1     -14.169  46.232 -24.569  1.00  0.00     0.098 C 
BRANCH  37  38
HETATM   38  C18 UNL     1     -13.648  45.864 -23.177  1.00  0.00     0.135 C 
BRANCH  38  39
HETATM   39  C19 UNL     1     -14.403  46.489 -22.043  1.00  0.00     0.141 C 
HETATM   40  O5  UNL     1     -14.919  45.886 -21.117  1.00  0.00    -0.650 OA
BRANCH  39  41
HETATM   41  O6  UNL     1     -14.419  47.831 -22.077  1.00  0.00    -0.776 OA
HETATM   42  H22 UNL     1     -14.893  48.091 -21.257  1.00  0.00     0.167 HD
ENDBRANCH  39  41
ENDBRANCH  38  39
ENDBRANCH  37  38
BRANCH  37  43
HETATM   43  C20 UNL     1     -15.575  45.700 -24.968  1.00  0.00     0.014 C 
HETATM   44  C21 UNL     1     -15.764  45.546 -26.482  1.00  0.00     0.033 C 
HETATM   45  C22 UNL     1     -17.132  44.948 -26.785  1.00  0.00     0.169 C 
HETATM   46  O7  UNL     1     -18.178  45.741 -26.228  1.00  0.00    -0.381 OA
HETATM   47  C23 UNL     1     -18.118  45.935 -24.807  1.00  0.00     0.054 C 
HETATM   48  C24 UNL     1     -18.440  44.630 -24.063  1.00  0.00     0.045 C 
HETATM   49  C25 UNL     1     -19.216  46.958 -24.476  1.00  0.00     0.045 C 
HETATM   50  C26 UNL     1     -16.747  46.519 -24.402  1.00  0.00     0.044 C 
ENDBRANCH  37  43
ENDBRANCH  35  37
ENDBRANCH  32  33
BRANCH  32  51
HETATM   51  C27 UNL     1     -11.660  46.584 -28.686  1.00  0.00     0.009 C 
HETATM   52  C28 UNL     1     -10.934  45.826 -29.801  1.00  0.00     0.012 C 
HETATM   53  C29 UNL     1     -13.133  46.771 -29.067  1.00  0.00     0.012 C 
ENDBRANCH  32  51
ENDBRANCH  30  32
ENDBRANCH  27  28
ENDBRANCH  26  27
ENDBRANCH  13  26
TORSDOF 12
ENDMDL
MODEL 4
REMARK minimizedAffinity -9.6551733
REMARK CNNscore 0.331190467
REMARK CNNaffinity 6.63382769
REMARK  12 active torsions:
REMARK  status: ('A' for Active; 'I' for Inactive)
REMARK    1  A    between atoms: C3_3  and  O1_4 
REMARK    2  A    between atoms: N1_14  and  O2_16 
REMARK    3  A    between atoms: O2_16  and  C13_17 
REMARK    4  A    between atoms: C13_17  and  C14_18 
REMARK       I    between atoms: C14_18  and  N2_20 
REMARK    5  A    between atoms: N2_20  and  C15_21 
REMARK    6  A    between atoms: C15_21  and  C16_22 
REMARK    7  A    between atoms: C15_21  and  C27_38 
REMARK       I    between atoms: C16_22  and  N3_24 
REMARK    8  A    between atoms: N3_24  and  C17_25 
REMARK    9  A    between atoms: C17_25  and  C18_26 
REMARK   10  A    between atoms: C17_25  and  C20_30 
REMARK   11  A    between atoms: C18_26  and  C19_27 
REMARK   12  A    between atoms: C19_27  and  O6_29 
ROOT
HETATM    1  C1  UNL     1      -0.401  54.861 -27.821  1.00  0.00     0.015 C 
HETATM    2  C2  UNL     1      -0.583  53.719 -27.494  1.00  0.00    -0.078 C 
HETATM    3  C3  UNL     1      -0.803  52.315 -27.117  1.00  0.00     0.128 C 
HETATM    4  C4  UNL     1       0.512  51.539 -26.994  1.00  0.00     0.052 C 
HETATM    5  C5  UNL     1       0.086  50.251 -26.298  1.00  0.00     0.010 C 
HETATM    6  C6  UNL     1      -0.962  50.701 -25.269  1.00  0.00     0.002 C 
HETATM    7  C7  UNL     1      -2.049  49.665 -24.905  1.00  0.00    -0.004 C 
HETATM    8  C8  UNL     1      -2.720  48.904 -26.068  1.00  0.00     0.010 C 
HETATM    9  C9  UNL     1      -4.250  48.759 -26.009  1.00  0.00     0.035 C 
HETATM   10  C10 UNL     1      -4.889  48.667 -24.642  1.00  0.00    -0.069 C 
HETATM   11  C11 UNL     1      -6.138  48.179 -24.519  1.00  0.00     0.030 C 
HETATM   12  C12 UNL     1      -6.850  48.148 -23.204  1.00  0.00     0.032 C 
HETATM   13  N1  UNL     1      -7.964  47.525 -22.957  1.00  0.00    -0.271 N 
ATOM     14  H1  UNL     1      -8.418  47.512 -22.043  1.00  0.00     0.194 HD
HETATM   15  C30 UNL     1      -6.224  48.884 -22.029  1.00  0.00     0.060 C 
HETATM   16  C31 UNL     1      -5.116  49.847 -22.448  1.00  0.00     0.020 C 
HETATM   17  C32 UNL     1      -4.119  49.223 -23.456  1.00  0.00    -0.016 C 
HETATM   18  C33 UNL     1      -3.380  48.046 -22.761  1.00  0.00     0.020 C 
HETATM   19  C34 UNL     1      -3.079  50.295 -23.940  1.00  0.00     0.002 C 
HETATM   20  C35 UNL     1      -3.714  51.585 -24.533  1.00  0.00     0.007 C 
HETATM   21  C36 UNL     1      -3.023  52.138 -25.786  1.00  0.00     0.014 C 
HETATM   22  C37 UNL     1      -1.485  52.101 -25.723  1.00  0.00     0.003 C 
HETATM   23  C38 UNL     1      -1.007  53.148 -24.680  1.00  0.00     0.020 C 
ENDROOT
BRANCH   3  24
HETATM   24  O1  UNL     1      -1.567  51.694 -28.152  1.00  0.00    -0.377 OA
HETATM   25  H2  UNL     1      -1.137  51.918 -28.996  1.00  0.00     0.211 HD
ENDBRANCH   3  24
BRANCH  13  26
HETATM   26  O2  UNL     1      -8.472  46.870 -24.091  1.00  0.00    -0.271 OA
BRANCH  26  27
HETATM   27  C13 UNL     1      -9.720  47.446 -24.444  1.00  0.00     0.303 C 
BRANCH  27  28
HETATM   28  C14 UNL     1     -10.658  46.497 -25.192  1.00  0.00     0.244 C 
HETATM   29  O3  UNL     1     -10.312  45.424 -25.687  1.00  0.00    -0.271 OA
HETATM   30  N2  UNL     1     -11.964  46.966 -25.258  1.00  0.00    -0.346 N 
HETATM   31  H16 UNL     1     -12.234  47.644 -24.554  1.00  0.00     0.163 HD
BRANCH  30  32
HETATM   32  C15 UNL     1     -13.053  46.110 -25.730  1.00  0.00     0.180 C 
BRANCH  32  33
HETATM   33  C16 UNL     1     -14.316  46.534 -24.946  1.00  0.00     0.241 C 
HETATM   34  O4  UNL     1     -14.720  47.697 -24.951  1.00  0.00    -0.271 OA
HETATM   35  N3  UNL     1     -14.970  45.508 -24.299  1.00  0.00    -0.354 N 
HETATM   36  H18 UNL     1     -14.552  44.586 -24.308  1.00  0.00     0.162 HD
BRANCH  35  37
HETATM   37  C17 UNL     1     -16.253  45.693 -23.602  1.00  0.00     0.098 C 
BRANCH  37  38
HETATM   38  C18 UNL     1     -17.070  46.744 -24.359  1.00  0.00     0.135 C 
BRANCH  38  39
HETATM   39  C19 UNL     1     -18.516  46.395 -24.541  1.00  0.00     0.141 C 
HETATM   40  O5  UNL     1     -19.010  45.296 -24.351  1.00  0.00    -0.650 OA
BRANCH  39  41
HETATM   41  O6  UNL     1     -19.288  47.440 -24.878  1.00  0.00    -0.776 OA
HETATM   42  H22 UNL     1     -20.199  47.075 -24.906  1.00  0.00     0.167 HD
ENDBRANCH  39  41
ENDBRANCH  38  39
ENDBRANCH  37  38
BRANCH  37  43
HETATM   43  C20 UNL     1     -15.949  45.969 -22.102  1.00  0.00     0.014 C 
HETATM   44  C21 UNL     1     -17.190  46.343 -21.284  1.00  0.00     0.033 C 
HETATM   45  C22 UNL     1     -16.822  46.519 -19.816  1.00  0.00     0.169 C 
HETATM   46  O7  UNL     1     -15.803  47.502 -19.654  1.00  0.00    -0.381 OA
HETATM   47  C23 UNL     1     -14.578  47.246 -20.359  1.00  0.00     0.054 C 
HETATM   48  C24 UNL     1     -13.821  46.069 -19.728  1.00  0.00     0.045 C 
HETATM   49  C25 UNL     1     -13.723  48.511 -20.188  1.00  0.00     0.045 C 
HETATM   50  C26 UNL     1     -14.859  47.028 -21.862  1.00  0.00     0.044 C 
ENDBRANCH  37  43
ENDBRANCH  35  37
ENDBRANCH  32  33
BRANCH  32  51
HETATM   51  C27 UNL     1     -13.221  46.231 -27.263  1.00  0.00     0.009 C 
HETATM   52  C28 UNL     1     -14.635  45.856 -27.719  1.00  0.00     0.012 C 
HETATM   53  C29 UNL     1     -12.853  47.612 -27.817  1.00  0.00     0.012 C 
ENDBRANCH  32  51
ENDBRANCH  30  32
ENDBRANCH  27  28
ENDBRANCH  26  27
ENDBRANCH  13  26
TORSDOF 12
ENDMDL
MODEL 5
REMARK minimizedAffinity -8.32020569
REMARK CNNscore 0.310839623
REMARK CNNaffinity 6.00092506
REMARK  12 active torsions:
REMARK  status: ('A' for Active; 'I' for Inactive)
REMARK    1  A    between atoms: C3_3  and  O1_4 
REMARK    2  A    between atoms: N1_14  and  O2_16 
REMARK    3  A    between atoms: O2_16  and  C13_17 
REMARK    4  A    between atoms: C13_17  and  C14_18 
REMARK       I    between atoms: C14_18  and  N2_20 
REMARK    5  A    between atoms: N2_20  and  C15_21 
REMARK    6  A    between atoms: C15_21  and  C16_22 
REMARK    7  A    between atoms: C15_21  and  C27_38 
REMARK       I    between atoms: C16_22  and  N3_24 
REMARK    8  A    between atoms: N3_24  and  C17_25 
REMARK    9  A    between atoms: C17_25  and  C18_26 
REMARK   10  A    between atoms: C17_25  and  C20_30 
REMARK   11  A    between atoms: C18_26  and  C19_27 
REMARK   12  A    between atoms: C19_27  and  O6_29 
ROOT
HETATM    1  C1  UNL     1      -0.610  49.821 -21.029  1.00  0.00     0.015 C 
HETATM    2  C2  UNL     1      -1.745  50.071 -21.333  1.00  0.00    -0.078 C 
HETATM    3  C3  UNL     1      -3.137  50.389 -21.686  1.00  0.00     0.128 C 
HETATM    4  C4  UNL     1      -3.269  51.783 -22.307  1.00  0.00     0.052 C 
HETATM    5  C5  UNL     1      -4.683  51.770 -22.878  1.00  0.00     0.010 C 
HETATM    6  C6  UNL     1      -4.854  50.353 -23.446  1.00  0.00     0.002 C 
HETATM    7  C7  UNL     1      -6.293  49.793 -23.459  1.00  0.00    -0.004 C 
HETATM    8  C8  UNL     1      -7.136  49.972 -22.178  1.00  0.00     0.010 C 
HETATM    9  C9  UNL     1      -7.939  48.750 -21.702  1.00  0.00     0.035 C 
HETATM   10  C10 UNL     1      -8.454  47.799 -22.759  1.00  0.00    -0.069 C 
HETATM   11  C11 UNL     1      -9.448  46.942 -22.461  1.00  0.00     0.030 C 
HETATM   12  C12 UNL     1      -9.933  45.921 -23.440  1.00  0.00     0.032 C 
HETATM   13  N1  UNL     1     -11.004  45.193 -23.313  1.00  0.00    -0.271 N 
ATOM     14  H1  UNL     1     -11.315  44.514 -24.008  1.00  0.00     0.194 HD
HETATM   15  C30 UNL     1      -9.134  45.712 -24.718  1.00  0.00     0.060 C 
HETATM   16  C31 UNL     1      -7.744  46.340 -24.664  1.00  0.00     0.020 C 
HETATM   17  C32 UNL     1      -7.753  47.787 -24.108  1.00  0.00    -0.016 C 
HETATM   18  C33 UNL     1      -8.560  48.689 -25.082  1.00  0.00     0.020 C 
HETATM   19  C34 UNL     1      -6.288  48.332 -23.963  1.00  0.00     0.002 C 
HETATM   20  C35 UNL     1      -5.347  47.430 -23.114  1.00  0.00     0.007 C 
HETATM   21  C36 UNL     1      -4.412  48.180 -22.156  1.00  0.00     0.014 C 
HETATM   22  C37 UNL     1      -3.781  49.448 -22.759  1.00  0.00     0.003 C 
HETATM   23  C38 UNL     1      -2.754  49.021 -23.844  1.00  0.00     0.020 C 
ENDROOT
BRANCH   3  24
HETATM   24  O1  UNL     1      -3.908  50.385 -20.483  1.00  0.00    -0.377 OA
HETATM   25  H2  UNL     1      -3.427  50.927 -19.835  1.00  0.00     0.211 HD
ENDBRANCH   3  24
BRANCH  13  26
HETATM   26  O2  UNL     1     -11.683  45.450 -22.111  1.00  0.00    -0.271 OA
BRANCH  26  27
HETATM   27  C13 UNL     1     -13.081  45.454 -22.354  1.00  0.00     0.303 C 
BRANCH  27  28
HETATM   28  C14 UNL     1     -13.514  44.575 -23.529  1.00  0.00     0.244 C 
HETATM   29  O3  UNL     1     -12.815  43.696 -24.035  1.00  0.00    -0.271 OA
HETATM   30  N2  UNL     1     -14.797  44.862 -23.978  1.00  0.00    -0.346 N 
HETATM   31  H16 UNL     1     -15.411  45.324 -23.316  1.00  0.00     0.163 HD
BRANCH  30  32
HETATM   32  C15 UNL     1     -15.476  43.991 -24.937  1.00  0.00     0.180 C 
BRANCH  32  33
HETATM   33  C16 UNL     1     -16.842  43.629 -24.309  1.00  0.00     0.241 C 
HETATM   34  O4  UNL     1     -17.172  42.460 -24.108  1.00  0.00    -0.271 OA
HETATM   35  N3  UNL     1     -17.619  44.708 -23.949  1.00  0.00    -0.354 N 
HETATM   36  H18 UNL     1     -17.296  45.638 -24.185  1.00  0.00     0.162 HD
BRANCH  35  37
HETATM   37  C17 UNL     1     -18.897  44.568 -23.231  1.00  0.00     0.098 C 
BRANCH  37  38
HETATM   38  C18 UNL     1     -19.961  45.387 -23.967  1.00  0.00     0.135 C 
BRANCH  38  39
HETATM   39  C19 UNL     1     -19.435  46.216 -25.099  1.00  0.00     0.141 C 
HETATM   40  O5  UNL     1     -19.286  45.834 -26.248  1.00  0.00    -0.650 OA
BRANCH  39  41
HETATM   41  O6  UNL     1     -19.189  47.494 -24.768  1.00  0.00    -0.776 OA
HETATM   42  H22 UNL     1     -18.910  47.916 -25.609  1.00  0.00     0.167 HD
ENDBRANCH  39  41
ENDBRANCH  38  39
ENDBRANCH  37  38
BRANCH  37  43
HETATM   43  C20 UNL     1     -18.644  44.906 -21.734  1.00  0.00     0.014 C 
HETATM   44  C21 UNL     1     -19.439  44.023 -20.764  1.00  0.00     0.033 C 
HETATM   45  C22 UNL     1     -19.078  44.363 -19.324  1.00  0.00     0.169 C 
HETATM   46  O7  UNL     1     -19.307  45.742 -19.046  1.00  0.00    -0.381 OA
HETATM   47  C23 UNL     1     -18.594  46.669 -19.879  1.00  0.00     0.054 C 
HETATM   48  C24 UNL     1     -17.093  46.648 -19.559  1.00  0.00     0.045 C 
HETATM   49  C25 UNL     1     -19.140  48.060 -19.523  1.00  0.00     0.045 C 
HETATM   50  C26 UNL     1     -18.882  46.381 -21.369  1.00  0.00     0.044 C 
ENDBRANCH  37  43
ENDBRANCH  35  37
ENDBRANCH  32  33
BRANCH  32  51
HETATM   51  C27 UNL     1     -15.606  44.686 -26.313  1.00  0.00     0.009 C 
HETATM   52  C28 UNL     1     -15.133  46.142 -26.272  1.00  0.00     0.012 C 
HETATM   53  C29 UNL     1     -14.891  43.945 -27.449  1.00  0.00     0.012 C 
ENDBRANCH  32  51
ENDBRANCH  30  32
ENDBRANCH  27  28
ENDBRANCH  26  27
ENDBRANCH  13  26
TORSDOF 12
ENDMDL
MODEL 6
REMARK minimizedAffinity -8.99598408
REMARK CNNscore 0.255157739
REMARK CNNaffinity 6.1188159
REMARK  12 active torsions:
REMARK  status: ('A' for Active; 'I' for Inactive)
REMARK    1  A    between atoms: C3_3  and  O1_4 
REMARK    2  A    between atoms: N1_14  and  O2_16 
REMARK    3  A    between atoms: O2_16  and  C13_17 
REMARK    4  A    between atoms: C13_17  and  C14_18 
REMARK       I    between atoms: C14_18  and  N2_20 
REMARK    5  A    between atoms: N2_20  and  C15_21 
REMARK    6  A    between atoms: C15_21  and  C16_22 
REMARK    7  A    between atoms: C15_21  and  C27_38 
REMARK       I    between atoms: C16_22  and  N3_24 
REMARK    8  A    between atoms: N3_24  and  C17_25 
REMARK    9  A    between atoms: C17_25  and  C18_26 
REMARK   10  A    between atoms: C17_25  and  C20_30 
REMARK   11  A    between atoms: C18_26  and  C19_27 
REMARK   12  A    between atoms: C19_27  and  O6_29 
ROOT
HETATM    1  C1  UNL     1      -0.968  52.838 -24.920  1.00  0.00     0.015 C 
HETATM    2  C2  UNL     1      -1.765  51.940 -24.959  1.00  0.00    -0.078 C 
HETATM    3  C3  UNL     1      -2.750  50.849 -25.025  1.00  0.00     0.128 C 
HETATM    4  C4  UNL     1      -2.342  49.765 -26.028  1.00  0.00     0.052 C 
HETATM    5  C5  UNL     1      -3.296  48.621 -25.702  1.00  0.00     0.010 C 
HETATM    6  C6  UNL     1      -3.408  48.640 -24.170  1.00  0.00     0.002 C 
HETATM    7  C7  UNL     1      -4.739  48.127 -23.576  1.00  0.00    -0.004 C 
HETATM    8  C8  UNL     1      -6.045  48.634 -24.223  1.00  0.00     0.010 C 
HETATM    9  C9  UNL     1      -7.166  49.073 -23.267  1.00  0.00     0.035 C 
HETATM   10  C10 UNL     1      -7.266  48.360 -21.937  1.00  0.00    -0.069 C 
HETATM   11  C11 UNL     1      -8.409  48.426 -21.227  1.00  0.00     0.030 C 
HETATM   12  C12 UNL     1      -8.532  47.816 -19.867  1.00  0.00     0.032 C 
HETATM   13  N1  UNL     1      -9.638  47.660 -19.200  1.00  0.00    -0.271 N 
ATOM     14  H1  UNL     1      -9.689  47.226 -18.278  1.00  0.00     0.194 HD
HETATM   15  C30 UNL     1      -7.269  47.301 -19.192  1.00  0.00     0.060 C 
HETATM   16  C31 UNL     1      -5.989  47.795 -19.861  1.00  0.00     0.020 C 
HETATM   17  C32 UNL     1      -6.024  47.666 -21.405  1.00  0.00    -0.016 C 
HETATM   18  C33 UNL     1      -6.111  46.160 -21.777  1.00  0.00     0.020 C 
HETATM   19  C34 UNL     1      -4.735  48.300 -22.041  1.00  0.00     0.002 C 
HETATM   20  C35 UNL     1      -4.471  49.775 -21.625  1.00  0.00     0.007 C 
HETATM   21  C36 UNL     1      -3.993  50.697 -22.754  1.00  0.00     0.014 C 
HETATM   22  C37 UNL     1      -2.954  50.056 -23.691  1.00  0.00     0.003 C 
HETATM   23  C38 UNL     1      -1.621  49.889 -22.909  1.00  0.00     0.020 C 
ENDROOT
BRANCH   3  24
HETATM   24  O1  UNL     1      -3.989  51.401 -25.478  1.00  0.00    -0.377 OA
HETATM   25  H2  UNL     1      -3.791  51.937 -26.265  1.00  0.00     0.211 HD
ENDBRANCH   3  24
BRANCH  13  26
HETATM   26  O2  UNL     1     -10.753  48.158 -19.894  1.00  0.00    -0.271 OA
BRANCH  26  27
HETATM   27  C13 UNL     1     -11.816  47.222 -19.803  1.00  0.00     0.303 C 
BRANCH  27  28
HETATM   28  C14 UNL     1     -13.187  47.796 -20.167  1.00  0.00     0.244 C 
HETATM   29  O3  UNL     1     -13.459  48.997 -20.173  1.00  0.00    -0.271 OA
HETATM   30  N2  UNL     1     -14.114  46.816 -20.501  1.00  0.00    -0.346 N 
HETATM   31  H16 UNL     1     -13.736  45.926 -20.807  1.00  0.00     0.163 HD
BRANCH  30  32
HETATM   32  C15 UNL     1     -15.406  47.167 -21.091  1.00  0.00     0.180 C 
BRANCH  32  33
HETATM   33  C16 UNL     1     -15.232  47.058 -22.623  1.00  0.00     0.241 C 
HETATM   34  O4  UNL     1     -15.246  48.053 -23.348  1.00  0.00    -0.271 OA
HETATM   35  N3  UNL     1     -15.008  45.782 -23.093  1.00  0.00    -0.354 N 
HETATM   36  H18 UNL     1     -15.051  45.011 -22.439  1.00  0.00     0.162 HD
BRANCH  35  37
HETATM   37  C17 UNL     1     -14.701  45.493 -24.503  1.00  0.00     0.098 C 
BRANCH  37  38
HETATM   38  C18 UNL     1     -13.929  46.680 -25.086  1.00  0.00     0.135 C 
BRANCH  38  39
HETATM   39  C19 UNL     1     -12.457  46.664 -24.806  1.00  0.00     0.141 C 
HETATM   40  O5  UNL     1     -11.933  46.965 -23.747  1.00  0.00    -0.650 OA
BRANCH  39  41
HETATM   41  O6  UNL     1     -11.715  46.207 -25.828  1.00  0.00    -0.776 OA
HETATM   42  H22 UNL     1     -10.797  46.202 -25.481  1.00  0.00     0.167 HD
ENDBRANCH  39  41
ENDBRANCH  38  39
ENDBRANCH  37  38
BRANCH  37  43
HETATM   43  C20 UNL     1     -16.025  45.086 -25.209  1.00  0.00     0.014 C 
HETATM   44  C21 UNL     1     -16.016  45.339 -26.722  1.00  0.00     0.033 C 
HETATM   45  C22 UNL     1     -17.313  44.843 -27.348  1.00  0.00     0.169 C 
HETATM   46  O7  UNL     1     -18.447  45.462 -26.746  1.00  0.00    -0.381 OA
HETATM   47  C23 UNL     1     -18.575  45.274 -25.328  1.00  0.00     0.054 C 
HETATM   48  C24 UNL     1     -18.945  43.821 -25.001  1.00  0.00     0.045 C 
HETATM   49  C25 UNL     1     -19.739  46.175 -24.888  1.00  0.00     0.045 C 
HETATM   50  C26 UNL     1     -17.287  45.729 -24.608  1.00  0.00     0.044 C 
ENDBRANCH  37  43
ENDBRANCH  35  37
ENDBRANCH  32  33
BRANCH  32  51
HETATM   51  C27 UNL     1     -16.526  46.252 -20.541  1.00  0.00     0.009 C 
HETATM   52  C28 UNL     1     -15.966  45.064 -19.753  1.00  0.00     0.012 C 
HETATM   53  C29 UNL     1     -17.564  46.991 -19.689  1.00  0.00     0.012 C 
ENDBRANCH  32  51
ENDBRANCH  30  32
ENDBRANCH  27  28
ENDBRANCH  26  27
ENDBRANCH  13  26
TORSDOF 12
ENDMDL
MODEL 7
REMARK minimizedAffinity -8.82799625
REMARK CNNscore 0.255059093
REMARK CNNaffinity 6.78631544
REMARK  12 active torsions:
REMARK  status: ('A' for Active; 'I' for Inactive)
REMARK    1  A    between atoms: C3_3  and  O1_4 
REMARK    2  A    between atoms: N1_14  and  O2_16 
REMARK    3  A    between atoms: O2_16  and  C13_17 
REMARK    4  A    between atoms: C13_17  and  C14_18 
REMARK       I    between atoms: C14_18  and  N2_20 
REMARK    5  A    between atoms: N2_20  and  C15_21 
REMARK    6  A    between atoms: C15_21  and  C16_22 
REMARK    7  A    between atoms: C15_21  and  C27_38 
REMARK       I    between atoms: C16_22  and  N3_24 
REMARK    8  A    between atoms: N3_24  and  C17_25 
REMARK    9  A    between atoms: C17_25  and  C18_26 
REMARK   10  A    between atoms: C17_25  and  C20_30 
REMARK   11  A    between atoms: C18_26  and  C19_27 
REMARK   12  A    between atoms: C19_27  and  O6_29 
ROOT
HETATM    1  C1  UNL     1      -0.708  51.430 -27.083  1.00  0.00     0.015 C 
HETATM    2  C2  UNL     1      -1.461  51.529 -26.152  1.00  0.00    -0.078 C 
HETATM    3  C3  UNL     1      -2.381  51.672 -25.013  1.00  0.00     0.128 C 
HETATM    4  C4  UNL     1      -3.774  52.134 -25.451  1.00  0.00     0.052 C 
HETATM    5  C5  UNL     1      -4.620  51.902 -24.204  1.00  0.00     0.010 C 
HETATM    6  C6  UNL     1      -4.091  50.583 -23.622  1.00  0.00     0.002 C 
HETATM    7  C7  UNL     1      -4.210  50.416 -22.091  1.00  0.00    -0.004 C 
HETATM    8  C8  UNL     1      -3.780  51.609 -21.212  1.00  0.00     0.010 C 
HETATM    9  C9  UNL     1      -2.917  51.287 -19.981  1.00  0.00     0.035 C 
HETATM   10  C10 UNL     1      -3.140  49.954 -19.303  1.00  0.00    -0.069 C 
HETATM   11  C11 UNL     1      -2.703  49.763 -18.044  1.00  0.00     0.030 C 
HETATM   12  C12 UNL     1      -2.818  48.439 -17.359  1.00  0.00     0.032 C 
HETATM   13  N1  UNL     1      -2.607  48.215 -16.095  1.00  0.00    -0.271 N 
ATOM     14  H1  UNL     1      -2.708  47.300 -15.655  1.00  0.00     0.194 HD
HETATM   15  C30 UNL     1      -3.240  47.234 -18.186  1.00  0.00     0.060 C 
HETATM   16  C31 UNL     1      -3.157  47.482 -19.690  1.00  0.00     0.020 C 
HETATM   17  C32 UNL     1      -3.775  48.839 -20.116  1.00  0.00    -0.016 C 
HETATM   18  C33 UNL     1      -5.296  48.813 -19.801  1.00  0.00     0.020 C 
HETATM   19  C34 UNL     1      -3.550  49.090 -21.650  1.00  0.00     0.002 C 
HETATM   20  C35 UNL     1      -2.066  49.003 -22.105  1.00  0.00     0.007 C 
HETATM   21  C36 UNL     1      -1.628  50.070 -23.117  1.00  0.00     0.014 C 
HETATM   22  C37 UNL     1      -2.665  50.353 -24.219  1.00  0.00     0.003 C 
HETATM   23  C38 UNL     1      -2.737  49.117 -25.159  1.00  0.00     0.020 C 
ENDROOT
BRANCH   3  24
HETATM   24  O1  UNL     1      -1.854  52.679 -24.146  1.00  0.00    -0.377 OA
HETATM   25  H2  UNL     1      -1.633  53.445 -24.701  1.00  0.00     0.211 HD
ENDBRANCH   3  24
BRANCH  13  26
HETATM   26  O2  UNL     1      -2.225  49.378 -15.404  1.00  0.00    -0.271 OA
BRANCH  26  27
HETATM   27  C13 UNL     1      -0.937  49.186 -14.842  1.00  0.00     0.303 C 
BRANCH  27  28
HETATM   28  C14 UNL     1      -0.048  50.431 -14.876  1.00  0.00     0.244 C 
HETATM   29  O3  UNL     1      -0.028  51.247 -15.798  1.00  0.00    -0.271 OA
HETATM   30  N2  UNL     1       0.746  50.561 -13.744  1.00  0.00    -0.346 N 
HETATM   31  H16 UNL     1       0.428  50.073 -12.913  1.00  0.00     0.163 HD
BRANCH  30  32
HETATM   32  C15 UNL     1       1.495  51.790 -13.481  1.00  0.00     0.180 C 
BRANCH  32  33
HETATM   33  C16 UNL     1       1.186  52.188 -12.020  1.00  0.00     0.241 C 
HETATM   34  O4  UNL     1       1.042  51.344 -11.136  1.00  0.00    -0.271 OA
HETATM   35  N3  UNL     1       1.142  53.545 -11.785  1.00  0.00    -0.354 N 
HETATM   36  H18 UNL     1       1.230  54.176 -12.572  1.00  0.00     0.162 HD
BRANCH  35  37
HETATM   37  C17 UNL     1       0.980  54.118 -10.439  1.00  0.00     0.098 C 
BRANCH  37  38
HETATM   38  C18 UNL     1      -0.372  54.834 -10.375  1.00  0.00     0.135 C 
BRANCH  38  39
HETATM   39  C19 UNL     1      -1.559  53.920 -10.331  1.00  0.00     0.141 C 
HETATM   40  O5  UNL     1      -2.657  54.160 -10.804  1.00  0.00    -0.650 OA
BRANCH  39  41
HETATM   41  O6  UNL     1      -1.305  52.728  -9.767  1.00  0.00    -0.776 OA
HETATM   42  H22 UNL     1      -2.145  52.229  -9.860  1.00  0.00     0.167 HD
ENDBRANCH  39  41
ENDBRANCH  38  39
ENDBRANCH  37  38
BRANCH  37  43
HETATM   43  C20 UNL     1       2.248  54.959 -10.119  1.00  0.00     0.014 C 
HETATM   44  C21 UNL     1       3.470  54.568 -10.959  1.00  0.00     0.033 C 
HETATM   45  C22 UNL     1       4.644  55.487 -10.644  1.00  0.00     0.169 C 
HETATM   46  O7  UNL     1       4.963  55.459  -9.255  1.00  0.00    -0.381 OA
HETATM   47  C23 UNL     1       3.898  55.831  -8.367  1.00  0.00     0.054 C 
HETATM   48  C24 UNL     1       3.599  57.333  -8.472  1.00  0.00     0.045 C 
HETATM   49  C25 UNL     1       4.414  55.544  -6.949  1.00  0.00     0.045 C 
HETATM   50  C26 UNL     1       2.649  54.962  -8.634  1.00  0.00     0.044 C 
ENDBRANCH  37  43
ENDBRANCH  35  37
ENDBRANCH  32  33
BRANCH  32  51
HETATM   51  C27 UNL     1       3.005  51.580 -13.746  1.00  0.00     0.009 C 
HETATM   52  C28 UNL     1       3.446  50.141 -13.463  1.00  0.00     0.012 C 
HETATM   53  C29 UNL     1       3.446  51.984 -15.157  1.00  0.00     0.012 C 
ENDBRANCH  32  51
ENDBRANCH  30  32
ENDBRANCH  27  28
ENDBRANCH  26  27
ENDBRANCH  13  26
TORSDOF 12
ENDMDL
MODEL 8
REMARK minimizedAffinity -9.05732822
REMARK CNNscore 0.212582171
REMARK CNNaffinity 7.02409744
REMARK  12 active torsions:
REMARK  status: ('A' for Active; 'I' for Inactive)
REMARK    1  A    between atoms: C3_3  and  O1_4 
REMARK    2  A    between atoms: N1_14  and  O2_16 
REMARK    3  A    between atoms: O2_16  and  C13_17 
REMARK    4  A    between atoms: C13_17  and  C14_18 
REMARK       I    between atoms: C14_18  and  N2_20 
REMARK    5  A    between atoms: N2_20  and  C15_21 
REMARK    6  A    between atoms: C15_21  and  C16_22 
REMARK    7  A    between atoms: C15_21  and  C27_38 
REMARK       I    between atoms: C16_22  and  N3_24 
REMARK    8  A    between atoms: N3_24  and  C17_25 
REMARK    9  A    between atoms: C17_25  and  C18_26 
REMARK   10  A    between atoms: C17_25  and  C20_30 
REMARK   11  A    between atoms: C18_26  and  C19_27 
REMARK   12  A    between atoms: C19_27  and  O6_29 
ROOT
HETATM    1  C1  UNL     1      -2.733  48.638 -26.174  1.00  0.00     0.015 C 
HETATM    2  C2  UNL     1      -2.834  49.341 -25.205  1.00  0.00    -0.078 C 
HETATM    3  C3  UNL     1      -2.953  50.220 -24.032  1.00  0.00     0.128 C 
HETATM    4  C4  UNL     1      -4.310  50.928 -23.978  1.00  0.00     0.052 C 
HETATM    5  C5  UNL     1      -4.341  51.502 -22.565  1.00  0.00     0.010 C 
HETATM    6  C6  UNL     1      -3.694  50.413 -21.696  1.00  0.00     0.002 C 
HETATM    7  C7  UNL     1      -2.960  50.901 -20.426  1.00  0.00    -0.004 C 
HETATM    8  C8  UNL     1      -2.015  52.112 -20.575  1.00  0.00     0.010 C 
HETATM    9  C9  UNL     1      -0.646  52.010 -19.882  1.00  0.00     0.035 C 
HETATM   10  C10 UNL     1      -0.571  51.208 -18.603  1.00  0.00    -0.069 C 
HETATM   11  C11 UNL     1       0.471  51.377 -17.767  1.00  0.00     0.030 C 
HETATM   12  C12 UNL     1       0.641  50.547 -16.535  1.00  0.00     0.032 C 
HETATM   13  N1  UNL     1       1.496  50.769 -15.579  1.00  0.00    -0.271 N 
ATOM     14  H1  UNL     1       1.577  50.190 -14.743  1.00  0.00     0.194 HD
HETATM   15  C30 UNL     1      -0.271  49.344 -16.346  1.00  0.00     0.060 C 
HETATM   16  C31 UNL     1      -1.012  48.949 -17.620  1.00  0.00     0.020 C 
HETATM   17  C32 UNL     1      -1.643  50.160 -18.355  1.00  0.00    -0.016 C 
HETATM   18  C33 UNL     1      -2.731  50.785 -17.439  1.00  0.00     0.020 C 
HETATM   19  C34 UNL     1      -2.284  49.707 -19.715  1.00  0.00     0.002 C 
HETATM   20  C35 UNL     1      -1.313  48.944 -20.661  1.00  0.00     0.007 C 
HETATM   21  C36 UNL     1      -1.419  49.318 -22.145  1.00  0.00     0.014 C 
HETATM   22  C37 UNL     1      -2.863  49.494 -22.647  1.00  0.00     0.003 C 
HETATM   23  C38 UNL     1      -3.549  48.100 -22.680  1.00  0.00     0.020 C 
ENDROOT
BRANCH   3  24
HETATM   24  O1  UNL     1      -1.950  51.233 -24.136  1.00  0.00    -0.377 OA
HETATM   25  H2  UNL     1      -2.008  51.599 -25.035  1.00  0.00     0.211 HD
ENDBRANCH   3  24
BRANCH  13  26
HETATM   26  O2  UNL     1       2.294  51.898 -15.830  1.00  0.00    -0.271 OA
BRANCH  26  27
HETATM   27  C13 UNL     1       3.257  52.028 -14.796  1.00  0.00     0.303 C 
BRANCH  27  28
HETATM   28  C14 UNL     1       2.812  51.452 -13.450  1.00  0.00     0.244 C 
HETATM   29  O3  UNL     1       3.079  50.316 -13.058  1.00  0.00    -0.271 OA
HETATM   30  N2  UNL     1       2.069  52.351 -12.695  1.00  0.00    -0.346 N 
HETATM   31  H16 UNL     1       2.192  53.333 -12.916  1.00  0.00     0.163 HD
BRANCH  30  32
HETATM   32  C15 UNL     1       1.743  52.075 -11.296  1.00  0.00     0.180 C 
BRANCH  32  33
HETATM   33  C16 UNL     1       2.414  53.190 -10.461  1.00  0.00     0.241 C 
HETATM   34  O4  UNL     1       2.933  52.958  -9.370  1.00  0.00    -0.271 OA
HETATM   35  N3  UNL     1       2.430  54.432 -11.058  1.00  0.00    -0.354 N 
HETATM   36  H18 UNL     1       1.946  54.552 -11.939  1.00  0.00     0.162 HD
BRANCH  35  37
HETATM   37  C17 UNL     1       3.127  55.590 -10.475  1.00  0.00     0.098 C 
BRANCH  37  38
HETATM   38  C18 UNL     1       4.624  55.456 -10.771  1.00  0.00     0.135 C 
BRANCH  38  39
HETATM   39  C19 UNL     1       5.444  54.957  -9.621  1.00  0.00     0.141 C 
HETATM   40  O5  UNL     1       5.917  55.648  -8.734  1.00  0.00    -0.650 OA
BRANCH  39  41
HETATM   41  O6  UNL     1       5.575  53.621  -9.587  1.00  0.00    -0.776 OA
HETATM   42  H22 UNL     1       6.079  53.444  -8.763  1.00  0.00     0.167 HD
ENDBRANCH  39  41
ENDBRANCH  38  39
ENDBRANCH  37  38
BRANCH  37  43
HETATM   43  C20 UNL     1       2.702  55.704  -8.984  1.00  0.00     0.014 C 
HETATM   44  C21 UNL     1       1.193  55.551  -8.763  1.00  0.00     0.033 C 
HETATM   45  C22 UNL     1       0.869  55.596  -7.275  1.00  0.00     0.169 C 
HETATM   46  O7  UNL     1       1.341  56.802  -6.680  1.00  0.00    -0.381 OA
HETATM   47  C23 UNL     1       2.750  57.044  -6.804  1.00  0.00     0.054 C 
HETATM   48  C24 UNL     1       3.550  56.066  -5.930  1.00  0.00     0.045 C 
HETATM   49  C25 UNL     1       2.982  58.465  -6.266  1.00  0.00     0.045 C 
HETATM   50  C26 UNL     1       3.177  56.991  -8.287  1.00  0.00     0.044 C 
ENDBRANCH  37  43
ENDBRANCH  35  37
ENDBRANCH  32  33
BRANCH  32  51
HETATM   51  C27 UNL     1       0.211  52.004 -11.092  1.00  0.00     0.009 C 
HETATM   52  C28 UNL     1      -0.163  51.479  -9.702  1.00  0.00     0.012 C 
HETATM   53  C29 UNL     1      -0.509  53.333 -11.350  1.00  0.00     0.012 C 
ENDBRANCH  32  51
ENDBRANCH  30  32
ENDBRANCH  27  28
ENDBRANCH  26  27
ENDBRANCH  13  26
TORSDOF 12
ENDMDL
MODEL 9
REMARK minimizedAffinity -10.5350304
REMARK CNNscore 0.195021763
REMARK CNNaffinity 6.89728689
REMARK  12 active torsions:
REMARK  status: ('A' for Active; 'I' for Inactive)
REMARK    1  A    between atoms: C3_3  and  O1_4 
REMARK    2  A    between atoms: N1_14  and  O2_16 
REMARK    3  A    between atoms: O2_16  and  C13_17 
REMARK    4  A    between atoms: C13_17  and  C14_18 
REMARK       I    between atoms: C14_18  and  N2_20 
REMARK    5  A    between atoms: N2_20  and  C15_21 
REMARK    6  A    between atoms: C15_21  and  C16_22 
REMARK    7  A    between atoms: C15_21  and  C27_38 
REMARK       I    between atoms: C16_22  and  N3_24 
REMARK    8  A    between atoms: N3_24  and  C17_25 
REMARK    9  A    between atoms: C17_25  and  C18_26 
REMARK   10  A    between atoms: C17_25  and  C20_30 
REMARK   11  A    between atoms: C18_26  and  C19_27 
REMARK   12  A    between atoms: C19_27  and  O6_29 
ROOT
HETATM    1  C1  UNL     1     -10.663  41.542 -35.190  1.00  0.00     0.015 C 
HETATM    2  C2  UNL     1     -10.123  42.602 -35.026  1.00  0.00    -0.078 C 
HETATM    3  C3  UNL     1      -9.445  43.895 -34.841  1.00  0.00     0.128 C 
HETATM    4  C4  UNL     1      -9.832  44.907 -35.924  1.00  0.00     0.052 C 
HETATM    5  C5  UNL     1      -9.296  46.223 -35.369  1.00  0.00     0.010 C 
HETATM    6  C6  UNL     1      -9.578  46.146 -33.861  1.00  0.00     0.002 C 
HETATM    7  C7  UNL     1      -8.606  46.922 -32.944  1.00  0.00    -0.004 C 
HETATM    8  C8  UNL     1      -7.096  46.771 -33.224  1.00  0.00     0.010 C 
HETATM    9  C9  UNL     1      -6.184  46.554 -32.005  1.00  0.00     0.035 C 
HETATM   10  C10 UNL     1      -6.601  47.195 -30.701  1.00  0.00    -0.069 C 
HETATM   11  C11 UNL     1      -5.696  47.359 -29.716  1.00  0.00     0.030 C 
HETATM   12  C12 UNL     1      -6.075  47.904 -28.377  1.00  0.00     0.032 C 
HETATM   13  N1  UNL     1      -5.246  48.277 -27.445  1.00  0.00    -0.271 N 
ATOM     14  H1  UNL     1      -5.537  48.659 -26.545  1.00  0.00     0.194 HD
HETATM   15  C30 UNL     1      -7.553  48.071 -28.058  1.00  0.00     0.060 C 
HETATM   16  C31 UNL     1      -8.462  47.330 -29.034  1.00  0.00     0.020 C 
HETATM   17  C32 UNL     1      -8.067  47.548 -30.517  1.00  0.00    -0.016 C 
HETATM   18  C33 UNL     1      -8.252  49.052 -30.864  1.00  0.00     0.020 C 
HETATM   19  C34 UNL     1      -8.960  46.667 -31.462  1.00  0.00     0.002 C 
HETATM   20  C35 UNL     1      -8.959  45.151 -31.118  1.00  0.00     0.007 C 
HETATM   21  C36 UNL     1      -8.897  44.206 -32.325  1.00  0.00     0.014 C 
HETATM   22  C37 UNL     1      -9.786  44.638 -33.506  1.00  0.00     0.003 C 
HETATM   23  C38 UNL     1     -11.274  44.446 -33.101  1.00  0.00     0.020 C 
ENDROOT
BRANCH   3  24
HETATM   24  O1  UNL     1      -8.038  43.674 -34.951  1.00  0.00    -0.377 OA
HETATM   25  H2  UNL     1      -7.893  43.152 -35.758  1.00  0.00     0.211 HD
ENDBRANCH   3  24
BRANCH  13  26
HETATM   26  O2  UNL     1      -3.905  48.093 -27.821  1.00  0.00    -0.271 OA
BRANCH  26  27
HETATM   27  C13 UNL     1      -3.061  48.674 -26.839  1.00  0.00     0.303 C 
BRANCH  27  28
HETATM   28  C14 UNL     1      -2.621  50.104 -27.160  1.00  0.00     0.244 C 
HETATM   29  O3  UNL     1      -3.080  50.783 -28.079  1.00  0.00    -0.271 OA
HETATM   30  N2  UNL     1      -1.641  50.577 -26.296  1.00  0.00    -0.346 N 
HETATM   31  H16 UNL     1      -1.579  50.119 -25.393  1.00  0.00     0.163 HD
BRANCH  30  32
HETATM   32  C15 UNL     1      -1.251  51.987 -26.293  1.00  0.00     0.180 C 
BRANCH  32  33
HETATM   33  C16 UNL     1      -1.386  52.476 -24.832  1.00  0.00     0.241 C 
HETATM   34  O4  UNL     1      -2.296  53.227 -24.483  1.00  0.00    -0.271 OA
HETATM   35  N3  UNL     1      -0.451  51.964 -23.960  1.00  0.00    -0.354 N 
HETATM   36  H18 UNL     1       0.291  51.384 -24.331  1.00  0.00     0.162 HD
BRANCH  35  37
HETATM   37  C17 UNL     1      -0.487  52.217 -22.510  1.00  0.00     0.098 C 
BRANCH  37  38
HETATM   38  C18 UNL     1       0.930  52.559 -22.041  1.00  0.00     0.135 C 
BRANCH  38  39
HETATM   39  C19 UNL     1       1.018  53.762 -21.152  1.00  0.00     0.141 C 
HETATM   40  O5  UNL     1       0.291  53.996 -20.201  1.00  0.00    -0.650 OA
BRANCH  39  41
HETATM   41  O6  UNL     1       2.046  54.576 -21.441  1.00  0.00    -0.776 OA
HETATM   42  H22 UNL     1       2.007  55.275 -20.752  1.00  0.00     0.167 HD
ENDBRANCH  39  41
ENDBRANCH  38  39
ENDBRANCH  37  38
BRANCH  37  43
HETATM   43  C20 UNL     1      -1.192  51.009 -21.830  1.00  0.00     0.014 C 
HETATM   44  C21 UNL     1      -2.690  51.230 -21.590  1.00  0.00     0.033 C 
HETATM   45  C22 UNL     1      -3.320  49.977 -20.996  1.00  0.00     0.169 C 
HETATM   46  O7  UNL     1      -2.671  49.597 -19.785  1.00  0.00    -0.381 OA
HETATM   47  C23 UNL     1      -1.263  49.340 -19.891  1.00  0.00     0.054 C 
HETATM   48  C24 UNL     1      -1.001  48.044 -20.672  1.00  0.00     0.045 C 
HETATM   49  C25 UNL     1      -0.762  49.141 -18.452  1.00  0.00     0.045 C 
HETATM   50  C26 UNL     1      -0.541  50.556 -20.512  1.00  0.00     0.044 C 
ENDBRANCH  37  43
ENDBRANCH  35  37
ENDBRANCH  32  33
BRANCH  32  51
HETATM   51  C27 UNL     1       0.177  52.163 -26.862  1.00  0.00     0.009 C 
HETATM   52  C28 UNL     1       0.965  50.849 -26.857  1.00  0.00     0.012 C 
HETATM   53  C29 UNL     1       0.211  52.777 -28.265  1.00  0.00     0.012 C 
ENDBRANCH  32  51
ENDBRANCH  30  32
ENDBRANCH  27  28
ENDBRANCH  26  27
ENDBRANCH  13  26
TORSDOF 12
ENDMDL
