MODEL 1
REMARK minimizedAffinity -8.7743578
REMARK CNNscore 0.641442358
REMARK CNNaffinity 7.21540976
REMARK  18 active torsions:
REMARK  status: ('A' for Active; 'I' for Inactive)
REMARK    1  A    between atoms: C19_20  and  O2_21 
REMARK    2  A    between atoms: C19_20  and  C20_22 
REMARK    3  A    between atoms: C20_22  and  C21_24 
REMARK    4  A    between atoms: C21_24  and  O4_25 
REMARK    5  A    between atoms: O4_25  and  C22_26 
REMARK    6  A    between atoms: C22_26  and  C23_28 
REMARK    7  A    between atoms: C23_28  and  C24_29 
REMARK    8  A    between atoms: C24_29  and  C25_30 
REMARK       I    between atoms: C25_30  and  N1_32 
REMARK    9  A    between atoms: N1_32  and  C26_33 
REMARK   10  A    between atoms: C26_33  and  C27_34 
REMARK   11  A    between atoms: C27_34  and  C28_35 
REMARK   12  A    between atoms: C28_35  and  C29_36 
REMARK   13  A    between atoms: C29_36  and  C30_37 
REMARK   14  A    between atoms: C30_37  and  C31_38 
REMARK       I    between atoms: C31_38  and  N2_40 
REMARK   15  A    between atoms: N2_40  and  C32_41 
REMARK   16  A    between atoms: C32_41  and  C33_42 
REMARK   17  A    between atoms: C36_45  and  C37_46 
REMARK   18  A    between atoms: C37_46  and  O9_48 
ROOT
HETATM    1  C22 UNL     1      -6.662  47.803 -28.909  1.00  0.00     0.259 C 
HETATM    2  O5  UNL     1      -5.630  47.997 -29.535  1.00  0.00    -0.265 OA
ENDROOT
BRANCH   1   3
HETATM    3  O4  UNL     1      -6.732  47.666 -27.556  1.00  0.00    -0.314 OA
BRANCH   3   4
HETATM    4  C21 UNL     1      -5.537  48.011 -26.854  1.00  0.00     0.260 C 
BRANCH   4   5
HETATM    5  C20 UNL     1      -5.721  48.158 -25.344  1.00  0.00     0.185 C 
HETATM    6  O3  UNL     1      -6.574  47.484 -24.767  1.00  0.00    -0.292 OA
BRANCH   5   7
HETATM    7  C19 UNL     1      -4.779  49.150 -24.615  1.00  0.00     0.128 C 
HETATM    8  C14 UNL     1      -3.429  49.505 -25.335  1.00  0.00    -0.002 C 
HETATM    9  C13 UNL     1      -3.539  50.539 -26.482  1.00  0.00     0.013 C 
HETATM   10  C15 UNL     1      -2.679  48.232 -25.822  1.00  0.00     0.019 C 
HETATM   11  C16 UNL     1      -2.693  50.176 -24.155  1.00  0.00     0.002 C 
HETATM   12  C12 UNL     1      -2.447  51.640 -26.456  1.00  0.00     0.007 C 
HETATM   13  C11 UNL     1      -1.091  51.119 -25.935  1.00  0.00     0.002 C 
HETATM   14  C2  UNL     1       0.179  52.018 -26.179  1.00  0.00    -0.016 C 
HETATM   15  C10 UNL     1      -1.245  50.632 -24.444  1.00  0.00    -0.004 C 
HETATM   16  C1  UNL     1       1.422  51.077 -26.166  1.00  0.00     0.020 C 
HETATM   17  C3  UNL     1       0.210  52.695 -27.583  1.00  0.00     0.022 C 
HETATM   18  C7  UNL     1       0.326  53.042 -25.062  1.00  0.00    -0.068 C 
HETATM   19  C4  UNL     1      -0.437  54.072 -27.655  1.00  0.00     0.084 C 
HETATM   20  C5  UNL     1       0.110  54.970 -26.578  1.00  0.00     0.149 C 
HETATM   21  O1  UNL     1       0.281  56.175 -26.745  1.00  0.00    -0.293 OA
HETATM   22  C6  UNL     1       0.343  54.372 -25.245  1.00  0.00     0.053 C 
HETATM   23  C8  UNL     1       0.407  52.467 -23.675  1.00  0.00     0.035 C 
HETATM   24  C9  UNL     1      -0.876  51.703 -23.388  1.00  0.00     0.010 C 
HETATM   25  C17 UNL     1      -2.910  49.213 -22.987  1.00  0.00     0.009 C 
HETATM   26  C18 UNL     1      -4.299  48.593 -23.248  1.00  0.00     0.047 C 
BRANCH   7  27
HETATM   27  O2  UNL     1      -5.501  50.370 -24.370  1.00  0.00    -0.381 OA
HETATM   28  H27 UNL     1      -6.117  50.223 -23.628  1.00  0.00     0.211 HD
ENDBRANCH   7  27
ENDBRANCH   5   7
ENDBRANCH   4   5
ENDBRANCH   3   4
ENDBRANCH   1   3
BRANCH   1  29
HETATM   29  C23 UNL     1      -8.003  47.586 -29.555  1.00  0.00     0.120 C 
BRANCH  29  30
HETATM   30  C24 UNL     1      -9.157  48.133 -28.722  1.00  0.00     0.112 C 
BRANCH  30  31
HETATM   31  C25 UNL     1     -10.492  47.742 -29.320  1.00  0.00     0.217 C 
HETATM   32  O6  UNL     1     -10.726  47.788 -30.520  1.00  0.00    -0.274 OA
HETATM   33  N1  UNL     1     -11.405  47.319 -28.380  1.00  0.00    -0.361 N 
HETATM   34  H34 UNL     1     -11.151  47.309 -27.401  1.00  0.00     0.162 HD
BRANCH  33  35
HETATM   35  C26 UNL     1     -12.760  46.950 -28.739  1.00  0.00     0.122 C 
BRANCH  35  36
HETATM   36  C27 UNL     1     -12.853  45.570 -29.393  1.00  0.00     0.020 C 
BRANCH  36  37
HETATM   37  C28 UNL     1     -13.719  44.555 -28.635  1.00  0.00     0.002 C 
BRANCH  37  38
HETATM   38  C29 UNL     1     -14.990  45.145 -28.020  1.00  0.00     0.009 C 
BRANCH  38  39
HETATM   39  C30 UNL     1     -15.503  44.326 -26.836  1.00  0.00     0.103 C 
BRANCH  39  40
HETATM   40  C31 UNL     1     -15.236  44.976 -25.488  1.00  0.00     0.217 C 
HETATM   41  O7  UNL     1     -14.685  44.408 -24.552  1.00  0.00    -0.274 OA
HETATM   42  N2  UNL     1     -15.682  46.280 -25.436  1.00  0.00    -0.357 N 
HETATM   43  H45 UNL     1     -15.944  46.740 -26.297  1.00  0.00     0.162 HD
BRANCH  42  44
HETATM   44  C32 UNL     1     -15.466  47.109 -24.272  1.00  0.00     0.161 C 
BRANCH  44  45
HETATM   45  C33 UNL     1     -16.425  46.758 -23.163  1.00  0.00    -0.040 A 
HETATM   46  C34 UNL     1     -17.793  46.589 -23.422  1.00  0.00     0.010 A 
HETATM   47  C35 UNL     1     -18.675  46.275 -22.384  1.00  0.00     0.019 A 
HETATM   48  C36 UNL     1     -18.201  46.129 -21.073  1.00  0.00     0.037 A 
HETATM   49  C38 UNL     1     -16.839  46.305 -20.808  1.00  0.00     0.019 A 
HETATM   50  C39 UNL     1     -15.959  46.625 -21.846  1.00  0.00     0.010 A 
BRANCH  48  51
HETATM   51  C37 UNL     1     -19.174  45.792 -20.006  1.00  0.00     0.176 C 
HETATM   52  O8  UNL     1     -19.791  46.593 -19.329  1.00  0.00    -0.646 OA
BRANCH  51  53
HETATM   53  O9  UNL     1     -19.335  44.467 -19.845  1.00  0.00    -0.773 OA
HETATM   54  H50 UNL     1     -19.996  44.397 -19.125  1.00  0.00     0.167 HD
ENDBRANCH  51  53
ENDBRANCH  48  51
ENDBRANCH  44  45
ENDBRANCH  42  44
ENDBRANCH  39  40
ENDBRANCH  38  39
ENDBRANCH  37  38
ENDBRANCH  36  37
ENDBRANCH  35  36
ENDBRANCH  33  35
ENDBRANCH  30  31
ENDBRANCH  29  30
ENDBRANCH   1  29
TORSDOF 18
ENDMDL
MODEL 2
REMARK minimizedAffinity -8.47689533
REMARK CNNscore 0.62731868
REMARK CNNaffinity 7.02432632
REMARK  18 active torsions:
REMARK  status: ('A' for Active; 'I' for Inactive)
REMARK    1  A    between atoms: C19_20  and  O2_21 
REMARK    2  A    between atoms: C19_20  and  C20_22 
REMARK    3  A    between atoms: C20_22  and  C21_24 
REMARK    4  A    between atoms: C21_24  and  O4_25 
REMARK    5  A    between atoms: O4_25  and  C22_26 
REMARK    6  A    between atoms: C22_26  and  C23_28 
REMARK    7  A    between atoms: C23_28  and  C24_29 
REMARK    8  A    between atoms: C24_29  and  C25_30 
REMARK       I    between atoms: C25_30  and  N1_32 
REMARK    9  A    between atoms: N1_32  and  C26_33 
REMARK   10  A    between atoms: C26_33  and  C27_34 
REMARK   11  A    between atoms: C27_34  and  C28_35 
REMARK   12  A    between atoms: C28_35  and  C29_36 
REMARK   13  A    between atoms: C29_36  and  C30_37 
REMARK   14  A    between atoms: C30_37  and  C31_38 
REMARK       I    between atoms: C31_38  and  N2_40 
REMARK   15  A    between atoms: N2_40  and  C32_41 
REMARK   16  A    between atoms: C32_41  and  C33_42 
REMARK   17  A    between atoms: C36_45  and  C37_46 
REMARK   18  A    between atoms: C37_46  and  O9_48 
ROOT
HETATM    1  C22 UNL     1      -9.330  47.665 -25.307  1.00  0.00     0.259 C 
HETATM    2  O5  UNL     1     -10.188  47.494 -24.453  1.00  0.00    -0.265 OA
ENDROOT
BRANCH   1   3
HETATM    3  O4  UNL     1      -8.225  48.445 -25.148  1.00  0.00    -0.314 OA
BRANCH   3   4
HETATM    4  C21 UNL     1      -7.032  47.738 -24.809  1.00  0.00     0.260 C 
BRANCH   4   5
HETATM    5  C20 UNL     1      -5.791  48.204 -25.569  1.00  0.00     0.185 C 
HETATM    6  O3  UNL     1      -5.622  47.846 -26.734  1.00  0.00    -0.292 OA
BRANCH   5   7
HETATM    7  C19 UNL     1      -4.817  49.143 -24.813  1.00  0.00     0.128 C 
HETATM    8  C14 UNL     1      -3.478  49.514 -25.546  1.00  0.00    -0.002 C 
HETATM    9  C13 UNL     1      -3.597  50.607 -26.636  1.00  0.00     0.013 C 
HETATM   10  C15 UNL     1      -2.761  48.257 -26.115  1.00  0.00     0.019 C 
HETATM   11  C16 UNL     1      -2.704  50.112 -24.352  1.00  0.00     0.002 C 
HETATM   12  C12 UNL     1      -2.488  51.689 -26.581  1.00  0.00     0.007 C 
HETATM   13  C11 UNL     1      -1.129  51.121 -26.119  1.00  0.00     0.002 C 
HETATM   14  C2  UNL     1       0.149  52.012 -26.348  1.00  0.00    -0.016 C 
HETATM   15  C10 UNL     1      -1.257  50.561 -24.652  1.00  0.00    -0.004 C 
HETATM   16  C1  UNL     1       1.377  51.052 -26.411  1.00  0.00     0.020 C 
HETATM   17  C3  UNL     1       0.160  52.759 -27.716  1.00  0.00     0.022 C 
HETATM   18  C7  UNL     1       0.340  52.975 -25.184  1.00  0.00    -0.068 C 
HETATM   19  C4  UNL     1      -0.466  54.148 -27.702  1.00  0.00     0.084 C 
HETATM   20  C5  UNL     1       0.120  54.981 -26.595  1.00  0.00     0.149 C 
HETATM   21  O1  UNL     1       0.307  56.190 -26.704  1.00  0.00    -0.293 OA
HETATM   22  C6  UNL     1       0.374  54.313 -25.299  1.00  0.00     0.053 C 
HETATM   23  C8  UNL     1       0.443  52.328 -23.830  1.00  0.00     0.035 C 
HETATM   24  C9  UNL     1      -0.846  51.571 -23.552  1.00  0.00     0.010 C 
HETATM   25  C17 UNL     1      -2.910  49.095 -23.229  1.00  0.00     0.009 C 
HETATM   26  C18 UNL     1      -4.314  48.510 -23.488  1.00  0.00     0.047 C 
BRANCH   7  27
HETATM   27  O2  UNL     1      -5.513  50.360 -24.490  1.00  0.00    -0.381 OA
HETATM   28  H27 UNL     1      -6.114  50.185 -23.741  1.00  0.00     0.211 HD
ENDBRANCH   7  27
ENDBRANCH   5   7
ENDBRANCH   4   5
ENDBRANCH   3   4
ENDBRANCH   1   3
BRANCH   1  29
HETATM   29  C23 UNL     1      -9.420  47.114 -26.704  1.00  0.00     0.120 C 
BRANCH  29  30
HETATM   30  C24 UNL     1      -8.767  45.743 -26.843  1.00  0.00     0.112 C 
BRANCH  30  31
HETATM   31  C25 UNL     1      -9.781  44.699 -27.260  1.00  0.00     0.217 C 
HETATM   32  O6  UNL     1     -10.081  43.741 -26.560  1.00  0.00    -0.274 OA
HETATM   33  N1  UNL     1     -10.338  44.946 -28.495  1.00  0.00    -0.361 N 
HETATM   34  H34 UNL     1     -10.043  45.754 -29.026  1.00  0.00     0.162 HD
BRANCH  33  35
HETATM   35  C26 UNL     1     -11.291  44.039 -29.101  1.00  0.00     0.122 C 
BRANCH  35  36
HETATM   36  C27 UNL     1     -12.712  44.210 -28.557  1.00  0.00     0.020 C 
BRANCH  36  37
HETATM   37  C28 UNL     1     -13.357  45.569 -28.855  1.00  0.00     0.002 C 
BRANCH  37  38
HETATM   38  C29 UNL     1     -14.768  45.737 -28.285  1.00  0.00     0.009 C 
BRANCH  38  39
HETATM   39  C30 UNL     1     -15.225  44.517 -27.486  1.00  0.00     0.103 C 
BRANCH  39  40
HETATM   40  C31 UNL     1     -15.522  44.825 -26.027  1.00  0.00     0.217 C 
HETATM   41  O7  UNL     1     -14.889  44.358 -25.086  1.00  0.00    -0.274 OA
HETATM   42  N2  UNL     1     -16.583  45.693 -25.879  1.00  0.00    -0.357 N 
HETATM   43  H45 UNL     1     -16.926  46.187 -26.692  1.00  0.00     0.162 HD
BRANCH  42  44
HETATM   44  C32 UNL     1     -16.991  46.178 -24.580  1.00  0.00     0.161 C 
BRANCH  44  45
HETATM   45  C33 UNL     1     -18.138  45.370 -24.028  1.00  0.00    -0.040 A 
HETATM   46  C34 UNL     1     -18.628  45.606 -22.736  1.00  0.00     0.010 A 
HETATM   47  C35 UNL     1     -19.686  44.844 -22.231  1.00  0.00     0.019 A 
HETATM   48  C36 UNL     1     -20.264  43.833 -23.011  1.00  0.00     0.037 A 
HETATM   49  C38 UNL     1     -19.773  43.587 -24.298  1.00  0.00     0.019 A 
HETATM   50  C39 UNL     1     -18.712  44.347 -24.798  1.00  0.00     0.010 A 
BRANCH  48  51
HETATM   51  C37 UNL     1     -21.385  43.053 -22.434  1.00  0.00     0.176 C 
HETATM   52  O8  UNL     1     -21.775  43.113 -21.282  1.00  0.00    -0.646 OA
BRANCH  51  53
HETATM   53  O9  UNL     1     -21.973  42.241 -23.330  1.00  0.00    -0.773 OA
HETATM   54  H50 UNL     1     -22.685  41.802 -22.818  1.00  0.00     0.167 HD
ENDBRANCH  51  53
ENDBRANCH  48  51
ENDBRANCH  44  45
ENDBRANCH  42  44
ENDBRANCH  39  40
ENDBRANCH  38  39
ENDBRANCH  37  38
ENDBRANCH  36  37
ENDBRANCH  35  36
ENDBRANCH  33  35
ENDBRANCH  30  31
ENDBRANCH  29  30
ENDBRANCH   1  29
TORSDOF 18
ENDMDL
MODEL 3
REMARK minimizedAffinity -8.53290272
REMARK CNNscore 0.59618187
REMARK CNNaffinity 7.33646536
REMARK  18 active torsions:
REMARK  status: ('A' for Active; 'I' for Inactive)
REMARK    1  A    between atoms: C19_20  and  O2_21 
REMARK    2  A    between atoms: C19_20  and  C20_22 
REMARK    3  A    between atoms: C20_22  and  C21_24 
REMARK    4  A    between atoms: C21_24  and  O4_25 
REMARK    5  A    between atoms: O4_25  and  C22_26 
REMARK    6  A    between atoms: C22_26  and  C23_28 
REMARK    7  A    between atoms: C23_28  and  C24_29 
REMARK    8  A    between atoms: C24_29  and  C25_30 
REMARK       I    between atoms: C25_30  and  N1_32 
REMARK    9  A    between atoms: N1_32  and  C26_33 
REMARK   10  A    between atoms: C26_33  and  C27_34 
REMARK   11  A    between atoms: C27_34  and  C28_35 
REMARK   12  A    between atoms: C28_35  and  C29_36 
REMARK   13  A    between atoms: C29_36  and  C30_37 
REMARK   14  A    between atoms: C30_37  and  C31_38 
REMARK       I    between atoms: C31_38  and  N2_40 
REMARK   15  A    between atoms: N2_40  and  C32_41 
REMARK   16  A    between atoms: C32_41  and  C33_42 
REMARK   17  A    between atoms: C36_45  and  C37_46 
REMARK   18  A    between atoms: C37_46  and  O9_48 
ROOT
HETATM    1  C22 UNL     1      -3.201  50.970 -12.764  1.00  0.00     0.259 C 
HETATM    2  O5  UNL     1      -3.785  49.923 -12.525  1.00  0.00    -0.265 OA
ENDROOT
BRANCH   1   3
HETATM    3  O4  UNL     1      -3.478  52.164 -12.172  1.00  0.00    -0.314 OA
BRANCH   3   4
HETATM    4  C21 UNL     1      -3.686  52.102 -10.761  1.00  0.00     0.260 C 
BRANCH   4   5
HETATM    5  C20 UNL     1      -3.031  53.242  -9.982  1.00  0.00     0.185 C 
HETATM    6  O3  UNL     1      -3.596  54.333  -9.912  1.00  0.00    -0.292 OA
BRANCH   5   7
HETATM    7  C19 UNL     1      -1.679  52.933  -9.289  1.00  0.00     0.128 C 
HETATM    8  C14 UNL     1      -0.443  53.794  -9.733  1.00  0.00    -0.002 C 
HETATM    9  C13 UNL     1      -0.368  55.215  -9.122  1.00  0.00     0.013 C 
HETATM   10  C15 UNL     1      -0.309  53.863 -11.281  1.00  0.00     0.019 C 
HETATM   11  C16 UNL     1       0.683  52.944  -9.106  1.00  0.00     0.002 C 
HETATM   12  C12 UNL     1       1.037  55.612  -8.598  1.00  0.00     0.007 C 
HETATM   13  C11 UNL     1       2.177  55.011  -9.447  1.00  0.00     0.002 C 
HETATM   14  C2  UNL     1       3.623  55.603  -9.248  1.00  0.00    -0.016 C 
HETATM   15  C10 UNL     1       2.122  53.438  -9.377  1.00  0.00    -0.004 C 
HETATM   16  C1  UNL     1       4.418  55.335 -10.563  1.00  0.00     0.020 C 
HETATM   17  C3  UNL     1       3.652  57.152  -9.078  1.00  0.00     0.022 C 
HETATM   18  C7  UNL     1       4.330  54.902  -8.096  1.00  0.00    -0.068 C 
HETATM   19  C4  UNL     1       3.551  57.651  -7.642  1.00  0.00     0.084 C 
HETATM   20  C5  UNL     1       4.569  56.964  -6.772  1.00  0.00     0.149 C 
HETATM   21  O1  UNL     1       5.137  57.533  -5.843  1.00  0.00    -0.293 OA
HETATM   22  C6  UNL     1       4.799  55.520  -7.000  1.00  0.00     0.053 C 
HETATM   23  C8  UNL     1       4.438  53.408  -8.228  1.00  0.00     0.035 C 
HETATM   24  C9  UNL     1       3.037  52.821  -8.291  1.00  0.00     0.010 C 
HETATM   25  C17 UNL     1       0.339  51.512  -9.518  1.00  0.00     0.009 C 
HETATM   26  C18 UNL     1      -1.202  51.484  -9.572  1.00  0.00     0.047 C 
BRANCH   7  27
HETATM   27  O2  UNL     1      -1.850  53.077  -7.868  1.00  0.00    -0.381 OA
HETATM   28  H27 UNL     1      -2.335  52.300  -7.533  1.00  0.00     0.211 HD
ENDBRANCH   7  27
ENDBRANCH   5   7
ENDBRANCH   4   5
ENDBRANCH   3   4
ENDBRANCH   1   3
BRANCH   1  29
HETATM   29  C23 UNL     1      -2.148  51.115 -13.830  1.00  0.00     0.120 C 
BRANCH  29  30
HETATM   30  C24 UNL     1      -0.738  50.860 -13.308  1.00  0.00     0.112 C 
BRANCH  30  31
HETATM   31  C25 UNL     1       0.200  50.489 -14.437  1.00  0.00     0.217 C 
HETATM   32  O6  UNL     1       1.388  50.249 -14.268  1.00  0.00    -0.274 OA
HETATM   33  N1  UNL     1      -0.422  50.435 -15.664  1.00  0.00    -0.361 N 
HETATM   34  H34 UNL     1      -1.408  50.649 -15.737  1.00  0.00     0.162 HD
BRANCH  33  35
HETATM   35  C26 UNL     1       0.308  50.150 -16.882  1.00  0.00     0.122 C 
BRANCH  35  36
HETATM   36  C27 UNL     1       0.036  51.163 -17.998  1.00  0.00     0.020 C 
BRANCH  36  37
HETATM   37  C28 UNL     1       0.748  52.512 -17.830  1.00  0.00     0.002 C 
BRANCH  37  38
HETATM   38  C29 UNL     1       1.367  53.062 -19.117  1.00  0.00     0.009 C 
BRANCH  38  39
HETATM   39  C30 UNL     1       0.324  53.329 -20.201  1.00  0.00     0.103 C 
BRANCH  39  40
HETATM   40  C31 UNL     1       0.929  53.634 -21.562  1.00  0.00     0.217 C 
HETATM   41  O7  UNL     1       1.786  54.490 -21.753  1.00  0.00    -0.274 OA
HETATM   42  N2  UNL     1       0.406  52.839 -22.560  1.00  0.00    -0.357 N 
HETATM   43  H45 UNL     1      -0.144  52.032 -22.302  1.00  0.00     0.162 HD
BRANCH  42  44
HETATM   44  C32 UNL     1       0.892  52.912 -23.919  1.00  0.00     0.161 C 
BRANCH  44  45
HETATM   45  C33 UNL     1      -0.063  52.249 -24.879  1.00  0.00    -0.040 A 
HETATM   46  C34 UNL     1      -1.445  52.256 -24.639  1.00  0.00     0.010 A 
HETATM   47  C35 UNL     1      -2.321  51.629 -25.531  1.00  0.00     0.019 A 
HETATM   48  C36 UNL     1      -1.825  50.983 -26.671  1.00  0.00     0.037 A 
HETATM   49  C38 UNL     1      -0.447  50.964 -26.911  1.00  0.00     0.019 A 
HETATM   50  C39 UNL     1       0.427  51.587 -26.015  1.00  0.00     0.010 A 
BRANCH  48  51
HETATM   51  C37 UNL     1      -2.792  50.334 -27.589  1.00  0.00     0.176 C 
HETATM   52  O8  UNL     1      -3.113  49.160 -27.569  1.00  0.00    -0.646 OA
BRANCH  51  53
HETATM   53  O9  UNL     1      -3.320  51.189 -28.482  1.00  0.00    -0.773 OA
HETATM   54  H50 UNL     1      -3.932  50.632 -29.007  1.00  0.00     0.167 HD
ENDBRANCH  51  53
ENDBRANCH  48  51
ENDBRANCH  44  45
ENDBRANCH  42  44
ENDBRANCH  39  40
ENDBRANCH  38  39
ENDBRANCH  37  38
ENDBRANCH  36  37
ENDBRANCH  35  36
ENDBRANCH  33  35
ENDBRANCH  30  31
ENDBRANCH  29  30
ENDBRANCH   1  29
TORSDOF 18
ENDMDL
MODEL 4
REMARK minimizedAffinity -9.20827198
REMARK CNNscore 0.53910321
REMARK CNNaffinity 6.92634964
REMARK  18 active torsions:
REMARK  status: ('A' for Active; 'I' for Inactive)
REMARK    1  A    between atoms: C19_20  and  O2_21 
REMARK    2  A    between atoms: C19_20  and  C20_22 
REMARK    3  A    between atoms: C20_22  and  C21_24 
REMARK    4  A    between atoms: C21_24  and  O4_25 
REMARK    5  A    between atoms: O4_25  and  C22_26 
REMARK    6  A    between atoms: C22_26  and  C23_28 
REMARK    7  A    between atoms: C23_28  and  C24_29 
REMARK    8  A    between atoms: C24_29  and  C25_30 
REMARK       I    between atoms: C25_30  and  N1_32 
REMARK    9  A    between atoms: N1_32  and  C26_33 
REMARK   10  A    between atoms: C26_33  and  C27_34 
REMARK   11  A    between atoms: C27_34  and  C28_35 
REMARK   12  A    between atoms: C28_35  and  C29_36 
REMARK   13  A    between atoms: C29_36  and  C30_37 
REMARK   14  A    between atoms: C30_37  and  C31_38 
REMARK       I    between atoms: C31_38  and  N2_40 
REMARK   15  A    between atoms: N2_40  and  C32_41 
REMARK   16  A    between atoms: C32_41  and  C33_42 
REMARK   17  A    between atoms: C36_45  and  C37_46 
REMARK   18  A    between atoms: C37_46  and  O9_48 
ROOT
HETATM    1  C22 UNL     1      -9.072  48.880 -25.618  1.00  0.00     0.259 C 
HETATM    2  O5  UNL     1      -9.751  49.876 -25.821  1.00  0.00    -0.265 OA
ENDROOT
BRANCH   1   3
HETATM    3  O4  UNL     1      -8.052  48.808 -24.719  1.00  0.00    -0.314 OA
BRANCH   3   4
HETATM    4  C21 UNL     1      -7.109  47.764 -24.961  1.00  0.00     0.260 C 
BRANCH   4   5
HETATM    5  C20 UNL     1      -5.846  48.219 -25.690  1.00  0.00     0.185 C 
HETATM    6  O3  UNL     1      -5.657  47.869 -26.855  1.00  0.00    -0.292 OA
BRANCH   5   7
HETATM    7  C19 UNL     1      -4.875  49.138 -24.906  1.00  0.00     0.128 C 
HETATM    8  C14 UNL     1      -3.522  49.508 -25.613  1.00  0.00    -0.002 C 
HETATM    9  C13 UNL     1      -3.616  50.618 -26.689  1.00  0.00     0.013 C 
HETATM   10  C15 UNL     1      -2.808  48.253 -26.191  1.00  0.00     0.019 C 
HETATM   11  C16 UNL     1      -2.762  50.081 -24.399  1.00  0.00     0.002 C 
HETATM   12  C12 UNL     1      -2.498  51.689 -26.600  1.00  0.00     0.007 C 
HETATM   13  C11 UNL     1      -1.151  51.102 -26.127  1.00  0.00     0.002 C 
HETATM   14  C2  UNL     1       0.138  51.985 -26.323  1.00  0.00    -0.016 C 
HETATM   15  C10 UNL     1      -1.306  50.522 -24.671  1.00  0.00    -0.004 C 
HETATM   16  C1  UNL     1       1.358  51.016 -26.383  1.00  0.00     0.020 C 
HETATM   17  C3  UNL     1       0.176  52.753 -27.679  1.00  0.00     0.022 C 
HETATM   18  C7  UNL     1       0.319  52.929 -25.142  1.00  0.00    -0.068 C 
HETATM   19  C4  UNL     1      -0.438  54.147 -27.654  1.00  0.00     0.084 C 
HETATM   20  C5  UNL     1       0.138  54.958 -26.526  1.00  0.00     0.149 C 
HETATM   21  O1  UNL     1       0.338  56.167 -26.613  1.00  0.00    -0.293 OA
HETATM   22  C6  UNL     1       0.367  54.268 -25.236  1.00  0.00     0.053 C 
HETATM   23  C8  UNL     1       0.397  52.261 -23.796  1.00  0.00     0.035 C 
HETATM   24  C9  UNL     1      -0.902  51.511 -23.549  1.00  0.00     0.010 C 
HETATM   25  C17 UNL     1      -2.993  49.049 -23.295  1.00  0.00     0.009 C 
HETATM   26  C18 UNL     1      -4.398  48.481 -23.584  1.00  0.00     0.047 C 
BRANCH   7  27
HETATM   27  O2  UNL     1      -5.566  50.356 -24.575  1.00  0.00    -0.381 OA
HETATM   28  H27 UNL     1      -6.179  50.175 -23.838  1.00  0.00     0.211 HD
ENDBRANCH   7  27
ENDBRANCH   5   7
ENDBRANCH   4   5
ENDBRANCH   3   4
ENDBRANCH   1   3
BRANCH   1  29
HETATM   29  C23 UNL     1      -9.199  47.607 -26.410  1.00  0.00     0.120 C 
BRANCH  29  30
HETATM   30  C24 UNL     1     -10.399  47.613 -27.351  1.00  0.00     0.112 C 
BRANCH  30  31
HETATM   31  C25 UNL     1     -11.673  47.266 -26.609  1.00  0.00     0.217 C 
HETATM   32  O6  UNL     1     -12.476  48.107 -26.229  1.00  0.00    -0.274 OA
HETATM   33  N1  UNL     1     -11.839  45.912 -26.420  1.00  0.00    -0.361 N 
HETATM   34  H34 UNL     1     -11.134  45.268 -26.754  1.00  0.00     0.162 HD
BRANCH  33  35
HETATM   35  C26 UNL     1     -12.966  45.372 -25.687  1.00  0.00     0.122 C 
BRANCH  35  36
HETATM   36  C27 UNL     1     -13.940  44.590 -26.572  1.00  0.00     0.020 C 
BRANCH  36  37
HETATM   37  C28 UNL     1     -15.001  45.446 -27.274  1.00  0.00     0.002 C 
BRANCH  37  38
HETATM   38  C29 UNL     1     -16.432  45.203 -26.786  1.00  0.00     0.009 C 
BRANCH  38  39
HETATM   39  C30 UNL     1     -16.485  44.299 -25.555  1.00  0.00     0.103 C 
BRANCH  39  40
HETATM   40  C31 UNL     1     -17.617  44.640 -24.600  1.00  0.00     0.217 C 
HETATM   41  O7  UNL     1     -18.784  44.304 -24.774  1.00  0.00    -0.274 OA
HETATM   42  N2  UNL     1     -17.186  45.370 -23.513  1.00  0.00    -0.357 N 
HETATM   43  H45 UNL     1     -16.194  45.440 -23.336  1.00  0.00     0.162 HD
BRANCH  42  44
HETATM   44  C32 UNL     1     -18.085  45.740 -22.443  1.00  0.00     0.161 C 
BRANCH  44  45
HETATM   45  C33 UNL     1     -17.344  46.399 -21.307  1.00  0.00    -0.040 A 
HETATM   46  C34 UNL     1     -18.008  46.744 -20.121  1.00  0.00     0.010 A 
HETATM   47  C35 UNL     1     -17.313  47.364 -19.078  1.00  0.00     0.019 A 
HETATM   48  C36 UNL     1     -15.947  47.650 -19.209  1.00  0.00     0.037 A 
HETATM   49  C38 UNL     1     -15.282  47.315 -20.394  1.00  0.00     0.019 A 
HETATM   50  C39 UNL     1     -15.980  46.700 -21.438  1.00  0.00     0.010 A 
BRANCH  48  51
HETATM   51  C37 UNL     1     -15.252  48.305 -18.076  1.00  0.00     0.176 C 
HETATM   52  O8  UNL     1     -14.759  47.736 -17.119  1.00  0.00    -0.646 OA
BRANCH  51  53
HETATM   53  O9  UNL     1     -15.198  49.643 -18.198  1.00  0.00    -0.773 OA
HETATM   54  H50 UNL     1     -14.716  49.933 -17.395  1.00  0.00     0.167 HD
ENDBRANCH  51  53
ENDBRANCH  48  51
ENDBRANCH  44  45
ENDBRANCH  42  44
ENDBRANCH  39  40
ENDBRANCH  38  39
ENDBRANCH  37  38
ENDBRANCH  36  37
ENDBRANCH  35  36
ENDBRANCH  33  35
ENDBRANCH  30  31
ENDBRANCH  29  30
ENDBRANCH   1  29
TORSDOF 18
ENDMDL
MODEL 5
REMARK minimizedAffinity -8.39320087
REMARK CNNscore 0.34308219
REMARK CNNaffinity 6.86224556
REMARK  18 active torsions:
REMARK  status: ('A' for Active; 'I' for Inactive)
REMARK    1  A    between atoms: C19_20  and  O2_21 
REMARK    2  A    between atoms: C19_20  and  C20_22 
REMARK    3  A    between atoms: C20_22  and  C21_24 
REMARK    4  A    between atoms: C21_24  and  O4_25 
REMARK    5  A    between atoms: O4_25  and  C22_26 
REMARK    6  A    between atoms: C22_26  and  C23_28 
REMARK    7  A    between atoms: C23_28  and  C24_29 
REMARK    8  A    between atoms: C24_29  and  C25_30 
REMARK       I    between atoms: C25_30  and  N1_32 
REMARK    9  A    between atoms: N1_32  and  C26_33 
REMARK   10  A    between atoms: C26_33  and  C27_34 
REMARK   11  A    between atoms: C27_34  and  C28_35 
REMARK   12  A    between atoms: C28_35  and  C29_36 
REMARK   13  A    between atoms: C29_36  and  C30_37 
REMARK   14  A    between atoms: C30_37  and  C31_38 
REMARK       I    between atoms: C31_38  and  N2_40 
REMARK   15  A    between atoms: N2_40  and  C32_41 
REMARK   16  A    between atoms: C32_41  and  C33_42 
REMARK   17  A    between atoms: C36_45  and  C37_46 
REMARK   18  A    between atoms: C37_46  and  O9_48 
ROOT
HETATM    1  C22 UNL     1      -1.701  50.164 -14.378  1.00  0.00     0.259 C 
HETATM    2  O5  UNL     1      -0.686  49.513 -14.175  1.00  0.00    -0.265 OA
ENDROOT
BRANCH   1   3
HETATM    3  O4  UNL     1      -2.620  49.884 -15.343  1.00  0.00    -0.314 OA
BRANCH   3   4
HETATM    4  C21 UNL     1      -2.073  49.415 -16.576  1.00  0.00     0.260 C 
BRANCH   4   5
HETATM    5  C20 UNL     1      -2.406  50.293 -17.781  1.00  0.00     0.185 C 
HETATM    6  O3  UNL     1      -2.697  51.477 -17.609  1.00  0.00    -0.292 OA
BRANCH   5   7
HETATM    7  C19 UNL     1      -2.325  49.627 -19.179  1.00  0.00     0.128 C 
HETATM    8  C14 UNL     1      -2.521  50.565 -20.423  1.00  0.00    -0.002 C 
HETATM    9  C13 UNL     1      -1.287  51.413 -20.818  1.00  0.00     0.013 C 
HETATM   10  C15 UNL     1      -3.776  51.472 -20.274  1.00  0.00     0.019 C 
HETATM   11  C16 UNL     1      -2.729  49.488 -21.509  1.00  0.00     0.002 C 
HETATM   12  C12 UNL     1      -0.981  51.427 -22.338  1.00  0.00     0.007 C 
HETATM   13  C11 UNL     1      -2.260  51.371 -23.200  1.00  0.00     0.002 C 
HETATM   14  C2  UNL     1      -2.126  51.727 -24.728  1.00  0.00    -0.016 C 
HETATM   15  C10 UNL     1      -3.026  50.021 -22.929  1.00  0.00    -0.004 C 
HETATM   16  C1  UNL     1      -3.526  52.210 -25.216  1.00  0.00     0.020 C 
HETATM   17  C3  UNL     1      -1.171  52.925 -25.014  1.00  0.00     0.022 C 
HETATM   18  C7  UNL     1      -1.728  50.493 -25.527  1.00  0.00    -0.068 C 
HETATM   19  C4  UNL     1       0.286  52.552 -25.257  1.00  0.00     0.084 C 
HETATM   20  C5  UNL     1       0.389  51.480 -26.308  1.00  0.00     0.149 C 
HETATM   21  O1  UNL     1       1.313  51.431 -27.116  1.00  0.00    -0.293 OA
HETATM   22  C6  UNL     1      -0.618  50.396 -26.278  1.00  0.00     0.053 C 
HETATM   23  C8  UNL     1      -2.654  49.316 -25.389  1.00  0.00     0.035 C 
HETATM   24  C9  UNL     1      -2.686  48.889 -23.931  1.00  0.00     0.010 C 
HETATM   25  C17 UNL     1      -3.743  48.526 -20.889  1.00  0.00     0.009 C 
HETATM   26  C18 UNL     1      -3.438  48.563 -19.377  1.00  0.00     0.047 C 
BRANCH   7  27
HETATM   27  O2  UNL     1      -1.052  48.968 -19.299  1.00  0.00    -0.381 OA
HETATM   28  H27 UNL     1      -1.078  48.145 -18.776  1.00  0.00     0.211 HD
ENDBRANCH   7  27
ENDBRANCH   5   7
ENDBRANCH   4   5
ENDBRANCH   3   4
ENDBRANCH   1   3
BRANCH   1  29
HETATM   29  C23 UNL     1      -2.035  51.438 -13.651  1.00  0.00     0.120 C 
BRANCH  29  30
HETATM   30  C24 UNL     1      -3.129  51.253 -12.605  1.00  0.00     0.112 C 
BRANCH  30  31
HETATM   31  C25 UNL     1      -3.311  52.510 -11.780  1.00  0.00     0.217 C 
HETATM   32  O6  UNL     1      -4.189  53.333 -12.001  1.00  0.00    -0.274 OA
HETATM   33  N1  UNL     1      -2.400  52.622 -10.754  1.00  0.00    -0.361 N 
HETATM   34  H34 UNL     1      -1.694  51.908 -10.628  1.00  0.00     0.162 HD
BRANCH  33  35
HETATM   35  C26 UNL     1      -2.369  53.777  -9.880  1.00  0.00     0.122 C 
BRANCH  35  36
HETATM   36  C27 UNL     1      -1.709  55.000 -10.522  1.00  0.00     0.020 C 
BRANCH  36  37
HETATM   37  C28 UNL     1      -0.490  55.546  -9.767  1.00  0.00     0.002 C 
BRANCH  37  38
HETATM   38  C29 UNL     1       0.649  54.537  -9.595  1.00  0.00     0.009 C 
BRANCH  38  39
HETATM   39  C30 UNL     1       1.642  54.572 -10.756  1.00  0.00     0.103 C 
BRANCH  39  40
HETATM   40  C31 UNL     1       2.816  55.509 -10.521  1.00  0.00     0.217 C 
HETATM   41  O7  UNL     1       3.078  56.471 -11.236  1.00  0.00    -0.274 OA
HETATM   42  N2  UNL     1       3.554  55.158  -9.410  1.00  0.00    -0.357 N 
HETATM   43  H45 UNL     1       3.171  54.483  -8.764  1.00  0.00     0.162 HD
BRANCH  42  44
HETATM   44  C32 UNL     1       4.673  55.956  -8.961  1.00  0.00     0.161 C 
BRANCH  44  45
HETATM   45  C33 UNL     1       4.316  56.760  -7.737  1.00  0.00    -0.040 A 
HETATM   46  C34 UNL     1       5.265  56.999  -6.732  1.00  0.00     0.010 A 
HETATM   47  C35 UNL     1       4.919  57.738  -5.596  1.00  0.00     0.019 A 
HETATM   48  C36 UNL     1       3.620  58.243  -5.449  1.00  0.00     0.037 A 
HETATM   49  C38 UNL     1       2.668  58.000  -6.444  1.00  0.00     0.019 A 
HETATM   50  C39 UNL     1       3.013  57.257  -7.577  1.00  0.00     0.010 A 
BRANCH  48  51
HETATM   51  C37 UNL     1       3.302  59.023  -4.229  1.00  0.00     0.176 C 
HETATM   52  O8  UNL     1       3.924  59.985  -3.818  1.00  0.00    -0.646 OA
BRANCH  51  53
HETATM   53  O9  UNL     1       2.213  58.566  -3.585  1.00  0.00    -0.773 OA
HETATM   54  H50 UNL     1       2.124  59.169  -2.818  1.00  0.00     0.167 HD
ENDBRANCH  51  53
ENDBRANCH  48  51
ENDBRANCH  44  45
ENDBRANCH  42  44
ENDBRANCH  39  40
ENDBRANCH  38  39
ENDBRANCH  37  38
ENDBRANCH  36  37
ENDBRANCH  35  36
ENDBRANCH  33  35
ENDBRANCH  30  31
ENDBRANCH  29  30
ENDBRANCH   1  29
TORSDOF 18
ENDMDL
MODEL 6
REMARK minimizedAffinity -8.92706776
REMARK CNNscore 0.338960469
REMARK CNNaffinity 6.61113882
REMARK  18 active torsions:
REMARK  status: ('A' for Active; 'I' for Inactive)
REMARK    1  A    between atoms: C19_20  and  O2_21 
REMARK    2  A    between atoms: C19_20  and  C20_22 
REMARK    3  A    between atoms: C20_22  and  C21_24 
REMARK    4  A    between atoms: C21_24  and  O4_25 
REMARK    5  A    between atoms: O4_25  and  C22_26 
REMARK    6  A    between atoms: C22_26  and  C23_28 
REMARK    7  A    between atoms: C23_28  and  C24_29 
REMARK    8  A    between atoms: C24_29  and  C25_30 
REMARK       I    between atoms: C25_30  and  N1_32 
REMARK    9  A    between atoms: N1_32  and  C26_33 
REMARK   10  A    between atoms: C26_33  and  C27_34 
REMARK   11  A    between atoms: C27_34  and  C28_35 
REMARK   12  A    between atoms: C28_35  and  C29_36 
REMARK   13  A    between atoms: C29_36  and  C30_37 
REMARK   14  A    between atoms: C30_37  and  C31_38 
REMARK       I    between atoms: C31_38  and  N2_40 
REMARK   15  A    between atoms: N2_40  and  C32_41 
REMARK   16  A    between atoms: C32_41  and  C33_42 
REMARK   17  A    between atoms: C36_45  and  C37_46 
REMARK   18  A    between atoms: C37_46  and  O9_48 
ROOT
HETATM    1  C22 UNL     1      -2.057  50.663 -15.664  1.00  0.00     0.259 C 
HETATM    2  O5  UNL     1      -0.869  50.533 -15.921  1.00  0.00    -0.265 OA
ENDROOT
BRANCH   1   3
HETATM    3  O4  UNL     1      -2.998  51.091 -16.551  1.00  0.00    -0.314 OA
BRANCH   3   4
HETATM    4  C21 UNL     1      -2.701  50.820 -17.921  1.00  0.00     0.260 C 
BRANCH   4   5
HETATM    5  C20 UNL     1      -3.520  49.680 -18.524  1.00  0.00     0.185 C 
HETATM    6  O3  UNL     1      -4.473  49.218 -17.896  1.00  0.00    -0.292 OA
BRANCH   5   7
HETATM    7  C19 UNL     1      -3.106  49.186 -19.934  1.00  0.00     0.128 C 
HETATM    8  C14 UNL     1      -3.059  50.262 -21.077  1.00  0.00    -0.002 C 
HETATM    9  C13 UNL     1      -1.804  51.169 -21.086  1.00  0.00     0.013 C 
HETATM   10  C15 UNL     1      -4.352  51.127 -21.112  1.00  0.00     0.019 C 
HETATM   11  C16 UNL     1      -2.978  49.319 -22.296  1.00  0.00     0.002 C 
HETATM   12  C12 UNL     1      -1.170  51.368 -22.487  1.00  0.00     0.007 C 
HETATM   13  C11 UNL     1      -2.223  51.396 -23.615  1.00  0.00     0.002 C 
HETATM   14  C2  UNL     1      -1.769  51.933 -25.024  1.00  0.00    -0.016 C 
HETATM   15  C10 UNL     1      -2.975  50.013 -23.677  1.00  0.00    -0.004 C 
HETATM   16  C1  UNL     1      -3.045  52.451 -25.756  1.00  0.00     0.020 C 
HETATM   17  C3  UNL     1      -0.824  53.170 -24.952  1.00  0.00     0.022 C 
HETATM   18  C7  UNL     1      -1.154  50.809 -25.847  1.00  0.00    -0.068 C 
HETATM   19  C4  UNL     1       0.665  52.850 -24.902  1.00  0.00     0.084 C 
HETATM   20  C5  UNL     1       1.041  51.912 -26.017  1.00  0.00     0.149 C 
HETATM   21  O1  UNL     1       2.122  51.972 -26.597  1.00  0.00    -0.293 OA
HETATM   22  C6  UNL     1       0.097  50.817 -26.336  1.00  0.00     0.053 C 
HETATM   23  C8  UNL     1      -2.040  49.611 -26.054  1.00  0.00     0.035 C 
HETATM   24  C9  UNL     1      -2.377  49.013 -24.698  1.00  0.00     0.010 C 
HETATM   25  C17 UNL     1      -4.064  48.276 -22.032  1.00  0.00     0.009 C 
HETATM   26  C18 UNL     1      -4.103  48.138 -20.496  1.00  0.00     0.047 C 
BRANCH   7  27
HETATM   27  O2  UNL     1      -1.812  48.564 -19.838  1.00  0.00    -0.381 OA
HETATM   28  H27 UNL     1      -1.920  47.684 -19.431  1.00  0.00     0.211 HD
ENDBRANCH   7  27
ENDBRANCH   5   7
ENDBRANCH   4   5
ENDBRANCH   3   4
ENDBRANCH   1   3
BRANCH   1  29
HETATM   29  C23 UNL     1      -2.643  50.465 -14.292  1.00  0.00     0.120 C 
BRANCH  29  30
HETATM   30  C24 UNL     1      -3.409  51.685 -13.794  1.00  0.00     0.112 C 
BRANCH  30  31
HETATM   31  C25 UNL     1      -2.578  52.486 -12.814  1.00  0.00     0.217 C 
HETATM   32  O6  UNL     1      -1.355  52.521 -12.845  1.00  0.00    -0.274 OA
HETATM   33  N1  UNL     1      -3.338  53.179 -11.898  1.00  0.00    -0.361 N 
HETATM   34  H34 UNL     1      -4.346  53.105 -11.922  1.00  0.00     0.162 HD
BRANCH  33  35
HETATM   35  C26 UNL     1      -2.735  53.966 -10.841  1.00  0.00     0.122 C 
BRANCH  35  36
HETATM   36  C27 UNL     1      -2.341  53.131  -9.620  1.00  0.00     0.020 C 
BRANCH  36  37
HETATM   37  C28 UNL     1      -1.004  53.521  -8.977  1.00  0.00     0.002 C 
BRANCH  37  38
HETATM   38  C29 UNL     1      -0.464  54.883  -9.421  1.00  0.00     0.009 C 
BRANCH  38  39
HETATM   39  C30 UNL     1       0.283  54.810 -10.753  1.00  0.00     0.103 C 
BRANCH  39  40
HETATM   40  C31 UNL     1       1.724  54.345 -10.615  1.00  0.00     0.217 C 
HETATM   41  O7  UNL     1       2.047  53.205 -10.300  1.00  0.00    -0.274 OA
HETATM   42  N2  UNL     1       2.629  55.350 -10.884  1.00  0.00    -0.357 N 
HETATM   43  H45 UNL     1       2.298  56.198 -11.324  1.00  0.00     0.162 HD
BRANCH  42  44
HETATM   44  C32 UNL     1       4.053  55.107 -10.883  1.00  0.00     0.161 C 
BRANCH  44  45
HETATM   45  C33 UNL     1       4.684  55.549  -9.586  1.00  0.00    -0.040 A 
HETATM   46  C34 UNL     1       3.978  56.356  -8.682  1.00  0.00     0.010 A 
HETATM   47  C35 UNL     1       4.576  56.767  -7.487  1.00  0.00     0.019 A 
HETATM   48  C36 UNL     1       5.889  56.381  -7.183  1.00  0.00     0.037 A 
HETATM   49  C38 UNL     1       6.600  55.583  -8.086  1.00  0.00     0.019 A 
HETATM   50  C39 UNL     1       6.002  55.177  -9.283  1.00  0.00     0.010 A 
BRANCH  48  51
HETATM   51  C37 UNL     1       6.479  56.839  -5.903  1.00  0.00     0.176 C 
HETATM   52  O8  UNL     1       6.755  56.130  -4.953  1.00  0.00    -0.646 OA
BRANCH  51  53
HETATM   53  O9  UNL     1       6.707  58.164  -5.877  1.00  0.00    -0.773 OA
HETATM   54  H50 UNL     1       7.095  58.319  -4.991  1.00  0.00     0.167 HD
ENDBRANCH  51  53
ENDBRANCH  48  51
ENDBRANCH  44  45
ENDBRANCH  42  44
ENDBRANCH  39  40
ENDBRANCH  38  39
ENDBRANCH  37  38
ENDBRANCH  36  37
ENDBRANCH  35  36
ENDBRANCH  33  35
ENDBRANCH  30  31
ENDBRANCH  29  30
ENDBRANCH   1  29
TORSDOF 18
ENDMDL
MODEL 7
REMARK minimizedAffinity -8.81501389
REMARK CNNscore 0.314524412
REMARK CNNaffinity 6.44853163
REMARK  18 active torsions:
REMARK  status: ('A' for Active; 'I' for Inactive)
REMARK    1  A    between atoms: C19_20  and  O2_21 
REMARK    2  A    between atoms: C19_20  and  C20_22 
REMARK    3  A    between atoms: C20_22  and  C21_24 
REMARK    4  A    between atoms: C21_24  and  O4_25 
REMARK    5  A    between atoms: O4_25  and  C22_26 
REMARK    6  A    between atoms: C22_26  and  C23_28 
REMARK    7  A    between atoms: C23_28  and  C24_29 
REMARK    8  A    between atoms: C24_29  and  C25_30 
REMARK       I    between atoms: C25_30  and  N1_32 
REMARK    9  A    between atoms: N1_32  and  C26_33 
REMARK   10  A    between atoms: C26_33  and  C27_34 
REMARK   11  A    between atoms: C27_34  and  C28_35 
REMARK   12  A    between atoms: C28_35  and  C29_36 
REMARK   13  A    between atoms: C29_36  and  C30_37 
REMARK   14  A    between atoms: C30_37  and  C31_38 
REMARK       I    between atoms: C31_38  and  N2_40 
REMARK   15  A    between atoms: N2_40  and  C32_41 
REMARK   16  A    between atoms: C32_41  and  C33_42 
REMARK   17  A    between atoms: C36_45  and  C37_46 
REMARK   18  A    between atoms: C37_46  and  O9_48 
ROOT
HETATM    1  C22 UNL     1      -7.132  47.834 -25.452  1.00  0.00     0.259 C 
HETATM    2  O5  UNL     1      -5.971  47.907 -25.830  1.00  0.00    -0.265 OA
ENDROOT
BRANCH   1   3
HETATM    3  O4  UNL     1      -7.550  48.095 -24.183  1.00  0.00    -0.314 OA
BRANCH   3   4
HETATM    4  C21 UNL     1      -6.953  49.242 -23.576  1.00  0.00     0.260 C 
BRANCH   4   5
HETATM    5  C20 UNL     1      -5.929  48.912 -22.491  1.00  0.00     0.185 C 
HETATM    6  O3  UNL     1      -6.079  47.905 -21.799  1.00  0.00    -0.292 OA
BRANCH   5   7
HETATM    7  C19 UNL     1      -4.723  49.876 -22.346  1.00  0.00     0.128 C 
HETATM    8  C14 UNL     1      -3.676  49.882 -23.517  1.00  0.00    -0.002 C 
HETATM    9  C13 UNL     1      -4.091  50.680 -24.777  1.00  0.00     0.013 C 
HETATM   10  C15 UNL     1      -3.235  48.443 -23.908  1.00  0.00     0.019 C 
HETATM   11  C16 UNL     1      -2.535  50.651 -22.817  1.00  0.00     0.002 C 
HETATM   12  C12 UNL     1      -2.977  51.592 -25.351  1.00  0.00     0.007 C 
HETATM   13  C11 UNL     1      -1.568  50.986 -25.179  1.00  0.00     0.002 C 
HETATM   14  C2  UNL     1      -0.393  51.623 -26.012  1.00  0.00    -0.016 C 
HETATM   15  C10 UNL     1      -1.242  50.824 -23.646  1.00  0.00    -0.004 C 
HETATM   16  C1  UNL     1       0.706  50.529 -26.174  1.00  0.00     0.020 C 
HETATM   17  C3  UNL     1      -0.789  52.005 -27.470  1.00  0.00     0.022 C 
HETATM   18  C7  UNL     1       0.203  52.810 -25.266  1.00  0.00    -0.068 C 
HETATM   19  C4  UNL     1      -1.317  53.423 -27.650  1.00  0.00     0.084 C 
HETATM   20  C5  UNL     1      -0.370  54.420 -27.039  1.00  0.00     0.149 C 
HETATM   21  O1  UNL     1      -0.175  55.532 -27.524  1.00  0.00    -0.293 OA
HETATM   22  C6  UNL     1       0.257  54.063 -25.747  1.00  0.00     0.053 C 
HETATM   23  C8  UNL     1       0.707  52.507 -23.882  1.00  0.00     0.035 C 
HETATM   24  C9  UNL     1      -0.456  52.012 -23.038  1.00  0.00     0.010 C 
HETATM   25  C17 UNL     1      -2.413  49.974 -21.452  1.00  0.00     0.009 C 
HETATM   26  C18 UNL     1      -3.851  49.528 -21.111  1.00  0.00     0.047 C 
BRANCH   7  27
HETATM   27  O2  UNL     1      -5.226  51.213 -22.175  1.00  0.00    -0.381 OA
HETATM   28  H27 UNL     1      -5.561  51.305 -21.263  1.00  0.00     0.211 HD
ENDBRANCH   7  27
ENDBRANCH   5   7
ENDBRANCH   4   5
ENDBRANCH   3   4
ENDBRANCH   1   3
BRANCH   1  29
HETATM   29  C23 UNL     1      -8.262  47.344 -26.315  1.00  0.00     0.120 C 
BRANCH  29  30
HETATM   30  C24 UNL     1      -9.284  48.433 -26.626  1.00  0.00     0.112 C 
BRANCH  30  31
HETATM   31  C25 UNL     1     -10.685  47.861 -26.685  1.00  0.00     0.217 C 
HETATM   32  O6  UNL     1     -11.680  48.494 -26.358  1.00  0.00    -0.274 OA
HETATM   33  N1  UNL     1     -10.724  46.568 -27.157  1.00  0.00    -0.361 N 
HETATM   34  H34 UNL     1      -9.864  46.098 -27.406  1.00  0.00     0.162 HD
BRANCH  33  35
HETATM   35  C26 UNL     1     -11.962  45.820 -27.243  1.00  0.00     0.122 C 
BRANCH  35  36
HETATM   36  C27 UNL     1     -13.012  46.496 -28.129  1.00  0.00     0.020 C 
BRANCH  36  37
HETATM   37  C28 UNL     1     -13.962  45.531 -28.851  1.00  0.00     0.002 C 
BRANCH  37  38
HETATM   38  C29 UNL     1     -15.325  45.364 -28.175  1.00  0.00     0.009 C 
BRANCH  38  39
HETATM   39  C30 UNL     1     -15.721  43.897 -28.010  1.00  0.00     0.103 C 
BRANCH  39  40
HETATM   40  C31 UNL     1     -17.102  43.707 -27.404  1.00  0.00     0.217 C 
HETATM   41  O7  UNL     1     -17.494  42.655 -26.910  1.00  0.00    -0.274 OA
HETATM   42  N2  UNL     1     -17.867  44.852 -27.468  1.00  0.00    -0.357 N 
HETATM   43  H45 UNL     1     -17.417  45.726 -27.705  1.00  0.00     0.162 HD
BRANCH  42  44
HETATM   44  C32 UNL     1     -19.188  44.916 -26.885  1.00  0.00     0.161 C 
BRANCH  44  45
HETATM   45  C33 UNL     1     -19.121  45.199 -25.406  1.00  0.00    -0.040 A 
HETATM   46  C34 UNL     1     -18.577  46.399 -24.927  1.00  0.00     0.010 A 
HETATM   47  C35 UNL     1     -18.511  46.646 -23.553  1.00  0.00     0.019 A 
HETATM   48  C36 UNL     1     -18.985  45.695 -22.639  1.00  0.00     0.037 A 
HETATM   49  C38 UNL     1     -19.520  44.491 -23.111  1.00  0.00     0.019 A 
HETATM   50  C39 UNL     1     -19.580  44.244 -24.486  1.00  0.00     0.010 A 
BRANCH  48  51
HETATM   51  C37 UNL     1     -18.896  46.003 -21.192  1.00  0.00     0.176 C 
HETATM   52  O8  UNL     1     -18.190  46.858 -20.689  1.00  0.00    -0.646 OA
BRANCH  51  53
HETATM   53  O9  UNL     1     -19.703  45.232 -20.442  1.00  0.00    -0.773 OA
HETATM   54  H50 UNL     1     -19.545  45.546 -19.528  1.00  0.00     0.167 HD
ENDBRANCH  51  53
ENDBRANCH  48  51
ENDBRANCH  44  45
ENDBRANCH  42  44
ENDBRANCH  39  40
ENDBRANCH  38  39
ENDBRANCH  37  38
ENDBRANCH  36  37
ENDBRANCH  35  36
ENDBRANCH  33  35
ENDBRANCH  30  31
ENDBRANCH  29  30
ENDBRANCH   1  29
TORSDOF 18
ENDMDL
MODEL 8
REMARK minimizedAffinity -8.12201118
REMARK CNNscore 0.313828766
REMARK CNNaffinity 6.2058301
REMARK  18 active torsions:
REMARK  status: ('A' for Active; 'I' for Inactive)
REMARK    1  A    between atoms: C19_20  and  O2_21 
REMARK    2  A    between atoms: C19_20  and  C20_22 
REMARK    3  A    between atoms: C20_22  and  C21_24 
REMARK    4  A    between atoms: C21_24  and  O4_25 
REMARK    5  A    between atoms: O4_25  and  C22_26 
REMARK    6  A    between atoms: C22_26  and  C23_28 
REMARK    7  A    between atoms: C23_28  and  C24_29 
REMARK    8  A    between atoms: C24_29  and  C25_30 
REMARK       I    between atoms: C25_30  and  N1_32 
REMARK    9  A    between atoms: N1_32  and  C26_33 
REMARK   10  A    between atoms: C26_33  and  C27_34 
REMARK   11  A    between atoms: C27_34  and  C28_35 
REMARK   12  A    between atoms: C28_35  and  C29_36 
REMARK   13  A    between atoms: C29_36  and  C30_37 
REMARK   14  A    between atoms: C30_37  and  C31_38 
REMARK       I    between atoms: C31_38  and  N2_40 
REMARK   15  A    between atoms: N2_40  and  C32_41 
REMARK   16  A    between atoms: C32_41  and  C33_42 
REMARK   17  A    between atoms: C36_45  and  C37_46 
REMARK   18  A    between atoms: C37_46  and  O9_48 
ROOT
HETATM    1  C22 UNL     1      -6.512  47.431 -26.741  1.00  0.00     0.259 C 
HETATM    2  O5  UNL     1      -5.629  48.038 -27.330  1.00  0.00    -0.265 OA
ENDROOT
BRANCH   1   3
HETATM    3  O4  UNL     1      -6.631  47.359 -25.386  1.00  0.00    -0.314 OA
BRANCH   3   4
HETATM    4  C21 UNL     1      -5.935  48.377 -24.667  1.00  0.00     0.260 C 
BRANCH   4   5
HETATM    5  C20 UNL     1      -6.847  49.359 -23.933  1.00  0.00     0.185 C 
HETATM    6  O3  UNL     1      -8.022  49.473 -24.281  1.00  0.00    -0.292 OA
BRANCH   5   7
HETATM    7  C19 UNL     1      -6.226  50.147 -22.751  1.00  0.00     0.128 C 
HETATM    8  C14 UNL     1      -4.725  49.839 -22.405  1.00  0.00    -0.002 C 
HETATM    9  C13 UNL     1      -3.679  50.509 -23.329  1.00  0.00     0.013 C 
HETATM   10  C15 UNL     1      -4.456  48.311 -22.300  1.00  0.00     0.019 C 
HETATM   11  C16 UNL     1      -4.650  50.522 -21.022  1.00  0.00     0.002 C 
HETATM   12  C12 UNL     1      -2.488  51.161 -22.578  1.00  0.00     0.007 C 
HETATM   13  C11 UNL     1      -2.096  50.385 -21.303  1.00  0.00     0.002 C 
HETATM   14  C2  UNL     1      -0.707  50.723 -20.642  1.00  0.00    -0.016 C 
HETATM   15  C10 UNL     1      -3.299  50.389 -20.285  1.00  0.00    -0.004 C 
HETATM   16  C1  UNL     1      -0.262  49.469 -19.830  1.00  0.00     0.020 C 
HETATM   17  C3  UNL     1       0.441  50.956 -21.672  1.00  0.00     0.022 C 
HETATM   18  C7  UNL     1      -0.846  51.901 -19.687  1.00  0.00    -0.068 C 
HETATM   19  C4  UNL     1       0.621  52.397 -22.131  1.00  0.00     0.084 C 
HETATM   20  C5  UNL     1       0.724  53.319 -20.947  1.00  0.00     0.149 C 
HETATM   21  O1  UNL     1       1.446  54.313 -20.943  1.00  0.00    -0.293 OA
HETATM   22  C6  UNL     1      -0.168  53.055 -19.795  1.00  0.00     0.053 C 
HETATM   23  C8  UNL     1      -1.865  51.721 -18.595  1.00  0.00     0.035 C 
HETATM   24  C9  UNL     1      -3.231  51.521 -19.231  1.00  0.00     0.010 C 
HETATM   25  C17 UNL     1      -5.902  50.028 -20.296  1.00  0.00     0.009 C 
HETATM   26  C18 UNL     1      -6.952  49.848 -21.412  1.00  0.00     0.047 C 
BRANCH   7  27
HETATM   27  O2  UNL     1      -6.353  51.554 -23.023  1.00  0.00    -0.381 OA
HETATM   28  H27 UNL     1      -7.280  51.818 -22.868  1.00  0.00     0.211 HD
ENDBRANCH   7  27
ENDBRANCH   5   7
ENDBRANCH   4   5
ENDBRANCH   3   4
ENDBRANCH   1   3
BRANCH   1  29
HETATM   29  C23 UNL     1      -7.547  46.584 -27.431  1.00  0.00     0.120 C 
BRANCH  29  30
HETATM   30  C24 UNL     1      -8.367  45.743 -26.459  1.00  0.00     0.112 C 
BRANCH  30  31
HETATM   31  C25 UNL     1      -9.725  45.411 -27.040  1.00  0.00     0.217 C 
HETATM   32  O6  UNL     1      -9.916  45.233 -28.236  1.00  0.00    -0.274 OA
HETATM   33  N1  UNL     1     -10.715  45.315 -26.088  1.00  0.00    -0.361 N 
HETATM   34  H34 UNL     1     -10.493  45.479 -25.114  1.00  0.00     0.162 HD
BRANCH  33  35
HETATM   35  C26 UNL     1     -12.096  45.056 -26.440  1.00  0.00     0.122 C 
BRANCH  35  36
HETATM   36  C27 UNL     1     -12.867  46.324 -26.820  1.00  0.00     0.020 C 
BRANCH  36  37
HETATM   37  C28 UNL     1     -13.164  46.473 -28.317  1.00  0.00     0.002 C 
BRANCH  37  38
HETATM   38  C29 UNL     1     -14.489  45.849 -28.763  1.00  0.00     0.009 C 
BRANCH  38  39
HETATM   39  C30 UNL     1     -14.654  44.411 -28.270  1.00  0.00     0.103 C 
BRANCH  39  40
HETATM   40  C31 UNL     1     -16.103  44.010 -28.047  1.00  0.00     0.217 C 
HETATM   41  O7  UNL     1     -16.550  42.894 -28.291  1.00  0.00    -0.274 OA
HETATM   42  N2  UNL     1     -16.861  45.042 -27.535  1.00  0.00    -0.357 N 
HETATM   43  H45 UNL     1     -16.390  45.862 -27.178  1.00  0.00     0.162 HD
BRANCH  42  44
HETATM   44  C32 UNL     1     -18.250  44.859 -27.179  1.00  0.00     0.161 C 
BRANCH  44  45
HETATM   45  C33 UNL     1     -18.469  45.071 -25.702  1.00  0.00    -0.040 A 
HETATM   46  C34 UNL     1     -19.765  45.100 -25.165  1.00  0.00     0.010 A 
HETATM   47  C35 UNL     1     -19.957  45.308 -23.796  1.00  0.00     0.019 A 
HETATM   48  C36 UNL     1     -18.857  45.493 -22.947  1.00  0.00     0.037 A 
HETATM   49  C38 UNL     1     -17.563  45.474 -23.480  1.00  0.00     0.019 A 
HETATM   50  C39 UNL     1     -17.373  45.271 -24.850  1.00  0.00     0.010 A 
BRANCH  48  51
HETATM   51  C37 UNL     1     -19.110  45.708 -21.502  1.00  0.00     0.176 C 
HETATM   52  O8  UNL     1     -19.776  44.985 -20.783  1.00  0.00    -0.646 OA
BRANCH  51  53
HETATM   53  O9  UNL     1     -18.510  46.811 -21.024  1.00  0.00    -0.773 OA
HETATM   54  H50 UNL     1     -18.757  46.821 -20.076  1.00  0.00     0.167 HD
ENDBRANCH  51  53
ENDBRANCH  48  51
ENDBRANCH  44  45
ENDBRANCH  42  44
ENDBRANCH  39  40
ENDBRANCH  38  39
ENDBRANCH  37  38
ENDBRANCH  36  37
ENDBRANCH  35  36
ENDBRANCH  33  35
ENDBRANCH  30  31
ENDBRANCH  29  30
ENDBRANCH   1  29
TORSDOF 18
ENDMDL
MODEL 9
REMARK minimizedAffinity -8.2382555
REMARK CNNscore 0.30928129
REMARK CNNaffinity 6.54853868
REMARK  18 active torsions:
REMARK  status: ('A' for Active; 'I' for Inactive)
REMARK    1  A    between atoms: C19_20  and  O2_21 
REMARK    2  A    between atoms: C19_20  and  C20_22 
REMARK    3  A    between atoms: C20_22  and  C21_24 
REMARK    4  A    between atoms: C21_24  and  O4_25 
REMARK    5  A    between atoms: O4_25  and  C22_26 
REMARK    6  A    between atoms: C22_26  and  C23_28 
REMARK    7  A    between atoms: C23_28  and  C24_29 
REMARK    8  A    between atoms: C24_29  and  C25_30 
REMARK       I    between atoms: C25_30  and  N1_32 
REMARK    9  A    between atoms: N1_32  and  C26_33 
REMARK   10  A    between atoms: C26_33  and  C27_34 
REMARK   11  A    between atoms: C27_34  and  C28_35 
REMARK   12  A    between atoms: C28_35  and  C29_36 
REMARK   13  A    between atoms: C29_36  and  C30_37 
REMARK   14  A    between atoms: C30_37  and  C31_38 
REMARK       I    between atoms: C31_38  and  N2_40 
REMARK   15  A    between atoms: N2_40  and  C32_41 
REMARK   16  A    between atoms: C32_41  and  C33_42 
REMARK   17  A    between atoms: C36_45  and  C37_46 
REMARK   18  A    between atoms: C37_46  and  O9_48 
ROOT
HETATM    1  C22 UNL     1      -7.887  46.198 -22.749  1.00  0.00     0.259 C 
HETATM    2  O5  UNL     1      -8.553  46.448 -21.754  1.00  0.00    -0.265 OA
ENDROOT
BRANCH   1   3
HETATM    3  O4  UNL     1      -6.699  46.789 -23.054  1.00  0.00    -0.314 OA
BRANCH   3   4
HETATM    4  C21 UNL     1      -6.362  47.916 -22.244  1.00  0.00     0.260 C 
BRANCH   4   5
HETATM    5  C20 UNL     1      -6.233  49.226 -23.020  1.00  0.00     0.185 C 
HETATM    6  O3  UNL     1      -7.125  49.561 -23.799  1.00  0.00    -0.292 OA
BRANCH   5   7
HETATM    7  C19 UNL     1      -4.970  50.083 -22.747  1.00  0.00     0.128 C 
HETATM    8  C14 UNL     1      -3.879  50.117 -23.876  1.00  0.00    -0.002 C 
HETATM    9  C13 UNL     1      -4.188  51.052 -25.071  1.00  0.00     0.013 C 
HETATM   10  C15 UNL     1      -3.525  48.690 -24.383  1.00  0.00     0.019 C 
HETATM   11  C16 UNL     1      -2.716  50.735 -23.072  1.00  0.00     0.002 C 
HETATM   12  C12 UNL     1      -2.990  51.928 -25.522  1.00  0.00     0.007 C 
HETATM   13  C11 UNL     1      -1.635  51.209 -25.359  1.00  0.00     0.002 C 
HETATM   14  C2  UNL     1      -0.386  51.830 -26.090  1.00  0.00    -0.016 C 
HETATM   15  C10 UNL     1      -1.382  50.887 -23.837  1.00  0.00    -0.004 C 
HETATM   16  C1  UNL     1       0.640  50.678 -26.315  1.00  0.00     0.020 C 
HETATM   17  C3  UNL     1      -0.697  52.369 -27.519  1.00  0.00     0.022 C 
HETATM   18  C7  UNL     1       0.260  52.899 -25.219  1.00  0.00    -0.068 C 
HETATM   19  C4  UNL     1      -1.117  53.831 -27.586  1.00  0.00     0.084 C 
HETATM   20  C5  UNL     1      -0.128  54.698 -26.854  1.00  0.00     0.149 C 
HETATM   21  O1  UNL     1       0.163  55.832 -27.229  1.00  0.00    -0.293 OA
HETATM   22  C6  UNL     1       0.420  54.183 -25.580  1.00  0.00     0.053 C 
HETATM   23  C8  UNL     1       0.687  52.438 -23.852  1.00  0.00     0.035 C 
HETATM   24  C9  UNL     1      -0.540  51.955 -23.096  1.00  0.00     0.010 C 
HETATM   25  C17 UNL     1      -2.697  49.932 -21.771  1.00  0.00     0.009 C 
HETATM   26  C18 UNL     1      -4.174  49.563 -21.521  1.00  0.00     0.047 C 
BRANCH   7  27
HETATM   27  O2  UNL     1      -5.385  51.432 -22.470  1.00  0.00    -0.381 OA
HETATM   28  H27 UNL     1      -5.749  51.467 -21.566  1.00  0.00     0.211 HD
ENDBRANCH   7  27
ENDBRANCH   5   7
ENDBRANCH   4   5
ENDBRANCH   3   4
ENDBRANCH   1   3
BRANCH   1  29
HETATM   29  C23 UNL     1      -8.336  45.266 -23.842  1.00  0.00     0.120 C 
BRANCH  29  30
HETATM   30  C24 UNL     1      -8.445  45.955 -25.199  1.00  0.00     0.112 C 
BRANCH  30  31
HETATM   31  C25 UNL     1      -9.627  45.425 -25.983  1.00  0.00     0.217 C 
HETATM   32  O6  UNL     1      -9.978  44.253 -25.955  1.00  0.00    -0.274 OA
HETATM   33  N1  UNL     1     -10.272  46.397 -26.715  1.00  0.00    -0.361 N 
HETATM   34  H34 UNL     1      -9.929  47.348 -26.699  1.00  0.00     0.162 HD
BRANCH  33  35
HETATM   35  C26 UNL     1     -11.396  46.089 -27.575  1.00  0.00     0.122 C 
BRANCH  35  36
HETATM   36  C27 UNL     1     -12.505  47.144 -27.516  1.00  0.00     0.020 C 
BRANCH  36  37
HETATM   37  C28 UNL     1     -13.921  46.604 -27.758  1.00  0.00     0.002 C 
BRANCH  37  38
HETATM   38  C29 UNL     1     -14.494  45.794 -26.592  1.00  0.00     0.009 C 
BRANCH  38  39
HETATM   39  C30 UNL     1     -14.237  46.454 -25.238  1.00  0.00     0.103 C 
BRANCH  39  40
HETATM   40  C31 UNL     1     -15.481  47.067 -24.616  1.00  0.00     0.217 C 
HETATM   41  O7  UNL     1     -15.462  48.022 -23.847  1.00  0.00    -0.274 OA
HETATM   42  N2  UNL     1     -16.637  46.429 -25.015  1.00  0.00    -0.357 N 
HETATM   43  H45 UNL     1     -16.594  45.786 -25.793  1.00  0.00     0.162 HD
BRANCH  42  44
HETATM   44  C32 UNL     1     -17.941  46.894 -24.601  1.00  0.00     0.161 C 
BRANCH  44  45
HETATM   45  C33 UNL     1     -18.484  46.063 -23.466  1.00  0.00    -0.040 A 
HETATM   46  C34 UNL     1     -19.454  45.077 -23.697  1.00  0.00     0.010 A 
HETATM   47  C35 UNL     1     -19.958  44.319 -22.635  1.00  0.00     0.019 A 
HETATM   48  C36 UNL     1     -19.501  44.541 -21.329  1.00  0.00     0.037 A 
HETATM   49  C38 UNL     1     -18.541  45.530 -21.092  1.00  0.00     0.019 A 
HETATM   50  C39 UNL     1     -18.042  46.290 -22.154  1.00  0.00     0.010 A 
BRANCH  48  51
HETATM   51  C37 UNL     1     -20.063  43.711 -20.237  1.00  0.00     0.176 C 
HETATM   52  O8  UNL     1     -20.429  44.120 -19.149  1.00  0.00    -0.646 OA
BRANCH  51  53
HETATM   53  O9  UNL     1     -20.151  42.409 -20.561  1.00  0.00    -0.773 OA
HETATM   54  H50 UNL     1     -20.536  41.994 -19.761  1.00  0.00     0.167 HD
ENDBRANCH  51  53
ENDBRANCH  48  51
ENDBRANCH  44  45
ENDBRANCH  42  44
ENDBRANCH  39  40
ENDBRANCH  38  39
ENDBRANCH  37  38
ENDBRANCH  36  37
ENDBRANCH  35  36
ENDBRANCH  33  35
ENDBRANCH  30  31
ENDBRANCH  29  30
ENDBRANCH   1  29
TORSDOF 18
ENDMDL
