MODEL 1
REMARK minimizedAffinity -8.24920177
REMARK CNNscore 0.196497336
REMARK CNNaffinity 5.89854002
REMARK  19 active torsions:
REMARK  status: ('A' for Active; 'I' for Inactive)
REMARK    1  A    between atoms: O1_2  and  C2_3 
REMARK    2  A    between atoms: C2_3  and  C3_4 
REMARK    3  A    between atoms: C2_3  and  C28_36 
REMARK    4  A    between atoms: C3_4  and  C4_5 
REMARK    5  A    between atoms: C4_5  and  C6_7 
REMARK    6  A    between atoms: C6_7  and  O2_8 
REMARK    7  A    between atoms: C6_7  and  C7_9 
REMARK    8  A    between atoms: C8_10  and  C9_11 
REMARK    9  A    between atoms: C10_12  and  C11_13 
REMARK   10  A    between atoms: C11_13  and  N1_14 
REMARK       I    between atoms: N1_14  and  C12_15 
REMARK   11  A    between atoms: C12_15  and  C13_17 
REMARK   12  A    between atoms: C13_17  and  C16_20 
REMARK   13  A    between atoms: C16_20  and  O4_21 
REMARK   14  A    between atoms: C16_20  and  C17_22 
REMARK   15  A    between atoms: C19_24  and  C20_25 
REMARK   16  A    between atoms: C21_26  and  C22_27 
REMARK   17  A    between atoms: C23_28  and  C24_29 
REMARK   18  A    between atoms: C26_31  and  N2_33 
REMARK   19  A    between atoms: C28_36  and  O7_37 
ROOT
HETATM    1  C9  UNL     1      -7.604  48.704 -22.627  1.00  0.00    -0.003 C 
HETATM    2  C10 UNL     1      -7.181  49.497 -21.628  1.00  0.00    -0.007 C 
ENDROOT
BRANCH   1   3
HETATM    3  C8  UNL     1      -8.186  49.221 -23.843  1.00  0.00    -0.002 C 
HETATM    4  C7  UNL     1      -8.535  48.433 -24.872  1.00  0.00     0.005 C 
BRANCH   4   5
HETATM    5  C6  UNL     1      -9.097  48.847 -26.209  1.00  0.00     0.144 C 
BRANCH   5   6
HETATM    6  C4  UNL     1     -10.036  47.867 -26.947  1.00  0.00     0.016 C 
HETATM    7  C5  UNL     1     -11.442  47.762 -26.345  1.00  0.00     0.013 C 
BRANCH   6   8
HETATM    8  C3  UNL     1      -9.417  46.481 -27.255  1.00  0.00     0.042 C 
BRANCH   8   9
HETATM    9  C2  UNL     1      -8.490  46.190 -28.481  1.00  0.00     0.159 C 
BRANCH   9  10
HETATM   10  O1  UNL     1      -7.394  47.119 -28.299  1.00  0.00    -0.388 OA
HETATM   11  C1  UNL     1      -6.979  47.762 -29.508  1.00  0.00     0.202 C 
ENDBRANCH   9  10
BRANCH   9  12
HETATM   12  C28 UNL     1      -9.070  46.492 -29.918  1.00  0.00     0.133 C 
HETATM   13  C29 UNL     1     -10.625  46.339 -29.960  1.00  0.00     0.114 C 
HETATM   14  C30 UNL     1     -11.344  47.209 -30.989  1.00  0.00     0.023 C 
HETATM   15  C31 UNL     1     -10.853  44.891 -30.303  1.00  0.00     0.227 C 
HETATM   16  O8  UNL     1     -11.862  44.257 -30.044  1.00  0.00    -0.273 OA
HETATM   17  N3  UNL     1      -9.744  44.450 -30.987  1.00  0.00    -0.332 N 
HETATM   18  C32 UNL     1      -9.570  43.051 -31.321  1.00  0.00     0.154 C 
HETATM   19  C33 UNL     1      -8.613  45.447 -30.988  1.00  0.00     0.183 A 
HETATM   20  C34 UNL     1      -7.184  44.809 -31.005  1.00  0.00     0.294 A 
HETATM   21  C35 UNL     1      -8.184  45.871 -32.445  1.00  0.00     0.169 A 
HETATM   22  O9  UNL     1      -6.539  44.009 -30.361  1.00  0.00    -0.262 OA
HETATM   23  O10 UNL     1      -6.862  45.298 -32.230  1.00  0.00    -0.311 OA
HETATM   24  C36 UNL     1      -8.029  47.288 -32.965  1.00  0.00     0.043 C 
BRANCH  12  25
HETATM   25  O7  UNL     1      -8.714  47.814 -30.338  1.00  0.00    -0.383 OA
HETATM   26  H42 UNL     1      -8.921  48.451 -29.633  1.00  0.00     0.210 HD
ENDBRANCH  12  25
ENDBRANCH   9  12
ENDBRANCH   8   9
ENDBRANCH   6   8
ENDBRANCH   5   6
BRANCH   5  27
HETATM   27  O2  UNL     1      -9.796  50.074 -25.986  1.00  0.00    -0.391 OA
HETATM   28  H12 UNL     1     -10.309  49.968 -25.164  1.00  0.00     0.210 HD
ENDBRANCH   5  27
ENDBRANCH   4   5
ENDBRANCH   1   3
BRANCH   2  29
HETATM   29  C11 UNL     1      -6.520  49.057 -20.357  1.00  0.00     0.149 C 
BRANCH  29  30
HETATM   30  N1  UNL     1      -5.209  49.636 -20.231  1.00  0.00    -0.357 N 
HETATM   31  C12 UNL     1      -4.420  49.483 -19.114  1.00  0.00     0.228 C 
HETATM   32  O3  UNL     1      -4.810  48.890 -18.109  1.00  0.00    -0.273 OA
HETATM   33  H19 UNL     1      -4.766  50.017 -21.066  1.00  0.00     0.162 HD
BRANCH  31  34
HETATM   34  C13 UNL     1      -3.036  50.148 -19.209  1.00  0.00     0.063 C 
HETATM   35  C14 UNL     1      -2.859  51.125 -18.029  1.00  0.00     0.028 C 
HETATM   36  C15 UNL     1      -3.001  50.977 -20.513  1.00  0.00     0.028 C 
BRANCH  34  37
HETATM   37  C16 UNL     1      -1.876  49.108 -19.214  1.00  0.00     0.164 C 
BRANCH  37  38
HETATM   38  O4  UNL     1      -0.954  49.358 -18.142  1.00  0.00    -0.390 OA
HETATM   39  H27 UNL     1      -0.294  48.643 -18.181  1.00  0.00     0.210 HD
ENDBRANCH  37  38
BRANCH  37  40
HETATM   40  C17 UNL     1      -1.082  48.951 -20.504  1.00  0.00    -0.054 C 
HETATM   41  C18 UNL     1      -1.326  47.695 -21.312  1.00  0.00     0.046 C 
HETATM   42  C19 UNL     1      -0.170  49.836 -20.964  1.00  0.00     0.005 C 
BRANCH  42  43
HETATM   43  C20 UNL     1       0.211  51.098 -20.368  1.00  0.00     0.000 C 
HETATM   44  C21 UNL     1       0.515  52.234 -21.020  1.00  0.00     0.000 C 
BRANCH  44  45
HETATM   45  C22 UNL     1       0.604  52.419 -22.456  1.00  0.00     0.001 C 
HETATM   46  C23 UNL     1      -0.314  51.933 -23.311  1.00  0.00     0.009 C 
BRANCH  46  47
HETATM   47  C24 UNL     1      -0.325  52.104 -24.773  1.00  0.00    -0.034 C 
HETATM   48  C25 UNL     1       1.039  52.140 -25.443  1.00  0.00     0.050 C 
HETATM   49  C26 UNL     1      -1.494  52.248 -25.443  1.00  0.00     0.082 C 
HETATM   50  C27 UNL     1      -2.917  52.255 -24.986  1.00  0.00     0.075 C 
BRANCH  49  51
HETATM   51  N2  UNL     1      -1.425  52.408 -26.880  1.00  0.00    -0.120 N 
HETATM   52  O5  UNL     1      -1.469  51.376 -27.564  1.00  0.00    -0.532 OA
HETATM   53  O6  UNL     1      -1.359  53.566 -27.311  1.00  0.00    -0.532 OA
ENDBRANCH  49  51
ENDBRANCH  46  47
ENDBRANCH  44  45
ENDBRANCH  42  43
ENDBRANCH  37  40
ENDBRANCH  34  37
ENDBRANCH  31  34
ENDBRANCH  29  30
ENDBRANCH   2  29
TORSDOF 19
ENDMDL
MODEL 2
REMARK minimizedAffinity -8.12809849
REMARK CNNscore 0.195421576
REMARK CNNaffinity 6.44872332
REMARK  19 active torsions:
REMARK  status: ('A' for Active; 'I' for Inactive)
REMARK    1  A    between atoms: O1_2  and  C2_3 
REMARK    2  A    between atoms: C2_3  and  C3_4 
REMARK    3  A    between atoms: C2_3  and  C28_36 
REMARK    4  A    between atoms: C3_4  and  C4_5 
REMARK    5  A    between atoms: C4_5  and  C6_7 
REMARK    6  A    between atoms: C6_7  and  O2_8 
REMARK    7  A    between atoms: C6_7  and  C7_9 
REMARK    8  A    between atoms: C8_10  and  C9_11 
REMARK    9  A    between atoms: C10_12  and  C11_13 
REMARK   10  A    between atoms: C11_13  and  N1_14 
REMARK       I    between atoms: N1_14  and  C12_15 
REMARK   11  A    between atoms: C12_15  and  C13_17 
REMARK   12  A    between atoms: C13_17  and  C16_20 
REMARK   13  A    between atoms: C16_20  and  O4_21 
REMARK   14  A    between atoms: C16_20  and  C17_22 
REMARK   15  A    between atoms: C19_24  and  C20_25 
REMARK   16  A    between atoms: C21_26  and  C22_27 
REMARK   17  A    between atoms: C23_28  and  C24_29 
REMARK   18  A    between atoms: C26_31  and  N2_33 
REMARK   19  A    between atoms: C28_36  and  O7_37 
ROOT
HETATM    1  C9  UNL     1      -3.433  49.675 -26.805  1.00  0.00    -0.003 C 
HETATM    2  C10 UNL     1      -3.216  48.842 -25.773  1.00  0.00    -0.007 C 
ENDROOT
BRANCH   1   3
HETATM    3  C8  UNL     1      -3.867  49.215 -28.104  1.00  0.00    -0.002 C 
HETATM    4  C7  UNL     1      -4.837  48.302 -28.261  1.00  0.00     0.005 C 
BRANCH   4   5
HETATM    5  C6  UNL     1      -5.344  47.700 -29.548  1.00  0.00     0.144 C 
BRANCH   5   6
HETATM    6  C4  UNL     1      -6.858  47.426 -29.686  1.00  0.00     0.016 C 
HETATM    7  C5  UNL     1      -7.631  48.507 -30.450  1.00  0.00     0.013 C 
BRANCH   6   8
HETATM    8  C3  UNL     1      -7.565  47.008 -28.372  1.00  0.00     0.042 C 
BRANCH   8   9
HETATM    9  C2  UNL     1      -8.922  47.612 -27.878  1.00  0.00     0.159 C 
BRANCH   9  10
HETATM   10  O1  UNL     1      -8.809  47.549 -26.436  1.00  0.00    -0.388 OA
HETATM   11  C1  UNL     1      -7.459  47.597 -25.963  1.00  0.00     0.202 C 
ENDBRANCH   9  10
BRANCH   9  12
HETATM   12  C28 UNL     1     -10.241  46.823 -28.236  1.00  0.00     0.133 C 
HETATM   13  C29 UNL     1     -11.512  47.522 -27.651  1.00  0.00     0.114 C 
HETATM   14  C30 UNL     1     -12.803  47.303 -28.435  1.00  0.00     0.023 C 
HETATM   15  C31 UNL     1     -11.670  46.926 -26.277  1.00  0.00     0.227 C 
HETATM   16  O8  UNL     1     -12.253  47.454 -25.345  1.00  0.00    -0.273 OA
HETATM   17  N3  UNL     1     -11.080  45.684 -26.295  1.00  0.00    -0.332 N 
HETATM   18  C32 UNL     1     -10.912  44.910 -25.082  1.00  0.00     0.154 C 
HETATM   19  C33 UNL     1     -10.307  45.414 -27.562  1.00  0.00     0.183 A 
HETATM   20  C34 UNL     1      -9.053  44.496 -27.375  1.00  0.00     0.294 A 
HETATM   21  C35 UNL     1     -10.833  44.140 -28.328  1.00  0.00     0.169 A 
HETATM   22  O9  UNL     1      -8.047  44.460 -26.699  1.00  0.00    -0.262 OA
HETATM   23  O10 UNL     1      -9.547  43.484 -28.134  1.00  0.00    -0.311 OA
HETATM   24  C36 UNL     1     -11.210  44.061 -29.796  1.00  0.00     0.043 C 
BRANCH  12  25
HETATM   25  O7  UNL     1     -10.384  46.696 -29.656  1.00  0.00    -0.383 OA
HETATM   26  H42 UNL     1     -10.257  47.562 -30.079  1.00  0.00     0.210 HD
ENDBRANCH  12  25
ENDBRANCH   9  12
ENDBRANCH   8   9
ENDBRANCH   6   8
ENDBRANCH   5   6
BRANCH   5  27
HETATM   27  O2  UNL     1      -4.942  48.591 -30.592  1.00  0.00    -0.391 OA
HETATM   28  H12 UNL     1      -5.120  49.498 -30.281  1.00  0.00     0.210 HD
ENDBRANCH   5  27
ENDBRANCH   4   5
ENDBRANCH   1   3
BRANCH   2  29
HETATM   29  C11 UNL     1      -2.817  49.228 -24.382  1.00  0.00     0.149 C 
BRANCH  29  30
HETATM   30  N1  UNL     1      -3.690  48.625 -23.409  1.00  0.00    -0.357 N 
HETATM   31  C12 UNL     1      -3.233  47.976 -22.285  1.00  0.00     0.228 C 
HETATM   32  O3  UNL     1      -2.035  47.807 -22.063  1.00  0.00    -0.273 OA
HETATM   33  H19 UNL     1      -4.684  48.843 -23.450  1.00  0.00     0.162 HD
BRANCH  31  34
HETATM   34  C13 UNL     1      -4.339  47.445 -21.356  1.00  0.00     0.063 C 
HETATM   35  C14 UNL     1      -3.802  46.235 -20.567  1.00  0.00     0.028 C 
HETATM   36  C15 UNL     1      -5.501  46.947 -22.246  1.00  0.00     0.028 C 
BRANCH  34  37
HETATM   37  C16 UNL     1      -4.860  48.533 -20.369  1.00  0.00     0.164 C 
BRANCH  37  38
HETATM   38  O4  UNL     1      -6.292  48.629 -20.416  1.00  0.00    -0.390 OA
HETATM   39  H27 UNL     1      -6.540  49.286 -19.742  1.00  0.00     0.210 HD
ENDBRANCH  37  38
BRANCH  37  40
HETATM   40  C17 UNL     1      -4.279  49.934 -20.502  1.00  0.00    -0.054 C 
HETATM   41  C18 UNL     1      -5.083  50.938 -21.300  1.00  0.00     0.046 C 
HETATM   42  C19 UNL     1      -3.098  50.335 -19.981  1.00  0.00     0.005 C 
BRANCH  42  43
HETATM   43  C20 UNL     1      -2.179  49.555 -19.180  1.00  0.00     0.000 C 
HETATM   44  C21 UNL     1      -0.916  49.887 -18.857  1.00  0.00     0.000 C 
BRANCH  44  45
HETATM   45  C22 UNL     1      -0.179  51.055 -19.301  1.00  0.00     0.001 C 
HETATM   46  C23 UNL     1      -0.364  51.616 -20.510  1.00  0.00     0.009 C 
BRANCH  46  47
HETATM   47  C24 UNL     1       0.309  52.818 -21.028  1.00  0.00    -0.034 C 
HETATM   48  C25 UNL     1       0.647  53.882 -19.996  1.00  0.00     0.050 C 
HETATM   49  C26 UNL     1       0.568  52.949 -22.352  1.00  0.00     0.082 C 
HETATM   50  C27 UNL     1       0.313  52.047 -23.517  1.00  0.00     0.075 C 
BRANCH  49  51
HETATM   51  N2  UNL     1       1.236  54.158 -22.786  1.00  0.00    -0.120 N 
HETATM   52  O5  UNL     1       1.936  54.744 -21.951  1.00  0.00    -0.532 OA
HETATM   53  O6  UNL     1       1.078  54.490 -23.968  1.00  0.00    -0.532 OA
ENDBRANCH  49  51
ENDBRANCH  46  47
ENDBRANCH  44  45
ENDBRANCH  42  43
ENDBRANCH  37  40
ENDBRANCH  34  37
ENDBRANCH  31  34
ENDBRANCH  29  30
ENDBRANCH   2  29
TORSDOF 19
ENDMDL
MODEL 3
REMARK minimizedAffinity -8.25703144
REMARK CNNscore 0.193860352
REMARK CNNaffinity 6.1932168
REMARK  19 active torsions:
REMARK  status: ('A' for Active; 'I' for Inactive)
REMARK    1  A    between atoms: O1_2  and  C2_3 
REMARK    2  A    between atoms: C2_3  and  C3_4 
REMARK    3  A    between atoms: C2_3  and  C28_36 
REMARK    4  A    between atoms: C3_4  and  C4_5 
REMARK    5  A    between atoms: C4_5  and  C6_7 
REMARK    6  A    between atoms: C6_7  and  O2_8 
REMARK    7  A    between atoms: C6_7  and  C7_9 
REMARK    8  A    between atoms: C8_10  and  C9_11 
REMARK    9  A    between atoms: C10_12  and  C11_13 
REMARK   10  A    between atoms: C11_13  and  N1_14 
REMARK       I    between atoms: N1_14  and  C12_15 
REMARK   11  A    between atoms: C12_15  and  C13_17 
REMARK   12  A    between atoms: C13_17  and  C16_20 
REMARK   13  A    between atoms: C16_20  and  O4_21 
REMARK   14  A    between atoms: C16_20  and  C17_22 
REMARK   15  A    between atoms: C19_24  and  C20_25 
REMARK   16  A    between atoms: C21_26  and  C22_27 
REMARK   17  A    between atoms: C23_28  and  C24_29 
REMARK   18  A    between atoms: C26_31  and  N2_33 
REMARK   19  A    between atoms: C28_36  and  O7_37 
ROOT
HETATM    1  C9  UNL     1       0.288  51.460 -16.683  1.00  0.00    -0.003 C 
HETATM    2  C10 UNL     1       0.683  50.224 -16.334  1.00  0.00    -0.007 C 
ENDROOT
BRANCH   1   3
HETATM    3  C8  UNL     1       0.827  52.160 -17.826  1.00  0.00    -0.002 C 
HETATM    4  C7  UNL     1       0.275  52.086 -19.047  1.00  0.00     0.005 C 
BRANCH   4   5
HETATM    5  C6  UNL     1       0.765  52.717 -20.326  1.00  0.00     0.144 C 
BRANCH   5   6
HETATM    6  C4  UNL     1       0.238  52.162 -21.668  1.00  0.00     0.016 C 
HETATM    7  C5  UNL     1       0.677  52.962 -22.901  1.00  0.00     0.013 C 
BRANCH   6   8
HETATM    8  C3  UNL     1      -1.275  51.830 -21.685  1.00  0.00     0.042 C 
BRANCH   8   9
HETATM    9  C2  UNL     1      -1.884  50.563 -22.372  1.00  0.00     0.159 C 
BRANCH   9  10
HETATM   10  O1  UNL     1      -2.290  51.052 -23.673  1.00  0.00    -0.388 OA
HETATM   11  C1  UNL     1      -1.446  50.611 -24.742  1.00  0.00     0.202 C 
ENDBRANCH   9  10
BRANCH   9  12
HETATM   12  C28 UNL     1      -3.184  49.941 -21.727  1.00  0.00     0.133 C 
HETATM   13  C29 UNL     1      -3.878  50.939 -20.744  1.00  0.00     0.114 C 
HETATM   14  C30 UNL     1      -5.390  50.776 -20.600  1.00  0.00     0.023 C 
HETATM   15  C31 UNL     1      -3.231  50.668 -19.412  1.00  0.00     0.227 C 
HETATM   16  O8  UNL     1      -3.167  51.461 -18.488  1.00  0.00    -0.273 OA
HETATM   17  N3  UNL     1      -2.778  49.370 -19.429  1.00  0.00    -0.332 N 
HETATM   18  C32 UNL     1      -1.958  48.842 -18.357  1.00  0.00     0.154 C 
HETATM   19  C33 UNL     1      -2.874  48.727 -20.790  1.00  0.00     0.183 A 
HETATM   20  C34 UNL     1      -1.754  47.676 -21.093  1.00  0.00     0.294 A 
HETATM   21  C35 UNL     1      -3.765  47.426 -20.780  1.00  0.00     0.169 A 
HETATM   22  O9  UNL     1      -0.543  47.617 -21.100  1.00  0.00    -0.262 OA
HETATM   23  O10 UNL     1      -2.609  46.624 -21.162  1.00  0.00    -0.311 OA
HETATM   24  C36 UNL     1      -4.916  47.111 -21.717  1.00  0.00     0.043 C 
BRANCH  12  25
HETATM   25  O7  UNL     1      -4.116  49.552 -22.742  1.00  0.00    -0.383 OA
HETATM   26  H42 UNL     1      -4.240  50.283 -23.372  1.00  0.00     0.210 HD
ENDBRANCH  12  25
ENDBRANCH   9  12
ENDBRANCH   8   9
ENDBRANCH   6   8
ENDBRANCH   5   6
BRANCH   5  27
HETATM   27  O2  UNL     1       0.432  54.105 -20.240  1.00  0.00    -0.391 OA
HETATM   28  H12 UNL     1      -0.477  54.162 -19.892  1.00  0.00     0.210 HD
ENDBRANCH   5  27
ENDBRANCH   4   5
ENDBRANCH   1   3
BRANCH   2  29
HETATM   29  C11 UNL     1       0.147  49.401 -15.202  1.00  0.00     0.149 C 
BRANCH  29  30
HETATM   30  N1  UNL     1      -0.057  50.208 -14.029  1.00  0.00    -0.357 N 
HETATM   31  C12 UNL     1      -1.302  50.552 -13.555  1.00  0.00     0.228 C 
HETATM   32  O3  UNL     1      -2.338  50.245 -14.144  1.00  0.00    -0.273 OA
HETATM   33  H19 UNL     1       0.739  50.380 -13.416  1.00  0.00     0.162 HD
BRANCH  31  34
HETATM   34  C13 UNL     1      -1.290  51.383 -12.261  1.00  0.00     0.063 C 
HETATM   35  C14 UNL     1      -0.410  52.632 -12.466  1.00  0.00     0.028 C 
HETATM   36  C15 UNL     1      -0.634  50.523 -11.156  1.00  0.00     0.028 C 
BRANCH  34  37
HETATM   37  C16 UNL     1      -2.721  51.811 -11.815  1.00  0.00     0.164 C 
BRANCH  37  38
HETATM   38  O4  UNL     1      -3.174  52.951 -12.562  1.00  0.00    -0.390 OA
HETATM   39  H27 UNL     1      -4.085  53.122 -12.265  1.00  0.00     0.210 HD
ENDBRANCH  37  38
BRANCH  37  40
HETATM   40  C17 UNL     1      -2.939  52.087 -10.334  1.00  0.00    -0.054 C 
HETATM   41  C18 UNL     1      -3.275  50.900  -9.456  1.00  0.00     0.046 C 
HETATM   42  C19 UNL     1      -2.876  53.306  -9.756  1.00  0.00     0.005 C 
BRANCH  42  43
HETATM   43  C20 UNL     1      -2.562  54.567 -10.394  1.00  0.00     0.000 C 
HETATM   44  C21 UNL     1      -1.389  55.224 -10.338  1.00  0.00     0.000 C 
BRANCH  44  45
HETATM   45  C22 UNL     1      -0.217  54.853  -9.569  1.00  0.00     0.001 C 
HETATM   46  C23 UNL     1       1.038  55.093  -9.991  1.00  0.00     0.009 C 
BRANCH  46  47
HETATM   47  C24 UNL     1       2.279  54.787  -9.262  1.00  0.00    -0.034 C 
HETATM   48  C25 UNL     1       2.110  54.006  -7.968  1.00  0.00     0.050 C 
HETATM   49  C26 UNL     1       3.477  55.216  -9.728  1.00  0.00     0.082 C 
HETATM   50  C27 UNL     1       3.859  55.993 -10.947  1.00  0.00     0.075 C 
BRANCH  49  51
HETATM   51  N2  UNL     1       4.655  54.873  -8.958  1.00  0.00    -0.120 N 
HETATM   52  O5  UNL     1       5.738  55.316  -9.361  1.00  0.00    -0.532 OA
HETATM   53  O6  UNL     1       4.479  54.191  -7.941  1.00  0.00    -0.532 OA
ENDBRANCH  49  51
ENDBRANCH  46  47
ENDBRANCH  44  45
ENDBRANCH  42  43
ENDBRANCH  37  40
ENDBRANCH  34  37
ENDBRANCH  31  34
ENDBRANCH  29  30
ENDBRANCH   2  29
TORSDOF 19
ENDMDL
MODEL 4
REMARK minimizedAffinity -8.42055607
REMARK CNNscore 0.182332605
REMARK CNNaffinity 5.87996483
REMARK  19 active torsions:
REMARK  status: ('A' for Active; 'I' for Inactive)
REMARK    1  A    between atoms: O1_2  and  C2_3 
REMARK    2  A    between atoms: C2_3  and  C3_4 
REMARK    3  A    between atoms: C2_3  and  C28_36 
REMARK    4  A    between atoms: C3_4  and  C4_5 
REMARK    5  A    between atoms: C4_5  and  C6_7 
REMARK    6  A    between atoms: C6_7  and  O2_8 
REMARK    7  A    between atoms: C6_7  and  C7_9 
REMARK    8  A    between atoms: C8_10  and  C9_11 
REMARK    9  A    between atoms: C10_12  and  C11_13 
REMARK   10  A    between atoms: C11_13  and  N1_14 
REMARK       I    between atoms: N1_14  and  C12_15 
REMARK   11  A    between atoms: C12_15  and  C13_17 
REMARK   12  A    between atoms: C13_17  and  C16_20 
REMARK   13  A    between atoms: C16_20  and  O4_21 
REMARK   14  A    between atoms: C16_20  and  C17_22 
REMARK   15  A    between atoms: C19_24  and  C20_25 
REMARK   16  A    between atoms: C21_26  and  C22_27 
REMARK   17  A    between atoms: C23_28  and  C24_29 
REMARK   18  A    between atoms: C26_31  and  N2_33 
REMARK   19  A    between atoms: C28_36  and  O7_37 
ROOT
HETATM    1  C9  UNL     1      -7.583  48.784 -22.648  1.00  0.00    -0.003 C 
HETATM    2  C10 UNL     1      -7.283  49.645 -21.662  1.00  0.00    -0.007 C 
ENDROOT
BRANCH   1   3
HETATM    3  C8  UNL     1      -8.233  49.192 -23.872  1.00  0.00    -0.002 C 
HETATM    4  C7  UNL     1      -8.767  48.315 -24.736  1.00  0.00     0.005 C 
BRANCH   4   5
HETATM    5  C6  UNL     1      -9.419  48.603 -26.064  1.00  0.00     0.144 C 
BRANCH   5   6
HETATM    6  C4  UNL     1     -10.740  47.877 -26.408  1.00  0.00     0.016 C 
HETATM    7  C5  UNL     1     -11.375  47.126 -25.231  1.00  0.00     0.013 C 
BRANCH   6   8
HETATM    8  C3  UNL     1     -10.695  47.025 -27.701  1.00  0.00     0.042 C 
BRANCH   8   9
HETATM    9  C2  UNL     1     -10.333  47.595 -29.112  1.00  0.00     0.159 C 
BRANCH   9  10
HETATM   10  O1  UNL     1     -11.604  48.074 -29.614  1.00  0.00    -0.388 OA
HETATM   11  C1  UNL     1     -12.703  47.818 -28.734  1.00  0.00     0.202 C 
ENDBRANCH   9  10
BRANCH   9  12
HETATM   12  C28 UNL     1      -9.806  46.575 -30.195  1.00  0.00     0.133 C 
HETATM   13  C29 UNL     1      -9.172  45.306 -29.535  1.00  0.00     0.114 C 
HETATM   14  C30 UNL     1      -9.255  44.024 -30.361  1.00  0.00     0.023 C 
HETATM   15  C31 UNL     1      -7.723  45.666 -29.342  1.00  0.00     0.227 C 
HETATM   16  O8  UNL     1      -6.977  45.161 -28.521  1.00  0.00    -0.273 OA
HETATM   17  N3  UNL     1      -7.406  46.621 -30.279  1.00  0.00    -0.332 N 
HETATM   18  C32 UNL     1      -6.128  47.304 -30.259  1.00  0.00     0.154 C 
HETATM   19  C33 UNL     1      -8.608  47.139 -31.028  1.00  0.00     0.183 A 
HETATM   20  C34 UNL     1      -8.505  48.637 -31.469  1.00  0.00     0.294 A 
HETATM   21  C35 UNL     1      -8.491  46.917 -32.585  1.00  0.00     0.169 A 
HETATM   22  O9  UNL     1      -8.296  49.720 -30.963  1.00  0.00    -0.262 OA
HETATM   23  O10 UNL     1      -8.507  48.359 -32.797  1.00  0.00    -0.311 OA
HETATM   24  C36 UNL     1      -9.528  46.274 -33.486  1.00  0.00     0.043 C 
BRANCH  12  25
HETATM   25  O7  UNL     1     -10.866  46.172 -31.069  1.00  0.00    -0.383 OA
HETATM   26  H42 UNL     1     -11.640  45.902 -30.545  1.00  0.00     0.210 HD
ENDBRANCH  12  25
ENDBRANCH   9  12
ENDBRANCH   8   9
ENDBRANCH   6   8
ENDBRANCH   5   6
BRANCH   5  27
HETATM   27  O2  UNL     1      -9.649  50.013 -26.101  1.00  0.00    -0.391 OA
HETATM   28  H12 UNL     1     -10.001  50.271 -25.228  1.00  0.00     0.210 HD
ENDBRANCH   5  27
ENDBRANCH   4   5
ENDBRANCH   1   3
BRANCH   2  29
HETATM   29  C11 UNL     1      -6.566  49.326 -20.385  1.00  0.00     0.149 C 
BRANCH  29  30
HETATM   30  N1  UNL     1      -5.244  49.894 -20.380  1.00  0.00    -0.357 N 
HETATM   31  C12 UNL     1      -4.353  49.724 -19.345  1.00  0.00     0.228 C 
HETATM   32  O3  UNL     1      -4.649  49.123 -18.313  1.00  0.00    -0.273 OA
HETATM   33  H19 UNL     1      -4.881  50.282 -21.249  1.00  0.00     0.162 HD
BRANCH  31  34
HETATM   34  C13 UNL     1      -2.979  50.380 -19.566  1.00  0.00     0.063 C 
HETATM   35  C14 UNL     1      -2.822  51.570 -18.598  1.00  0.00     0.028 C 
HETATM   36  C15 UNL     1      -2.952  50.940 -21.006  1.00  0.00     0.028 C 
BRANCH  34  37
HETATM   37  C16 UNL     1      -1.803  49.377 -19.368  1.00  0.00     0.164 C 
BRANCH  37  38
HETATM   38  O4  UNL     1      -0.969  49.770 -18.267  1.00  0.00    -0.390 OA
HETATM   39  H27 UNL     1      -0.296  49.073 -18.176  1.00  0.00     0.210 HD
ENDBRANCH  37  38
BRANCH  37  40
HETATM   40  C17 UNL     1      -0.911  49.098 -20.571  1.00  0.00    -0.054 C 
HETATM   41  C18 UNL     1      -1.044  47.739 -21.224  1.00  0.00     0.046 C 
HETATM   42  C19 UNL     1      -0.005  49.961 -21.079  1.00  0.00     0.005 C 
BRANCH  42  43
HETATM   43  C20 UNL     1       0.280  51.307 -20.627  1.00  0.00     0.000 C 
HETATM   44  C21 UNL     1       0.426  52.398 -21.399  1.00  0.00     0.000 C 
BRANCH  44  45
HETATM   45  C22 UNL     1       0.408  52.451 -22.848  1.00  0.00     0.001 C 
HETATM   46  C23 UNL     1      -0.638  52.026 -23.579  1.00  0.00     0.009 C 
BRANCH  46  47
HETATM   47  C24 UNL     1      -0.758  52.076 -25.046  1.00  0.00    -0.034 C 
HETATM   48  C25 UNL     1       0.552  52.033 -25.817  1.00  0.00     0.050 C 
HETATM   49  C26 UNL     1      -1.973  52.186 -25.636  1.00  0.00     0.082 C 
HETATM   50  C27 UNL     1      -3.357  52.255 -25.075  1.00  0.00     0.075 C 
BRANCH  49  51
HETATM   51  N2  UNL     1      -2.012  52.226 -27.083  1.00  0.00    -0.120 N 
HETATM   52  O5  UNL     1      -1.992  51.140 -27.676  1.00  0.00    -0.532 OA
HETATM   53  O6  UNL     1      -2.093  53.343 -27.609  1.00  0.00    -0.532 OA
ENDBRANCH  49  51
ENDBRANCH  46  47
ENDBRANCH  44  45
ENDBRANCH  42  43
ENDBRANCH  37  40
ENDBRANCH  34  37
ENDBRANCH  31  34
ENDBRANCH  29  30
ENDBRANCH   2  29
TORSDOF 19
ENDMDL
MODEL 5
REMARK minimizedAffinity -8.94678688
REMARK CNNscore 0.180394888
REMARK CNNaffinity 6.42383957
REMARK  19 active torsions:
REMARK  status: ('A' for Active; 'I' for Inactive)
REMARK    1  A    between atoms: O1_2  and  C2_3 
REMARK    2  A    between atoms: C2_3  and  C3_4 
REMARK    3  A    between atoms: C2_3  and  C28_36 
REMARK    4  A    between atoms: C3_4  and  C4_5 
REMARK    5  A    between atoms: C4_5  and  C6_7 
REMARK    6  A    between atoms: C6_7  and  O2_8 
REMARK    7  A    between atoms: C6_7  and  C7_9 
REMARK    8  A    between atoms: C8_10  and  C9_11 
REMARK    9  A    between atoms: C10_12  and  C11_13 
REMARK   10  A    between atoms: C11_13  and  N1_14 
REMARK       I    between atoms: N1_14  and  C12_15 
REMARK   11  A    between atoms: C12_15  and  C13_17 
REMARK   12  A    between atoms: C13_17  and  C16_20 
REMARK   13  A    between atoms: C16_20  and  O4_21 
REMARK   14  A    between atoms: C16_20  and  C17_22 
REMARK   15  A    between atoms: C19_24  and  C20_25 
REMARK   16  A    between atoms: C21_26  and  C22_27 
REMARK   17  A    between atoms: C23_28  and  C24_29 
REMARK   18  A    between atoms: C26_31  and  N2_33 
REMARK   19  A    between atoms: C28_36  and  O7_37 
ROOT
HETATM    1  C9  UNL     1       0.702  52.630 -19.594  1.00  0.00    -0.003 C 
HETATM    2  C10 UNL     1       1.041  53.577 -20.485  1.00  0.00    -0.007 C 
ENDROOT
BRANCH   1   3
HETATM    3  C8  UNL     1       0.688  52.865 -18.169  1.00  0.00    -0.002 C 
HETATM    4  C7  UNL     1       0.962  51.904 -17.274  1.00  0.00     0.005 C 
BRANCH   4   5
HETATM    5  C6  UNL     1       0.929  52.002 -15.769  1.00  0.00     0.144 C 
BRANCH   5   6
HETATM    6  C4  UNL     1       0.607  50.728 -14.956  1.00  0.00     0.016 C 
HETATM    7  C5  UNL     1       0.113  49.546 -15.799  1.00  0.00     0.013 C 
BRANCH   6   8
HETATM    8  C3  UNL     1      -0.264  50.963 -13.697  1.00  0.00     0.042 C 
BRANCH   8   9
HETATM    9  C2  UNL     1      -0.250  52.285 -12.858  1.00  0.00     0.159 C 
BRANCH   9  10
HETATM   10  O1  UNL     1       1.079  52.301 -12.284  1.00  0.00    -0.388 OA
HETATM   11  C1  UNL     1       1.430  53.552 -11.684  1.00  0.00     0.202 C 
ENDBRANCH   9  10
BRANCH   9  12
HETATM   12  C28 UNL     1      -1.243  52.379 -11.635  1.00  0.00     0.133 C 
HETATM   13  C29 UNL     1      -0.929  51.299 -10.549  1.00  0.00     0.114 C 
HETATM   14  C30 UNL     1      -1.303  51.678  -9.117  1.00  0.00     0.023 C 
HETATM   15  C31 UNL     1      -1.741  50.101 -10.962  1.00  0.00     0.227 C 
HETATM   16  O8  UNL     1      -1.496  48.946 -10.658  1.00  0.00    -0.273 OA
HETATM   17  N3  UNL     1      -2.810  50.560 -11.696  1.00  0.00    -0.332 N 
HETATM   18  C32 UNL     1      -3.701  49.648 -12.385  1.00  0.00     0.154 C 
HETATM   19  C33 UNL     1      -2.717  52.030 -12.022  1.00  0.00     0.183 A 
HETATM   20  C34 UNL     1      -3.361  52.434 -13.391  1.00  0.00     0.294 A 
HETATM   21  C35 UNL     1      -3.947  52.849 -11.470  1.00  0.00     0.169 A 
HETATM   22  O9  UNL     1      -3.279  52.122 -14.560  1.00  0.00    -0.262 OA
HETATM   23  O10 UNL     1      -4.332  53.200 -12.831  1.00  0.00    -0.311 OA
HETATM   24  C36 UNL     1      -3.888  54.112 -10.632  1.00  0.00     0.043 C 
BRANCH  12  25
HETATM   25  O7  UNL     1      -1.187  53.679 -11.038  1.00  0.00    -0.383 OA
HETATM   26  H42 UNL     1      -0.260  53.928 -10.877  1.00  0.00     0.210 HD
ENDBRANCH  12  25
ENDBRANCH   9  12
ENDBRANCH   8   9
ENDBRANCH   6   8
ENDBRANCH   5   6
BRANCH   5  27
HETATM   27  O2  UNL     1       2.213  52.488 -15.371  1.00  0.00    -0.391 OA
HETATM   28  H12 UNL     1       2.879  52.003 -15.893  1.00  0.00     0.210 HD
ENDBRANCH   5  27
ENDBRANCH   4   5
ENDBRANCH   1   3
BRANCH   2  29
HETATM   29  C11 UNL     1       1.035  53.443 -21.977  1.00  0.00     0.149 C 
BRANCH  29  30
HETATM   30  N1  UNL     1      -0.104  52.686 -22.422  1.00  0.00    -0.357 N 
HETATM   31  C12 UNL     1      -0.621  52.777 -23.694  1.00  0.00     0.228 C 
HETATM   32  O3  UNL     1      -0.182  53.567 -24.529  1.00  0.00    -0.273 OA
HETATM   33  H19 UNL     1      -0.432  51.917 -21.840  1.00  0.00     0.162 HD
BRANCH  31  34
HETATM   34  C13 UNL     1      -1.814  51.845 -23.971  1.00  0.00     0.063 C 
HETATM   35  C14 UNL     1      -3.065  52.394 -23.257  1.00  0.00     0.028 C 
HETATM   36  C15 UNL     1      -1.487  50.467 -23.352  1.00  0.00     0.028 C 
BRANCH  34  37
HETATM   37  C16 UNL     1      -2.101  51.684 -25.495  1.00  0.00     0.164 C 
BRANCH  37  38
HETATM   38  O4  UNL     1      -3.512  51.729 -25.761  1.00  0.00    -0.390 OA
HETATM   39  H27 UNL     1      -3.605  51.675 -26.728  1.00  0.00     0.210 HD
ENDBRANCH  37  38
BRANCH  37  40
HETATM   40  C17 UNL     1      -1.520  50.461 -26.190  1.00  0.00    -0.054 C 
HETATM   41  C18 UNL     1      -0.170  50.626 -26.855  1.00  0.00     0.046 C 
HETATM   42  C19 UNL     1      -2.126  49.256 -26.274  1.00  0.00     0.005 C 
BRANCH  42  43
HETATM   43  C20 UNL     1      -3.401  48.871 -25.708  1.00  0.00     0.000 C 
HETATM   44  C21 UNL     1      -4.478  48.431 -26.383  1.00  0.00     0.000 C 
BRANCH  44  45
HETATM   45  C22 UNL     1      -4.622  48.321 -27.822  1.00  0.00     0.001 C 
HETATM   46  C23 UNL     1      -5.602  47.606 -28.404  1.00  0.00     0.009 C 
BRANCH  46  47
HETATM   47  C24 UNL     1      -5.845  47.471 -29.849  1.00  0.00    -0.034 C 
HETATM   48  C25 UNL     1      -5.395  48.642 -30.707  1.00  0.00     0.050 C 
HETATM   49  C26 UNL     1      -6.462  46.371 -30.345  1.00  0.00     0.082 C 
HETATM   50  C27 UNL     1      -6.987  45.134 -29.690  1.00  0.00     0.075 C 
BRANCH  49  51
HETATM   51  N2  UNL     1      -6.663  46.307 -31.778  1.00  0.00    -0.120 N 
HETATM   52  O5  UNL     1      -5.811  45.699 -32.438  1.00  0.00    -0.532 OA
HETATM   53  O6  UNL     1      -7.689  46.838 -32.222  1.00  0.00    -0.532 OA
ENDBRANCH  49  51
ENDBRANCH  46  47
ENDBRANCH  44  45
ENDBRANCH  42  43
ENDBRANCH  37  40
ENDBRANCH  34  37
ENDBRANCH  31  34
ENDBRANCH  29  30
ENDBRANCH   2  29
TORSDOF 19
ENDMDL
MODEL 6
REMARK minimizedAffinity -8.33552074
REMARK CNNscore 0.171934798
REMARK CNNaffinity 6.52673101
REMARK  19 active torsions:
REMARK  status: ('A' for Active; 'I' for Inactive)
REMARK    1  A    between atoms: O1_2  and  C2_3 
REMARK    2  A    between atoms: C2_3  and  C3_4 
REMARK    3  A    between atoms: C2_3  and  C28_36 
REMARK    4  A    between atoms: C3_4  and  C4_5 
REMARK    5  A    between atoms: C4_5  and  C6_7 
REMARK    6  A    between atoms: C6_7  and  O2_8 
REMARK    7  A    between atoms: C6_7  and  C7_9 
REMARK    8  A    between atoms: C8_10  and  C9_11 
REMARK    9  A    between atoms: C10_12  and  C11_13 
REMARK   10  A    between atoms: C11_13  and  N1_14 
REMARK       I    between atoms: N1_14  and  C12_15 
REMARK   11  A    between atoms: C12_15  and  C13_17 
REMARK   12  A    between atoms: C13_17  and  C16_20 
REMARK   13  A    between atoms: C16_20  and  O4_21 
REMARK   14  A    between atoms: C16_20  and  C17_22 
REMARK   15  A    between atoms: C19_24  and  C20_25 
REMARK   16  A    between atoms: C21_26  and  C22_27 
REMARK   17  A    between atoms: C23_28  and  C24_29 
REMARK   18  A    between atoms: C26_31  and  N2_33 
REMARK   19  A    between atoms: C28_36  and  O7_37 
ROOT
HETATM    1  C9  UNL     1      -4.379  48.474 -25.638  1.00  0.00    -0.003 C 
HETATM    2  C10 UNL     1      -5.500  48.085 -25.009  1.00  0.00    -0.007 C 
ENDROOT
BRANCH   1   3
HETATM    3  C8  UNL     1      -4.205  48.362 -27.068  1.00  0.00    -0.002 C 
HETATM    4  C7  UNL     1      -5.233  48.167 -27.909  1.00  0.00     0.005 C 
BRANCH   4   5
HETATM    5  C6  UNL     1      -5.183  47.978 -29.404  1.00  0.00     0.144 C 
BRANCH   5   6
HETATM    6  C4  UNL     1      -6.378  47.287 -30.098  1.00  0.00     0.016 C 
HETATM    7  C5  UNL     1      -7.384  46.644 -29.137  1.00  0.00     0.013 C 
BRANCH   6   8
HETATM    8  C3  UNL     1      -5.995  46.349 -31.270  1.00  0.00     0.042 C 
BRANCH   8   9
HETATM    9  C2  UNL     1      -6.911  45.198 -31.805  1.00  0.00     0.159 C 
BRANCH   9  10
HETATM   10  O1  UNL     1      -5.967  44.260 -32.377  1.00  0.00    -0.388 OA
HETATM   11  C1  UNL     1      -6.071  42.939 -31.835  1.00  0.00     0.202 C 
ENDBRANCH   9  10
BRANCH   9  12
HETATM   12  C28 UNL     1      -7.917  45.551 -32.968  1.00  0.00     0.133 C 
HETATM   13  C29 UNL     1      -7.801  47.050 -33.400  1.00  0.00     0.114 C 
HETATM   14  C30 UNL     1      -8.160  47.345 -34.855  1.00  0.00     0.023 C 
HETATM   15  C31 UNL     1      -8.768  47.776 -32.504  1.00  0.00     0.227 C 
HETATM   16  O8  UNL     1      -8.706  48.959 -32.215  1.00  0.00    -0.273 OA
HETATM   17  N3  UNL     1      -9.733  46.875 -32.121  1.00  0.00    -0.332 N 
HETATM   18  C32 UNL     1     -10.726  47.211 -31.121  1.00  0.00     0.154 C 
HETATM   19  C33 UNL     1      -9.414  45.457 -32.525  1.00  0.00     0.183 A 
HETATM   20  C34 UNL     1      -9.946  44.364 -31.539  1.00  0.00     0.294 A 
HETATM   21  C35 UNL     1     -10.525  44.829 -33.450  1.00  0.00     0.169 A 
HETATM   22  O9  UNL     1      -9.874  44.093 -30.359  1.00  0.00    -0.262 OA
HETATM   23  O10 UNL     1     -10.811  43.823 -32.435  1.00  0.00    -0.311 OA
HETATM   24  C36 UNL     1     -10.307  44.137 -34.783  1.00  0.00     0.043 C 
BRANCH  12  25
HETATM   25  O7  UNL     1      -7.688  44.713 -34.107  1.00  0.00    -0.383 OA
HETATM   26  H42 UNL     1      -6.741  44.708 -34.326  1.00  0.00     0.210 HD
ENDBRANCH  12  25
ENDBRANCH   9  12
ENDBRANCH   8   9
ENDBRANCH   6   8
ENDBRANCH   5   6
BRANCH   5  27
HETATM   27  O2  UNL     1      -5.018  49.282 -29.967  1.00  0.00    -0.391 OA
HETATM   28  H12 UNL     1      -5.623  49.880 -29.491  1.00  0.00     0.210 HD
ENDBRANCH   5  27
ENDBRANCH   4   5
ENDBRANCH   1   3
BRANCH   2  29
HETATM   29  C11 UNL     1      -5.792  48.210 -23.544  1.00  0.00     0.149 C 
BRANCH  29  30
HETATM   30  N1  UNL     1      -4.878  49.124 -22.912  1.00  0.00    -0.357 N 
HETATM   31  C12 UNL     1      -5.034  49.577 -21.623  1.00  0.00     0.228 C 
HETATM   32  O3  UNL     1      -6.009  49.282 -20.934  1.00  0.00    -0.273 OA
HETATM   33  H19 UNL     1      -3.981  49.301 -23.364  1.00  0.00     0.162 HD
BRANCH  31  34
HETATM   34  C13 UNL     1      -3.915  50.512 -21.131  1.00  0.00     0.063 C 
HETATM   35  C14 UNL     1      -4.525  51.601 -20.224  1.00  0.00     0.028 C 
HETATM   36  C15 UNL     1      -3.312  51.216 -22.368  1.00  0.00     0.028 C 
BRANCH  34  37
HETATM   37  C16 UNL     1      -2.796  49.748 -20.361  1.00  0.00     0.164 C 
BRANCH  37  38
HETATM   38  O4  UNL     1      -2.327  50.512 -19.239  1.00  0.00    -0.390 OA
HETATM   39  H27 UNL     1      -1.674  49.951 -18.785  1.00  0.00     0.210 HD
ENDBRANCH  37  38
BRANCH  37  40
HETATM   40  C17 UNL     1      -1.589  49.281 -21.164  1.00  0.00    -0.054 C 
HETATM   41  C18 UNL     1      -1.724  47.969 -21.906  1.00  0.00     0.046 C 
HETATM   42  C19 UNL     1      -0.411  49.938 -21.243  1.00  0.00     0.005 C 
BRANCH  42  43
HETATM   43  C20 UNL     1      -0.066  51.203 -20.631  1.00  0.00     0.000 C 
HETATM   44  C21 UNL     1      -0.046  52.406 -21.233  1.00  0.00     0.000 C 
BRANCH  44  45
HETATM   45  C22 UNL     1      -0.289  52.685 -22.635  1.00  0.00     0.001 C 
HETATM   46  C23 UNL     1       0.142  51.880 -23.623  1.00  0.00     0.009 C 
BRANCH  46  47
HETATM   47  C24 UNL     1      -0.091  52.064 -25.065  1.00  0.00    -0.034 C 
HETATM   48  C25 UNL     1      -0.509  50.819 -25.830  1.00  0.00     0.050 C 
HETATM   49  C26 UNL     1       0.097  53.274 -25.646  1.00  0.00     0.082 C 
HETATM   50  C27 UNL     1       0.510  54.600 -25.091  1.00  0.00     0.075 C 
BRANCH  49  51
HETATM   51  N2  UNL     1      -0.155  53.379 -27.068  1.00  0.00    -0.120 N 
HETATM   52  O5  UNL     1      -1.227  53.895 -27.413  1.00  0.00    -0.532 OA
HETATM   53  O6  UNL     1       0.735  52.973 -27.825  1.00  0.00    -0.532 OA
ENDBRANCH  49  51
ENDBRANCH  46  47
ENDBRANCH  44  45
ENDBRANCH  42  43
ENDBRANCH  37  40
ENDBRANCH  34  37
ENDBRANCH  31  34
ENDBRANCH  29  30
ENDBRANCH   2  29
TORSDOF 19
ENDMDL
MODEL 7
REMARK minimizedAffinity -8.4197216
REMARK CNNscore 0.170525387
REMARK CNNaffinity 6.1125164
REMARK  19 active torsions:
REMARK  status: ('A' for Active; 'I' for Inactive)
REMARK    1  A    between atoms: O1_2  and  C2_3 
REMARK    2  A    between atoms: C2_3  and  C3_4 
REMARK    3  A    between atoms: C2_3  and  C28_36 
REMARK    4  A    between atoms: C3_4  and  C4_5 
REMARK    5  A    between atoms: C4_5  and  C6_7 
REMARK    6  A    between atoms: C6_7  and  O2_8 
REMARK    7  A    between atoms: C6_7  and  C7_9 
REMARK    8  A    between atoms: C8_10  and  C9_11 
REMARK    9  A    between atoms: C10_12  and  C11_13 
REMARK   10  A    between atoms: C11_13  and  N1_14 
REMARK       I    between atoms: N1_14  and  C12_15 
REMARK   11  A    between atoms: C12_15  and  C13_17 
REMARK   12  A    between atoms: C13_17  and  C16_20 
REMARK   13  A    between atoms: C16_20  and  O4_21 
REMARK   14  A    between atoms: C16_20  and  C17_22 
REMARK   15  A    between atoms: C19_24  and  C20_25 
REMARK   16  A    between atoms: C21_26  and  C22_27 
REMARK   17  A    between atoms: C23_28  and  C24_29 
REMARK   18  A    between atoms: C26_31  and  N2_33 
REMARK   19  A    between atoms: C28_36  and  O7_37 
ROOT
HETATM    1  C9  UNL     1      -2.240  51.591 -12.288  1.00  0.00    -0.003 C 
HETATM    2  C10 UNL     1      -1.588  50.997 -13.301  1.00  0.00    -0.007 C 
ENDROOT
BRANCH   1   3
HETATM    3  C8  UNL     1      -1.581  52.440 -11.324  1.00  0.00    -0.002 C 
HETATM    4  C7  UNL     1      -2.169  53.520 -10.787  1.00  0.00     0.005 C 
BRANCH   4   5
HETATM    5  C6  UNL     1      -1.577  54.514  -9.820  1.00  0.00     0.144 C 
BRANCH   5   6
HETATM    6  C4  UNL     1      -0.176  54.226  -9.236  1.00  0.00     0.016 C 
HETATM    7  C5  UNL     1      -0.174  53.287  -8.024  1.00  0.00     0.013 C 
BRANCH   6   8
HETATM    8  C3  UNL     1       0.707  55.480  -9.017  1.00  0.00     0.042 C 
BRANCH   8   9
HETATM    9  C2  UNL     1       1.993  55.499  -8.125  1.00  0.00     0.159 C 
BRANCH   9  10
HETATM   10  O1  UNL     1       1.945  56.804  -7.499  1.00  0.00    -0.388 OA
HETATM   11  C1  UNL     1       2.077  56.764  -6.075  1.00  0.00     0.202 C 
ENDBRANCH   9  10
BRANCH   9  12
HETATM   12  C28 UNL     1       3.388  55.431  -8.860  1.00  0.00     0.133 C 
HETATM   13  C29 UNL     1       3.222  55.195 -10.397  1.00  0.00     0.114 C 
HETATM   14  C30 UNL     1       4.336  55.765 -11.273  1.00  0.00     0.023 C 
HETATM   15  C31 UNL     1       3.203  53.697 -10.549  1.00  0.00     0.227 C 
HETATM   16  O8  UNL     1       2.698  53.092 -11.478  1.00  0.00    -0.273 OA
HETATM   17  N3  UNL     1       3.888  53.165  -9.481  1.00  0.00    -0.332 N 
HETATM   18  C32 UNL     1       3.914  51.737  -9.237  1.00  0.00     0.154 C 
HETATM   19  C33 UNL     1       4.239  54.190  -8.432  1.00  0.00     0.183 A 
HETATM   20  C34 UNL     1       4.268  53.638  -6.968  1.00  0.00     0.294 A 
HETATM   21  C35 UNL     1       5.792  54.285  -8.177  1.00  0.00     0.169 A 
HETATM   22  O9  UNL     1       3.535  53.042  -6.207  1.00  0.00    -0.262 OA
HETATM   23  O10 UNL     1       5.600  53.845  -6.802  1.00  0.00    -0.311 OA
HETATM   24  C36 UNL     1       6.632  55.549  -8.178  1.00  0.00     0.043 C 
BRANCH  12  25
HETATM   25  O7  UNL     1       4.132  56.635  -8.644  1.00  0.00    -0.383 OA
HETATM   26  H42 UNL     1       3.571  57.407  -8.830  1.00  0.00     0.210 HD
ENDBRANCH  12  25
ENDBRANCH   9  12
ENDBRANCH   8   9
ENDBRANCH   6   8
ENDBRANCH   5   6
BRANCH   5  27
HETATM   27  O2  UNL     1      -1.540  55.767 -10.506  1.00  0.00    -0.391 OA
HETATM   28  H12 UNL     1      -1.215  55.592 -11.408  1.00  0.00     0.210 HD
ENDBRANCH   5  27
ENDBRANCH   4   5
ENDBRANCH   1   3
BRANCH   2  29
HETATM   29  C11 UNL     1      -2.193  50.146 -14.376  1.00  0.00     0.149 C 
BRANCH  29  30
HETATM   30  N1  UNL     1      -1.423  50.222 -15.589  1.00  0.00    -0.357 N 
HETATM   31  C12 UNL     1      -1.920  50.727 -16.768  1.00  0.00     0.228 C 
HETATM   32  O3  UNL     1      -3.089  51.093 -16.888  1.00  0.00    -0.273 OA
HETATM   33  H19 UNL     1      -0.417  50.071 -15.534  1.00  0.00     0.162 HD
BRANCH  31  34
HETATM   34  C13 UNL     1      -0.912  50.757 -17.930  1.00  0.00     0.063 C 
HETATM   35  C14 UNL     1      -0.862  49.367 -18.596  1.00  0.00     0.028 C 
HETATM   36  C15 UNL     1       0.485  51.042 -17.333  1.00  0.00     0.028 C 
BRANCH  34  37
HETATM   37  C16 UNL     1      -1.262  51.842 -18.993  1.00  0.00     0.164 C 
BRANCH  37  38
HETATM   38  O4  UNL     1      -2.519  51.557 -19.626  1.00  0.00    -0.390 OA
HETATM   39  H27 UNL     1      -2.690  52.299 -20.232  1.00  0.00     0.210 HD
ENDBRANCH  37  38
BRANCH  37  40
HETATM   40  C17 UNL     1      -0.229  52.117 -20.078  1.00  0.00    -0.054 C 
HETATM   41  C18 UNL     1       0.742  53.251 -19.829  1.00  0.00     0.046 C 
HETATM   42  C19 UNL     1      -0.131  51.441 -21.244  1.00  0.00     0.005 C 
BRANCH  42  43
HETATM   43  C20 UNL     1      -0.939  50.322 -21.683  1.00  0.00     0.000 C 
HETATM   44  C21 UNL     1      -1.551  50.194 -22.874  1.00  0.00     0.000 C 
BRANCH  44  45
HETATM   45  C22 UNL     1      -1.599  51.175 -23.941  1.00  0.00     0.001 C 
HETATM   46  C23 UNL     1      -0.493  51.709 -24.490  1.00  0.00     0.009 C 
BRANCH  46  47
HETATM   47  C24 UNL     1      -0.447  52.678 -25.597  1.00  0.00    -0.034 C 
HETATM   48  C25 UNL     1       0.099  54.053 -25.248  1.00  0.00     0.050 C 
HETATM   49  C26 UNL     1      -0.901  52.341 -26.829  1.00  0.00     0.082 C 
HETATM   50  C27 UNL     1      -1.478  51.074 -27.373  1.00  0.00     0.075 C 
BRANCH  49  51
HETATM   51  N2  UNL     1      -0.820  53.346 -27.868  1.00  0.00    -0.120 N 
HETATM   52  O5  UNL     1       0.178  53.320 -28.599  1.00  0.00    -0.532 OA
HETATM   53  O6  UNL     1      -1.772  54.131 -27.961  1.00  0.00    -0.532 OA
ENDBRANCH  49  51
ENDBRANCH  46  47
ENDBRANCH  44  45
ENDBRANCH  42  43
ENDBRANCH  37  40
ENDBRANCH  34  37
ENDBRANCH  31  34
ENDBRANCH  29  30
ENDBRANCH   2  29
TORSDOF 19
ENDMDL
MODEL 8
REMARK minimizedAffinity -8.6546402
REMARK CNNscore 0.161401838
REMARK CNNaffinity 6.35002375
REMARK  19 active torsions:
REMARK  status: ('A' for Active; 'I' for Inactive)
REMARK    1  A    between atoms: O1_2  and  C2_3 
REMARK    2  A    between atoms: C2_3  and  C3_4 
REMARK    3  A    between atoms: C2_3  and  C28_36 
REMARK    4  A    between atoms: C3_4  and  C4_5 
REMARK    5  A    between atoms: C4_5  and  C6_7 
REMARK    6  A    between atoms: C6_7  and  O2_8 
REMARK    7  A    between atoms: C6_7  and  C7_9 
REMARK    8  A    between atoms: C8_10  and  C9_11 
REMARK    9  A    between atoms: C10_12  and  C11_13 
REMARK   10  A    between atoms: C11_13  and  N1_14 
REMARK       I    between atoms: N1_14  and  C12_15 
REMARK   11  A    between atoms: C12_15  and  C13_17 
REMARK   12  A    between atoms: C13_17  and  C16_20 
REMARK   13  A    between atoms: C16_20  and  O4_21 
REMARK   14  A    between atoms: C16_20  and  C17_22 
REMARK   15  A    between atoms: C19_24  and  C20_25 
REMARK   16  A    between atoms: C21_26  and  C22_27 
REMARK   17  A    between atoms: C23_28  and  C24_29 
REMARK   18  A    between atoms: C26_31  and  N2_33 
REMARK   19  A    between atoms: C28_36  and  O7_37 
ROOT
HETATM    1  C9  UNL     1       0.667  52.823 -21.711  1.00  0.00    -0.003 C 
HETATM    2  C10 UNL     1       0.163  52.209 -22.794  1.00  0.00    -0.007 C 
ENDROOT
BRANCH   1   3
HETATM    3  C8  UNL     1       0.390  52.384 -20.363  1.00  0.00    -0.002 C 
HETATM    4  C7  UNL     1       0.953  52.953 -19.286  1.00  0.00     0.005 C 
BRANCH   4   5
HETATM    5  C6  UNL     1       0.793  52.559 -17.839  1.00  0.00     0.144 C 
BRANCH   5   6
HETATM    6  C4  UNL     1       0.682  51.056 -17.495  1.00  0.00     0.016 C 
HETATM    7  C5  UNL     1      -0.570  50.369 -18.051  1.00  0.00     0.013 C 
BRANCH   6   8
HETATM    8  C3  UNL     1       0.938  50.711 -16.006  1.00  0.00     0.042 C 
BRANCH   8   9
HETATM    9  C2  UNL     1       0.376  51.543 -14.806  1.00  0.00     0.159 C 
BRANCH   9  10
HETATM   10  O1  UNL     1       1.418  51.430 -13.806  1.00  0.00    -0.388 OA
HETATM   11  C1  UNL     1       2.741  51.550 -14.339  1.00  0.00     0.202 C 
ENDBRANCH   9  10
BRANCH   9  12
HETATM   12  C28 UNL     1      -0.940  51.018 -14.111  1.00  0.00     0.133 C 
HETATM   13  C29 UNL     1      -1.510  52.056 -13.090  1.00  0.00     0.114 C 
HETATM   14  C30 UNL     1      -3.022  52.012 -12.882  1.00  0.00     0.023 C 
HETATM   15  C31 UNL     1      -0.830  51.718 -11.790  1.00  0.00     0.227 C 
HETATM   16  O8  UNL     1      -0.664  52.492 -10.862  1.00  0.00    -0.273 OA
HETATM   17  N3  UNL     1      -0.483  50.389 -11.838  1.00  0.00    -0.332 N 
HETATM   18  C32 UNL     1       0.337  49.784 -10.808  1.00  0.00     0.154 C 
HETATM   19  C33 UNL     1      -0.688  49.772 -13.199  1.00  0.00     0.183 A 
HETATM   20  C34 UNL     1       0.330  48.640 -13.560  1.00  0.00     0.294 A 
HETATM   21  C35 UNL     1      -1.679  48.546 -13.162  1.00  0.00     0.169 A 
HETATM   22  O9  UNL     1       1.531  48.485 -13.621  1.00  0.00    -0.262 OA
HETATM   23  O10 UNL     1      -0.608  47.660 -13.602  1.00  0.00    -0.311 OA
HETATM   24  C36 UNL     1      -2.890  48.335 -14.051  1.00  0.00     0.043 C 
BRANCH  12  25
HETATM   25  O7  UNL     1      -1.942  50.717 -15.088  1.00  0.00    -0.383 OA
HETATM   26  H42 UNL     1      -2.035  51.463 -15.705  1.00  0.00     0.210 HD
ENDBRANCH  12  25
ENDBRANCH   9  12
ENDBRANCH   8   9
ENDBRANCH   6   8
ENDBRANCH   5   6
BRANCH   5  27
HETATM   27  O2  UNL     1       1.917  53.106 -17.148  1.00  0.00    -0.391 OA
HETATM   28  H12 UNL     1       2.704  52.937 -17.698  1.00  0.00     0.210 HD
ENDBRANCH   5  27
ENDBRANCH   4   5
ENDBRANCH   1   3
BRANCH   2  29
HETATM   29  C11 UNL     1       0.435  52.557 -24.226  1.00  0.00     0.149 C 
BRANCH  29  30
HETATM   30  N1  UNL     1      -0.759  52.444 -25.021  1.00  0.00    -0.357 N 
HETATM   31  C12 UNL     1      -0.961  51.444 -25.943  1.00  0.00     0.228 C 
HETATM   32  O3  UNL     1      -0.100  50.603 -26.203  1.00  0.00    -0.273 OA
HETATM   33  H19 UNL     1      -1.565  53.013 -24.766  1.00  0.00     0.162 HD
BRANCH  31  34
HETATM   34  C13 UNL     1      -2.327  51.487 -26.649  1.00  0.00     0.063 C 
HETATM   35  C14 UNL     1      -2.358  52.681 -27.624  1.00  0.00     0.028 C 
HETATM   36  C15 UNL     1      -3.406  51.734 -25.570  1.00  0.00     0.028 C 
BRANCH  34  37
HETATM   37  C16 UNL     1      -2.642  50.167 -27.417  1.00  0.00     0.164 C 
BRANCH  37  38
HETATM   38  O4  UNL     1      -3.377  50.435 -28.621  1.00  0.00    -0.390 OA
HETATM   39  H27 UNL     1      -3.488  49.575 -29.065  1.00  0.00     0.210 HD
ENDBRANCH  37  38
BRANCH  37  40
HETATM   40  C17 UNL     1      -3.359  49.066 -26.649  1.00  0.00    -0.054 C 
HETATM   41  C18 UNL     1      -3.009  48.908 -25.185  1.00  0.00     0.046 C 
HETATM   42  C19 UNL     1      -4.263  48.213 -27.181  1.00  0.00     0.005 C 
BRANCH  42  43
HETATM   43  C20 UNL     1      -4.754  48.188 -28.543  1.00  0.00     0.000 C 
HETATM   44  C21 UNL     1      -6.036  48.071 -28.931  1.00  0.00     0.000 C 
BRANCH  44  45
HETATM   45  C22 UNL     1      -7.191  47.867 -28.078  1.00  0.00     0.001 C 
HETATM   46  C23 UNL     1      -8.441  48.191 -28.454  1.00  0.00     0.009 C 
BRANCH  46  47
HETATM   47  C24 UNL     1      -9.671  47.986 -27.672  1.00  0.00    -0.034 C 
HETATM   48  C25 UNL     1      -9.501  47.990 -26.161  1.00  0.00     0.050 C 
HETATM   49  C26 UNL     1     -10.858  47.778 -28.293  1.00  0.00     0.082 C 
HETATM   50  C27 UNL     1     -11.238  47.723 -29.738  1.00  0.00     0.075 C 
BRANCH  49  51
HETATM   51  N2  UNL     1     -12.025  47.588 -27.457  1.00  0.00    -0.120 N 
HETATM   52  O5  UNL     1     -12.216  48.419 -26.560  1.00  0.00    -0.532 OA
HETATM   53  O6  UNL     1     -12.755  46.626 -27.727  1.00  0.00    -0.532 OA
ENDBRANCH  49  51
ENDBRANCH  46  47
ENDBRANCH  44  45
ENDBRANCH  42  43
ENDBRANCH  37  40
ENDBRANCH  34  37
ENDBRANCH  31  34
ENDBRANCH  29  30
ENDBRANCH   2  29
TORSDOF 19
ENDMDL
MODEL 9
REMARK minimizedAffinity -8.8139677
REMARK CNNscore 0.157928333
REMARK CNNaffinity 7.06369638
REMARK  19 active torsions:
REMARK  status: ('A' for Active; 'I' for Inactive)
REMARK    1  A    between atoms: O1_2  and  C2_3 
REMARK    2  A    between atoms: C2_3  and  C3_4 
REMARK    3  A    between atoms: C2_3  and  C28_36 
REMARK    4  A    between atoms: C3_4  and  C4_5 
REMARK    5  A    between atoms: C4_5  and  C6_7 
REMARK    6  A    between atoms: C6_7  and  O2_8 
REMARK    7  A    between atoms: C6_7  and  C7_9 
REMARK    8  A    between atoms: C8_10  and  C9_11 
REMARK    9  A    between atoms: C10_12  and  C11_13 
REMARK   10  A    between atoms: C11_13  and  N1_14 
REMARK       I    between atoms: N1_14  and  C12_15 
REMARK   11  A    between atoms: C12_15  and  C13_17 
REMARK   12  A    between atoms: C13_17  and  C16_20 
REMARK   13  A    between atoms: C16_20  and  O4_21 
REMARK   14  A    between atoms: C16_20  and  C17_22 
REMARK   15  A    between atoms: C19_24  and  C20_25 
REMARK   16  A    between atoms: C21_26  and  C22_27 
REMARK   17  A    between atoms: C23_28  and  C24_29 
REMARK   18  A    between atoms: C26_31  and  N2_33 
REMARK   19  A    between atoms: C28_36  and  O7_37 
ROOT
HETATM    1  C9  UNL     1       0.007  51.331 -20.691  1.00  0.00    -0.003 C 
HETATM    2  C10 UNL     1       0.595  52.527 -20.520  1.00  0.00    -0.007 C 
ENDROOT
BRANCH   1   3
HETATM    3  C8  UNL     1      -0.570  50.580 -19.600  1.00  0.00    -0.002 C 
HETATM    4  C7  UNL     1      -0.890  51.141 -18.424  1.00  0.00     0.005 C 
BRANCH   4   5
HETATM    5  C6  UNL     1      -1.443  50.465 -17.194  1.00  0.00     0.144 C 
BRANCH   5   6
HETATM    6  C4  UNL     1      -0.497  50.232 -15.995  1.00  0.00     0.016 C 
HETATM    7  C5  UNL     1       0.092  48.819 -15.917  1.00  0.00     0.013 C 
BRANCH   6   8
HETATM    8  C3  UNL     1      -1.044  50.723 -14.631  1.00  0.00     0.042 C 
BRANCH   8   9
HETATM    9  C2  UNL     1      -0.385  51.860 -13.782  1.00  0.00     0.159 C 
BRANCH   9  10
HETATM   10  O1  UNL     1       0.976  51.397 -13.606  1.00  0.00    -0.388 OA
HETATM   11  C1  UNL     1       1.951  52.218 -14.258  1.00  0.00     0.202 C 
ENDBRANCH   9  10
BRANCH   9  12
HETATM   12  C28 UNL     1      -0.945  52.097 -12.326  1.00  0.00     0.133 C 
HETATM   13  C29 UNL     1      -0.471  50.985 -11.333  1.00  0.00     0.114 C 
HETATM   14  C30 UNL     1      -0.346  51.416  -9.874  1.00  0.00     0.023 C 
HETATM   15  C31 UNL     1      -1.525  49.914 -11.436  1.00  0.00     0.227 C 
HETATM   16  O8  UNL     1      -1.359  48.737 -11.167  1.00  0.00    -0.273 OA
HETATM   17  N3  UNL     1      -2.691  50.520 -11.841  1.00  0.00    -0.332 N 
HETATM   18  C32 UNL     1      -3.862  49.743 -12.196  1.00  0.00     0.154 C 
HETATM   19  C33 UNL     1      -2.501  51.961 -12.245  1.00  0.00     0.183 A 
HETATM   20  C34 UNL     1      -3.462  52.450 -13.379  1.00  0.00     0.294 A 
HETATM   21  C35 UNL     1      -3.387  52.947 -11.392  1.00  0.00     0.169 A 
HETATM   22  O9  UNL     1      -3.776  52.128 -14.506  1.00  0.00    -0.262 OA
HETATM   23  O10 UNL     1      -4.109  53.348 -12.593  1.00  0.00    -0.311 OA
HETATM   24  C36 UNL     1      -2.910  54.191 -10.665  1.00  0.00     0.043 C 
BRANCH  12  25
HETATM   25  O7  UNL     1      -0.538  53.377 -11.830  1.00  0.00    -0.383 OA
HETATM   26  H42 UNL     1       0.419  53.492 -11.960  1.00  0.00     0.210 HD
ENDBRANCH  12  25
ENDBRANCH   9  12
ENDBRANCH   8   9
ENDBRANCH   6   8
ENDBRANCH   5   6
BRANCH   5  27
HETATM   27  O2  UNL     1      -2.546  51.264 -16.760  1.00  0.00    -0.391 OA
HETATM   28  H12 UNL     1      -2.267  52.196 -16.817  1.00  0.00     0.210 HD
ENDBRANCH   5  27
ENDBRANCH   4   5
ENDBRANCH   1   3
BRANCH   2  29
HETATM   29  C11 UNL     1       1.172  53.400 -21.592  1.00  0.00     0.149 C 
BRANCH  29  30
HETATM   30  N1  UNL     1       0.578  53.109 -22.869  1.00  0.00    -0.357 N 
HETATM   31  C12 UNL     1       0.782  53.881 -23.990  1.00  0.00     0.228 C 
HETATM   32  O3  UNL     1       1.441  54.920 -23.964  1.00  0.00    -0.273 OA
HETATM   33  H19 UNL     1       0.140  52.199 -23.004  1.00  0.00     0.162 HD
BRANCH  31  34
HETATM   34  C13 UNL     1       0.088  53.363 -25.262  1.00  0.00     0.063 C 
HETATM   35  C14 UNL     1       0.174  54.441 -26.362  1.00  0.00     0.028 C 
HETATM   36  C15 UNL     1      -1.407  53.151 -24.928  1.00  0.00     0.028 C 
BRANCH  34  37
HETATM   37  C16 UNL     1       0.708  52.029 -25.777  1.00  0.00     0.164 C 
BRANCH  37  38
HETATM   38  O4  UNL     1       2.063  52.224 -26.211  1.00  0.00    -0.390 OA
HETATM   39  H27 UNL     1       2.393  51.345 -26.466  1.00  0.00     0.210 HD
ENDBRANCH  37  38
BRANCH  37  40
HETATM   40  C17 UNL     1      -0.046  51.285 -26.870  1.00  0.00    -0.054 C 
HETATM   41  C18 UNL     1       0.344  51.587 -28.301  1.00  0.00     0.046 C 
HETATM   42  C19 UNL     1      -1.042  50.397 -26.657  1.00  0.00     0.005 C 
BRANCH  42  43
HETATM   43  C20 UNL     1      -1.566  49.950 -25.384  1.00  0.00     0.000 C 
HETATM   44  C21 UNL     1      -2.801  49.473 -25.148  1.00  0.00     0.000 C 
BRANCH  44  45
HETATM   45  C22 UNL     1      -3.895  49.376 -26.095  1.00  0.00     0.001 C 
HETATM   46  C23 UNL     1      -4.176  48.246 -26.770  1.00  0.00     0.009 C 
BRANCH  46  47
HETATM   47  C24 UNL     1      -5.284  48.047 -27.718  1.00  0.00    -0.034 C 
HETATM   48  C25 UNL     1      -4.954  48.295 -29.181  1.00  0.00     0.050 C 
HETATM   49  C26 UNL     1      -6.516  47.693 -27.275  1.00  0.00     0.082 C 
HETATM   50  C27 UNL     1      -7.049  47.416 -25.906  1.00  0.00     0.075 C 
BRANCH  49  51
HETATM   51  N2  UNL     1      -7.555  47.512 -28.267  1.00  0.00    -0.120 N 
HETATM   52  O5  UNL     1      -8.660  48.012 -28.022  1.00  0.00    -0.532 OA
HETATM   53  O6  UNL     1      -7.244  46.897 -29.296  1.00  0.00    -0.532 OA
ENDBRANCH  49  51
ENDBRANCH  46  47
ENDBRANCH  44  45
ENDBRANCH  42  43
ENDBRANCH  37  40
ENDBRANCH  34  37
ENDBRANCH  31  34
ENDBRANCH  29  30
ENDBRANCH   2  29
TORSDOF 19
ENDMDL
