MODEL 1
REMARK minimizedAffinity -7.63137388
REMARK CNNscore 0.632187665
REMARK CNNaffinity 6.86418581
REMARK  8 active torsions:
REMARK  status: ('A' for Active; 'I' for Inactive)
REMARK    1  A    between atoms: C5_5  and  C6_6 
REMARK    2  A    between atoms: C6_6  and  O1_9 
REMARK    3  A    between atoms: C14_16  and  C15_17 
REMARK    4  A    between atoms: C16_19  and  O4_20 
REMARK    5  A    between atoms: C17_21  and  C18_22 
REMARK    6  A    between atoms: C19_24  and  O6_25 
REMARK    7  A    between atoms: C21_27  and  C22_28 
REMARK    8  A    between atoms: C22_28  and  C23_29 
ROOT
HETATM    1  C1  UNL     1      -1.027   9.112  10.257  1.00  0.00     0.019 C 
HETATM    2  C2  UNL     1      -0.831   8.887  11.571  1.00  0.00    -0.068 C 
HETATM    3  C3  UNL     1       0.545   8.787  12.042  1.00  0.00     0.003 C 
HETATM    4  C4  UNL     1       1.113   8.201  13.113  1.00  0.00    -0.019 C 
HETATM    5  C5  UNL     1       0.503   7.417  14.260  1.00  0.00     0.042 C 
HETATM    6  C9  UNL     1       0.365   5.903  13.920  1.00  0.00     0.014 C 
HETATM    7  C10 UNL     1      -0.231   5.536  12.546  1.00  0.00     0.039 C 
HETATM    8  C11 UNL     1      -1.778   5.399  12.401  1.00  0.00     0.068 C 
HETATM    9  C12 UNL     1      -2.042   5.372  10.868  1.00  0.00     0.047 C 
HETATM   10  O2  UNL     1      -2.078   4.053  12.911  1.00  0.00    -0.338 OA
HETATM   11  C13 UNL     1      -3.410   3.736  12.741  1.00  0.00     0.095 A 
HETATM   12  C14 UNL     1      -3.769   2.534  12.130  1.00  0.00     0.070 A 
HETATM   13  C16 UNL     1      -5.117   2.292  11.838  1.00  0.00     0.097 A 
HETATM   14  C17 UNL     1      -6.077   3.262  12.151  1.00  0.00     0.069 A 
HETATM   15  C19 UNL     1      -5.701   4.455  12.804  1.00  0.00     0.091 A 
HETATM   16  C20 UNL     1      -4.369   4.678  13.158  1.00  0.00     0.015 A 
HETATM   17  C21 UNL     1      -3.785   5.796  13.994  1.00  0.00     0.031 C 
HETATM   18  C26 UNL     1      -2.617   6.474  13.194  1.00  0.00     0.029 C 
HETATM   19  C27 UNL     1      -3.024   7.737  12.394  1.00  0.00     0.013 C 
HETATM   20  C28 UNL     1      -2.031   8.919  12.490  1.00  0.00     0.038 C 
ENDROOT
BRANCH   5  21
HETATM   21  C6  UNL     1       1.234   7.667  15.636  1.00  0.00     0.057 C 
HETATM   22  C7  UNL     1       2.712   7.249  15.562  1.00  0.00     0.046 C 
HETATM   23  C8  UNL     1       1.145   9.108  16.157  1.00  0.00     0.046 C 
BRANCH  21  24
HETATM   24  O1  UNL     1       0.620   6.813  16.617  1.00  0.00    -0.390 OA
HETATM   25  H12 UNL     1       1.067   6.953  17.469  1.00  0.00     0.210 HD
ENDBRANCH  21  24
ENDBRANCH   5  21
BRANCH  17  26
HETATM   26  C22 UNL     1      -4.673   6.792  14.786  1.00  0.00     0.014 C 
BRANCH  26  27
HETATM   27  C23 UNL     1      -6.123   6.341  15.102  1.00  0.00    -0.022 C 
HETATM   28  C24 UNL     1      -7.136   7.471  14.883  1.00  0.00     0.009 C 
HETATM   29  C25 UNL     1      -6.316   5.726  16.484  1.00  0.00     0.009 C 
ENDBRANCH  26  27
ENDBRANCH  17  26
BRANCH  12  30
HETATM   30  C15 UNL     1      -2.724   1.558  11.772  1.00  0.00     0.275 C 
HETATM   31  O3  UNL     1      -1.977   1.776  10.821  1.00  0.00    -0.301 OA
ENDBRANCH  12  30
BRANCH  13  32
HETATM   32  O4  UNL     1      -5.523   1.133  11.224  1.00  0.00    -0.359 OA
HETATM   33  H21 UNL     1      -4.732   0.565  11.063  1.00  0.00     0.217 HD
ENDBRANCH  13  32
BRANCH  15  34
HETATM   34  O6  UNL     1      -6.622   5.425  13.084  1.00  0.00    -0.359 OA
HETATM   35  H23 UNL     1      -7.508   5.131  12.770  1.00  0.00     0.217 HD
ENDBRANCH  15  34
BRANCH  14  36
HETATM   36  C18 UNL     1      -7.490   3.015  11.790  1.00  0.00     0.275 C 
HETATM   37  O5  UNL     1      -8.352   2.934  12.662  1.00  0.00    -0.301 OA
ENDBRANCH  14  36
TORSDOF 8
ENDMDL
MODEL 2
REMARK minimizedAffinity -7.61370468
REMARK CNNscore 0.423084497
REMARK CNNaffinity 6.46459961
REMARK  8 active torsions:
REMARK  status: ('A' for Active; 'I' for Inactive)
REMARK    1  A    between atoms: C5_5  and  C6_6 
REMARK    2  A    between atoms: C6_6  and  O1_9 
REMARK    3  A    between atoms: C14_16  and  C15_17 
REMARK    4  A    between atoms: C16_19  and  O4_20 
REMARK    5  A    between atoms: C17_21  and  C18_22 
REMARK    6  A    between atoms: C19_24  and  O6_25 
REMARK    7  A    between atoms: C21_27  and  C22_28 
REMARK    8  A    between atoms: C22_28  and  C23_29 
ROOT
HETATM    1  C1  UNL     1      -0.347   8.838   9.984  1.00  0.00     0.019 C 
HETATM    2  C2  UNL     1      -0.160   8.748  11.315  1.00  0.00    -0.068 C 
HETATM    3  C3  UNL     1       1.182   8.435  11.790  1.00  0.00     0.003 C 
HETATM    4  C4  UNL     1       1.654   7.890  12.927  1.00  0.00    -0.019 C 
HETATM    5  C5  UNL     1       0.935   7.398  14.170  1.00  0.00     0.042 C 
HETATM    6  C9  UNL     1       0.489   5.912  14.033  1.00  0.00     0.014 C 
HETATM    7  C10 UNL     1      -0.209   5.499  12.722  1.00  0.00     0.039 C 
HETATM    8  C11 UNL     1      -1.757   5.658  12.602  1.00  0.00     0.068 C 
HETATM    9  C12 UNL     1      -2.066   5.488  11.087  1.00  0.00     0.047 C 
HETATM   10  O2  UNL     1      -2.302   4.477  13.286  1.00  0.00    -0.338 OA
HETATM   11  C13 UNL     1      -3.675   4.415  13.165  1.00  0.00     0.095 A 
HETATM   12  C14 UNL     1      -4.284   3.241  12.719  1.00  0.00     0.070 A 
HETATM   13  C16 UNL     1      -5.661   3.240  12.467  1.00  0.00     0.097 A 
HETATM   14  C17 UNL     1      -6.400   4.415  12.652  1.00  0.00     0.069 A 
HETATM   15  C19 UNL     1      -5.774   5.582  13.141  1.00  0.00     0.091 A 
HETATM   16  C20 UNL     1      -4.415   5.577  13.457  1.00  0.00     0.015 A 
HETATM   17  C21 UNL     1      -3.595   6.652  14.136  1.00  0.00     0.031 C 
HETATM   18  C26 UNL     1      -2.340   6.972  13.249  1.00  0.00     0.029 C 
HETATM   19  C27 UNL     1      -2.512   8.178  12.291  1.00  0.00     0.013 C 
HETATM   20  C28 UNL     1      -1.302   9.139  12.226  1.00  0.00     0.038 C 
ENDROOT
BRANCH   5  21
HETATM   21  C6  UNL     1       1.743   7.671  15.498  1.00  0.00     0.057 C 
HETATM   22  C7  UNL     1       3.195   7.181  15.373  1.00  0.00     0.046 C 
HETATM   23  C8  UNL     1       1.744   9.136  15.958  1.00  0.00     0.046 C 
BRANCH  21  24
HETATM   24  O1  UNL     1       1.139   6.889  16.543  1.00  0.00    -0.390 OA
HETATM   25  H12 UNL     1       1.632   7.043  17.366  1.00  0.00     0.210 HD
ENDBRANCH  21  24
ENDBRANCH   5  21
BRANCH  17  26
HETATM   26  C22 UNL     1      -4.243   7.899  14.793  1.00  0.00     0.014 C 
BRANCH  26  27
HETATM   27  C23 UNL     1      -3.299   8.854  15.570  1.00  0.00    -0.022 C 
HETATM   28  C24 UNL     1      -2.341   8.089  16.491  1.00  0.00     0.009 C 
HETATM   29  C25 UNL     1      -4.006   9.958  16.349  1.00  0.00     0.009 C 
ENDBRANCH  26  27
ENDBRANCH  17  26
BRANCH  12  30
HETATM   30  C15 UNL     1      -3.465   2.037  12.489  1.00  0.00     0.275 C 
HETATM   31  O3  UNL     1      -3.480   1.481  11.394  1.00  0.00    -0.301 OA
ENDBRANCH  12  30
BRANCH  13  32
HETATM   32  O4  UNL     1      -6.308   2.117  12.013  1.00  0.00    -0.359 OA
HETATM   33  H21 UNL     1      -5.651   1.386  11.925  1.00  0.00     0.217 HD
ENDBRANCH  13  32
BRANCH  15  34
HETATM   34  O6  UNL     1      -6.475   6.745  13.293  1.00  0.00    -0.359 OA
HETATM   35  H23 UNL     1      -7.412   6.597  13.024  1.00  0.00     0.217 HD
ENDBRANCH  15  34
BRANCH  14  36
HETATM   36  C18 UNL     1      -7.844   4.412  12.332  1.00  0.00     0.275 C 
HETATM   37  O5  UNL     1      -8.604   3.622  12.887  1.00  0.00    -0.301 OA
ENDBRANCH  14  36
TORSDOF 8
ENDMDL
MODEL 3
REMARK minimizedAffinity -5.36592436
REMARK CNNscore 0.253168076
REMARK CNNaffinity 5.13399935
REMARK  8 active torsions:
REMARK  status: ('A' for Active; 'I' for Inactive)
REMARK    1  A    between atoms: C5_5  and  C6_6 
REMARK    2  A    between atoms: C6_6  and  O1_9 
REMARK    3  A    between atoms: C14_16  and  C15_17 
REMARK    4  A    between atoms: C16_19  and  O4_20 
REMARK    5  A    between atoms: C17_21  and  C18_22 
REMARK    6  A    between atoms: C19_24  and  O6_25 
REMARK    7  A    between atoms: C21_27  and  C22_28 
REMARK    8  A    between atoms: C22_28  and  C23_29 
ROOT
HETATM    1  C1  UNL     1       9.096  20.382  23.193  1.00  0.00     0.019 C 
HETATM    2  C2  UNL     1       8.381  19.905  24.230  1.00  0.00    -0.068 C 
HETATM    3  C3  UNL     1       8.996  19.945  25.551  1.00  0.00     0.003 C 
HETATM    4  C4  UNL     1       8.798  19.242  26.682  1.00  0.00    -0.019 C 
HETATM    5  C5  UNL     1       7.822  18.124  27.004  1.00  0.00     0.042 C 
HETATM    6  C9  UNL     1       8.397  16.726  26.628  1.00  0.00     0.014 C 
HETATM    7  C10 UNL     1       9.057  16.579  25.243  1.00  0.00     0.039 C 
HETATM    8  C11 UNL     1       8.170  16.208  24.013  1.00  0.00     0.068 C 
HETATM    9  C12 UNL     1       9.064  16.481  22.770  1.00  0.00     0.047 C 
HETATM   10  O2  UNL     1       8.002  14.751  24.109  1.00  0.00    -0.338 OA
HETATM   11  C13 UNL     1       7.325  14.251  23.014  1.00  0.00     0.095 A 
HETATM   12  C14 UNL     1       7.853  13.174  22.301  1.00  0.00     0.070 A 
HETATM   13  C16 UNL     1       7.229  12.770  21.114  1.00  0.00     0.097 A 
HETATM   14  C17 UNL     1       6.099  13.460  20.657  1.00  0.00     0.069 A 
HETATM   15  C19 UNL     1       5.558  14.523  21.411  1.00  0.00     0.091 A 
HETATM   16  C20 UNL     1       6.132  14.891  22.629  1.00  0.00     0.015 A 
HETATM   17  C21 UNL     1       5.623  15.877  23.658  1.00  0.00     0.031 C 
HETATM   18  C26 UNL     1       6.759  16.912  23.977  1.00  0.00     0.029 C 
HETATM   19  C27 UNL     1       6.683  18.231  23.168  1.00  0.00     0.013 C 
HETATM   20  C28 UNL     1       6.940  19.517  23.988  1.00  0.00     0.038 C 
ENDROOT
BRANCH   5  21
HETATM   21  C6  UNL     1       7.284  18.183  28.486  1.00  0.00     0.057 C 
HETATM   22  C7  UNL     1       5.770  18.447  28.515  1.00  0.00     0.046 C 
HETATM   23  C8  UNL     1       7.594  16.939  29.330  1.00  0.00     0.046 C 
BRANCH  21  24
HETATM   24  O1  UNL     1       7.905  19.309  29.130  1.00  0.00    -0.390 OA
HETATM   25  H12 UNL     1       7.575  19.360  30.043  1.00  0.00     0.210 HD
ENDBRANCH  21  24
ENDBRANCH   5  21
BRANCH  17  26
HETATM   26  C22 UNL     1       4.203  16.496  23.582  1.00  0.00     0.014 C 
BRANCH  26  27
HETATM   27  C23 UNL     1       3.133  15.920  24.547  1.00  0.00    -0.022 C 
HETATM   28  C24 UNL     1       2.692  14.509  24.137  1.00  0.00     0.009 C 
HETATM   29  C25 UNL     1       1.913  16.810  24.754  1.00  0.00     0.009 C 
ENDBRANCH  26  27
ENDBRANCH  17  26
BRANCH  12  30
HETATM   30  C15 UNL     1       9.071  12.503  22.789  1.00  0.00     0.275 C 
HETATM   31  O3  UNL     1       9.004  11.368  23.256  1.00  0.00    -0.301 OA
ENDBRANCH  12  30
BRANCH  13  32
HETATM   32  O4  UNL     1       7.714  11.726  20.365  1.00  0.00    -0.359 OA
HETATM   33  H21 UNL     1       8.511  11.357  20.815  1.00  0.00     0.217 HD
ENDBRANCH  13  32
BRANCH  15  34
HETATM   34  O6  UNL     1       4.477  15.227  20.960  1.00  0.00    -0.359 OA
HETATM   35  H23 UNL     1       4.191  14.860  20.091  1.00  0.00     0.217 HD
ENDBRANCH  15  34
BRANCH  14  36
HETATM   36  C18 UNL     1       5.483  13.056  19.375  1.00  0.00     0.275 C 
HETATM   37  O5  UNL     1       5.503  11.881  19.015  1.00  0.00    -0.301 OA
ENDBRANCH  14  36
TORSDOF 8
ENDMDL
MODEL 4
REMARK minimizedAffinity -6.5611186
REMARK CNNscore 0.218162909
REMARK CNNaffinity 5.27643394
REMARK  8 active torsions:
REMARK  status: ('A' for Active; 'I' for Inactive)
REMARK    1  A    between atoms: C5_5  and  C6_6 
REMARK    2  A    between atoms: C6_6  and  O1_9 
REMARK    3  A    between atoms: C14_16  and  C15_17 
REMARK    4  A    between atoms: C16_19  and  O4_20 
REMARK    5  A    between atoms: C17_21  and  C18_22 
REMARK    6  A    between atoms: C19_24  and  O6_25 
REMARK    7  A    between atoms: C21_27  and  C22_28 
REMARK    8  A    between atoms: C22_28  and  C23_29 
ROOT
HETATM    1  C1  UNL     1     -18.870   4.867  26.390  1.00  0.00     0.019 C 
HETATM    2  C2  UNL     1     -17.763   4.167  26.705  1.00  0.00    -0.068 C 
HETATM    3  C3  UNL     1     -17.480   3.950  28.119  1.00  0.00     0.003 C 
HETATM    4  C4  UNL     1     -16.351   3.686  28.803  1.00  0.00    -0.019 C 
HETATM    5  C5  UNL     1     -14.919   3.503  28.332  1.00  0.00     0.042 C 
HETATM    6  C9  UNL     1     -14.158   4.860  28.247  1.00  0.00     0.014 C 
HETATM    7  C10 UNL     1     -14.880   6.036  27.560  1.00  0.00     0.039 C 
HETATM    8  C11 UNL     1     -14.747   6.212  26.015  1.00  0.00     0.068 C 
HETATM    9  C12 UNL     1     -15.844   7.244  25.628  1.00  0.00     0.047 C 
HETATM   10  O2  UNL     1     -13.449   6.876  25.831  1.00  0.00    -0.338 OA
HETATM   11  C13 UNL     1     -13.237   7.205  24.508  1.00  0.00     0.095 A 
HETATM   12  C14 UNL     1     -12.861   8.505  24.164  1.00  0.00     0.070 A 
HETATM   13  C16 UNL     1     -12.787   8.859  22.811  1.00  0.00     0.097 A 
HETATM   14  C17 UNL     1     -13.103   7.911  21.830  1.00  0.00     0.069 A 
HETATM   15  C19 UNL     1     -13.443   6.591  22.195  1.00  0.00     0.091 A 
HETATM   16  C20 UNL     1     -13.456   6.209  23.538  1.00  0.00     0.015 A 
HETATM   17  C21 UNL     1     -13.630   4.828  24.129  1.00  0.00     0.031 C 
HETATM   18  C26 UNL     1     -14.787   4.869  25.189  1.00  0.00     0.029 C 
HETATM   19  C27 UNL     1     -16.178   4.448  24.651  1.00  0.00     0.013 C 
HETATM   20  C28 UNL     1     -16.985   3.516  25.585  1.00  0.00     0.038 C 
ENDROOT
BRANCH   5  21
HETATM   21  C6  UNL     1     -14.132   2.415  29.160  1.00  0.00     0.057 C 
HETATM   22  C7  UNL     1     -12.640   2.411  28.791  1.00  0.00     0.046 C 
HETATM   23  C8  UNL     1     -14.274   2.543  30.684  1.00  0.00     0.046 C 
BRANCH  21  24
HETATM   24  O1  UNL     1     -14.647   1.126  28.784  1.00  0.00    -0.390 OA
HETATM   25  H12 UNL     1     -14.164   0.445  29.283  1.00  0.00     0.210 HD
ENDBRANCH  21  24
ENDBRANCH   5  21
BRANCH  17  26
HETATM   26  C22 UNL     1     -13.614   3.544  23.258  1.00  0.00     0.014 C 
BRANCH  26  27
HETATM   27  C23 UNL     1     -12.937   2.289  23.869  1.00  0.00    -0.022 C 
HETATM   28  C24 UNL     1     -13.826   1.611  24.919  1.00  0.00     0.009 C 
HETATM   29  C25 UNL     1     -11.543   2.529  24.441  1.00  0.00     0.009 C 
ENDBRANCH  26  27
ENDBRANCH  17  26
BRANCH  12  30
HETATM   30  C15 UNL     1     -12.583   9.488  25.226  1.00  0.00     0.275 C 
HETATM   31  O3  UNL     1     -11.526  10.116  25.224  1.00  0.00    -0.301 OA
ENDBRANCH  12  30
BRANCH  13  32
HETATM   32  O4  UNL     1     -12.438  10.127  22.417  1.00  0.00    -0.359 OA
HETATM   33  H21 UNL     1     -12.259  10.671  23.221  1.00  0.00     0.217 HD
ENDBRANCH  13  32
BRANCH  15  34
HETATM   34  O6  UNL     1     -13.787   5.666  21.250  1.00  0.00    -0.359 OA
HETATM   35  H23 UNL     1     -13.741   6.081  20.358  1.00  0.00     0.217 HD
ENDBRANCH  15  34
BRANCH  14  36
HETATM   36  C18 UNL     1     -13.072   8.314  20.407  1.00  0.00     0.275 C 
HETATM   37  O5  UNL     1     -12.027   8.709  19.894  1.00  0.00    -0.301 OA
ENDBRANCH  14  36
TORSDOF 8
ENDMDL
MODEL 5
REMARK minimizedAffinity -5.21411514
REMARK CNNscore 0.211779371
REMARK CNNaffinity 5.69165564
REMARK  8 active torsions:
REMARK  status: ('A' for Active; 'I' for Inactive)
REMARK    1  A    between atoms: C5_5  and  C6_6 
REMARK    2  A    between atoms: C6_6  and  O1_9 
REMARK    3  A    between atoms: C14_16  and  C15_17 
REMARK    4  A    between atoms: C16_19  and  O4_20 
REMARK    5  A    between atoms: C17_21  and  C18_22 
REMARK    6  A    between atoms: C19_24  and  O6_25 
REMARK    7  A    between atoms: C21_27  and  C22_28 
REMARK    8  A    between atoms: C22_28  and  C23_29 
ROOT
HETATM    1  C1  UNL     1     -16.036  18.248   0.316  1.00  0.00     0.019 C 
HETATM    2  C2  UNL     1     -16.066  16.950  -0.045  1.00  0.00    -0.068 C 
HETATM    3  C3  UNL     1     -17.265  16.186   0.278  1.00  0.00     0.003 C 
HETATM    4  C4  UNL     1     -17.503  14.872   0.449  1.00  0.00    -0.019 C 
HETATM    5  C5  UNL     1     -16.579  13.671   0.355  1.00  0.00     0.042 C 
HETATM    6  C9  UNL     1     -15.864  13.381   1.709  1.00  0.00     0.014 C 
HETATM    7  C10 UNL     1     -15.235  14.578   2.449  1.00  0.00     0.039 C 
HETATM    8  C11 UNL     1     -13.769  14.995   2.113  1.00  0.00     0.068 C 
HETATM    9  C12 UNL     1     -13.587  16.398   2.760  1.00  0.00     0.047 C 
HETATM   10  O2  UNL     1     -12.935  14.058   2.879  1.00  0.00    -0.338 OA
HETATM   11  C13 UNL     1     -11.596  14.375   2.773  1.00  0.00     0.095 A 
HETATM   12  C14 UNL     1     -10.816  14.501   3.923  1.00  0.00     0.070 A 
HETATM   13  C16 UNL     1      -9.498  14.960   3.807  1.00  0.00     0.097 A 
HETATM   14  C17 UNL     1      -8.991  15.296   2.546  1.00  0.00     0.069 A 
HETATM   15  C19 UNL     1      -9.782  15.125   1.389  1.00  0.00     0.091 A 
HETATM   16  C20 UNL     1     -11.074  14.607   1.486  1.00  0.00     0.015 A 
HETATM   17  C21 UNL     1     -12.017  14.196   0.376  1.00  0.00     0.031 C 
HETATM   18  C26 UNL     1     -13.394  14.922   0.583  1.00  0.00     0.029 C 
HETATM   19  C27 UNL     1     -13.561  16.239  -0.217  1.00  0.00     0.013 C 
HETATM   20  C28 UNL     1     -14.938  16.419  -0.899  1.00  0.00     0.038 C 
ENDROOT
BRANCH   5  21
HETATM   21  C6  UNL     1     -17.285  12.395  -0.246  1.00  0.00     0.057 C 
HETATM   22  C7  UNL     1     -18.654  12.158   0.414  1.00  0.00     0.046 C 
HETATM   23  C8  UNL     1     -17.459  12.416  -1.771  1.00  0.00     0.046 C 
BRANCH  21  24
HETATM   24  O1  UNL     1     -16.474  11.253   0.083  1.00  0.00    -0.390 OA
HETATM   25  H12 UNL     1     -16.903  10.458  -0.277  1.00  0.00     0.210 HD
ENDBRANCH  21  24
ENDBRANCH   5  21
BRANCH  17  26
HETATM   26  C22 UNL     1     -11.565  14.103  -1.105  1.00  0.00     0.014 C 
BRANCH  26  27
HETATM   27  C23 UNL     1     -12.476  13.298  -2.068  1.00  0.00    -0.022 C 
HETATM   28  C24 UNL     1     -13.150  12.114  -1.364  1.00  0.00     0.009 C 
HETATM   29  C25 UNL     1     -11.795  12.825  -3.348  1.00  0.00     0.009 C 
ENDBRANCH  26  27
ENDBRANCH  17  26
BRANCH  12  30
HETATM   30  C15 UNL     1     -11.400  14.184   5.239  1.00  0.00     0.275 C 
HETATM   31  O3  UNL     1     -11.345  15.004   6.152  1.00  0.00    -0.301 OA
ENDBRANCH  12  30
BRANCH  13  32
HETATM   32  O4  UNL     1      -8.692  15.117   4.907  1.00  0.00    -0.359 OA
HETATM   33  H21 UNL     1      -9.197  14.850   5.712  1.00  0.00     0.217 HD
ENDBRANCH  13  32
BRANCH  15  34
HETATM   34  O6  UNL     1      -9.312  15.482   0.157  1.00  0.00    -0.359 OA
HETATM   35  H23 UNL     1      -8.398  15.836   0.248  1.00  0.00     0.217 HD
ENDBRANCH  15  34
BRANCH  14  36
HETATM   36  C18 UNL     1      -7.615  15.829   2.445  1.00  0.00     0.275 C 
HETATM   37  O5  UNL     1      -7.252  16.759   3.161  1.00  0.00    -0.301 OA
ENDBRANCH  14  36
TORSDOF 8
ENDMDL
MODEL 6
REMARK minimizedAffinity -5.38592005
REMARK CNNscore 0.199013874
REMARK CNNaffinity 4.90376902
REMARK  8 active torsions:
REMARK  status: ('A' for Active; 'I' for Inactive)
REMARK    1  A    between atoms: C5_5  and  C6_6 
REMARK    2  A    between atoms: C6_6  and  O1_9 
REMARK    3  A    between atoms: C14_16  and  C15_17 
REMARK    4  A    between atoms: C16_19  and  O4_20 
REMARK    5  A    between atoms: C17_21  and  C18_22 
REMARK    6  A    between atoms: C19_24  and  O6_25 
REMARK    7  A    between atoms: C21_27  and  C22_28 
REMARK    8  A    between atoms: C22_28  and  C23_29 
ROOT
HETATM    1  C1  UNL     1     -16.424  17.046  -0.342  1.00  0.00     0.019 C 
HETATM    2  C2  UNL     1     -17.301  16.263   0.317  1.00  0.00    -0.068 C 
HETATM    3  C3  UNL     1     -17.389  16.416   1.764  1.00  0.00     0.003 C 
HETATM    4  C4  UNL     1     -17.802  15.602   2.754  1.00  0.00    -0.019 C 
HETATM    5  C5  UNL     1     -18.351  14.187   2.717  1.00  0.00     0.042 C 
HETATM    6  C9  UNL     1     -17.215  13.122   2.762  1.00  0.00     0.014 C 
HETATM    7  C10 UNL     1     -16.009  13.332   1.825  1.00  0.00     0.039 C 
HETATM    8  C11 UNL     1     -16.066  12.766   0.372  1.00  0.00     0.068 C 
HETATM    9  C12 UNL     1     -14.879  13.439  -0.373  1.00  0.00     0.047 C 
HETATM   10  O2  UNL     1     -15.730  11.343   0.518  1.00  0.00    -0.338 OA
HETATM   11  C13 UNL     1     -15.628  10.723  -0.711  1.00  0.00     0.095 A 
HETATM   12  C14 UNL     1     -14.496   9.966  -1.018  1.00  0.00     0.070 A 
HETATM   13  C16 UNL     1     -14.344   9.461  -2.315  1.00  0.00     0.097 A 
HETATM   14  C17 UNL     1     -15.319   9.735  -3.283  1.00  0.00     0.069 A 
HETATM   15  C19 UNL     1     -16.475  10.469  -2.943  1.00  0.00     0.091 A 
HETATM   16  C20 UNL     1     -16.669  10.921  -1.637  1.00  0.00     0.015 A 
HETATM   17  C21 UNL     1     -17.891  11.574  -1.031  1.00  0.00     0.031 C 
HETATM   18  C26 UNL     1     -17.464  12.918  -0.343  1.00  0.00     0.029 C 
HETATM   19  C27 UNL     1     -17.638  14.182  -1.222  1.00  0.00     0.013 C 
HETATM   20  C28 UNL     1     -18.244  15.405  -0.495  1.00  0.00     0.038 C 
ENDROOT
BRANCH   5  21
HETATM   21  C6  UNL     1     -19.469  13.931   3.801  1.00  0.00     0.057 C 
HETATM   22  C7  UNL     1     -20.452  15.110   3.871  1.00  0.00     0.046 C 
HETATM   23  C8  UNL     1     -20.258  12.627   3.612  1.00  0.00     0.046 C 
BRANCH  21  24
HETATM   24  O1  UNL     1     -18.822  13.864   5.084  1.00  0.00    -0.390 OA
HETATM   25  H12 UNL     1     -19.502  13.713   5.763  1.00  0.00     0.210 HD
ENDBRANCH  21  24
ENDBRANCH   5  21
BRANCH  17  26
HETATM   26  C22 UNL     1     -19.250  11.647  -1.778  1.00  0.00     0.014 C 
BRANCH  26  27
HETATM   27  C23 UNL     1     -20.394  10.746  -1.245  1.00  0.00    -0.022 C 
HETATM   28  C24 UNL     1     -20.187  10.367   0.227  1.00  0.00     0.009 C 
HETATM   29  C25 UNL     1     -20.661   9.494  -2.074  1.00  0.00     0.009 C 
ENDBRANCH  26  27
ENDBRANCH  17  26
BRANCH  12  30
HETATM   30  C15 UNL     1     -13.468   9.739   0.014  1.00  0.00     0.275 C 
HETATM   31  O3  UNL     1     -13.541   8.759   0.752  1.00  0.00    -0.301 OA
ENDBRANCH  12  30
BRANCH  13  32
HETATM   32  O4  UNL     1     -13.243   8.723  -2.676  1.00  0.00    -0.359 OA
HETATM   33  H21 UNL     1     -12.653   8.630  -1.891  1.00  0.00     0.217 HD
ENDBRANCH  13  32
BRANCH  15  34
HETATM   34  O6  UNL     1     -17.417  10.773  -3.886  1.00  0.00    -0.359 OA
HETATM   35  H23 UNL     1     -17.140  10.398  -4.754  1.00  0.00     0.217 HD
ENDBRANCH  15  34
BRANCH  14  36
HETATM   36  C18 UNL     1     -15.119   9.240  -4.662  1.00  0.00     0.275 C 
HETATM   37  O5  UNL     1     -14.149   9.606  -5.322  1.00  0.00    -0.301 OA
ENDBRANCH  14  36
TORSDOF 8
ENDMDL
MODEL 7
REMARK minimizedAffinity -5.64505768
REMARK CNNscore 0.197894379
REMARK CNNaffinity 4.47814512
REMARK  8 active torsions:
REMARK  status: ('A' for Active; 'I' for Inactive)
REMARK    1  A    between atoms: C5_5  and  C6_6 
REMARK    2  A    between atoms: C6_6  and  O1_9 
REMARK    3  A    between atoms: C14_16  and  C15_17 
REMARK    4  A    between atoms: C16_19  and  O4_20 
REMARK    5  A    between atoms: C17_21  and  C18_22 
REMARK    6  A    between atoms: C19_24  and  O6_25 
REMARK    7  A    between atoms: C21_27  and  C22_28 
REMARK    8  A    between atoms: C22_28  and  C23_29 
ROOT
HETATM    1  C1  UNL     1     -12.271  16.743  20.246  1.00  0.00     0.019 C 
HETATM    2  C2  UNL     1     -11.035  16.290  19.958  1.00  0.00    -0.068 C 
HETATM    3  C3  UNL     1     -10.584  16.387  18.575  1.00  0.00     0.003 C 
HETATM    4  C4  UNL     1      -9.659  15.722  17.858  1.00  0.00    -0.019 C 
HETATM    5  C5  UNL     1      -8.715  14.599  18.247  1.00  0.00     0.042 C 
HETATM    6  C9  UNL     1      -9.376  13.198  18.077  1.00  0.00     0.014 C 
HETATM    7  C10 UNL     1     -10.802  13.015  18.633  1.00  0.00     0.039 C 
HETATM    8  C11 UNL     1     -10.988  12.585  20.121  1.00  0.00     0.068 C 
HETATM    9  C12 UNL     1     -12.493  12.830  20.430  1.00  0.00     0.047 C 
HETATM   10  O2  UNL     1     -10.784  11.130  20.112  1.00  0.00    -0.338 OA
HETATM   11  C13 UNL     1     -11.031  10.580  21.353  1.00  0.00     0.095 A 
HETATM   12  C14 UNL     1     -11.891   9.488  21.474  1.00  0.00     0.070 A 
HETATM   13  C16 UNL     1     -12.241   9.032  22.751  1.00  0.00     0.097 A 
HETATM   14  C17 UNL     1     -11.735   9.685  23.882  1.00  0.00     0.069 A 
HETATM   15  C19 UNL     1     -10.836  10.764  23.740  1.00  0.00     0.091 A 
HETATM   16  C20 UNL     1     -10.429  11.185  22.473  1.00  0.00     0.015 A 
HETATM   17  C21 UNL     1      -9.366  12.197  22.106  1.00  0.00     0.031 C 
HETATM   18  C26 UNL     1      -9.989  13.262  21.137  1.00  0.00     0.029 C 
HETATM   19  C27 UNL     1     -10.501  14.551  21.829  1.00  0.00     0.013 C 
HETATM   20  C28 UNL     1     -10.143  15.869  21.104  1.00  0.00     0.038 C 
ENDROOT
BRANCH   5  21
HETATM   21  C6  UNL     1      -7.310  14.699  17.534  1.00  0.00     0.057 C 
HETATM   22  C7  UNL     1      -7.052  16.125  17.020  1.00  0.00     0.046 C 
HETATM   23  C8  UNL     1      -6.121  14.251  18.395  1.00  0.00     0.046 C 
BRANCH  21  24
HETATM   24  O1  UNL     1      -7.350  13.850  16.374  1.00  0.00    -0.390 OA
HETATM   25  H12 UNL     1      -6.491  13.909  15.921  1.00  0.00     0.210 HD
ENDBRANCH  21  24
ENDBRANCH   5  21
BRANCH  17  26
HETATM   26  C22 UNL     1      -8.386  12.788  23.154  1.00  0.00     0.014 C 
BRANCH  26  27
HETATM   27  C23 UNL     1      -7.286  13.746  22.624  1.00  0.00    -0.022 C 
HETATM   28  C24 UNL     1      -5.942  13.031  22.441  1.00  0.00     0.009 C 
HETATM   29  C25 UNL     1      -7.096  15.017  23.445  1.00  0.00     0.009 C 
ENDBRANCH  26  27
ENDBRANCH  17  26
BRANCH  12  30
HETATM   30  C15 UNL     1     -12.441   8.856  20.261  1.00  0.00     0.275 C 
HETATM   31  O3  UNL     1     -13.657   8.758  20.115  1.00  0.00    -0.301 OA
ENDBRANCH  12  30
BRANCH  13  32
HETATM   32  O4  UNL     1     -13.095   7.971  22.928  1.00  0.00    -0.359 OA
HETATM   33  H21 UNL     1     -13.367   7.632  22.042  1.00  0.00     0.217 HD
ENDBRANCH  13  32
BRANCH  15  34
HETATM   34  O6  UNL     1     -10.362  11.433  24.834  1.00  0.00    -0.359 OA
HETATM   35  H23 UNL     1     -10.741  11.030  25.649  1.00  0.00     0.217 HD
ENDBRANCH  15  34
BRANCH  14  36
HETATM   36  C18 UNL     1     -12.154   9.226  25.223  1.00  0.00     0.275 C 
HETATM   37  O5  UNL     1     -12.807   9.963  25.959  1.00  0.00    -0.301 OA
ENDBRANCH  14  36
TORSDOF 8
ENDMDL
MODEL 8
REMARK minimizedAffinity -5.26922226
REMARK CNNscore 0.195792973
REMARK CNNaffinity 4.52814531
REMARK  8 active torsions:
REMARK  status: ('A' for Active; 'I' for Inactive)
REMARK    1  A    between atoms: C5_5  and  C6_6 
REMARK    2  A    between atoms: C6_6  and  O1_9 
REMARK    3  A    between atoms: C14_16  and  C15_17 
REMARK    4  A    between atoms: C16_19  and  O4_20 
REMARK    5  A    between atoms: C17_21  and  C18_22 
REMARK    6  A    between atoms: C19_24  and  O6_25 
REMARK    7  A    between atoms: C21_27  and  C22_28 
REMARK    8  A    between atoms: C22_28  and  C23_29 
ROOT
HETATM    1  C1  UNL     1     -18.013   6.459  19.444  1.00  0.00     0.019 C 
HETATM    2  C2  UNL     1     -18.012   5.501  20.392  1.00  0.00    -0.068 C 
HETATM    3  C3  UNL     1     -19.302   5.053  20.901  1.00  0.00     0.003 C 
HETATM    4  C4  UNL     1     -19.686   4.465  22.050  1.00  0.00    -0.019 C 
HETATM    5  C5  UNL     1     -18.886   4.036  23.266  1.00  0.00     0.042 C 
HETATM    6  C9  UNL     1     -18.728   5.194  24.296  1.00  0.00     0.014 C 
HETATM    7  C10 UNL     1     -18.315   6.575  23.752  1.00  0.00     0.039 C 
HETATM    8  C11 UNL     1     -16.798   6.911  23.600  1.00  0.00     0.068 C 
HETATM    9  C12 UNL     1     -16.752   8.197  22.728  1.00  0.00     0.047 C 
HETATM   10  O2  UNL     1     -16.369   7.294  24.952  1.00  0.00    -0.338 OA
HETATM   11  C13 UNL     1     -15.061   7.732  24.959  1.00  0.00     0.095 A 
HETATM   12  C14 UNL     1     -14.737   8.952  25.556  1.00  0.00     0.070 A 
HETATM   13  C16 UNL     1     -13.434   9.448  25.431  1.00  0.00     0.097 A 
HETATM   14  C17 UNL     1     -12.484   8.723  24.700  1.00  0.00     0.069 A 
HETATM   15  C19 UNL     1     -12.819   7.473  24.137  1.00  0.00     0.091 A 
HETATM   16  C20 UNL     1     -14.096   6.938  24.310  1.00  0.00     0.015 A 
HETATM   17  C21 UNL     1     -14.608   5.564  23.936  1.00  0.00     0.031 C 
HETATM   18  C26 UNL     1     -15.907   5.723  23.069  1.00  0.00     0.029 C 
HETATM   19  C27 UNL     1     -15.674   5.686  21.537  1.00  0.00     0.013 C 
HETATM   20  C28 UNL     1     -16.697   4.842  20.741  1.00  0.00     0.038 C 
ENDROOT
BRANCH   5  21
HETATM   21  C6  UNL     1     -19.427   2.707  23.923  1.00  0.00     0.057 C 
HETATM   22  C7  UNL     1     -18.283   1.894  24.551  1.00  0.00     0.046 C 
HETATM   23  C8  UNL     1     -20.532   2.913  24.969  1.00  0.00     0.046 C 
BRANCH  21  24
HETATM   24  O1  UNL     1     -19.973   1.893  22.870  1.00  0.00    -0.390 OA
HETATM   25  H12 UNL     1     -20.304   1.067  23.261  1.00  0.00     0.210 HD
ENDBRANCH  21  24
ENDBRANCH   5  21
BRANCH  17  26
HETATM   26  C22 UNL     1     -13.664   4.428  23.463  1.00  0.00     0.014 C 
BRANCH  26  27
HETATM   27  C23 UNL     1     -13.419   3.261  24.455  1.00  0.00    -0.022 C 
HETATM   28  C24 UNL     1     -12.065   2.580  24.218  1.00  0.00     0.009 C 
HETATM   29  C25 UNL     1     -14.528   2.215  24.500  1.00  0.00     0.009 C 
ENDBRANCH  26  27
ENDBRANCH  17  26
BRANCH  12  30
HETATM   30  C15 UNL     1     -15.776   9.710  26.276  1.00  0.00     0.275 C 
HETATM   31  O3  UNL     1     -15.969   9.506  27.473  1.00  0.00    -0.301 OA
ENDBRANCH  12  30
BRANCH  13  32
HETATM   32  O4  UNL     1     -13.065  10.649  25.985  1.00  0.00    -0.359 OA
HETATM   33  H21 UNL     1     -13.843  11.036  26.452  1.00  0.00     0.217 HD
ENDBRANCH  13  32
BRANCH  15  34
HETATM   34  O6  UNL     1     -11.913   6.771  23.392  1.00  0.00    -0.359 OA
HETATM   35  H23 UNL     1     -11.067   7.275  23.352  1.00  0.00     0.217 HD
ENDBRANCH  15  34
BRANCH  14  36
HETATM   36  C18 UNL     1     -11.126   9.285  24.532  1.00  0.00     0.275 C 
HETATM   37  O5  UNL     1     -10.449   8.995  23.549  1.00  0.00    -0.301 OA
ENDBRANCH  14  36
TORSDOF 8
ENDMDL
MODEL 9
REMARK minimizedAffinity -5.21840286
REMARK CNNscore 0.195737079
REMARK CNNaffinity 5.28902102
REMARK  8 active torsions:
REMARK  status: ('A' for Active; 'I' for Inactive)
REMARK    1  A    between atoms: C5_5  and  C6_6 
REMARK    2  A    between atoms: C6_6  and  O1_9 
REMARK    3  A    between atoms: C14_16  and  C15_17 
REMARK    4  A    between atoms: C16_19  and  O4_20 
REMARK    5  A    between atoms: C17_21  and  C18_22 
REMARK    6  A    between atoms: C19_24  and  O6_25 
REMARK    7  A    between atoms: C21_27  and  C22_28 
REMARK    8  A    between atoms: C22_28  and  C23_29 
ROOT
HETATM    1  C1  UNL     1     -12.850 -12.514  26.196  1.00  0.00     0.019 C 
HETATM    2  C2  UNL     1     -12.639 -12.221  27.494  1.00  0.00    -0.068 C 
HETATM    3  C3  UNL     1     -12.769 -13.303  28.462  1.00  0.00     0.003 C 
HETATM    4  C4  UNL     1     -13.029 -13.333  29.782  1.00  0.00    -0.019 C 
HETATM    5  C5  UNL     1     -13.279 -12.212  30.775  1.00  0.00     0.042 C 
HETATM    6  C9  UNL     1     -14.782 -11.804  30.824  1.00  0.00     0.014 C 
HETATM    7  C10 UNL     1     -15.505 -11.599  29.478  1.00  0.00     0.039 C 
HETATM    8  C11 UNL     1     -15.460 -10.196  28.796  1.00  0.00     0.068 C 
HETATM    9  C12 UNL     1     -15.970 -10.432  27.346  1.00  0.00     0.047 C 
HETATM   10  O2  UNL     1     -16.493  -9.416  29.492  1.00  0.00    -0.338 OA
HETATM   11  C13 UNL     1     -16.654  -8.171  28.919  1.00  0.00     0.095 A 
HETATM   12  C14 UNL     1     -17.928  -7.727  28.561  1.00  0.00     0.070 A 
HETATM   13  C16 UNL     1     -18.058  -6.525  27.854  1.00  0.00     0.097 A 
HETATM   14  C17 UNL     1     -16.913  -5.799  27.507  1.00  0.00     0.069 A 
HETATM   15  C19 UNL     1     -15.635  -6.244  27.911  1.00  0.00     0.091 A 
HETATM   16  C20 UNL     1     -15.499  -7.405  28.672  1.00  0.00     0.015 A 
HETATM   17  C21 UNL     1     -14.260  -7.963  29.337  1.00  0.00     0.031 C 
HETATM   18  C26 UNL     1     -14.071  -9.456  28.893  1.00  0.00     0.029 C 
HETATM   19  C27 UNL     1     -13.112  -9.662  27.694  1.00  0.00     0.013 C 
HETATM   20  C28 UNL     1     -12.124 -10.843  27.842  1.00  0.00     0.038 C 
ENDROOT
BRANCH   5  21
HETATM   21  C6  UNL     1     -12.683 -12.510  32.205  1.00  0.00     0.057 C 
HETATM   22  C7  UNL     1     -13.772 -13.020  33.163  1.00  0.00     0.046 C 
HETATM   23  C8  UNL     1     -11.503 -13.492  32.215  1.00  0.00     0.046 C 
BRANCH  21  24
HETATM   24  O1  UNL     1     -12.214 -11.264  32.749  1.00  0.00    -0.390 OA
HETATM   25  H12 UNL     1     -11.850 -11.434  33.635  1.00  0.00     0.210 HD
ENDBRANCH  21  24
ENDBRANCH   5  21
BRANCH  17  26
HETATM   26  C22 UNL     1     -12.937  -7.158  29.435  1.00  0.00     0.014 C 
BRANCH  26  27
HETATM   27  C23 UNL     1     -12.804  -6.167  30.621  1.00  0.00    -0.022 C 
HETATM   28  C24 UNL     1     -11.926  -4.961  30.266  1.00  0.00     0.009 C 
HETATM   29  C25 UNL     1     -12.329  -6.793  31.928  1.00  0.00     0.009 C 
ENDBRANCH  26  27
ENDBRANCH  17  26
BRANCH  12  30
HETATM   30  C15 UNL     1     -19.107  -8.543  28.902  1.00  0.00     0.275 C 
HETATM   31  O3  UNL     1     -19.866  -8.929  28.017  1.00  0.00    -0.301 OA
ENDBRANCH  12  30
BRANCH  13  32
HETATM   32  O4  UNL     1     -19.286  -6.050  27.464  1.00  0.00    -0.359 OA
HETATM   33  H21 UNL     1     -19.982  -6.677  27.774  1.00  0.00     0.217 HD
ENDBRANCH  13  32
BRANCH  15  34
HETATM   34  O6  UNL     1     -14.507  -5.563  27.549  1.00  0.00    -0.359 OA
HETATM   35  H23 UNL     1     -14.760  -4.777  27.012  1.00  0.00     0.217 HD
ENDBRANCH  15  34
BRANCH  14  36
HETATM   36  C18 UNL     1     -17.062  -4.559  26.715  1.00  0.00     0.275 C 
HETATM   37  O5  UNL     1     -17.417  -4.609  25.539  1.00  0.00    -0.301 OA
ENDBRANCH  14  36
TORSDOF 8
ENDMDL
