MODEL 1
REMARK minimizedAffinity -8.17522812
REMARK CNNscore 0.883197129
REMARK CNNaffinity 6.5345521
REMARK  12 active torsions:
REMARK  status: ('A' for Active; 'I' for Inactive)
REMARK    1  A    between atoms: C2_2  and  C3_3 
REMARK    2  A    between atoms: C2_2  and  C9_11 
REMARK    3  A    between atoms: C4_4  and  C5_5 
REMARK    4  A    between atoms: C5_5  and  C6_6 
REMARK    5  A    between atoms: C6_6  and  O1_8 
REMARK    6  A    between atoms: C6_6  and  C8_9 
REMARK    7  A    between atoms: C8_9  and  O2_10 
REMARK    8  A    between atoms: C10_12  and  O3_13 
REMARK    9  A    between atoms: C11_14  and  O4_15 
REMARK   10  A    between atoms: C22_26  and  O5_27 
REMARK   11  A    between atoms: C25_30  and  O6_31 
REMARK   12  A    between atoms: C27_33  and  O7_34 
ROOT
HETATM    1  C9  UNL     1     -12.612 -11.745  26.129  1.00  0.00     0.033 C 
HETATM    2  C10 UNL     1     -13.485 -11.273  24.918  1.00  0.00     0.152 C 
HETATM    3  C11 UNL     1     -14.146  -9.936  25.342  1.00  0.00     0.155 C 
HETATM    4  C12 UNL     1     -13.438  -9.575  26.643  1.00  0.00     0.060 C 
HETATM    5  C13 UNL     1     -13.232 -10.960  27.335  1.00  0.00    -0.028 C 
HETATM    6  C14 UNL     1     -14.522 -11.664  27.823  1.00  0.00     0.016 C 
HETATM    7  C15 UNL     1     -12.294 -10.725  28.535  1.00  0.00     0.011 C 
HETATM    8  C16 UNL     1     -12.815  -9.631  29.485  1.00  0.00     0.009 C 
HETATM    9  C17 UNL     1     -13.078  -8.288  28.761  1.00  0.00     0.029 C 
HETATM   10  C18 UNL     1     -13.441  -7.097  29.733  1.00  0.00    -0.031 C 
HETATM   11  C19 UNL     1     -14.649  -7.452  30.636  1.00  0.00     0.016 C 
HETATM   12  C20 UNL     1     -12.227  -6.815  30.692  1.00  0.00     0.012 C 
HETATM   13  C21 UNL     1     -11.848  -5.336  30.858  1.00  0.00     0.032 C 
HETATM   14  C22 UNL     1     -13.044  -4.394  30.907  1.00  0.00     0.118 C 
HETATM   15  C23 UNL     1     -14.010  -4.583  29.730  1.00  0.00     0.039 C 
HETATM   16  C24 UNL     1     -13.678  -5.817  28.868  1.00  0.00     0.025 C 
HETATM   17  C25 UNL     1     -14.668  -6.002  27.704  1.00  0.00     0.126 C 
HETATM   18  C26 UNL     1     -14.215  -7.142  26.786  1.00  0.00     0.071 C 
HETATM   19  C27 UNL     1     -14.049  -8.475  27.544  1.00  0.00     0.071 C 
ENDROOT
BRANCH   1  20
HETATM   20  C2  UNL     1     -12.423 -13.285  26.219  1.00  0.00     0.011 C 
HETATM   21  C1  UNL     1     -12.357 -13.811  27.658  1.00  0.00     0.015 C 
BRANCH  20  22
HETATM   22  C3  UNL     1     -11.199 -13.710  25.417  1.00  0.00    -0.026 C 
HETATM   23  C4  UNL     1     -10.158 -12.939  25.060  1.00  0.00    -0.027 C 
BRANCH  23  24
HETATM   24  C5  UNL     1      -8.978 -13.439  24.263  1.00  0.00     0.066 C 
BRANCH  24  25
HETATM   25  C6  UNL     1      -8.535 -12.496  23.116  1.00  0.00     0.078 C 
HETATM   26  C7  UNL     1      -9.675 -11.610  22.607  1.00  0.00     0.048 C 
BRANCH  25  27
HETATM   27  O1  UNL     1      -8.032 -13.285  22.018  1.00  0.00    -0.388 OA
HETATM   28  H12 UNL     1      -8.792 -13.756  21.633  1.00  0.00     0.210 HD
ENDBRANCH  25  27
BRANCH  25  29
HETATM   29  C8  UNL     1      -7.363 -11.607  23.583  1.00  0.00     0.201 C 
BRANCH  29  30
HETATM   30  O2  UNL     1      -6.736 -10.983  22.462  1.00  0.00    -0.398 OA
HETATM   31  H15 UNL     1      -7.479 -10.651  21.918  1.00  0.00     0.209 HD
ENDBRANCH  29  30
ENDBRANCH  25  29
ENDBRANCH  24  25
ENDBRANCH  23  24
ENDBRANCH  20  22
ENDBRANCH   1  20
BRANCH   2  32
HETATM   32  O3  UNL     1     -14.496 -12.220  24.577  1.00  0.00    -0.393 OA
HETATM   33  H18 UNL     1     -15.027 -11.841  23.856  1.00  0.00     0.210 HD
ENDBRANCH   2  32
BRANCH   3  34
HETATM   34  O4  UNL     1     -13.918  -8.939  24.346  1.00  0.00    -0.392 OA
HETATM   35  H20 UNL     1     -14.450  -9.181  23.569  1.00  0.00     0.210 HD
ENDBRANCH   3  34
BRANCH  19  36
HETATM   36  O7  UNL     1     -15.339  -8.911  27.965  1.00  0.00    -0.389 OA
HETATM   37  H46 UNL     1     -15.890  -8.111  28.107  1.00  0.00     0.210 HD
ENDBRANCH  19  36
BRANCH  17  38
HETATM   38  O6  UNL     1     -15.991  -6.285  28.151  1.00  0.00    -0.395 OA
HETATM   39  H43 UNL     1     -16.313  -5.509  28.645  1.00  0.00     0.210 HD
ENDBRANCH  17  38
BRANCH  14  40
HETATM   40  O5  UNL     1     -13.760  -4.583  32.125  1.00  0.00    -0.396 OA
HETATM   41  H38 UNL     1     -13.131  -4.480  32.859  1.00  0.00     0.210 HD
ENDBRANCH  14  40
TORSDOF 12
ENDMDL
MODEL 2
REMARK minimizedAffinity -10.260664
REMARK CNNscore 0.857839465
REMARK CNNaffinity 6.6115489
REMARK  12 active torsions:
REMARK  status: ('A' for Active; 'I' for Inactive)
REMARK    1  A    between atoms: C2_2  and  C3_3 
REMARK    2  A    between atoms: C2_2  and  C9_11 
REMARK    3  A    between atoms: C4_4  and  C5_5 
REMARK    4  A    between atoms: C5_5  and  C6_6 
REMARK    5  A    between atoms: C6_6  and  O1_8 
REMARK    6  A    between atoms: C6_6  and  C8_9 
REMARK    7  A    between atoms: C8_9  and  O2_10 
REMARK    8  A    between atoms: C10_12  and  O3_13 
REMARK    9  A    between atoms: C11_14  and  O4_15 
REMARK   10  A    between atoms: C22_26  and  O5_27 
REMARK   11  A    between atoms: C25_30  and  O6_31 
REMARK   12  A    between atoms: C27_33  and  O7_34 
ROOT
HETATM    1  C9  UNL     1       1.330   7.071   8.934  1.00  0.00     0.033 C 
HETATM    2  C10 UNL     1       2.129   5.814   9.414  1.00  0.00     0.152 C 
HETATM    3  C11 UNL     1       1.635   5.496  10.849  1.00  0.00     0.155 C 
HETATM    4  C12 UNL     1       0.420   6.400  11.026  1.00  0.00     0.060 C 
HETATM    5  C13 UNL     1       0.834   7.707  10.278  1.00  0.00    -0.028 C 
HETATM    6  C14 UNL     1       1.976   8.522  10.935  1.00  0.00     0.016 C 
HETATM    7  C15 UNL     1      -0.428   8.586  10.178  1.00  0.00     0.011 C 
HETATM    8  C16 UNL     1      -1.078   8.839  11.551  1.00  0.00     0.009 C 
HETATM    9  C17 UNL     1      -1.416   7.529  12.303  1.00  0.00     0.029 C 
HETATM   10  C18 UNL     1      -2.243   7.746  13.630  1.00  0.00    -0.031 C 
HETATM   11  C19 UNL     1      -1.528   8.731  14.588  1.00  0.00     0.016 C 
HETATM   12  C20 UNL     1      -3.636   8.387  13.280  1.00  0.00     0.012 C 
HETATM   13  C21 UNL     1      -4.849   7.749  13.972  1.00  0.00     0.032 C 
HETATM   14  C22 UNL     1      -4.586   7.330  15.414  1.00  0.00     0.118 C 
HETATM   15  C23 UNL     1      -3.341   6.448  15.568  1.00  0.00     0.039 C 
HETATM   16  C24 UNL     1      -2.507   6.348  14.276  1.00  0.00     0.025 C 
HETATM   17  C25 UNL     1      -1.251   5.475  14.455  1.00  0.00     0.126 C 
HETATM   18  C26 UNL     1      -0.538   5.274  13.114  1.00  0.00     0.071 C 
HETATM   19  C27 UNL     1      -0.152   6.611  12.448  1.00  0.00     0.071 C 
ENDROOT
BRANCH   1  20
HETATM   20  C2  UNL     1       2.080   7.946   7.891  1.00  0.00     0.011 C 
HETATM   21  C1  UNL     1       2.278   7.252   6.538  1.00  0.00     0.015 C 
BRANCH  20  22
HETATM   22  C3  UNL     1       3.406   8.427   8.467  1.00  0.00    -0.026 C 
HETATM   23  C4  UNL     1       3.801   8.362   9.749  1.00  0.00    -0.027 C 
BRANCH  23  24
HETATM   24  C5  UNL     1       5.138   8.861  10.242  1.00  0.00     0.066 C 
BRANCH  24  25
HETATM   25  C6  UNL     1       5.939   7.830  11.075  1.00  0.00     0.078 C 
HETATM   26  C7  UNL     1       6.461   8.412  12.391  1.00  0.00     0.048 C 
BRANCH  25  27
HETATM   27  O1  UNL     1       7.059   7.358  10.298  1.00  0.00    -0.388 OA
HETATM   28  H12 UNL     1       7.681   8.101  10.212  1.00  0.00     0.210 HD
ENDBRANCH  25  27
BRANCH  25  29
HETATM   29  C8  UNL     1       5.065   6.593  11.372  1.00  0.00     0.201 C 
BRANCH  29  30
HETATM   30  O2  UNL     1       5.709   5.407  10.907  1.00  0.00    -0.398 OA
HETATM   31  H15 UNL     1       6.636   5.495  11.209  1.00  0.00     0.209 HD
ENDBRANCH  29  30
ENDBRANCH  25  29
ENDBRANCH  24  25
ENDBRANCH  23  24
ENDBRANCH  20  22
ENDBRANCH   1  20
BRANCH   2  32
HETATM   32  O3  UNL     1       3.538   6.042   9.433  1.00  0.00    -0.393 OA
HETATM   33  H18 UNL     1       3.963   5.242   9.787  1.00  0.00     0.210 HD
ENDBRANCH   2  32
BRANCH   3  34
HETATM   34  O4  UNL     1       1.263   4.122  10.946  1.00  0.00    -0.392 OA
HETATM   35  H20 UNL     1       2.081   3.598  10.902  1.00  0.00     0.210 HD
ENDBRANCH   3  34
BRANCH  19  36
HETATM   36  O7  UNL     1       0.856   7.231  13.245  1.00  0.00    -0.389 OA
HETATM   37  H46 UNL     1       0.712   6.949  14.174  1.00  0.00     0.210 HD
ENDBRANCH  19  36
BRANCH  17  38
HETATM   38  O6  UNL     1      -0.322   6.037  15.377  1.00  0.00    -0.395 OA
HETATM   39  H43 UNL     1      -0.748   6.062  16.254  1.00  0.00     0.210 HD
ENDBRANCH  17  38
BRANCH  14  40
HETATM   40  O5  UNL     1      -4.438   8.485  16.235  1.00  0.00    -0.396 OA
HETATM   41  H38 UNL     1      -5.225   9.043  16.111  1.00  0.00     0.210 HD
ENDBRANCH  14  40
TORSDOF 12
ENDMDL
MODEL 3
REMARK minimizedAffinity -8.4264946
REMARK CNNscore 0.716209173
REMARK CNNaffinity 6.63838959
REMARK  12 active torsions:
REMARK  status: ('A' for Active; 'I' for Inactive)
REMARK    1  A    between atoms: C2_2  and  C3_3 
REMARK    2  A    between atoms: C2_2  and  C9_11 
REMARK    3  A    between atoms: C4_4  and  C5_5 
REMARK    4  A    between atoms: C5_5  and  C6_6 
REMARK    5  A    between atoms: C6_6  and  O1_8 
REMARK    6  A    between atoms: C6_6  and  C8_9 
REMARK    7  A    between atoms: C8_9  and  O2_10 
REMARK    8  A    between atoms: C10_12  and  O3_13 
REMARK    9  A    between atoms: C11_14  and  O4_15 
REMARK   10  A    between atoms: C22_26  and  O5_27 
REMARK   11  A    between atoms: C25_30  and  O6_31 
REMARK   12  A    between atoms: C27_33  and  O7_34 
ROOT
HETATM    1  C9  UNL     1      -3.175   7.681  14.910  1.00  0.00     0.033 C 
HETATM    2  C10 UNL     1      -2.400   8.319  16.111  1.00  0.00     0.152 C 
HETATM    3  C11 UNL     1      -0.902   8.342  15.710  1.00  0.00     0.155 C 
HETATM    4  C12 UNL     1      -0.914   7.966  14.233  1.00  0.00     0.060 C 
HETATM    5  C13 UNL     1      -2.053   6.902  14.141  1.00  0.00    -0.028 C 
HETATM    6  C14 UNL     1      -1.766   5.552  14.842  1.00  0.00     0.016 C 
HETATM    7  C15 UNL     1      -2.316   6.654  12.643  1.00  0.00     0.011 C 
HETATM    8  C16 UNL     1      -1.038   6.259  11.879  1.00  0.00     0.009 C 
HETATM    9  C17 UNL     1       0.100   7.295  12.043  1.00  0.00     0.029 C 
HETATM   10  C18 UNL     1       1.359   7.013  11.132  1.00  0.00    -0.031 C 
HETATM   11  C19 UNL     1       1.914   5.584  11.361  1.00  0.00     0.016 C 
HETATM   12  C20 UNL     1       0.941   7.099   9.619  1.00  0.00     0.012 C 
HETATM   13  C21 UNL     1       1.887   7.906   8.718  1.00  0.00     0.032 C 
HETATM   14  C22 UNL     1       3.362   7.723   9.052  1.00  0.00     0.118 C 
HETATM   15  C23 UNL     1       3.680   7.964  10.534  1.00  0.00     0.039 C 
HETATM   16  C24 UNL     1       2.417   8.131  11.402  1.00  0.00     0.025 C 
HETATM   17  C25 UNL     1       2.754   8.352  12.888  1.00  0.00     0.126 C 
HETATM   18  C26 UNL     1       1.486   8.668  13.688  1.00  0.00     0.071 C 
HETATM   19  C27 UNL     1       0.418   7.562  13.555  1.00  0.00     0.071 C 
ENDROOT
BRANCH   1  20
HETATM   20  C2  UNL     1      -4.490   6.955  15.310  1.00  0.00     0.011 C 
HETATM   21  C1  UNL     1      -4.266   5.729  16.202  1.00  0.00     0.015 C 
BRANCH  20  22
HETATM   22  C3  UNL     1      -5.290   6.596  14.064  1.00  0.00    -0.026 C 
HETATM   23  C4  UNL     1      -6.283   5.695  13.973  1.00  0.00    -0.027 C 
BRANCH  23  24
HETATM   24  C5  UNL     1      -7.031   5.396  12.697  1.00  0.00     0.066 C 
BRANCH  24  25
HETATM   25  C6  UNL     1      -8.574   5.436  12.835  1.00  0.00     0.078 C 
HETATM   26  C7  UNL     1      -9.043   6.398  13.930  1.00  0.00     0.048 C 
BRANCH  25  27
HETATM   27  O1  UNL     1      -9.060   4.113  13.137  1.00  0.00    -0.388 OA
HETATM   28  H12 UNL     1      -8.765   3.899  14.040  1.00  0.00     0.210 HD
ENDBRANCH  25  27
BRANCH  25  29
HETATM   29  C8  UNL     1      -9.217   5.837  11.490  1.00  0.00     0.201 C 
BRANCH  29  30
HETATM   30  O2  UNL     1     -10.221   6.831  11.697  1.00  0.00    -0.398 OA
HETATM   31  H15 UNL     1      -9.808   7.474  12.308  1.00  0.00     0.209 HD
ENDBRANCH  29  30
ENDBRANCH  25  29
ENDBRANCH  24  25
ENDBRANCH  23  24
ENDBRANCH  20  22
ENDBRANCH   1  20
BRANCH   2  32
HETATM   32  O3  UNL     1      -2.562   7.574  17.317  1.00  0.00    -0.393 OA
HETATM   33  H18 UNL     1      -2.016   7.996  18.002  1.00  0.00     0.210 HD
ENDBRANCH   2  32
BRANCH   3  34
HETATM   34  O4  UNL     1      -0.364   9.650  15.898  1.00  0.00    -0.392 OA
HETATM   35  H20 UNL     1      -0.311   9.804  16.857  1.00  0.00     0.210 HD
ENDBRANCH   3  34
BRANCH  19  36
HETATM   36  O7  UNL     1       0.908   6.390  14.202  1.00  0.00    -0.389 OA
HETATM   37  H46 UNL     1       1.887   6.403  14.135  1.00  0.00     0.210 HD
ENDBRANCH  19  36
BRANCH  17  38
HETATM   38  O6  UNL     1       3.387   7.221  13.480  1.00  0.00    -0.395 OA
HETATM   39  H43 UNL     1       4.245   7.091  13.036  1.00  0.00     0.210 HD
ENDBRANCH  17  38
BRANCH  14  40
HETATM   40  O5  UNL     1       3.780   6.407   8.699  1.00  0.00    -0.396 OA
HETATM   41  H38 UNL     1       3.554   6.263   7.764  1.00  0.00     0.210 HD
ENDBRANCH  14  40
TORSDOF 12
ENDMDL
MODEL 4
REMARK minimizedAffinity -8.57609653
REMARK CNNscore 0.689439833
REMARK CNNaffinity 6.60431623
REMARK  12 active torsions:
REMARK  status: ('A' for Active; 'I' for Inactive)
REMARK    1  A    between atoms: C2_2  and  C3_3 
REMARK    2  A    between atoms: C2_2  and  C9_11 
REMARK    3  A    between atoms: C4_4  and  C5_5 
REMARK    4  A    between atoms: C5_5  and  C6_6 
REMARK    5  A    between atoms: C6_6  and  O1_8 
REMARK    6  A    between atoms: C6_6  and  C8_9 
REMARK    7  A    between atoms: C8_9  and  O2_10 
REMARK    8  A    between atoms: C10_12  and  O3_13 
REMARK    9  A    between atoms: C11_14  and  O4_15 
REMARK   10  A    between atoms: C22_26  and  O5_27 
REMARK   11  A    between atoms: C25_30  and  O6_31 
REMARK   12  A    between atoms: C27_33  and  O7_34 
ROOT
HETATM    1  C9  UNL     1      -2.635   8.570  15.156  1.00  0.00     0.033 C 
HETATM    2  C10 UNL     1      -2.731   7.158  15.826  1.00  0.00     0.152 C 
HETATM    3  C11 UNL     1      -1.956   6.178  14.907  1.00  0.00     0.155 C 
HETATM    4  C12 UNL     1      -1.248   7.091  13.913  1.00  0.00     0.060 C 
HETATM    5  C13 UNL     1      -2.289   8.229  13.666  1.00  0.00    -0.028 C 
HETATM    6  C14 UNL     1      -3.570   7.811  12.904  1.00  0.00     0.016 C 
HETATM    7  C15 UNL     1      -1.564   9.336  12.877  1.00  0.00     0.011 C 
HETATM    8  C16 UNL     1      -0.909   8.807  11.587  1.00  0.00     0.009 C 
HETATM    9  C17 UNL     1       0.066   7.634  11.850  1.00  0.00     0.029 C 
HETATM   10  C18 UNL     1       0.887   7.186  10.579  1.00  0.00    -0.031 C 
HETATM   11  C19 UNL     1      -0.049   6.834   9.395  1.00  0.00     0.016 C 
HETATM   12  C20 UNL     1       1.798   8.374  10.098  1.00  0.00     0.012 C 
HETATM   13  C21 UNL     1       3.249   8.000   9.764  1.00  0.00     0.032 C 
HETATM   14  C22 UNL     1       3.395   6.650   9.073  1.00  0.00     0.118 C 
HETATM   15  C23 UNL     1       2.694   5.509   9.822  1.00  0.00     0.039 C 
HETATM   16  C24 UNL     1       1.821   6.003  10.992  1.00  0.00     0.025 C 
HETATM   17  C25 UNL     1       1.110   4.847  11.720  1.00  0.00     0.126 C 
HETATM   18  C26 UNL     1       0.381   5.360  12.966  1.00  0.00     0.071 C 
HETATM   19  C27 UNL     1      -0.638   6.471  12.634  1.00  0.00     0.071 C 
ENDROOT
BRANCH   1  20
HETATM   20  C2  UNL     1      -3.826   9.514  15.481  1.00  0.00     0.011 C 
HETATM   21  C1  UNL     1      -4.032   9.747  16.982  1.00  0.00     0.015 C 
BRANCH  20  22
HETATM   22  C3  UNL     1      -5.098   8.999  14.820  1.00  0.00    -0.026 C 
HETATM   23  C4  UNL     1      -6.233   8.623  15.434  1.00  0.00    -0.027 C 
BRANCH  23  24
HETATM   24  C5  UNL     1      -7.456   8.123  14.704  1.00  0.00     0.066 C 
BRANCH  24  25
HETATM   25  C6  UNL     1      -7.588   6.580  14.657  1.00  0.00     0.078 C 
HETATM   26  C7  UNL     1      -6.584   5.931  13.700  1.00  0.00     0.048 C 
BRANCH  25  27
HETATM   27  O1  UNL     1      -8.923   6.229  14.241  1.00  0.00    -0.388 OA
HETATM   28  H12 UNL     1      -9.008   6.484  13.306  1.00  0.00     0.210 HD
ENDBRANCH  25  27
BRANCH  25  29
HETATM   29  C8  UNL     1      -7.405   5.988  16.071  1.00  0.00     0.201 C 
BRANCH  29  30
HETATM   30  O2  UNL     1      -8.178   4.797  16.214  1.00  0.00    -0.398 OA
HETATM   31  H15 UNL     1      -8.006   4.292  15.394  1.00  0.00     0.209 HD
ENDBRANCH  29  30
ENDBRANCH  25  29
ENDBRANCH  24  25
ENDBRANCH  23  24
ENDBRANCH  20  22
ENDBRANCH   1  20
BRANCH   2  32
HETATM   32  O3  UNL     1      -4.080   6.716  15.968  1.00  0.00    -0.393 OA
HETATM   33  H18 UNL     1      -4.060   5.819  16.341  1.00  0.00     0.210 HD
ENDBRANCH   2  32
BRANCH   3  34
HETATM   34  O4  UNL     1      -1.012   5.431  15.673  1.00  0.00    -0.392 OA
HETATM   35  H20 UNL     1      -1.517   4.815  16.231  1.00  0.00     0.210 HD
ENDBRANCH   3  34
BRANCH  19  36
HETATM   36  O7  UNL     1      -1.695   5.892  11.873  1.00  0.00    -0.389 OA
HETATM   37  H46 UNL     1      -1.318   5.140  11.367  1.00  0.00     0.210 HD
ENDBRANCH  19  36
BRANCH  17  38
HETATM   38  O6  UNL     1       0.164   4.178  10.891  1.00  0.00    -0.395 OA
HETATM   39  H43 UNL     1       0.651   3.762  10.156  1.00  0.00     0.210 HD
ENDBRANCH  17  38
BRANCH  14  40
HETATM   40  O5  UNL     1       2.871   6.724   7.750  1.00  0.00    -0.396 OA
HETATM   41  H38 UNL     1       3.310   7.463   7.296  1.00  0.00     0.210 HD
ENDBRANCH  14  40
TORSDOF 12
ENDMDL
MODEL 5
REMARK minimizedAffinity -9.18426609
REMARK CNNscore 0.653232038
REMARK CNNaffinity 6.25148773
REMARK  12 active torsions:
REMARK  status: ('A' for Active; 'I' for Inactive)
REMARK    1  A    between atoms: C2_2  and  C3_3 
REMARK    2  A    between atoms: C2_2  and  C9_11 
REMARK    3  A    between atoms: C4_4  and  C5_5 
REMARK    4  A    between atoms: C5_5  and  C6_6 
REMARK    5  A    between atoms: C6_6  and  O1_8 
REMARK    6  A    between atoms: C6_6  and  C8_9 
REMARK    7  A    between atoms: C8_9  and  O2_10 
REMARK    8  A    between atoms: C10_12  and  O3_13 
REMARK    9  A    between atoms: C11_14  and  O4_15 
REMARK   10  A    between atoms: C22_26  and  O5_27 
REMARK   11  A    between atoms: C25_30  and  O6_31 
REMARK   12  A    between atoms: C27_33  and  O7_34 
ROOT
HETATM    1  C9  UNL     1      -5.305   6.738  13.693  1.00  0.00     0.033 C 
HETATM    2  C10 UNL     1      -5.310   8.016  14.597  1.00  0.00     0.152 C 
HETATM    3  C11 UNL     1      -3.851   8.539  14.634  1.00  0.00     0.155 C 
HETATM    4  C12 UNL     1      -3.139   7.713  13.568  1.00  0.00     0.060 C 
HETATM    5  C13 UNL     1      -3.799   6.304  13.707  1.00  0.00    -0.028 C 
HETATM    6  C14 UNL     1      -3.476   5.540  15.015  1.00  0.00     0.016 C 
HETATM    7  C15 UNL     1      -3.330   5.469  12.500  1.00  0.00     0.011 C 
HETATM    8  C16 UNL     1      -1.797   5.423  12.375  1.00  0.00     0.009 C 
HETATM    9  C17 UNL     1      -1.161   6.834  12.309  1.00  0.00     0.029 C 
HETATM   10  C18 UNL     1       0.388   6.825  12.002  1.00  0.00    -0.031 C 
HETATM   11  C19 UNL     1       1.162   5.948  13.018  1.00  0.00     0.016 C 
HETATM   12  C20 UNL     1       0.637   6.197  10.582  1.00  0.00     0.012 C 
HETATM   13  C21 UNL     1       1.615   6.966   9.682  1.00  0.00     0.032 C 
HETATM   14  C22 UNL     1       2.802   7.561  10.429  1.00  0.00     0.118 C 
HETATM   15  C23 UNL     1       2.391   8.408  11.640  1.00  0.00     0.039 C 
HETATM   16  C24 UNL     1       0.888   8.305  11.966  1.00  0.00     0.025 C 
HETATM   17  C25 UNL     1       0.497   9.145  13.196  1.00  0.00     0.126 C 
HETATM   18  C26 UNL     1      -1.023   9.140  13.392  1.00  0.00     0.071 C 
HETATM   19  C27 UNL     1      -1.592   7.713  13.534  1.00  0.00     0.071 C 
ENDROOT
BRANCH   1  20
HETATM   20  C2  UNL     1      -6.414   5.706  14.039  1.00  0.00     0.011 C 
HETATM   21  C1  UNL     1      -6.358   4.436  13.181  1.00  0.00     0.015 C 
BRANCH  20  22
HETATM   22  C3  UNL     1      -7.785   6.365  13.965  1.00  0.00    -0.026 C 
HETATM   23  C4  UNL     1      -8.783   6.063  13.118  1.00  0.00    -0.027 C 
BRANCH  23  24
HETATM   24  C5  UNL     1     -10.119   6.765  13.110  1.00  0.00     0.066 C 
BRANCH  24  25
HETATM   25  C6  UNL     1     -10.521   7.393  14.468  1.00  0.00     0.078 C 
HETATM   26  C7  UNL     1      -9.692   8.634  14.813  1.00  0.00     0.048 C 
BRANCH  25  27
HETATM   27  O1  UNL     1     -10.351   6.415  15.514  1.00  0.00    -0.388 OA
HETATM   28  H12 UNL     1      -9.394   6.267  15.615  1.00  0.00     0.210 HD
ENDBRANCH  25  27
BRANCH  25  29
HETATM   29  C8  UNL     1     -12.019   7.763  14.460  1.00  0.00     0.201 C 
BRANCH  29  30
HETATM   30  O2  UNL     1     -12.785   6.746  15.105  1.00  0.00    -0.398 OA
HETATM   31  H15 UNL     1     -12.286   6.543  15.922  1.00  0.00     0.209 HD
ENDBRANCH  29  30
ENDBRANCH  25  29
ENDBRANCH  24  25
ENDBRANCH  23  24
ENDBRANCH  20  22
ENDBRANCH   1  20
BRANCH   2  32
HETATM   32  O3  UNL     1      -5.753   7.739  15.925  1.00  0.00    -0.393 OA
HETATM   33  H18 UNL     1      -5.682   8.561  16.439  1.00  0.00     0.210 HD
ENDBRANCH   2  32
BRANCH   3  34
HETATM   34  O4  UNL     1      -3.819   9.927  14.305  1.00  0.00    -0.392 OA
HETATM   35  H20 UNL     1      -4.217  10.409  15.050  1.00  0.00     0.210 HD
ENDBRANCH   3  34
BRANCH  19  36
HETATM   36  O7  UNL     1      -1.120   7.166  14.763  1.00  0.00    -0.389 OA
HETATM   37  H46 UNL     1      -0.247   7.574  14.951  1.00  0.00     0.210 HD
ENDBRANCH  19  36
BRANCH  17  38
HETATM   38  O6  UNL     1       1.104   8.675  14.395  1.00  0.00    -0.395 OA
HETATM   39  H43 UNL     1       2.069   8.781  14.304  1.00  0.00     0.210 HD
ENDBRANCH  17  38
BRANCH  14  40
HETATM   40  O5  UNL     1       3.670   6.519  10.868  1.00  0.00    -0.396 OA
HETATM   41  H38 UNL     1       3.905   5.981  10.093  1.00  0.00     0.210 HD
ENDBRANCH  14  40
TORSDOF 12
ENDMDL
MODEL 6
REMARK minimizedAffinity -7.95131779
REMARK CNNscore 0.642098248
REMARK CNNaffinity 6.54955053
REMARK  12 active torsions:
REMARK  status: ('A' for Active; 'I' for Inactive)
REMARK    1  A    between atoms: C2_2  and  C3_3 
REMARK    2  A    between atoms: C2_2  and  C9_11 
REMARK    3  A    between atoms: C4_4  and  C5_5 
REMARK    4  A    between atoms: C5_5  and  C6_6 
REMARK    5  A    between atoms: C6_6  and  O1_8 
REMARK    6  A    between atoms: C6_6  and  C8_9 
REMARK    7  A    between atoms: C8_9  and  O2_10 
REMARK    8  A    between atoms: C10_12  and  O3_13 
REMARK    9  A    between atoms: C11_14  and  O4_15 
REMARK   10  A    between atoms: C22_26  and  O5_27 
REMARK   11  A    between atoms: C25_30  and  O6_31 
REMARK   12  A    between atoms: C27_33  and  O7_34 
ROOT
HETATM    1  C9  UNL     1      -6.711   4.264  12.107  1.00  0.00     0.033 C 
HETATM    2  C10 UNL     1      -8.068   4.794  12.680  1.00  0.00     0.152 C 
HETATM    3  C11 UNL     1      -7.720   5.982  13.614  1.00  0.00     0.155 C 
HETATM    4  C12 UNL     1      -6.243   6.242  13.340  1.00  0.00     0.060 C 
HETATM    5  C13 UNL     1      -5.659   4.809  13.132  1.00  0.00    -0.028 C 
HETATM    6  C14 UNL     1      -5.627   3.909  14.392  1.00  0.00     0.016 C 
HETATM    7  C15 UNL     1      -4.225   4.983  12.593  1.00  0.00     0.011 C 
HETATM    8  C16 UNL     1      -3.360   5.877  13.500  1.00  0.00     0.009 C 
HETATM    9  C17 UNL     1      -3.994   7.268  13.748  1.00  0.00     0.029 C 
HETATM   10  C18 UNL     1      -3.054   8.271  14.524  1.00  0.00    -0.031 C 
HETATM   11  C19 UNL     1      -2.569   7.670  15.867  1.00  0.00     0.016 C 
HETATM   12  C20 UNL     1      -1.768   8.555  13.665  1.00  0.00     0.012 C 
HETATM   13  C21 UNL     1      -1.358  10.031  13.558  1.00  0.00     0.032 C 
HETATM   14  C22 UNL     1      -1.558  10.822  14.845  1.00  0.00     0.118 C 
HETATM   15  C23 UNL     1      -2.973  10.686  15.423  1.00  0.00     0.039 C 
HETATM   16  C24 UNL     1      -3.821   9.622  14.700  1.00  0.00     0.025 C 
HETATM   17  C25 UNL     1      -5.231   9.486  15.305  1.00  0.00     0.126 C 
HETATM   18  C26 UNL     1      -6.090   8.535  14.465  1.00  0.00     0.071 C 
HETATM   19  C27 UNL     1      -5.449   7.139  14.320  1.00  0.00     0.071 C 
ENDROOT
BRANCH   1  20
HETATM   20  C2  UNL     1      -6.721   2.756  11.731  1.00  0.00     0.011 C 
HETATM   21  C1  UNL     1      -7.229   1.847  12.857  1.00  0.00     0.015 C 
BRANCH  20  22
HETATM   22  C3  UNL     1      -5.340   2.326  11.252  1.00  0.00    -0.026 C 
HETATM   23  C4  UNL     1      -4.389   1.710  11.975  1.00  0.00    -0.027 C 
BRANCH  23  24
HETATM   24  C5  UNL     1      -3.041   1.313  11.424  1.00  0.00     0.066 C 
BRANCH  24  25
HETATM   25  C6  UNL     1      -2.269   2.463  10.730  1.00  0.00     0.078 C 
HETATM   26  C7  UNL     1      -3.200   3.520  10.129  1.00  0.00     0.048 C 
BRANCH  25  27
HETATM   27  O1  UNL     1      -1.445   1.918   9.680  1.00  0.00    -0.388 OA
HETATM   28  H12 UNL     1      -2.044   1.602   8.980  1.00  0.00     0.210 HD
ENDBRANCH  25  27
BRANCH  25  29
HETATM   29  C8  UNL     1      -1.307   3.137  11.731  1.00  0.00     0.201 C 
BRANCH  29  30
HETATM   30  O2  UNL     1      -0.258   3.810  11.035  1.00  0.00    -0.398 OA
HETATM   31  H15 UNL     1      -0.712   4.295  10.315  1.00  0.00     0.209 HD
ENDBRANCH  29  30
ENDBRANCH  25  29
ENDBRANCH  24  25
ENDBRANCH  23  24
ENDBRANCH  20  22
ENDBRANCH   1  20
BRANCH   2  32
HETATM   32  O3  UNL     1      -8.772   3.795  13.418  1.00  0.00    -0.393 OA
HETATM   33  H18 UNL     1      -9.572   4.207  13.784  1.00  0.00     0.210 HD
ENDBRANCH   2  32
BRANCH   3  34
HETATM   34  O4  UNL     1      -8.508   7.121  13.272  1.00  0.00    -0.392 OA
HETATM   35  H20 UNL     1      -9.424   6.928  13.536  1.00  0.00     0.210 HD
ENDBRANCH   3  34
BRANCH  19  36
HETATM   36  O7  UNL     1      -5.455   6.512  15.600  1.00  0.00    -0.389 OA
HETATM   37  H46 UNL     1      -5.397   7.221  16.277  1.00  0.00     0.210 HD
ENDBRANCH  19  36
BRANCH  17  38
HETATM   38  O6  UNL     1      -5.207   9.002  16.645  1.00  0.00    -0.395 OA
HETATM   39  H43 UNL     1      -4.751   9.666  17.195  1.00  0.00     0.210 HD
ENDBRANCH  17  38
BRANCH  14  40
HETATM   40  O5  UNL     1      -0.617  10.395  15.827  1.00  0.00    -0.396 OA
HETATM   41  H38 UNL     1       0.272  10.468  15.439  1.00  0.00     0.210 HD
ENDBRANCH  14  40
TORSDOF 12
ENDMDL
MODEL 7
REMARK minimizedAffinity -7.1372633
REMARK CNNscore 0.613218725
REMARK CNNaffinity 6.49247313
REMARK  12 active torsions:
REMARK  status: ('A' for Active; 'I' for Inactive)
REMARK    1  A    between atoms: C2_2  and  C3_3 
REMARK    2  A    between atoms: C2_2  and  C9_11 
REMARK    3  A    between atoms: C4_4  and  C5_5 
REMARK    4  A    between atoms: C5_5  and  C6_6 
REMARK    5  A    between atoms: C6_6  and  O1_8 
REMARK    6  A    between atoms: C6_6  and  C8_9 
REMARK    7  A    between atoms: C8_9  and  O2_10 
REMARK    8  A    between atoms: C10_12  and  O3_13 
REMARK    9  A    between atoms: C11_14  and  O4_15 
REMARK   10  A    between atoms: C22_26  and  O5_27 
REMARK   11  A    between atoms: C25_30  and  O6_31 
REMARK   12  A    between atoms: C27_33  and  O7_34 
ROOT
HETATM    1  C9  UNL     1     -13.630 -10.562  24.632  1.00  0.00     0.033 C 
HETATM    2  C10 UNL     1     -14.713  -9.821  23.779  1.00  0.00     0.152 C 
HETATM    3  C11 UNL     1     -15.278  -8.684  24.669  1.00  0.00     0.155 C 
HETATM    4  C12 UNL     1     -14.337  -8.658  25.869  1.00  0.00     0.060 C 
HETATM    5  C13 UNL     1     -14.008 -10.167  26.101  1.00  0.00    -0.028 C 
HETATM    6  C14 UNL     1     -15.187 -11.039  26.600  1.00  0.00     0.016 C 
HETATM    7  C15 UNL     1     -12.861 -10.223  27.128  1.00  0.00     0.011 C 
HETATM    8  C16 UNL     1     -13.190  -9.456  28.421  1.00  0.00     0.009 C 
HETATM    9  C17 UNL     1     -13.580  -7.981  28.158  1.00  0.00     0.029 C 
HETATM   10  C18 UNL     1     -13.750  -7.120  29.471  1.00  0.00    -0.031 C 
HETATM   11  C19 UNL     1     -14.768  -7.765  30.444  1.00  0.00     0.016 C 
HETATM   12  C20 UNL     1     -12.376  -7.050  30.233  1.00  0.00     0.012 C 
HETATM   13  C21 UNL     1     -11.967  -5.656  30.730  1.00  0.00     0.032 C 
HETATM   14  C22 UNL     1     -13.130  -4.823  31.255  1.00  0.00     0.118 C 
HETATM   15  C23 UNL     1     -14.300  -4.730  30.268  1.00  0.00     0.039 C 
HETATM   16  C24 UNL     1     -14.140  -5.665  29.053  1.00  0.00     0.025 C 
HETATM   17  C25 UNL     1     -15.333  -5.573  28.083  1.00  0.00     0.126 C 
HETATM   18  C26 UNL     1     -15.065  -6.397  26.818  1.00  0.00     0.071 C 
HETATM   19  C27 UNL     1     -14.763  -7.876  27.134  1.00  0.00     0.071 C 
ENDROOT
BRANCH   1  20
HETATM   20  C2  UNL     1     -13.432 -12.057  24.257  1.00  0.00     0.011 C 
HETATM   21  C1  UNL     1     -13.058 -12.945  25.450  1.00  0.00     0.015 C 
BRANCH  20  22
HETATM   22  C3  UNL     1     -12.414 -12.185  23.130  1.00  0.00    -0.026 C 
HETATM   23  C4  UNL     1     -11.407 -11.340  22.851  1.00  0.00    -0.027 C 
BRANCH  23  24
HETATM   24  C5  UNL     1     -10.436 -11.538  21.713  1.00  0.00     0.066 C 
BRANCH  24  25
HETATM   25  C6  UNL     1      -9.448 -10.364  21.503  1.00  0.00     0.078 C 
HETATM   26  C7  UNL     1      -8.019 -10.711  21.930  1.00  0.00     0.048 C 
BRANCH  25  27
HETATM   27  O1  UNL     1      -9.896  -9.222  22.262  1.00  0.00    -0.388 OA
HETATM   28  H12 UNL     1      -9.779  -9.441  23.203  1.00  0.00     0.210 HD
ENDBRANCH  25  27
BRANCH  25  29
HETATM   29  C8  UNL     1      -9.449  -9.927  20.022  1.00  0.00     0.201 C 
BRANCH  29  30
HETATM   30  O2  UNL     1      -8.242  -9.232  19.709  1.00  0.00    -0.398 OA
HETATM   31  H15 UNL     1      -7.534  -9.776  20.108  1.00  0.00     0.209 HD
ENDBRANCH  29  30
ENDBRANCH  25  29
ENDBRANCH  24  25
ENDBRANCH  23  24
ENDBRANCH  20  22
ENDBRANCH   1  20
BRANCH   2  32
HETATM   32  O3  UNL     1     -15.774 -10.688  23.379  1.00  0.00    -0.393 OA
HETATM   33  H18 UNL     1     -16.429 -10.153  22.900  1.00  0.00     0.210 HD
ENDBRANCH   2  32
BRANCH   3  34
HETATM   34  O4  UNL     1     -15.238  -7.444  23.965  1.00  0.00    -0.392 OA
HETATM   35  H20 UNL     1     -15.908  -7.491  23.261  1.00  0.00     0.210 HD
ENDBRANCH   3  34
BRANCH  19  36
HETATM   36  O7  UNL     1     -15.953  -8.473  27.646  1.00  0.00    -0.389 OA
HETATM   37  H46 UNL     1     -16.464  -7.770  28.101  1.00  0.00     0.210 HD
ENDBRANCH  19  36
BRANCH  17  38
HETATM   38  O6  UNL     1     -16.549  -6.032  28.666  1.00  0.00    -0.395 OA
HETATM   39  H43 UNL     1     -16.770  -5.437  29.406  1.00  0.00     0.210 HD
ENDBRANCH  17  38
BRANCH  14  40
HETATM   40  O5  UNL     1     -13.604  -5.371  32.482  1.00  0.00    -0.396 OA
HETATM   41  H38 UNL     1     -12.848  -5.442  33.090  1.00  0.00     0.210 HD
ENDBRANCH  14  40
TORSDOF 12
ENDMDL
MODEL 8
REMARK minimizedAffinity -7.96368408
REMARK CNNscore 0.603998363
REMARK CNNaffinity 6.42085314
REMARK  12 active torsions:
REMARK  status: ('A' for Active; 'I' for Inactive)
REMARK    1  A    between atoms: C2_2  and  C3_3 
REMARK    2  A    between atoms: C2_2  and  C9_11 
REMARK    3  A    between atoms: C4_4  and  C5_5 
REMARK    4  A    between atoms: C5_5  and  C6_6 
REMARK    5  A    between atoms: C6_6  and  O1_8 
REMARK    6  A    between atoms: C6_6  and  C8_9 
REMARK    7  A    between atoms: C8_9  and  O2_10 
REMARK    8  A    between atoms: C10_12  and  O3_13 
REMARK    9  A    between atoms: C11_14  and  O4_15 
REMARK   10  A    between atoms: C22_26  and  O5_27 
REMARK   11  A    between atoms: C25_30  and  O6_31 
REMARK   12  A    between atoms: C27_33  and  O7_34 
ROOT
HETATM    1  C9  UNL     1      -4.762   6.873  15.263  1.00  0.00     0.033 C 
HETATM    2  C10 UNL     1      -3.567   5.961  14.827  1.00  0.00     0.152 C 
HETATM    3  C11 UNL     1      -2.320   6.877  14.736  1.00  0.00     0.155 C 
HETATM    4  C12 UNL     1      -2.784   8.188  15.361  1.00  0.00     0.060 C 
HETATM    5  C13 UNL     1      -4.265   8.310  14.882  1.00  0.00    -0.028 C 
HETATM    6  C14 UNL     1      -4.461   8.556  13.365  1.00  0.00     0.016 C 
HETATM    7  C15 UNL     1      -4.899   9.470  15.673  1.00  0.00     0.011 C 
HETATM    8  C16 UNL     1      -4.098  10.779  15.542  1.00  0.00     0.009 C 
HETATM    9  C17 UNL     1      -2.615  10.616  15.956  1.00  0.00     0.029 C 
HETATM   10  C18 UNL     1      -1.810  11.973  16.004  1.00  0.00    -0.031 C 
HETATM   11  C19 UNL     1      -1.897  12.731  14.655  1.00  0.00     0.016 C 
HETATM   12  C20 UNL     1      -2.438  12.916  17.094  1.00  0.00     0.012 C 
HETATM   13  C21 UNL     1      -1.434  13.602  18.032  1.00  0.00     0.032 C 
HETATM   14  C22 UNL     1      -0.150  14.047  17.342  1.00  0.00     0.118 C 
HETATM   15  C23 UNL     1       0.525  12.925  16.542  1.00  0.00     0.039 C 
HETATM   16  C24 UNL     1      -0.341  11.655  16.433  1.00  0.00     0.025 C 
HETATM   17  C25 UNL     1       0.343  10.548  15.611  1.00  0.00     0.126 C 
HETATM   18  C26 UNL     1      -0.477   9.255  15.658  1.00  0.00     0.071 C 
HETATM   19  C27 UNL     1      -1.922   9.457  15.157  1.00  0.00     0.071 C 
ENDROOT
BRANCH   1  20
HETATM   20  C2  UNL     1      -6.154   6.379  14.780  1.00  0.00     0.011 C 
HETATM   21  C1  UNL     1      -6.882   5.500  15.803  1.00  0.00     0.015 C 
BRANCH  20  22
HETATM   22  C3  UNL     1      -6.022   5.672  13.436  1.00  0.00    -0.026 C 
HETATM   23  C4  UNL     1      -6.633   4.537  13.056  1.00  0.00    -0.027 C 
BRANCH  23  24
HETATM   24  C5  UNL     1      -6.451   3.899  11.701  1.00  0.00     0.066 C 
BRANCH  24  25
HETATM   25  C6  UNL     1      -5.282   2.885  11.623  1.00  0.00     0.078 C 
HETATM   26  C7  UNL     1      -5.751   1.470  11.271  1.00  0.00     0.048 C 
BRANCH  25  27
HETATM   27  O1  UNL     1      -4.599   2.847  12.892  1.00  0.00    -0.388 OA
HETATM   28  H12 UNL     1      -5.206   2.433  13.532  1.00  0.00     0.210 HD
ENDBRANCH  25  27
BRANCH  25  29
HETATM   29  C8  UNL     1      -4.240   3.353  10.585  1.00  0.00     0.201 C 
BRANCH  29  30
HETATM   30  O2  UNL     1      -4.810   3.355   9.276  1.00  0.00    -0.398 OA
HETATM   31  H15 UNL     1      -5.685   3.779   9.389  1.00  0.00     0.209 HD
ENDBRANCH  29  30
ENDBRANCH  25  29
ENDBRANCH  24  25
ENDBRANCH  23  24
ENDBRANCH  20  22
ENDBRANCH   1  20
BRANCH   2  32
HETATM   32  O3  UNL     1      -3.795   5.336  13.564  1.00  0.00    -0.393 OA
HETATM   33  H18 UNL     1      -2.997   4.830  13.335  1.00  0.00     0.210 HD
ENDBRANCH   2  32
BRANCH   3  34
HETATM   34  O4  UNL     1      -1.242   6.313  15.482  1.00  0.00    -0.392 OA
HETATM   35  H20 UNL     1      -0.939   5.525  15.000  1.00  0.00     0.210 HD
ENDBRANCH   3  34
BRANCH  19  36
HETATM   36  O7  UNL     1      -1.872   9.742  13.761  1.00  0.00    -0.389 OA
HETATM   37  H46 UNL     1      -1.019  10.193  13.581  1.00  0.00     0.210 HD
ENDBRANCH  19  36
BRANCH  17  38
HETATM   38  O6  UNL     1       0.525  10.913  14.246  1.00  0.00    -0.395 OA
HETATM   39  H43 UNL     1       1.135  11.673  14.218  1.00  0.00     0.210 HD
ENDBRANCH  17  38
BRANCH  14  40
HETATM   40  O5  UNL     1      -0.424  15.137  16.466  1.00  0.00    -0.396 OA
HETATM   41  H38 UNL     1      -0.869  15.831  16.983  1.00  0.00     0.210 HD
ENDBRANCH  14  40
TORSDOF 12
ENDMDL
MODEL 9
REMARK minimizedAffinity -7.35390186
REMARK CNNscore 0.600771546
REMARK CNNaffinity 6.26187706
REMARK  12 active torsions:
REMARK  status: ('A' for Active; 'I' for Inactive)
REMARK    1  A    between atoms: C2_2  and  C3_3 
REMARK    2  A    between atoms: C2_2  and  C9_11 
REMARK    3  A    between atoms: C4_4  and  C5_5 
REMARK    4  A    between atoms: C5_5  and  C6_6 
REMARK    5  A    between atoms: C6_6  and  O1_8 
REMARK    6  A    between atoms: C6_6  and  C8_9 
REMARK    7  A    between atoms: C8_9  and  O2_10 
REMARK    8  A    between atoms: C10_12  and  O3_13 
REMARK    9  A    between atoms: C11_14  and  O4_15 
REMARK   10  A    between atoms: C22_26  and  O5_27 
REMARK   11  A    between atoms: C25_30  and  O6_31 
REMARK   12  A    between atoms: C27_33  and  O7_34 
ROOT
HETATM    1  C9  UNL     1      -6.990  -9.684  -0.271  1.00  0.00     0.033 C 
HETATM    2  C10 UNL     1      -8.506  -9.440   0.033  1.00  0.00     0.152 C 
HETATM    3  C11 UNL     1      -8.680  -9.592   1.567  1.00  0.00     0.155 C 
HETATM    4  C12 UNL     1      -7.251  -9.658   2.092  1.00  0.00     0.060 C 
HETATM    5  C13 UNL     1      -6.500 -10.473   0.992  1.00  0.00    -0.028 C 
HETATM    6  C14 UNL     1      -6.899 -11.965   0.876  1.00  0.00     0.016 C 
HETATM    7  C15 UNL     1      -4.995 -10.369   1.305  1.00  0.00     0.011 C 
HETATM    8  C16 UNL     1      -4.661 -10.815   2.741  1.00  0.00     0.009 C 
HETATM    9  C17 UNL     1      -5.469 -10.040   3.810  1.00  0.00     0.029 C 
HETATM   10  C18 UNL     1      -5.023 -10.344   5.294  1.00  0.00    -0.031 C 
HETATM   11  C19 UNL     1      -5.071 -11.863   5.600  1.00  0.00     0.016 C 
HETATM   12  C20 UNL     1      -3.532  -9.889   5.498  1.00  0.00     0.012 C 
HETATM   13  C21 UNL     1      -3.255  -9.091   6.780  1.00  0.00     0.032 C 
HETATM   14  C22 UNL     1      -4.034  -9.584   7.994  1.00  0.00     0.118 C 
HETATM   15  C23 UNL     1      -5.542  -9.701   7.737  1.00  0.00     0.039 C 
HETATM   16  C24 UNL     1      -5.919  -9.499   6.256  1.00  0.00     0.025 C 
HETATM   17  C25 UNL     1      -7.433  -9.639   6.014  1.00  0.00     0.126 C 
HETATM   18  C26 UNL     1      -7.784  -9.279   4.566  1.00  0.00     0.071 C 
HETATM   19  C27 UNL     1      -7.011 -10.138   3.544  1.00  0.00     0.071 C 
ENDROOT
BRANCH   1  20
HETATM   20  C2  UNL     1      -6.705 -10.242  -1.693  1.00  0.00     0.011 C 
HETATM   21  C1  UNL     1      -5.219 -10.223  -2.073  1.00  0.00     0.015 C 
BRANCH  20  22
HETATM   22  C3  UNL     1      -7.550  -9.504  -2.725  1.00  0.00    -0.026 C 
HETATM   23  C4  UNL     1      -7.187  -8.431  -3.448  1.00  0.00    -0.027 C 
BRANCH  23  24
HETATM   24  C5  UNL     1      -8.086  -7.756  -4.456  1.00  0.00     0.066 C 
BRANCH  24  25
HETATM   25  C6  UNL     1      -9.284  -6.995  -3.836  1.00  0.00     0.078 C 
HETATM   26  C7  UNL     1      -9.020  -6.551  -2.394  1.00  0.00     0.048 C 
BRANCH  25  27
HETATM   27  O1  UNL     1     -10.450  -7.844  -3.856  1.00  0.00    -0.388 OA
HETATM   28  H12 UNL     1     -10.292  -8.561  -3.217  1.00  0.00     0.210 HD
ENDBRANCH  25  27
BRANCH  25  29
HETATM   29  C8  UNL     1      -9.632  -5.761  -4.696  1.00  0.00     0.201 C 
BRANCH  29  30
HETATM   30  O2  UNL     1      -8.821  -4.649  -4.320  1.00  0.00    -0.398 OA
HETATM   31  H15 UNL     1      -7.917  -5.017  -4.249  1.00  0.00     0.209 HD
ENDBRANCH  29  30
ENDBRANCH  25  29
ENDBRANCH  24  25
ENDBRANCH  23  24
ENDBRANCH  20  22
ENDBRANCH   1  20
BRANCH   2  32
HETATM   32  O3  UNL     1      -9.351 -10.372  -0.640  1.00  0.00    -0.393 OA
HETATM   33  H18 UNL     1     -10.266 -10.194  -0.366  1.00  0.00     0.210 HD
ENDBRANCH   2  32
BRANCH   3  34
HETATM   34  O4  UNL     1      -9.365  -8.458   2.097  1.00  0.00    -0.392 OA
HETATM   35  H20 UNL     1     -10.287  -8.509   1.791  1.00  0.00     0.210 HD
ENDBRANCH   3  34
BRANCH  19  36
HETATM   36  O7  UNL     1      -7.477 -11.482   3.650  1.00  0.00    -0.389 OA
HETATM   37  H46 UNL     1      -7.766 -11.622   4.577  1.00  0.00     0.210 HD
ENDBRANCH  19  36
BRANCH  17  38
HETATM   38  O6  UNL     1      -7.909 -10.956   6.275  1.00  0.00    -0.395 OA
HETATM   39  H43 UNL     1      -7.780 -11.138   7.224  1.00  0.00     0.210 HD
ENDBRANCH  17  38
BRANCH  14  40
HETATM   40  O5  UNL     1      -3.536 -10.855   8.405  1.00  0.00    -0.396 OA
HETATM   41  H38 UNL     1      -2.578 -10.769   8.545  1.00  0.00     0.210 HD
ENDBRANCH  14  40
TORSDOF 12
ENDMDL
