MODEL 1
REMARK minimizedAffinity -6.8597312
REMARK CNNscore 0.629623115
REMARK CNNaffinity 6.12145948
REMARK  12 active torsions:
REMARK  status: ('A' for Active; 'I' for Inactive)
REMARK    1  A    between atoms: C3_4  and  O2_5 
REMARK    2  A    between atoms: O2_5  and  C4_6 
REMARK    3  A    between atoms: C7_9  and  C8_10 
REMARK    4  A    between atoms: N1_11  and  C9_13 
REMARK    5  A    between atoms: C9_13  and  C10_14 
REMARK    6  A    between atoms: C10_14  and  C11_15 
REMARK    7  A    between atoms: C11_15  and  O3_16 
REMARK    8  A    between atoms: C17_22  and  C18_23 
REMARK    9  A    between atoms: C24_31  and  O6_32 
REMARK   10  A    between atoms: C28_36  and  O7_37 
REMARK   11  A    between atoms: C31_40  and  O8_41 
REMARK   12  A    between atoms: C32_42  and  O9_43 
ROOT
HETATM    1  C4  UNL     1      -0.622  53.607 -10.489  1.00  0.00     0.127 C 
HETATM    2  C5  UNL     1      -1.303  54.809  -9.818  1.00  0.00     0.033 C 
HETATM    3  C6  UNL     1      -0.312  55.643  -9.014  1.00  0.00     0.021 C 
HETATM    4  C7  UNL     1       0.427  54.852  -7.883  1.00  0.00     0.026 C 
HETATM    5  C12 UNL     1       1.943  55.323  -7.869  1.00  0.00     0.009 C 
HETATM    6  C13 UNL     1       2.132  56.837  -7.618  1.00  0.00     0.007 C 
HETATM    7  C14 UNL     1       3.598  57.254  -7.690  1.00  0.00     0.013 C 
HETATM    8  C15 UNL     1       4.522  56.462  -6.718  1.00  0.00    -0.005 C 
HETATM    9  C16 UNL     1       4.208  56.913  -5.277  1.00  0.00     0.019 C 
HETATM   10  C17 UNL     1       6.013  56.723  -7.145  1.00  0.00     0.028 C 
HETATM   11  C22 UNL     1       6.349  55.593  -8.149  1.00  0.00     0.013 C 
HETATM   12  C23 UNL     1       5.121  54.684  -8.238  1.00  0.00     0.040 C 
HETATM   13  C24 UNL     1       4.343  54.938  -6.937  1.00  0.00     0.070 C 
HETATM   14  C25 UNL     1       2.858  54.469  -6.951  1.00  0.00     0.026 C 
HETATM   15  C26 UNL     1       2.731  52.982  -7.326  1.00  0.00     0.011 C 
HETATM   16  C27 UNL     1       1.291  52.507  -7.240  1.00  0.00     0.039 C 
HETATM   17  C28 UNL     1       0.314  53.302  -8.119  1.00  0.00     0.073 C 
HETATM   18  C29 UNL     1       0.488  52.982  -9.619  1.00  0.00     0.071 C 
ENDROOT
BRANCH   1  19
HETATM   19  O2  UNL     1      -1.561  52.570 -10.807  1.00  0.00    -0.356 OA
BRANCH  19  20
HETATM   20  C3  UNL     1      -2.099  52.664 -12.127  1.00  0.00     0.263 C 
HETATM   21  O1  UNL     1      -3.477  52.289 -12.183  1.00  0.00    -0.354 OA
HETATM   22  C2  UNL     1      -3.786  50.891 -12.033  1.00  0.00     0.151 C 
HETATM   23  C1  UNL     1      -3.684  50.412 -10.589  1.00  0.00     0.042 C 
HETATM   24  C32 UNL     1      -2.971  50.036 -13.017  1.00  0.00     0.175 C 
HETATM   25  C31 UNL     1      -1.472  50.353 -12.884  1.00  0.00     0.154 C 
HETATM   26  C30 UNL     1      -1.230  51.842 -13.074  1.00  0.00     0.095 C 
BRANCH  24  27
HETATM   27  O9  UNL     1      -3.431  50.325 -14.354  1.00  0.00    -0.390 OA
HETATM   28  H49 UNL     1      -3.577  51.287 -14.414  1.00  0.00     0.210 HD
ENDBRANCH  24  27
BRANCH  25  29
HETATM   29  O8  UNL     1      -0.716  49.608 -13.839  1.00  0.00    -0.393 OA
HETATM   30  H47 UNL     1       0.217  49.869 -13.758  1.00  0.00     0.210 HD
ENDBRANCH  25  29
ENDBRANCH  19  20
ENDBRANCH   1  19
BRANCH  17  31
HETATM   31  O7  UNL     1      -0.993  52.827  -7.744  1.00  0.00    -0.389 OA
HETATM   32  H41 UNL     1      -1.105  51.929  -8.102  1.00  0.00     0.210 HD
ENDBRANCH  17  31
BRANCH   4  33
HETATM   33  C8  UNL     1      -0.337  55.150  -6.584  1.00  0.00     0.068 C 
HETATM   34  N1  UNL     1      -0.054  54.599  -5.454  1.00  0.00    -0.401 N 
ATOM     35  H1  UNL     1       0.716  53.939  -5.344  1.00  0.00     0.158 HD
BRANCH  34  36
HETATM   36  C9  UNL     1      -0.920  54.992  -4.337  1.00  0.00     0.121 C 
BRANCH  36  37
HETATM   37  C10 UNL     1      -2.052  53.980  -4.140  1.00  0.00     0.045 C 
BRANCH  37  38
HETATM   38  C11 UNL     1      -3.225  54.591  -3.385  1.00  0.00     0.165 C 
BRANCH  38  39
HETATM   39  O3  UNL     1      -4.425  54.469  -4.146  1.00  0.00    -0.401 OA
HETATM   40  H18 UNL     1      -4.627  53.516  -4.219  1.00  0.00     0.209 HD
ENDBRANCH  38  39
ENDBRANCH  37  38
ENDBRANCH  36  37
ENDBRANCH  34  36
ENDBRANCH   4  33
BRANCH  13  41
HETATM   41  O6  UNL     1       5.037  54.244  -5.891  1.00  0.00    -0.389 OA
HETATM   42  H35 UNL     1       5.053  53.295  -6.095  1.00  0.00     0.210 HD
ENDBRANCH  13  41
BRANCH  10  43
HETATM   43  C18 UNL     1       7.068  56.868  -6.078  1.00  0.00    -0.045 A 
HETATM   44  C19 UNL     1       7.257  57.961  -5.335  1.00  0.00     0.087 A 
HETATM   45  C20 UNL     1       8.406  57.709  -4.470  1.00  0.00     0.283 A 
HETATM   46  O4  UNL     1       8.857  58.506  -3.668  1.00  0.00    -0.260 OA
HETATM   47  O5  UNL     1       8.888  56.466  -4.722  1.00  0.00    -0.314 OA
HETATM   48  C21 UNL     1       8.073  55.837  -5.717  1.00  0.00     0.213 A 
ENDBRANCH  10  43
TORSDOF 12
ENDMDL
MODEL 2
REMARK minimizedAffinity -7.12555981
REMARK CNNscore 0.466611564
REMARK CNNaffinity 6.0870862
REMARK  12 active torsions:
REMARK  status: ('A' for Active; 'I' for Inactive)
REMARK    1  A    between atoms: C3_4  and  O2_5 
REMARK    2  A    between atoms: O2_5  and  C4_6 
REMARK    3  A    between atoms: C7_9  and  C8_10 
REMARK    4  A    between atoms: N1_11  and  C9_13 
REMARK    5  A    between atoms: C9_13  and  C10_14 
REMARK    6  A    between atoms: C10_14  and  C11_15 
REMARK    7  A    between atoms: C11_15  and  O3_16 
REMARK    8  A    between atoms: C17_22  and  C18_23 
REMARK    9  A    between atoms: C24_31  and  O6_32 
REMARK   10  A    between atoms: C28_36  and  O7_37 
REMARK   11  A    between atoms: C31_40  and  O8_41 
REMARK   12  A    between atoms: C32_42  and  O9_43 
ROOT
HETATM    1  C4  UNL     1       6.927  55.884  -5.973  1.00  0.00     0.127 C 
HETATM    2  C5  UNL     1       7.573  55.766  -7.361  1.00  0.00     0.033 C 
HETATM    3  C6  UNL     1       6.534  55.514  -8.448  1.00  0.00     0.021 C 
HETATM    4  C7  UNL     1       5.680  54.219  -8.235  1.00  0.00     0.026 C 
HETATM    5  C12 UNL     1       4.181  54.554  -8.633  1.00  0.00     0.009 C 
HETATM    6  C13 UNL     1       4.006  55.026 -10.095  1.00  0.00     0.007 C 
HETATM    7  C14 UNL     1       2.561  55.408 -10.407  1.00  0.00     0.013 C 
HETATM    8  C15 UNL     1       1.537  54.272 -10.119  1.00  0.00    -0.005 C 
HETATM    9  C16 UNL     1       1.733  53.165 -11.174  1.00  0.00     0.019 C 
HETATM   10  C17 UNL     1       0.097  54.902 -10.132  1.00  0.00     0.028 C 
HETATM   11  C22 UNL     1      -0.176  55.318  -8.666  1.00  0.00     0.013 C 
HETATM   12  C23 UNL     1       1.033  54.879  -7.837  1.00  0.00     0.040 C 
HETATM   13  C24 UNL     1       1.700  53.767  -8.662  1.00  0.00     0.070 C 
HETATM   14  C25 UNL     1       3.169  53.436  -8.265  1.00  0.00     0.026 C 
HETATM   15  C26 UNL     1       3.294  53.091  -6.771  1.00  0.00     0.011 C 
HETATM   16  C27 UNL     1       4.709  52.673  -6.412  1.00  0.00     0.039 C 
HETATM   17  C28 UNL     1       5.777  53.724  -6.746  1.00  0.00     0.073 C 
HETATM   18  C29 UNL     1       5.730  54.929  -5.784  1.00  0.00     0.071 C 
ENDROOT
BRANCH   1  19
HETATM   19  O2  UNL     1       7.866  55.618  -4.922  1.00  0.00    -0.356 OA
BRANCH  19  20
HETATM   20  C3  UNL     1       9.227  55.833  -5.296  1.00  0.00     0.263 C 
HETATM   21  O1  UNL     1      10.106  54.849  -4.748  1.00  0.00    -0.354 OA
HETATM   22  C2  UNL     1      10.366  54.912  -3.333  1.00  0.00     0.151 C 
HETATM   23  C1  UNL     1       9.207  54.385  -2.493  1.00  0.00     0.042 C 
HETATM   24  C32 UNL     1      10.830  56.316  -2.918  1.00  0.00     0.175 C 
HETATM   25  C31 UNL     1       9.829  57.376  -3.408  1.00  0.00     0.154 C 
HETATM   26  C30 UNL     1       9.627  57.254  -4.910  1.00  0.00     0.095 C 
BRANCH  24  27
HETATM   27  O9  UNL     1      12.133  56.550  -3.493  1.00  0.00    -0.390 OA
HETATM   28  H49 UNL     1      12.123  56.193  -4.401  1.00  0.00     0.210 HD
ENDBRANCH  24  27
BRANCH  25  29
HETATM   29  O8  UNL     1      10.288  58.687  -3.080  1.00  0.00    -0.393 OA
HETATM   30  H47 UNL     1       9.656  59.330  -3.445  1.00  0.00     0.210 HD
ENDBRANCH  25  29
ENDBRANCH  19  20
ENDBRANCH   1  19
BRANCH  17  31
HETATM   31  O7  UNL     1       7.035  53.060  -6.515  1.00  0.00    -0.389 OA
HETATM   32  H41 UNL     1       7.158  52.965  -5.554  1.00  0.00     0.210 HD
ENDBRANCH  17  31
BRANCH   4  33
HETATM   33  C8  UNL     1       6.334  53.130  -9.099  1.00  0.00     0.068 C 
HETATM   34  N1  UNL     1       6.115  51.870  -8.933  1.00  0.00    -0.401 N 
ATOM     35  H1  UNL     1       5.474  51.514  -8.224  1.00  0.00     0.158 HD
BRANCH  34  36
HETATM   36  C9  UNL     1       6.858  50.987  -9.839  1.00  0.00     0.121 C 
BRANCH  36  37
HETATM   37  C10 UNL     1       6.609  49.516  -9.497  1.00  0.00     0.045 C 
BRANCH  37  38
HETATM   38  C11 UNL     1       7.825  48.653  -9.809  1.00  0.00     0.165 C 
BRANCH  38  39
HETATM   39  O3  UNL     1       8.339  48.965 -11.102  1.00  0.00    -0.401 OA
HETATM   40  H18 UNL     1       8.669  49.884 -11.069  1.00  0.00     0.209 HD
ENDBRANCH  38  39
ENDBRANCH  37  38
ENDBRANCH  36  37
ENDBRANCH  34  36
ENDBRANCH   4  33
BRANCH  13  41
HETATM   41  O6  UNL     1       0.900  52.587  -8.498  1.00  0.00    -0.389 OA
HETATM   42  H35 UNL     1       0.880  52.345  -7.559  1.00  0.00     0.210 HD
ENDBRANCH  13  41
BRANCH  10  43
HETATM   43  C18 UNL     1      -1.045  54.112 -10.720  1.00  0.00    -0.045 A 
HETATM   44  C19 UNL     1      -2.327  54.247 -10.369  1.00  0.00     0.087 A 
HETATM   45  C20 UNL     1      -3.094  53.264 -11.129  1.00  0.00     0.283 A 
HETATM   46  O4  UNL     1      -4.298  53.110 -11.044  1.00  0.00    -0.260 OA
HETATM   47  O5  UNL     1      -2.249  52.553 -11.916  1.00  0.00    -0.314 OA
HETATM   48  C21 UNL     1      -0.917  53.047 -11.747  1.00  0.00     0.213 A 
ENDBRANCH  10  43
TORSDOF 12
ENDMDL
MODEL 3
REMARK minimizedAffinity -7.1528101
REMARK CNNscore 0.439655215
REMARK CNNaffinity 6.08448792
REMARK  12 active torsions:
REMARK  status: ('A' for Active; 'I' for Inactive)
REMARK    1  A    between atoms: C3_4  and  O2_5 
REMARK    2  A    between atoms: O2_5  and  C4_6 
REMARK    3  A    between atoms: C7_9  and  C8_10 
REMARK    4  A    between atoms: N1_11  and  C9_13 
REMARK    5  A    between atoms: C9_13  and  C10_14 
REMARK    6  A    between atoms: C10_14  and  C11_15 
REMARK    7  A    between atoms: C11_15  and  O3_16 
REMARK    8  A    between atoms: C17_22  and  C18_23 
REMARK    9  A    between atoms: C24_31  and  O6_32 
REMARK   10  A    between atoms: C28_36  and  O7_37 
REMARK   11  A    between atoms: C31_40  and  O8_41 
REMARK   12  A    between atoms: C32_42  and  O9_43 
ROOT
HETATM    1  C4  UNL     1      -4.264  49.380 -10.577  1.00  0.00     0.127 C 
HETATM    2  C5  UNL     1      -3.105  48.942 -11.485  1.00  0.00     0.033 C 
HETATM    3  C6  UNL     1      -1.846  49.763 -11.230  1.00  0.00     0.021 C 
HETATM    4  C7  UNL     1      -2.028  51.304 -11.440  1.00  0.00     0.026 C 
HETATM    5  C12 UNL     1      -1.235  52.050 -10.285  1.00  0.00     0.009 C 
HETATM    6  C13 UNL     1       0.278  51.732 -10.251  1.00  0.00     0.007 C 
HETATM    7  C14 UNL     1       0.982  52.411  -9.079  1.00  0.00     0.013 C 
HETATM    8  C15 UNL     1       0.792  53.956  -9.045  1.00  0.00    -0.005 C 
HETATM    9  C16 UNL     1       1.599  54.569 -10.207  1.00  0.00     0.019 C 
HETATM   10  C17 UNL     1       1.243  54.469  -7.629  1.00  0.00     0.028 C 
HETATM   11  C22 UNL     1      -0.038  54.441  -6.761  1.00  0.00     0.013 C 
HETATM   12  C23 UNL     1      -1.190  53.994  -7.665  1.00  0.00     0.040 C 
HETATM   13  C24 UNL     1      -0.718  54.306  -9.094  1.00  0.00     0.070 C 
HETATM   14  C25 UNL     1      -1.502  53.578 -10.225  1.00  0.00     0.026 C 
HETATM   15  C26 UNL     1      -3.016  53.839 -10.132  1.00  0.00     0.011 C 
HETATM   16  C27 UNL     1      -3.763  53.209 -11.294  1.00  0.00     0.039 C 
HETATM   17  C28 UNL     1      -3.551  51.694 -11.428  1.00  0.00     0.073 C 
HETATM   18  C29 UNL     1      -4.291  50.903 -10.329  1.00  0.00     0.071 C 
ENDROOT
BRANCH   1  19
HETATM   19  O2  UNL     1      -5.538  49.005 -11.117  1.00  0.00    -0.356 OA
BRANCH  19  20
HETATM   20  C3  UNL     1      -6.600  49.027 -10.162  1.00  0.00     0.263 C 
HETATM   21  O1  UNL     1      -6.609  47.866  -9.329  1.00  0.00    -0.354 OA
HETATM   22  C2  UNL     1      -7.025  46.626  -9.932  1.00  0.00     0.151 C 
HETATM   23  C1  UNL     1      -5.953  46.012 -10.827  1.00  0.00     0.042 C 
HETATM   24  C32 UNL     1      -8.385  46.780 -10.631  1.00  0.00     0.175 C 
HETATM   25  C31 UNL     1      -8.349  47.961 -11.615  1.00  0.00     0.154 C 
HETATM   26  C30 UNL     1      -7.921  49.232 -10.896  1.00  0.00     0.095 C 
BRANCH  24  27
HETATM   27  O9  UNL     1      -9.391  46.997  -9.618  1.00  0.00    -0.390 OA
HETATM   28  H49 UNL     1      -9.014  47.603  -8.954  1.00  0.00     0.210 HD
ENDBRANCH  24  27
BRANCH  25  29
HETATM   29  O8  UNL     1      -9.629  48.148 -12.219  1.00  0.00    -0.393 OA
HETATM   30  H47 UNL     1      -9.581  48.930 -12.796  1.00  0.00     0.210 HD
ENDBRANCH  25  29
ENDBRANCH  19  20
ENDBRANCH   1  19
BRANCH  17  31
HETATM   31  O7  UNL     1      -4.172  51.342 -12.680  1.00  0.00    -0.389 OA
HETATM   32  H41 UNL     1      -5.138  51.389 -12.564  1.00  0.00     0.210 HD
ENDBRANCH  17  31
BRANCH   4  33
HETATM   33  C8  UNL     1      -1.513  51.606 -12.855  1.00  0.00     0.068 C 
HETATM   34  N1  UNL     1      -1.106  50.693 -13.670  1.00  0.00    -0.401 N 
ATOM     35  H1  UNL     1      -1.117  49.701 -13.432  1.00  0.00     0.158 HD
BRANCH  34  36
HETATM   36  C9  UNL     1      -0.625  51.188 -14.965  1.00  0.00     0.121 C 
BRANCH  36  37
HETATM   37  C10 UNL     1       0.900  51.330 -14.964  1.00  0.00     0.045 C 
BRANCH  37  38
HETATM   38  C11 UNL     1       1.409  51.919 -16.273  1.00  0.00     0.165 C 
BRANCH  38  39
HETATM   39  O3  UNL     1       1.437  53.343 -16.202  1.00  0.00    -0.401 OA
HETATM   40  H18 UNL     1       2.100  53.587 -15.528  1.00  0.00     0.209 HD
ENDBRANCH  38  39
ENDBRANCH  37  38
ENDBRANCH  36  37
ENDBRANCH  34  36
ENDBRANCH   4  33
BRANCH  13  41
HETATM   41  O6  UNL     1      -0.849  55.723  -9.279  1.00  0.00    -0.389 OA
HETATM   42  H35 UNL     1      -1.780  55.973  -9.169  1.00  0.00     0.210 HD
ENDBRANCH  13  41
BRANCH  10  43
HETATM   43  C18 UNL     1       1.972  55.785  -7.523  1.00  0.00    -0.045 A 
HETATM   44  C19 UNL     1       3.286  55.947  -7.701  1.00  0.00     0.087 A 
HETATM   45  C20 UNL     1       3.591  57.353  -7.455  1.00  0.00     0.283 A 
HETATM   46  O4  UNL     1       4.703  57.842  -7.523  1.00  0.00    -0.260 OA
HETATM   47  O5  UNL     1       2.448  58.004  -7.124  1.00  0.00    -0.314 OA
HETATM   48  C21 UNL     1       1.350  57.087  -7.173  1.00  0.00     0.213 A 
ENDBRANCH  10  43
TORSDOF 12
ENDMDL
MODEL 4
REMARK minimizedAffinity -7.26728153
REMARK CNNscore 0.410035789
REMARK CNNaffinity 5.97862005
REMARK  12 active torsions:
REMARK  status: ('A' for Active; 'I' for Inactive)
REMARK    1  A    between atoms: C3_4  and  O2_5 
REMARK    2  A    between atoms: O2_5  and  C4_6 
REMARK    3  A    between atoms: C7_9  and  C8_10 
REMARK    4  A    between atoms: N1_11  and  C9_13 
REMARK    5  A    between atoms: C9_13  and  C10_14 
REMARK    6  A    between atoms: C10_14  and  C11_15 
REMARK    7  A    between atoms: C11_15  and  O3_16 
REMARK    8  A    between atoms: C17_22  and  C18_23 
REMARK    9  A    between atoms: C24_31  and  O6_32 
REMARK   10  A    between atoms: C28_36  and  O7_37 
REMARK   11  A    between atoms: C31_40  and  O8_41 
REMARK   12  A    between atoms: C32_42  and  O9_43 
ROOT
HETATM    1  C4  UNL     1      -1.758  51.100 -16.019  1.00  0.00     0.127 C 
HETATM    2  C5  UNL     1      -3.146  50.880 -15.399  1.00  0.00     0.033 C 
HETATM    3  C6  UNL     1      -3.239  51.473 -13.998  1.00  0.00     0.021 C 
HETATM    4  C7  UNL     1      -2.195  50.897 -12.984  1.00  0.00     0.026 C 
HETATM    5  C12 UNL     1      -1.662  52.101 -12.098  1.00  0.00     0.009 C 
HETATM    6  C13 UNL     1      -2.765  52.838 -11.305  1.00  0.00     0.007 C 
HETATM    7  C14 UNL     1      -2.216  54.033 -10.529  1.00  0.00     0.013 C 
HETATM    8  C15 UNL     1      -1.056  53.668  -9.557  1.00  0.00    -0.005 C 
HETATM    9  C16 UNL     1      -1.644  52.861  -8.383  1.00  0.00     0.019 C 
HETATM   10  C17 UNL     1      -0.357  55.004  -9.112  1.00  0.00     0.028 C 
HETATM   11  C22 UNL     1       0.776  55.232 -10.142  1.00  0.00     0.013 C 
HETATM   12  C23 UNL     1       0.767  54.036 -11.098  1.00  0.00     0.040 C 
HETATM   13  C24 UNL     1       0.061  52.912 -10.323  1.00  0.00     0.070 C 
HETATM   14  C25 UNL     1      -0.455  51.730 -11.195  1.00  0.00     0.026 C 
HETATM   15  C26 UNL     1       0.667  51.116 -12.050  1.00  0.00     0.011 C 
HETATM   16  C27 UNL     1       0.181  49.902 -12.821  1.00  0.00     0.039 C 
HETATM   17  C28 UNL     1      -1.017  50.181 -13.741  1.00  0.00     0.073 C 
HETATM   18  C29 UNL     1      -0.616  50.997 -14.987  1.00  0.00     0.071 C 
ENDROOT
BRANCH   1  19
HETATM   19  O2  UNL     1      -1.484  50.158 -17.066  1.00  0.00    -0.356 OA
BRANCH  19  20
HETATM   20  C3  UNL     1      -1.474  50.736 -18.373  1.00  0.00     0.263 C 
HETATM   21  O1  UNL     1      -2.791  50.957 -18.881  1.00  0.00    -0.354 OA
HETATM   22  C2  UNL     1      -3.550  49.798 -19.273  1.00  0.00     0.151 C 
HETATM   23  C1  UNL     1      -4.108  49.023 -18.084  1.00  0.00     0.042 C 
HETATM   24  C32 UNL     1      -2.754  48.921 -20.251  1.00  0.00     0.175 C 
HETATM   25  C31 UNL     1      -1.374  48.583 -19.662  1.00  0.00     0.154 C 
HETATM   26  C30 UNL     1      -0.632  49.858 -19.294  1.00  0.00     0.095 C 
BRANCH  24  27
HETATM   27  O9  UNL     1      -2.609  49.644 -21.492  1.00  0.00    -0.390 OA
HETATM   28  H49 UNL     1      -2.420  50.574 -21.270  1.00  0.00     0.210 HD
ENDBRANCH  24  27
BRANCH  25  29
HETATM   29  O8  UNL     1      -0.605  47.821 -20.594  1.00  0.00    -0.393 OA
HETATM   30  H47 UNL     1       0.274  47.668 -20.208  1.00  0.00     0.210 HD
ENDBRANCH  25  29
ENDBRANCH  19  20
ENDBRANCH   1  19
BRANCH  17  31
HETATM   31  O7  UNL     1      -1.433  48.884 -14.212  1.00  0.00    -0.389 OA
HETATM   32  H41 UNL     1      -0.772  48.567 -14.853  1.00  0.00     0.210 HD
ENDBRANCH  17  31
BRANCH   4  33
HETATM   33  C8  UNL     1      -2.928  49.805 -12.190  1.00  0.00     0.068 C 
HETATM   34  N1  UNL     1      -4.073  49.325 -12.537  1.00  0.00    -0.401 N 
ATOM     35  H1  UNL     1      -4.562  49.629 -13.380  1.00  0.00     0.158 HD
BRANCH  34  36
HETATM   36  C9  UNL     1      -4.621  48.311 -11.630  1.00  0.00     0.121 C 
BRANCH  36  37
HETATM   37  C10 UNL     1      -6.055  48.659 -11.222  1.00  0.00     0.045 C 
BRANCH  37  38
HETATM   38  C11 UNL     1      -6.096  49.866 -10.294  1.00  0.00     0.165 C 
BRANCH  38  39
HETATM   39  O3  UNL     1      -7.446  50.245 -10.029  1.00  0.00    -0.401 OA
HETATM   40  H18 UNL     1      -7.859  49.515  -9.529  1.00  0.00     0.209 HD
ENDBRANCH  38  39
ENDBRANCH  37  38
ENDBRANCH  36  37
ENDBRANCH  34  36
ENDBRANCH   4  33
BRANCH  13  41
HETATM   41  O6  UNL     1       1.004  52.405  -9.367  1.00  0.00    -0.389 OA
HETATM   42  H35 UNL     1       1.777  52.057  -9.839  1.00  0.00     0.210 HD
ENDBRANCH  13  41
BRANCH  10  43
HETATM   43  C18 UNL     1       0.131  55.139  -7.692  1.00  0.00    -0.045 A 
HETATM   44  C19 UNL     1      -0.417  54.534  -6.635  1.00  0.00     0.087 A 
HETATM   45  C20 UNL     1       0.316  54.972  -5.451  1.00  0.00     0.283 A 
HETATM   46  O4  UNL     1       0.069  54.616  -4.314  1.00  0.00    -0.260 OA
HETATM   47  O5  UNL     1       1.286  55.843  -5.825  1.00  0.00    -0.314 OA
HETATM   48  C21 UNL     1       1.267  55.988  -7.249  1.00  0.00     0.213 A 
ENDBRANCH  10  43
TORSDOF 12
ENDMDL
MODEL 5
REMARK minimizedAffinity -8.53251171
REMARK CNNscore 0.409236401
REMARK CNNaffinity 6.87894678
REMARK  12 active torsions:
REMARK  status: ('A' for Active; 'I' for Inactive)
REMARK    1  A    between atoms: C3_4  and  O2_5 
REMARK    2  A    between atoms: O2_5  and  C4_6 
REMARK    3  A    between atoms: C7_9  and  C8_10 
REMARK    4  A    between atoms: N1_11  and  C9_13 
REMARK    5  A    between atoms: C9_13  and  C10_14 
REMARK    6  A    between atoms: C10_14  and  C11_15 
REMARK    7  A    between atoms: C11_15  and  O3_16 
REMARK    8  A    between atoms: C17_22  and  C18_23 
REMARK    9  A    between atoms: C24_31  and  O6_32 
REMARK   10  A    between atoms: C28_36  and  O7_37 
REMARK   11  A    between atoms: C31_40  and  O8_41 
REMARK   12  A    between atoms: C32_42  and  O9_43 
ROOT
HETATM    1  C4  UNL     1      -2.994  51.859 -23.790  1.00  0.00     0.127 C 
HETATM    2  C5  UNL     1      -4.323  51.701 -24.544  1.00  0.00     0.033 C 
HETATM    3  C6  UNL     1      -5.334  50.887 -23.745  1.00  0.00     0.021 C 
HETATM    4  C7  UNL     1      -4.850  49.445 -23.374  1.00  0.00     0.026 C 
HETATM    5  C12 UNL     1      -5.315  49.142 -21.887  1.00  0.00     0.009 C 
HETATM    6  C13 UNL     1      -6.845  49.219 -21.676  1.00  0.00     0.007 C 
HETATM    7  C14 UNL     1      -7.237  48.997 -20.218  1.00  0.00     0.013 C 
HETATM    8  C15 UNL     1      -6.714  47.654 -19.627  1.00  0.00    -0.005 C 
HETATM    9  C16 UNL     1      -7.506  46.500 -20.274  1.00  0.00     0.019 C 
HETATM   10  C17 UNL     1      -6.867  47.720 -18.064  1.00  0.00     0.028 C 
HETATM   11  C22 UNL     1      -5.525  48.297 -17.550  1.00  0.00     0.013 C 
HETATM   12  C23 UNL     1      -4.617  48.488 -18.768  1.00  0.00     0.040 C 
HETATM   13  C24 UNL     1      -5.182  47.542 -19.838  1.00  0.00     0.070 C 
HETATM   14  C25 UNL     1      -4.719  47.837 -21.295  1.00  0.00     0.026 C 
HETATM   15  C26 UNL     1      -3.185  47.865 -21.414  1.00  0.00     0.011 C 
HETATM   16  C27 UNL     1      -2.740  48.053 -22.853  1.00  0.00     0.039 C 
HETATM   17  C28 UNL     1      -3.289  49.324 -23.518  1.00  0.00     0.073 C 
HETATM   18  C29 UNL     1      -2.608  50.602 -22.983  1.00  0.00     0.071 C 
ENDROOT
BRANCH   1  19
HETATM   19  O2  UNL     1      -1.907  52.157 -24.677  1.00  0.00    -0.356 OA
BRANCH  19  20
HETATM   20  C3  UNL     1      -1.988  51.484 -25.934  1.00  0.00     0.263 C 
HETATM   21  O1  UNL     1      -0.824  50.702 -26.210  1.00  0.00    -0.354 OA
HETATM   22  C2  UNL     1       0.385  51.414 -26.539  1.00  0.00     0.151 C 
HETATM   23  C1  UNL     1       1.057  52.037 -25.319  1.00  0.00     0.042 C 
HETATM   24  C32 UNL     1       0.145  52.415 -27.679  1.00  0.00     0.175 C 
HETATM   25  C31 UNL     1      -1.039  53.336 -27.340  1.00  0.00     0.154 C 
HETATM   26  C30 UNL     1      -2.276  52.510 -27.026  1.00  0.00     0.095 C 
BRANCH  24  27
HETATM   27  O9  UNL     1      -0.126  51.669 -28.885  1.00  0.00    -0.390 OA
HETATM   28  H49 UNL     1      -0.704  50.921 -28.645  1.00  0.00     0.210 HD
ENDBRANCH  24  27
BRANCH  25  29
HETATM   29  O8  UNL     1      -1.307  54.226 -28.424  1.00  0.00    -0.393 OA
HETATM   30  H47 UNL     1      -2.088  54.758 -28.194  1.00  0.00     0.210 HD
ENDBRANCH  25  29
ENDBRANCH  19  20
ENDBRANCH   1  19
BRANCH  17  31
HETATM   31  O7  UNL     1      -2.917  49.207 -24.905  1.00  0.00    -0.389 OA
HETATM   32  H41 UNL     1      -1.957  49.356 -24.976  1.00  0.00     0.210 HD
ENDBRANCH  17  31
BRANCH   4  33
HETATM   33  C8  UNL     1      -5.457  48.507 -24.428  1.00  0.00     0.068 C 
HETATM   34  N1  UNL     1      -6.493  48.810 -25.133  1.00  0.00    -0.401 N 
ATOM     35  H1  UNL     1      -6.969  49.708 -25.049  1.00  0.00     0.158 HD
BRANCH  34  36
HETATM   36  C9  UNL     1      -6.936  47.767 -26.065  1.00  0.00     0.121 C 
BRANCH  36  37
HETATM   37  C10 UNL     1      -8.460  47.776 -26.212  1.00  0.00     0.045 C 
BRANCH  37  38
HETATM   38  C11 UNL     1      -9.106  48.801 -25.289  1.00  0.00     0.165 C 
BRANCH  38  39
HETATM   39  O3  UNL     1      -9.404  49.998 -26.004  1.00  0.00    -0.401 OA
HETATM   40  H18 UNL     1     -10.084  49.777 -26.669  1.00  0.00     0.209 HD
ENDBRANCH  38  39
ENDBRANCH  37  38
ENDBRANCH  36  37
ENDBRANCH  34  36
ENDBRANCH   4  33
BRANCH  13  41
HETATM   41  O6  UNL     1      -4.771  46.214 -19.483  1.00  0.00    -0.389 OA
HETATM   42  H35 UNL     1      -3.802  46.173 -19.473  1.00  0.00     0.210 HD
ENDBRANCH  13  41
BRANCH  10  43
HETATM   43  C18 UNL     1      -7.275  46.478 -17.313  1.00  0.00    -0.045 A 
HETATM   44  C19 UNL     1      -6.427  45.602 -16.768  1.00  0.00     0.087 A 
HETATM   45  C20 UNL     1      -7.222  44.522 -16.191  1.00  0.00     0.283 A 
HETATM   46  O4  UNL     1      -6.761  43.552 -15.621  1.00  0.00    -0.260 OA
HETATM   47  O5  UNL     1      -8.537  44.773 -16.412  1.00  0.00    -0.314 OA
HETATM   48  C21 UNL     1      -8.672  46.022 -17.097  1.00  0.00     0.213 A 
ENDBRANCH  10  43
TORSDOF 12
ENDMDL
MODEL 6
REMARK minimizedAffinity -7.86607122
REMARK CNNscore 0.370741934
REMARK CNNaffinity 5.82613802
REMARK  12 active torsions:
REMARK  status: ('A' for Active; 'I' for Inactive)
REMARK    1  A    between atoms: C3_4  and  O2_5 
REMARK    2  A    between atoms: O2_5  and  C4_6 
REMARK    3  A    between atoms: C7_9  and  C8_10 
REMARK    4  A    between atoms: N1_11  and  C9_13 
REMARK    5  A    between atoms: C9_13  and  C10_14 
REMARK    6  A    between atoms: C10_14  and  C11_15 
REMARK    7  A    between atoms: C11_15  and  O3_16 
REMARK    8  A    between atoms: C17_22  and  C18_23 
REMARK    9  A    between atoms: C24_31  and  O6_32 
REMARK   10  A    between atoms: C28_36  and  O7_37 
REMARK   11  A    between atoms: C31_40  and  O8_41 
REMARK   12  A    between atoms: C32_42  and  O9_43 
ROOT
HETATM    1  C4  UNL     1      -5.909  41.910 -32.754  1.00  0.00     0.127 C 
HETATM    2  C5  UNL     1      -5.151  43.245 -32.734  1.00  0.00     0.033 C 
HETATM    3  C6  UNL     1      -5.796  44.247 -31.783  1.00  0.00     0.021 C 
HETATM    4  C7  UNL     1      -7.289  44.580 -32.113  1.00  0.00     0.026 C 
HETATM    5  C12 UNL     1      -8.083  44.669 -30.742  1.00  0.00     0.009 C 
HETATM    6  C13 UNL     1      -7.542  45.741 -29.768  1.00  0.00     0.007 C 
HETATM    7  C14 UNL     1      -8.288  45.736 -28.436  1.00  0.00     0.013 C 
HETATM    8  C15 UNL     1      -9.827  45.918 -28.580  1.00  0.00    -0.005 C 
HETATM    9  C16 UNL     1     -10.105  47.371 -29.013  1.00  0.00     0.019 C 
HETATM   10  C17 UNL     1     -10.492  45.536 -27.207  1.00  0.00     0.028 C 
HETATM   11  C22 UNL     1     -10.809  44.024 -27.318  1.00  0.00     0.013 C 
HETATM   12  C23 UNL     1     -10.404  43.577 -28.725  1.00  0.00     0.040 C 
HETATM   13  C24 UNL     1     -10.397  44.864 -29.565  1.00  0.00     0.070 C 
HETATM   14  C25 UNL     1      -9.622  44.772 -30.913  1.00  0.00     0.026 C 
HETATM   15  C26 UNL     1     -10.129  43.610 -31.785  1.00  0.00     0.011 C 
HETATM   16  C27 UNL     1      -9.440  43.587 -33.138  1.00  0.00     0.039 C 
HETATM   17  C28 UNL     1      -7.909  43.488 -33.061  1.00  0.00     0.073 C 
HETATM   18  C29 UNL     1      -7.437  42.084 -32.629  1.00  0.00     0.071 C 
ENDROOT
BRANCH   1  19
HETATM   19  O2  UNL     1      -5.653  41.167 -33.954  1.00  0.00    -0.356 OA
BRANCH  19  20
HETATM   20  C3  UNL     1      -4.271  41.107 -34.312  1.00  0.00     0.263 C 
HETATM   21  O1  UNL     1      -4.044  40.322 -35.484  1.00  0.00    -0.354 OA
HETATM   22  C2  UNL     1      -4.192  38.895 -35.360  1.00  0.00     0.151 C 
HETATM   23  C1  UNL     1      -5.651  38.451 -35.310  1.00  0.00     0.042 C 
HETATM   24  C32 UNL     1      -3.351  38.350 -34.195  1.00  0.00     0.175 C 
HETATM   25  C31 UNL     1      -3.672  39.117 -32.901  1.00  0.00     0.154 C 
HETATM   26  C30 UNL     1      -3.472  40.610 -33.110  1.00  0.00     0.095 C 
BRANCH  24  27
HETATM   27  O9  UNL     1      -1.956  38.500 -34.536  1.00  0.00    -0.390 OA
HETATM   28  H49 UNL     1      -1.850  39.369 -34.965  1.00  0.00     0.210 HD
ENDBRANCH  24  27
BRANCH  25  29
HETATM   29  O8  UNL     1      -2.847  38.658 -31.829  1.00  0.00    -0.393 OA
HETATM   30  H47 UNL     1      -3.044  39.196 -31.044  1.00  0.00     0.210 HD
ENDBRANCH  25  29
ENDBRANCH  19  20
ENDBRANCH   1  19
BRANCH  17  31
HETATM   31  O7  UNL     1      -7.456  43.679 -34.415  1.00  0.00    -0.389 OA
HETATM   32  H41 UNL     1      -7.672  42.877 -34.924  1.00  0.00     0.210 HD
ENDBRANCH  17  31
BRANCH   4  33
HETATM   33  C8  UNL     1      -7.267  45.889 -32.916  1.00  0.00     0.068 C 
HETATM   34  N1  UNL     1      -6.182  46.452 -33.323  1.00  0.00    -0.401 N 
ATOM     35  H1  UNL     1      -5.259  46.050 -33.153  1.00  0.00     0.158 HD
BRANCH  34  36
HETATM   36  C9  UNL     1      -6.371  47.714 -34.048  1.00  0.00     0.121 C 
BRANCH  36  37
HETATM   37  C10 UNL     1      -5.036  48.249 -34.572  1.00  0.00     0.045 C 
BRANCH  37  38
HETATM   38  C11 UNL     1      -3.860  47.708 -33.769  1.00  0.00     0.165 C 
BRANCH  38  39
HETATM   39  O3  UNL     1      -2.660  48.396 -34.117  1.00  0.00    -0.401 OA
HETATM   40  H18 UNL     1      -2.766  49.324 -33.834  1.00  0.00     0.209 HD
ENDBRANCH  38  39
ENDBRANCH  37  38
ENDBRANCH  36  37
ENDBRANCH  34  36
ENDBRANCH   4  33
BRANCH  13  41
HETATM   41  O6  UNL     1     -11.766  45.193 -29.840  1.00  0.00    -0.389 OA
HETATM   42  H35 UNL     1     -12.173  44.467 -30.338  1.00  0.00     0.210 HD
ENDBRANCH  13  41
BRANCH  10  43
HETATM   43  C18 UNL     1     -11.676  46.330 -26.718  1.00  0.00    -0.045 A 
HETATM   44  C19 UNL     1     -12.307  46.124 -25.559  1.00  0.00     0.087 A 
HETATM   45  C20 UNL     1     -13.425  47.062 -25.497  1.00  0.00     0.283 A 
HETATM   46  O4  UNL     1     -14.214  47.137 -24.574  1.00  0.00    -0.260 OA
HETATM   47  O5  UNL     1     -13.444  47.806 -26.630  1.00  0.00    -0.314 OA
HETATM   48  C21 UNL     1     -12.340  47.431 -27.461  1.00  0.00     0.213 A 
ENDBRANCH  10  43
TORSDOF 12
ENDMDL
MODEL 7
REMARK minimizedAffinity -7.13387156
REMARK CNNscore 0.351073533
REMARK CNNaffinity 5.87122297
REMARK  12 active torsions:
REMARK  status: ('A' for Active; 'I' for Inactive)
REMARK    1  A    between atoms: C3_4  and  O2_5 
REMARK    2  A    between atoms: O2_5  and  C4_6 
REMARK    3  A    between atoms: C7_9  and  C8_10 
REMARK    4  A    between atoms: N1_11  and  C9_13 
REMARK    5  A    between atoms: C9_13  and  C10_14 
REMARK    6  A    between atoms: C10_14  and  C11_15 
REMARK    7  A    between atoms: C11_15  and  O3_16 
REMARK    8  A    between atoms: C17_22  and  C18_23 
REMARK    9  A    between atoms: C24_31  and  O6_32 
REMARK   10  A    between atoms: C28_36  and  O7_37 
REMARK   11  A    between atoms: C31_40  and  O8_41 
REMARK   12  A    between atoms: C32_42  and  O9_43 
ROOT
HETATM    1  C4  UNL     1      -8.054  47.882 -23.954  1.00  0.00     0.127 C 
HETATM    2  C5  UNL     1      -8.332  48.971 -25.001  1.00  0.00     0.033 C 
HETATM    3  C6  UNL     1      -9.592  48.673 -25.806  1.00  0.00     0.021 C 
HETATM    4  C7  UNL     1      -9.559  47.308 -26.570  1.00  0.00     0.026 C 
HETATM    5  C12 UNL     1     -10.995  46.644 -26.444  1.00  0.00     0.009 C 
HETATM    6  C13 UNL     1     -12.142  47.506 -27.021  1.00  0.00     0.007 C 
HETATM    7  C14 UNL     1     -13.509  46.862 -26.807  1.00  0.00     0.013 C 
HETATM    8  C15 UNL     1     -13.620  45.422 -27.389  1.00  0.00    -0.005 C 
HETATM    9  C16 UNL     1     -13.631  45.521 -28.928  1.00  0.00     0.019 C 
HETATM   10  C17 UNL     1     -14.915  44.757 -26.795  1.00  0.00     0.028 C 
HETATM   11  C22 UNL     1     -14.445  44.040 -25.505  1.00  0.00     0.013 C 
HETATM   12  C23 UNL     1     -12.930  44.231 -25.405  1.00  0.00     0.040 C 
HETATM   13  C24 UNL     1     -12.472  44.537 -26.839  1.00  0.00     0.070 C 
HETATM   14  C25 UNL     1     -11.060  45.182 -26.961  1.00  0.00     0.026 C 
HETATM   15  C26 UNL     1      -9.981  44.334 -26.263  1.00  0.00     0.011 C 
HETATM   16  C27 UNL     1      -8.594  44.916 -26.470  1.00  0.00     0.039 C 
HETATM   17  C28 UNL     1      -8.443  46.366 -25.987  1.00  0.00     0.073 C 
HETATM   18  C29 UNL     1      -8.418  46.467 -24.447  1.00  0.00     0.071 C 
ENDROOT
BRANCH   1  19
HETATM   19  O2  UNL     1      -6.676  47.863 -23.555  1.00  0.00    -0.356 OA
BRANCH  19  20
HETATM   20  C3  UNL     1      -6.260  49.039 -22.860  1.00  0.00     0.263 C 
HETATM   21  O1  UNL     1      -5.574  49.961 -23.709  1.00  0.00    -0.354 OA
HETATM   22  C2  UNL     1      -4.245  49.604 -24.133  1.00  0.00     0.151 C 
HETATM   23  C1  UNL     1      -4.238  48.543 -25.230  1.00  0.00     0.042 C 
HETATM   24  C32 UNL     1      -3.359  49.242 -22.931  1.00  0.00     0.175 C 
HETATM   25  C31 UNL     1      -4.042  48.165 -22.070  1.00  0.00     0.154 C 
HETATM   26  C30 UNL     1      -5.427  48.628 -21.649  1.00  0.00     0.095 C 
BRANCH  24  27
HETATM   27  O9  UNL     1      -3.137  50.440 -22.157  1.00  0.00    -0.390 OA
HETATM   28  H49 UNL     1      -3.980  50.929 -22.124  1.00  0.00     0.210 HD
ENDBRANCH  24  27
BRANCH  25  29
HETATM   29  O8  UNL     1      -3.252  47.872 -20.918  1.00  0.00    -0.393 OA
HETATM   30  H47 UNL     1      -3.735  47.225 -20.376  1.00  0.00     0.210 HD
ENDBRANCH  25  29
ENDBRANCH  19  20
ENDBRANCH   1  19
BRANCH  17  31
HETATM   31  O7  UNL     1      -7.142  46.778 -26.450  1.00  0.00    -0.389 OA
HETATM   32  H41 UNL     1      -6.470  46.327 -25.908  1.00  0.00     0.210 HD
ENDBRANCH  17  31
BRANCH   4  33
HETATM   33  C8  UNL     1      -9.140  47.636 -28.012  1.00  0.00     0.068 C 
HETATM   34  N1  UNL     1      -8.807  46.737 -28.874  1.00  0.00    -0.401 N 
ATOM     35  H1  UNL     1      -8.819  45.739 -28.658  1.00  0.00     0.158 HD
BRANCH  34  36
HETATM   36  C9  UNL     1      -8.410  47.254 -30.188  1.00  0.00     0.121 C 
BRANCH  36  37
HETATM   37  C10 UNL     1      -9.395  48.318 -30.678  1.00  0.00     0.045 C 
BRANCH  37  38
HETATM   38  C11 UNL     1      -8.676  49.576 -31.147  1.00  0.00     0.165 C 
BRANCH  38  39
HETATM   39  O3  UNL     1      -8.903  50.649 -30.234  1.00  0.00    -0.401 OA
HETATM   40  H18 UNL     1      -8.481  50.404 -29.388  1.00  0.00     0.209 HD
ENDBRANCH  38  39
ENDBRANCH  37  38
ENDBRANCH  36  37
ENDBRANCH  34  36
ENDBRANCH   4  33
BRANCH  13  41
HETATM   41  O6  UNL     1     -12.475  43.293 -27.555  1.00  0.00    -0.389 OA
HETATM   42  H35 UNL     1     -11.857  42.679 -27.126  1.00  0.00     0.210 HD
ENDBRANCH  13  41
BRANCH  10  43
HETATM   43  C18 UNL     1     -15.747  43.858 -27.672  1.00  0.00    -0.045 A 
HETATM   44  C19 UNL     1     -16.640  44.282 -28.571  1.00  0.00     0.087 A 
HETATM   45  C20 UNL     1     -17.263  43.100 -29.161  1.00  0.00     0.283 A 
HETATM   46  O4  UNL     1     -18.131  43.128 -30.013  1.00  0.00    -0.260 OA
HETATM   47  O5  UNL     1     -16.734  41.989 -28.592  1.00  0.00    -0.314 OA
HETATM   48  C21 UNL     1     -15.729  42.373 -27.648  1.00  0.00     0.213 A 
ENDBRANCH  10  43
TORSDOF 12
ENDMDL
MODEL 8
REMARK minimizedAffinity -8.45364094
REMARK CNNscore 0.350437969
REMARK CNNaffinity 6.51114655
REMARK  12 active torsions:
REMARK  status: ('A' for Active; 'I' for Inactive)
REMARK    1  A    between atoms: C3_4  and  O2_5 
REMARK    2  A    between atoms: O2_5  and  C4_6 
REMARK    3  A    between atoms: C7_9  and  C8_10 
REMARK    4  A    between atoms: N1_11  and  C9_13 
REMARK    5  A    between atoms: C9_13  and  C10_14 
REMARK    6  A    between atoms: C10_14  and  C11_15 
REMARK    7  A    between atoms: C11_15  and  O3_16 
REMARK    8  A    between atoms: C17_22  and  C18_23 
REMARK    9  A    between atoms: C24_31  and  O6_32 
REMARK   10  A    between atoms: C28_36  and  O7_37 
REMARK   11  A    between atoms: C31_40  and  O8_41 
REMARK   12  A    between atoms: C32_42  and  O9_43 
ROOT
HETATM    1  C4  UNL     1      -6.053  48.703 -24.232  1.00  0.00     0.127 C 
HETATM    2  C5  UNL     1      -7.054  49.347 -23.262  1.00  0.00     0.033 C 
HETATM    3  C6  UNL     1      -6.354  49.972 -22.060  1.00  0.00     0.021 C 
HETATM    4  C7  UNL     1      -5.494  48.968 -21.222  1.00  0.00     0.026 C 
HETATM    5  C12 UNL     1      -4.154  49.706 -20.800  1.00  0.00     0.009 C 
HETATM    6  C13 UNL     1      -4.376  50.986 -19.962  1.00  0.00     0.007 C 
HETATM    7  C14 UNL     1      -3.064  51.702 -19.647  1.00  0.00     0.013 C 
HETATM    8  C15 UNL     1      -2.018  50.802 -18.926  1.00  0.00    -0.005 C 
HETATM    9  C16 UNL     1      -2.511  50.545 -17.488  1.00  0.00     0.019 C 
HETATM   10  C17 UNL     1      -0.626  51.530 -18.991  1.00  0.00     0.028 C 
HETATM   11  C22 UNL     1       0.042  51.011 -20.288  1.00  0.00     0.013 C 
HETATM   12  C23 UNL     1      -0.904  49.976 -20.902  1.00  0.00     0.040 C 
HETATM   13  C24 UNL     1      -1.787  49.502 -19.737  1.00  0.00     0.070 C 
HETATM   14  C25 UNL     1      -3.097  48.772 -20.154  1.00  0.00     0.026 C 
HETATM   15  C26 UNL     1      -2.817  47.579 -21.085  1.00  0.00     0.011 C 
HETATM   16  C27 UNL     1      -4.087  46.811 -21.406  1.00  0.00     0.039 C 
HETATM   17  C28 UNL     1      -5.190  47.665 -22.049  1.00  0.00     0.073 C 
HETATM   18  C29 UNL     1      -4.865  48.032 -23.512  1.00  0.00     0.071 C 
ENDROOT
BRANCH   1  19
HETATM   19  O2  UNL     1      -6.675  47.711 -25.061  1.00  0.00    -0.356 OA
BRANCH  19  20
HETATM   20  C3  UNL     1      -7.973  47.318 -24.615  1.00  0.00     0.263 C 
HETATM   21  O1  UNL     1      -8.450  46.149 -25.283  1.00  0.00    -0.354 OA
HETATM   22  C2  UNL     1      -8.841  46.291 -26.662  1.00  0.00     0.151 C 
HETATM   23  C1  UNL     1      -7.650  46.384 -27.610  1.00  0.00     0.042 C 
HETATM   24  C32 UNL     1      -9.848  47.439 -26.835  1.00  0.00     0.175 C 
HETATM   25  C31 UNL     1      -9.293  48.733 -26.216  1.00  0.00     0.154 C 
HETATM   26  C30 UNL     1      -8.924  48.503 -24.759  1.00  0.00     0.095 C 
BRANCH  24  27
HETATM   27  O9  UNL     1     -11.082  47.060 -26.190  1.00  0.00    -0.390 OA
HETATM   28  H49 UNL     1     -10.851  46.619 -25.351  1.00  0.00     0.210 HD
ENDBRANCH  24  27
BRANCH  25  29
HETATM   29  O8  UNL     1     -10.251  49.787 -26.317  1.00  0.00    -0.393 OA
HETATM   30  H47 UNL     1      -9.886  50.572 -25.875  1.00  0.00     0.210 HD
ENDBRANCH  25  29
ENDBRANCH  19  20
ENDBRANCH   1  19
BRANCH  17  31
HETATM   31  O7  UNL     1      -6.349  46.808 -22.086  1.00  0.00    -0.389 OA
HETATM   32  H41 UNL     1      -6.206  46.134 -22.773  1.00  0.00     0.210 HD
ENDBRANCH  17  31
BRANCH   4  33
HETATM   33  C8  UNL     1      -6.374  48.536 -20.039  1.00  0.00     0.068 C 
HETATM   34  N1  UNL     1      -6.175  47.454 -19.366  1.00  0.00    -0.401 N 
ATOM     35  H1  UNL     1      -5.400  46.820 -19.565  1.00  0.00     0.158 HD
BRANCH  34  36
HETATM   36  C9  UNL     1      -7.144  47.203 -18.293  1.00  0.00     0.121 C 
BRANCH  36  37
HETATM   37  C10 UNL     1      -7.823  48.503 -17.854  1.00  0.00     0.045 C 
BRANCH  37  38
HETATM   38  C11 UNL     1      -9.315  48.304 -17.619  1.00  0.00     0.165 C 
BRANCH  38  39
HETATM   39  O3  UNL     1      -9.543  47.704 -16.345  1.00  0.00    -0.401 OA
HETATM   40  H18 UNL     1      -9.253  48.344 -15.667  1.00  0.00     0.209 HD
ENDBRANCH  38  39
ENDBRANCH  37  38
ENDBRANCH  36  37
ENDBRANCH  34  36
ENDBRANCH   4  33
BRANCH  13  41
HETATM   41  O6  UNL     1      -0.991  48.608 -18.946  1.00  0.00    -0.389 OA
HETATM   42  H35 UNL     1      -0.720  47.854 -19.493  1.00  0.00     0.210 HD
ENDBRANCH  13  41
BRANCH  10  43
HETATM   43  C18 UNL     1       0.300  51.449 -17.804  1.00  0.00    -0.045 A 
HETATM   44  C19 UNL     1       1.215  52.369 -17.486  1.00  0.00     0.087 A 
HETATM   45  C20 UNL     1       1.933  51.885 -16.310  1.00  0.00     0.283 A 
HETATM   46  O4  UNL     1       2.842  52.478 -15.761  1.00  0.00    -0.260 OA
HETATM   47  O5  UNL     1       1.435  50.674 -15.954  1.00  0.00    -0.314 OA
HETATM   48  C21 UNL     1       0.361  50.327 -16.834  1.00  0.00     0.213 A 
ENDBRANCH  10  43
TORSDOF 12
ENDMDL
MODEL 9
REMARK minimizedAffinity -10.9752026
REMARK CNNscore 0.333622307
REMARK CNNaffinity 6.81383085
REMARK  12 active torsions:
REMARK  status: ('A' for Active; 'I' for Inactive)
REMARK    1  A    between atoms: C3_4  and  O2_5 
REMARK    2  A    between atoms: O2_5  and  C4_6 
REMARK    3  A    between atoms: C7_9  and  C8_10 
REMARK    4  A    between atoms: N1_11  and  C9_13 
REMARK    5  A    between atoms: C9_13  and  C10_14 
REMARK    6  A    between atoms: C10_14  and  C11_15 
REMARK    7  A    between atoms: C11_15  and  O3_16 
REMARK    8  A    between atoms: C17_22  and  C18_23 
REMARK    9  A    between atoms: C24_31  and  O6_32 
REMARK   10  A    between atoms: C28_36  and  O7_37 
REMARK   11  A    between atoms: C31_40  and  O8_41 
REMARK   12  A    between atoms: C32_42  and  O9_43 
ROOT
HETATM    1  C4  UNL     1      -5.126  48.083 -24.232  1.00  0.00     0.127 C 
HETATM    2  C5  UNL     1      -3.898  48.457 -25.076  1.00  0.00     0.033 C 
HETATM    3  C6  UNL     1      -2.750  48.963 -24.210  1.00  0.00     0.021 C 
HETATM    4  C7  UNL     1      -3.102  50.218 -23.343  1.00  0.00     0.026 C 
HETATM    5  C12 UNL     1      -2.435  50.027 -21.916  1.00  0.00     0.009 C 
HETATM    6  C13 UNL     1      -0.897  49.868 -21.954  1.00  0.00     0.007 C 
HETATM    7  C14 UNL     1      -0.311  49.611 -20.568  1.00  0.00     0.013 C 
HETATM    8  C15 UNL     1      -0.679  50.703 -19.521  1.00  0.00    -0.005 C 
HETATM    9  C16 UNL     1       0.087  51.993 -19.877  1.00  0.00     0.019 C 
HETATM   10  C17 UNL     1      -0.331  50.142 -18.094  1.00  0.00     0.028 C 
HETATM   11  C22 UNL     1      -1.627  49.448 -17.605  1.00  0.00     0.013 C 
HETATM   12  C23 UNL     1      -2.691  49.664 -18.684  1.00  0.00     0.040 C 
HETATM   13  C24 UNL     1      -2.216  50.895 -19.471  1.00  0.00     0.070 C 
HETATM   14  C25 UNL     1      -2.877  51.083 -20.869  1.00  0.00     0.026 C 
HETATM   15  C26 UNL     1      -4.414  51.113 -20.776  1.00  0.00     0.011 C 
HETATM   16  C27 UNL     1      -5.048  51.397 -22.125  1.00  0.00     0.039 C 
HETATM   17  C28 UNL     1      -4.660  50.397 -23.224  1.00  0.00     0.073 C 
HETATM   18  C29 UNL     1      -5.336  49.024 -23.028  1.00  0.00     0.071 C 
ENDROOT
BRANCH   1  19
HETATM   19  O2  UNL     1      -6.332  48.095 -25.009  1.00  0.00    -0.356 OA
BRANCH  19  20
HETATM   20  C3  UNL     1      -7.519  47.915 -24.234  1.00  0.00     0.263 C 
HETATM   21  O1  UNL     1      -8.166  46.672 -24.510  1.00  0.00    -0.354 OA
HETATM   22  C2  UNL     1      -8.838  46.546 -25.778  1.00  0.00     0.151 C 
HETATM   23  C1  UNL     1      -7.874  46.334 -26.941  1.00  0.00     0.042 C 
HETATM   24  C32 UNL     1      -9.818  47.707 -26.003  1.00  0.00     0.175 C 
HETATM   25  C31 UNL     1      -9.100  49.055 -25.818  1.00  0.00     0.154 C 
HETATM   26  C30 UNL     1      -8.437  49.114 -24.451  1.00  0.00     0.095 C 
BRANCH  24  27
HETATM   27  O9  UNL     1     -10.898  47.577 -25.054  1.00  0.00    -0.390 OA
HETATM   28  H49 UNL     1     -10.510  47.310 -24.201  1.00  0.00     0.210 HD
ENDBRANCH  24  27
BRANCH  25  29
HETATM   29  O8  UNL     1     -10.021  50.136 -25.963  1.00  0.00    -0.393 OA
HETATM   30  H47 UNL     1      -9.543  50.966 -25.793  1.00  0.00     0.210 HD
ENDBRANCH  25  29
ENDBRANCH  19  20
ENDBRANCH   1  19
BRANCH  17  31
HETATM   31  O7  UNL     1      -5.199  50.953 -24.440  1.00  0.00    -0.389 OA
HETATM   32  H41 UNL     1      -6.166  50.846 -24.420  1.00  0.00     0.210 HD
ENDBRANCH  17  31
BRANCH   4  33
HETATM   33  C8  UNL     1      -2.584  51.435 -24.124  1.00  0.00     0.068 C 
HETATM   34  N1  UNL     1      -1.983  51.343 -25.261  1.00  0.00    -0.401 N 
ATOM     35  H1  UNL     1      -1.828  50.450 -25.728  1.00  0.00     0.158 HD
BRANCH  34  36
HETATM   36  C9  UNL     1      -1.537  52.619 -25.832  1.00  0.00     0.121 C 
BRANCH  36  37
HETATM   37  C10 UNL     1      -0.998  52.425 -27.251  1.00  0.00     0.045 C 
BRANCH  37  38
HETATM   38  C11 UNL     1      -0.690  53.758 -27.922  1.00  0.00     0.165 C 
BRANCH  38  39
HETATM   39  O3  UNL     1      -1.874  54.313 -28.493  1.00  0.00    -0.401 OA
HETATM   40  H18 UNL     1      -2.480  54.522 -27.757  1.00  0.00     0.209 HD
ENDBRANCH  38  39
ENDBRANCH  37  38
ENDBRANCH  36  37
ENDBRANCH  34  36
ENDBRANCH   4  33
BRANCH  13  41
HETATM   41  O6  UNL     1      -2.505  52.046 -18.665  1.00  0.00    -0.389 OA
HETATM   42  H35 UNL     1      -3.461  52.093 -18.509  1.00  0.00     0.210 HD
ENDBRANCH  13  41
BRANCH  10  43
HETATM   43  C18 UNL     1       0.237  51.077 -17.056  1.00  0.00    -0.045 A 
HETATM   44  C19 UNL     1      -0.005  51.000 -15.745  1.00  0.00     0.087 A 
HETATM   45  C20 UNL     1       0.685  52.117 -15.106  1.00  0.00     0.283 A 
HETATM   46  O4  UNL     1       0.666  52.350 -13.912  1.00  0.00    -0.260 OA
HETATM   47  O5  UNL     1       1.321  52.847 -16.055  1.00  0.00    -0.314 OA
HETATM   48  C21 UNL     1       1.119  52.238 -17.335  1.00  0.00     0.213 A 
ENDBRANCH  10  43
TORSDOF 12
ENDMDL
