MODEL 1
REMARK minimizedAffinity -8.21476936
REMARK CNNscore 0.15818505
REMARK CNNaffinity 5.78549147
REMARK  6 active torsions:
REMARK  status: ('A' for Active; 'I' for Inactive)
REMARK    1  A    between atoms: C6_7  and  O2_8 
REMARK    2  A    between atoms: C17_21  and  C18_22 
REMARK    3  A    between atoms: C18_22  and  C19_23 
REMARK    4  A    between atoms: C23_27  and  C24_28 
REMARK    5  A    between atoms: C24_28  and  N1_29 
REMARK    6  A    between atoms: C24_28  and  N2_30 
ROOT
HETATM    1  C1  UNL     1      -6.168  15.958  19.539  1.00  0.00     0.077 C 
HETATM    2  C2  UNL     1      -6.950  15.138  20.517  1.00  0.00     0.053 A 
HETATM    3  C3  UNL     1      -6.807  15.269  21.842  1.00  0.00     0.088 A 
HETATM    4  C4  UNL     1      -7.609  14.424  22.737  1.00  0.00     0.190 A 
HETATM    5  O1  UNL     1      -7.513  14.509  23.957  1.00  0.00    -0.287 OA
HETATM    6  C5  UNL     1      -8.532  13.468  22.110  1.00  0.00     0.082 A 
HETATM    7  C6  UNL     1      -9.329  12.601  22.872  1.00  0.00     0.092 A 
HETATM    8  C7  UNL     1     -10.199  11.690  22.250  1.00  0.00     0.016 A 
HETATM    9  C8  UNL     1     -10.235  11.672  20.831  1.00  0.00     0.082 A 
HETATM   10  C9  UNL     1      -9.430  12.532  20.079  1.00  0.00     0.075 A 
HETATM   11  C10 UNL     1      -8.583  13.430  20.719  1.00  0.00     0.095 A 
HETATM   12  O3  UNL     1      -7.823  14.244  19.917  1.00  0.00    -0.314 OA
HETATM   13  O4  UNL     1     -11.017  10.821  20.066  1.00  0.00    -0.337 OA
HETATM   14  C11 UNL     1     -12.106  10.208  20.784  1.00  0.00     0.091 C 
HETATM   15  C12 UNL     1     -13.212  11.275  20.935  1.00  0.00     0.049 C 
HETATM   16  C13 UNL     1     -12.683   8.974  19.960  1.00  0.00     0.041 C 
HETATM   17  C14 UNL     1     -14.115   8.494  20.363  1.00  0.00     0.003 C 
HETATM   18  C15 UNL     1     -14.398   6.976  20.495  1.00  0.00     0.003 C 
HETATM   19  C16 UNL     1     -13.827   6.155  21.678  1.00  0.00     0.042 C 
HETATM   20  C17 UNL     1     -14.339   6.461  23.106  1.00  0.00     0.107 A 
HETATM   21  O5  UNL     1     -14.686   7.814  23.294  1.00  0.00    -0.352 OA
HETATM   22  C26 UNL     1     -13.476   7.427  24.010  1.00  0.00     0.180 A 
HETATM   23  C27 UNL     1     -13.639   7.965  25.425  1.00  0.00     0.052 C 
HETATM   24  C28 UNL     1     -12.827   9.301  25.638  1.00  0.00     0.004 C 
HETATM   25  C29 UNL     1     -13.218  10.494  24.721  1.00  0.00     0.001 C 
HETATM   26  C30 UNL     1     -12.072  11.330  24.055  1.00  0.00     0.012 C 
HETATM   27  C31 UNL     1     -11.014  10.692  23.075  1.00  0.00     0.057 C 
HETATM   28  C32 UNL     1     -11.504   9.645  22.079  1.00  0.00     0.175 C 
HETATM   29  O6  UNL     1     -12.517   8.889  22.651  1.00  0.00    -0.310 OA
HETATM   30  C33 UNL     1     -12.212   7.821  23.373  1.00  0.00     0.297 C 
HETATM   31  O7  UNL     1     -11.131   7.296  23.564  1.00  0.00    -0.262 OA
ENDROOT
BRANCH  20  32
HETATM   32  C18 UNL     1     -15.252   5.463  23.764  1.00  0.00     0.080 C 
BRANCH  32  33
HETATM   33  C19 UNL     1     -14.499   4.535  24.689  1.00  0.00    -0.055 A 
HETATM   34  C20 UNL     1     -14.902   4.392  26.021  1.00  0.00     0.007 A 
HETATM   35  C21 UNL     1     -14.225   3.527  26.877  1.00  0.00     0.001 A 
HETATM   36  C22 UNL     1     -13.140   2.787  26.408  1.00  0.00     0.011 A 
HETATM   37  C23 UNL     1     -12.714   2.899  25.073  1.00  0.00     0.004 A 
HETATM   38  C25 UNL     1     -13.404   3.787  24.227  1.00  0.00     0.018 A 
BRANCH  37  39
HETATM   39  C24 UNL     1     -11.566   2.081  24.520  1.00  0.00     0.479 C 
BRANCH  39  40
HETATM   40  N1  UNL     1     -11.423   0.795  25.140  1.00  0.00     0.116 N 
HETATM   41  H24 UNL     1     -10.754   0.288  24.563  1.00  0.00     0.316 HD
HETATM   42  H25 UNL     1     -12.293   0.283  25.054  1.00  0.00     0.316 HD
ENDBRANCH  39  40
BRANCH  39  43
HETATM   43  N2  UNL     1     -11.730   1.763  23.126  1.00  0.00     0.116 N 
HETATM   44  H26 UNL     1     -11.761   2.643  22.611  1.00  0.00     0.316 HD
HETATM   45  H27 UNL     1     -12.647   1.349  22.988  1.00  0.00     0.316 HD
ENDBRANCH  39  43
ENDBRANCH  37  39
ENDBRANCH  32  33
ENDBRANCH  20  32
BRANCH   7  46
HETATM   46  O2  UNL     1      -9.264  12.593  24.243  1.00  0.00    -0.359 OA
HETATM   47  H5  UNL     1      -8.606  13.265  24.532  1.00  0.00     0.217 HD
ENDBRANCH   7  46
TORSDOF 6
ENDMDL
MODEL 2
REMARK minimizedAffinity -8.12868309
REMARK CNNscore 0.14674139
REMARK CNNaffinity 5.9039402
REMARK  6 active torsions:
REMARK  status: ('A' for Active; 'I' for Inactive)
REMARK    1  A    between atoms: C6_7  and  O2_8 
REMARK    2  A    between atoms: C17_21  and  C18_22 
REMARK    3  A    between atoms: C18_22  and  C19_23 
REMARK    4  A    between atoms: C23_27  and  C24_28 
REMARK    5  A    between atoms: C24_28  and  N1_29 
REMARK    6  A    between atoms: C24_28  and  N2_30 
ROOT
HETATM    1  C1  UNL     1      -8.135  18.664   6.885  1.00  0.00     0.077 C 
HETATM    2  C2  UNL     1      -6.699  18.245   6.820  1.00  0.00     0.053 A 
HETATM    3  C3  UNL     1      -5.896  18.262   7.892  1.00  0.00     0.088 A 
HETATM    4  C4  UNL     1      -4.496  17.839   7.746  1.00  0.00     0.190 A 
HETATM    5  O1  UNL     1      -3.724  17.837   8.699  1.00  0.00    -0.287 OA
HETATM    6  C5  UNL     1      -4.057  17.420   6.408  1.00  0.00     0.082 A 
HETATM    7  C6  UNL     1      -2.737  17.017   6.155  1.00  0.00     0.092 A 
HETATM    8  C7  UNL     1      -2.338  16.628   4.865  1.00  0.00     0.016 A 
HETATM    9  C8  UNL     1      -3.311  16.666   3.831  1.00  0.00     0.082 A 
HETATM   10  C9  UNL     1      -4.620  17.079   4.090  1.00  0.00     0.075 A 
HETATM   11  C10 UNL     1      -4.992  17.452   5.377  1.00  0.00     0.095 A 
HETATM   12  O3  UNL     1      -6.295  17.845   5.556  1.00  0.00    -0.314 OA
HETATM   13  O4  UNL     1      -3.075  16.339   2.506  1.00  0.00    -0.337 OA
HETATM   14  C11 UNL     1      -1.878  15.567   2.288  1.00  0.00     0.091 C 
HETATM   15  C12 UNL     1      -2.185  14.114   2.711  1.00  0.00     0.049 C 
HETATM   16  C13 UNL     1      -1.483  15.586   0.745  1.00  0.00     0.041 C 
HETATM   17  C14 UNL     1      -0.503  14.463   0.277  1.00  0.00     0.003 C 
HETATM   18  C15 UNL     1       0.671  14.824  -0.668  1.00  0.00     0.003 C 
HETATM   19  C16 UNL     1       1.892  15.628  -0.158  1.00  0.00     0.042 C 
HETATM   20  C17 UNL     1       2.825  14.972   0.889  1.00  0.00     0.107 A 
HETATM   21  O5  UNL     1       2.152  14.091   1.759  1.00  0.00    -0.352 OA
HETATM   22  C26 UNL     1       2.589  15.320   2.411  1.00  0.00     0.180 A 
HETATM   23  C27 UNL     1       3.265  14.886   3.704  1.00  0.00     0.052 C 
HETATM   24  C28 UNL     1       2.314  15.067   4.950  1.00  0.00     0.004 C 
HETATM   25  C29 UNL     1       0.985  14.261   4.919  1.00  0.00     0.001 C 
HETATM   26  C30 UNL     1      -0.339  14.990   5.331  1.00  0.00     0.012 C 
HETATM   27  C31 UNL     1      -0.883  16.259   4.570  1.00  0.00     0.057 C 
HETATM   28  C32 UNL     1      -0.756  16.289   3.050  1.00  0.00     0.175 C 
HETATM   29  O6  UNL     1       0.414  15.652   2.662  1.00  0.00    -0.310 OA
HETATM   30  C33 UNL     1       1.546  16.336   2.606  1.00  0.00     0.297 C 
HETATM   31  O7  UNL     1       1.741  17.528   2.757  1.00  0.00    -0.262 OA
ENDROOT
BRANCH  20  32
HETATM   32  C18 UNL     1       4.189  14.522   0.444  1.00  0.00     0.080 C 
BRANCH  32  33
HETATM   33  C19 UNL     1       4.376  14.678  -1.048  1.00  0.00    -0.055 A 
HETATM   34  C20 UNL     1       4.987  15.826  -1.562  1.00  0.00     0.007 A 
HETATM   35  C21 UNL     1       5.177  15.973  -2.934  1.00  0.00     0.001 A 
HETATM   36  C22 UNL     1       4.767  14.966  -3.808  1.00  0.00     0.011 A 
HETATM   37  C23 UNL     1       4.158  13.795  -3.325  1.00  0.00     0.004 A 
HETATM   38  C25 UNL     1       3.964  13.671  -1.936  1.00  0.00     0.018 A 
BRANCH  37  39
HETATM   39  C24 UNL     1       3.738  12.666  -4.241  1.00  0.00     0.479 C 
BRANCH  39  40
HETATM   40  N1  UNL     1       4.524  11.476  -4.091  1.00  0.00     0.116 N 
HETATM   41  H24 UNL     1       4.031  10.756  -4.615  1.00  0.00     0.316 HD
HETATM   42  H25 UNL     1       4.492  11.174  -3.124  1.00  0.00     0.316 HD
ENDBRANCH  39  40
BRANCH  39  43
HETATM   43  N2  UNL     1       2.395  12.214  -3.987  1.00  0.00     0.116 N 
HETATM   44  H26 UNL     1       1.768  13.001  -4.154  1.00  0.00     0.316 HD
HETATM   45  H27 UNL     1       2.298  12.010  -2.997  1.00  0.00     0.316 HD
ENDBRANCH  39  43
ENDBRANCH  37  39
ENDBRANCH  32  33
ENDBRANCH  20  32
BRANCH   7  46
HETATM   46  O2  UNL     1      -1.789  17.019   7.148  1.00  0.00    -0.359 OA
HETATM   47  H5  UNL     1      -2.207  17.328   7.983  1.00  0.00     0.217 HD
ENDBRANCH   7  46
TORSDOF 6
ENDMDL
MODEL 3
REMARK minimizedAffinity -7.65060329
REMARK CNNscore 0.0991564542
REMARK CNNaffinity 5.46404219
REMARK  6 active torsions:
REMARK  status: ('A' for Active; 'I' for Inactive)
REMARK    1  A    between atoms: C6_7  and  O2_8 
REMARK    2  A    between atoms: C17_21  and  C18_22 
REMARK    3  A    between atoms: C18_22  and  C19_23 
REMARK    4  A    between atoms: C23_27  and  C24_28 
REMARK    5  A    between atoms: C24_28  and  N1_29 
REMARK    6  A    between atoms: C24_28  and  N2_30 
ROOT
HETATM    1  C1  UNL     1     -17.685   1.883  12.121  1.00  0.00     0.077 C 
HETATM    2  C2  UNL     1     -17.001   0.797  12.892  1.00  0.00     0.053 A 
HETATM    3  C3  UNL     1     -16.770   0.885  14.208  1.00  0.00     0.088 A 
HETATM    4  C4  UNL     1     -16.089  -0.222  14.893  1.00  0.00     0.190 A 
HETATM    5  O1  UNL     1     -15.857  -0.186  16.097  1.00  0.00    -0.287 OA
HETATM    6  C5  UNL     1     -15.693  -1.376  14.075  1.00  0.00     0.082 A 
HETATM    7  C6  UNL     1     -15.019  -2.477  14.625  1.00  0.00     0.092 A 
HETATM    8  C7  UNL     1     -14.644  -3.566  13.821  1.00  0.00     0.016 A 
HETATM    9  C8  UNL     1     -14.960  -3.508  12.437  1.00  0.00     0.082 A 
HETATM   10  C9  UNL     1     -15.621  -2.402  11.896  1.00  0.00     0.075 A 
HETATM   11  C10 UNL     1     -15.989  -1.340  12.715  1.00  0.00     0.095 A 
HETATM   12  O3  UNL     1     -16.637  -0.290  12.113  1.00  0.00    -0.314 OA
HETATM   13  O4  UNL     1     -14.640  -4.483  11.507  1.00  0.00    -0.337 OA
HETATM   14  C11 UNL     1     -14.311  -5.765  12.079  1.00  0.00     0.091 C 
HETATM   15  C12 UNL     1     -15.639  -6.435  12.494  1.00  0.00     0.049 C 
HETATM   16  C13 UNL     1     -13.583  -6.680  10.998  1.00  0.00     0.041 C 
HETATM   17  C14 UNL     1     -13.568  -8.213  11.300  1.00  0.00     0.003 C 
HETATM   18  C15 UNL     1     -12.263  -9.019  11.077  1.00  0.00     0.003 C 
HETATM   19  C16 UNL     1     -11.049  -8.855  12.025  1.00  0.00     0.042 C 
HETATM   20  C17 UNL     1     -11.188  -9.324  13.493  1.00  0.00     0.107 A 
HETATM   21  O5  UNL     1     -12.496  -9.187  14.000  1.00  0.00    -0.352 OA
HETATM   22  C26 UNL     1     -11.552  -8.242  14.585  1.00  0.00     0.180 A 
HETATM   23  C27 UNL     1     -11.781  -8.303  16.088  1.00  0.00     0.052 C 
HETATM   24  C28 UNL     1     -12.654  -7.091  16.596  1.00  0.00     0.004 C 
HETATM   25  C29 UNL     1     -14.081  -6.974  15.991  1.00  0.00     0.001 C 
HETATM   26  C30 UNL     1     -14.580  -5.566  15.521  1.00  0.00     0.012 C 
HETATM   27  C31 UNL     1     -13.845  -4.733  14.402  1.00  0.00     0.057 C 
HETATM   28  C32 UNL     1     -13.294  -5.490  13.196  1.00  0.00     0.175 C 
HETATM   29  O6  UNL     1     -12.842  -6.740  13.591  1.00  0.00    -0.310 OA
HETATM   30  C33 UNL     1     -11.602  -6.880  14.037  1.00  0.00     0.297 C 
HETATM   31  O7  UNL     1     -10.698  -6.067  14.081  1.00  0.00    -0.262 OA
ENDROOT
BRANCH  20  32
HETATM   32  C18 UNL     1     -10.461 -10.572  13.914  1.00  0.00     0.080 C 
BRANCH  32  33
HETATM   33  C19 UNL     1      -9.221 -10.809  13.084  1.00  0.00    -0.055 A 
HETATM   34  C20 UNL     1      -8.972 -12.073  12.538  1.00  0.00     0.007 A 
HETATM   35  C21 UNL     1      -7.840 -12.298  11.759  1.00  0.00     0.001 A 
HETATM   36  C22 UNL     1      -6.946 -11.257  11.507  1.00  0.00     0.011 A 
HETATM   37  C23 UNL     1      -7.170  -9.972  12.032  1.00  0.00     0.004 A 
HETATM   38  C25 UNL     1      -8.314  -9.768  12.827  1.00  0.00     0.018 A 
BRANCH  37  39
HETATM   39  C24 UNL     1      -6.243  -8.810  11.745  1.00  0.00     0.479 C 
BRANCH  39  40
HETATM   40  N1  UNL     1      -6.312  -7.761  12.721  1.00  0.00     0.116 N 
HETATM   41  H24 UNL     1      -5.525  -7.147  12.517  1.00  0.00     0.316 HD
HETATM   42  H25 UNL     1      -6.121  -8.144  13.639  1.00  0.00     0.316 HD
ENDBRANCH  39  40
BRANCH  39  43
HETATM   43  N2  UNL     1      -4.854  -9.190  11.761  1.00  0.00     0.116 N 
HETATM   44  H26 UNL     1      -4.717  -9.887  11.029  1.00  0.00     0.316 HD
HETATM   45  H27 UNL     1      -4.657  -9.683  12.628  1.00  0.00     0.316 HD
ENDBRANCH  39  43
ENDBRANCH  37  39
ENDBRANCH  32  33
ENDBRANCH  20  32
BRANCH   7  46
HETATM   46  O2  UNL     1     -14.681  -2.512  15.955  1.00  0.00    -0.359 OA
HETATM   47  H5  UNL     1     -14.990  -1.682  16.382  1.00  0.00     0.217 HD
ENDBRANCH   7  46
TORSDOF 6
ENDMDL
MODEL 4
REMARK minimizedAffinity -9.44146824
REMARK CNNscore 0.0821044743
REMARK CNNaffinity 6.5702939
REMARK  6 active torsions:
REMARK  status: ('A' for Active; 'I' for Inactive)
REMARK    1  A    between atoms: C6_7  and  O2_8 
REMARK    2  A    between atoms: C17_21  and  C18_22 
REMARK    3  A    between atoms: C18_22  and  C19_23 
REMARK    4  A    between atoms: C23_27  and  C24_28 
REMARK    5  A    between atoms: C24_28  and  N1_29 
REMARK    6  A    between atoms: C24_28  and  N2_30 
ROOT
HETATM    1  C1  UNL     1      -7.052   1.047  11.632  1.00  0.00     0.077 C 
HETATM    2  C2  UNL     1      -5.854   1.924  11.823  1.00  0.00     0.053 A 
HETATM    3  C3  UNL     1      -4.649   1.616  11.327  1.00  0.00     0.088 A 
HETATM    4  C4  UNL     1      -3.521   2.527  11.561  1.00  0.00     0.190 A 
HETATM    5  O1  UNL     1      -2.400   2.287  11.125  1.00  0.00    -0.287 OA
HETATM    6  C5  UNL     1      -3.791   3.741  12.344  1.00  0.00     0.082 A 
HETATM    7  C6  UNL     1      -2.781   4.669  12.642  1.00  0.00     0.092 A 
HETATM    8  C7  UNL     1      -3.061   5.819  13.399  1.00  0.00     0.016 A 
HETATM    9  C8  UNL     1      -4.393   6.003  13.856  1.00  0.00     0.082 A 
HETATM   10  C9  UNL     1      -5.390   5.069  13.563  1.00  0.00     0.075 A 
HETATM   11  C10 UNL     1      -5.089   3.942  12.805  1.00  0.00     0.095 A 
HETATM   12  O3  UNL     1      -6.119   3.070  12.556  1.00  0.00    -0.314 OA
HETATM   13  O4  UNL     1      -4.828   7.067  14.629  1.00  0.00    -0.337 OA
HETATM   14  C11 UNL     1      -3.944   8.205  14.626  1.00  0.00     0.091 C 
HETATM   15  C12 UNL     1      -4.155   8.945  13.287  1.00  0.00     0.049 C 
HETATM   16  C13 UNL     1      -4.306   9.188  15.825  1.00  0.00     0.041 C 
HETATM   17  C14 UNL     1      -3.763  10.648  15.699  1.00  0.00     0.003 C 
HETATM   18  C15 UNL     1      -3.130  11.333  16.937  1.00  0.00     0.003 C 
HETATM   19  C16 UNL     1      -1.743  10.898  17.471  1.00  0.00     0.042 C 
HETATM   20  C17 UNL     1      -0.498  11.155  16.588  1.00  0.00     0.107 A 
HETATM   21  O5  UNL     1      -0.771  11.085  15.206  1.00  0.00    -0.352 OA
HETATM   22  C26 UNL     1       0.030   9.967  15.690  1.00  0.00     0.180 A 
HETATM   23  C27 UNL     1       1.183   9.826  14.706  1.00  0.00     0.052 C 
HETATM   24  C28 UNL     1       0.937   8.653  13.681  1.00  0.00     0.004 C 
HETATM   25  C29 UNL     1      -0.326   8.783  12.783  1.00  0.00     0.001 C 
HETATM   26  C30 UNL     1      -1.236   7.523  12.587  1.00  0.00     0.012 C 
HETATM   27  C31 UNL     1      -1.948   6.793  13.789  1.00  0.00     0.057 C 
HETATM   28  C32 UNL     1      -2.536   7.658  14.901  1.00  0.00     0.175 C 
HETATM   29  O6  UNL     1      -1.742   8.779  15.095  1.00  0.00    -0.310 OA
HETATM   30  C33 UNL     1      -0.705   8.715  15.917  1.00  0.00     0.297 C 
HETATM   31  O7  UNL     1      -0.352   7.812  16.652  1.00  0.00    -0.262 OA
ENDROOT
BRANCH  20  32
HETATM   32  C18 UNL     1       0.458  12.239  17.001  1.00  0.00     0.080 C 
BRANCH  32  33
HETATM   33  C19 UNL     1       1.171  11.901  18.290  1.00  0.00    -0.055 A 
HETATM   34  C20 UNL     1       0.548  11.089  19.245  1.00  0.00     0.007 A 
HETATM   35  C21 UNL     1       1.201  10.759  20.429  1.00  0.00     0.001 A 
HETATM   36  C22 UNL     1       2.492  11.230  20.670  1.00  0.00     0.011 A 
HETATM   37  C23 UNL     1       3.151  12.040  19.729  1.00  0.00     0.004 A 
HETATM   38  C25 UNL     1       2.469  12.372  18.543  1.00  0.00     0.018 A 
BRANCH  37  39
HETATM   39  C24 UNL     1       4.567  12.534  19.940  1.00  0.00     0.479 C 
BRANCH  39  40
HETATM   40  N1  UNL     1       4.700  13.458  21.029  1.00  0.00     0.116 N 
HETATM   41  H24 UNL     1       5.702  13.563  21.176  1.00  0.00     0.316 HD
HETATM   42  H25 UNL     1       4.347  13.030  21.876  1.00  0.00     0.316 HD
ENDBRANCH  39  40
BRANCH  39  43
HETATM   43  N2  UNL     1       5.479  11.476  20.287  1.00  0.00     0.116 N 
HETATM   44  H26 UNL     1       5.493  10.814  19.511  1.00  0.00     0.316 HD
HETATM   45  H27 UNL     1       5.095  10.952  21.068  1.00  0.00     0.316 HD
ENDBRANCH  39  43
ENDBRANCH  37  39
ENDBRANCH  32  33
ENDBRANCH  20  32
BRANCH   7  46
HETATM   46  O2  UNL     1      -1.486   4.468  12.232  1.00  0.00    -0.359 OA
HETATM   47  H5  UNL     1      -1.440   3.621  11.734  1.00  0.00     0.217 HD
ENDBRANCH   7  46
TORSDOF 6
ENDMDL
MODEL 5
REMARK minimizedAffinity -7.83356524
REMARK CNNscore 0.0693872198
REMARK CNNaffinity 5.59180593
REMARK  6 active torsions:
REMARK  status: ('A' for Active; 'I' for Inactive)
REMARK    1  A    between atoms: C6_7  and  O2_8 
REMARK    2  A    between atoms: C17_21  and  C18_22 
REMARK    3  A    between atoms: C18_22  and  C19_23 
REMARK    4  A    between atoms: C23_27  and  C24_28 
REMARK    5  A    between atoms: C24_28  and  N1_29 
REMARK    6  A    between atoms: C24_28  and  N2_30 
ROOT
HETATM    1  C1  UNL     1      -6.811  17.031  21.925  1.00  0.00     0.077 C 
HETATM    2  C2  UNL     1      -5.523  16.398  21.502  1.00  0.00     0.053 A 
HETATM    3  C3  UNL     1      -4.330  16.844  21.920  1.00  0.00     0.088 A 
HETATM    4  C4  UNL     1      -3.109  16.171  21.455  1.00  0.00     0.190 A 
HETATM    5  O1  UNL     1      -1.996  16.543  21.812  1.00  0.00    -0.287 OA
HETATM    6  C5  UNL     1      -3.277  15.033  20.540  1.00  0.00     0.082 A 
HETATM    7  C6  UNL     1      -2.176  14.333  20.022  1.00  0.00     0.092 A 
HETATM    8  C7  UNL     1      -2.361  13.253  19.143  1.00  0.00     0.016 A 
HETATM    9  C8  UNL     1      -3.691  12.903  18.793  1.00  0.00     0.082 A 
HETATM   10  C9  UNL     1      -4.781  13.612  19.306  1.00  0.00     0.075 A 
HETATM   11  C10 UNL     1      -4.572  14.673  20.181  1.00  0.00     0.095 A 
HETATM   12  O3  UNL     1      -5.689  15.322  20.645  1.00  0.00    -0.314 OA
HETATM   13  O4  UNL     1      -4.043  11.883  17.924  1.00  0.00    -0.337 OA
HETATM   14  C11 UNL     1      -2.999  10.919  17.686  1.00  0.00     0.091 C 
HETATM   15  C12 UNL     1      -2.936   9.997  18.923  1.00  0.00     0.049 C 
HETATM   16  C13 UNL     1      -3.341  10.041  16.401  1.00  0.00     0.041 C 
HETATM   17  C14 UNL     1      -2.567   8.690  16.271  1.00  0.00     0.003 C 
HETATM   18  C15 UNL     1      -1.983   8.278  14.896  1.00  0.00     0.003 C 
HETATM   19  C16 UNL     1      -0.752   9.003  14.299  1.00  0.00     0.042 C 
HETATM   20  C17 UNL     1       0.612   8.855  15.016  1.00  0.00     0.107 A 
HETATM   21  O5  UNL     1       0.493   8.709  16.413  1.00  0.00    -0.352 OA
HETATM   22  C26 UNL     1       1.050   9.997  16.016  1.00  0.00     0.180 A 
HETATM   23  C27 UNL     1       2.273  10.211  16.896  1.00  0.00     0.052 C 
HETATM   24  C28 UNL     1       1.968  11.192  18.093  1.00  0.00     0.004 C 
HETATM   25  C29 UNL     1       0.854  10.742  19.080  1.00  0.00     0.001 C 
HETATM   26  C30 UNL     1      -0.211  11.797  19.534  1.00  0.00     0.012 C 
HETATM   27  C31 UNL     1      -1.163  12.536  18.518  1.00  0.00     0.057 C 
HETATM   28  C32 UNL     1      -1.734  11.726  17.357  1.00  0.00     0.175 C 
HETATM   29  O6  UNL     1      -0.804  10.787  16.935  1.00  0.00    -0.310 OA
HETATM   30  C33 UNL     1       0.107  11.124  16.035  1.00  0.00     0.297 C 
HETATM   31  O7  UNL     1       0.228  12.157  15.402  1.00  0.00    -0.262 OA
ENDROOT
BRANCH  20  32
HETATM   32  C18 UNL     1       1.670   8.006  14.367  1.00  0.00     0.080 C 
BRANCH  32  33
HETATM   33  C19 UNL     1       1.270   7.573  12.975  1.00  0.00    -0.055 A 
HETATM   34  C20 UNL     1       1.695   8.307  11.862  1.00  0.00     0.007 A 
HETATM   35  C21 UNL     1       1.345   7.908  10.575  1.00  0.00     0.001 A 
HETATM   36  C22 UNL     1       0.573   6.762  10.384  1.00  0.00     0.011 A 
HETATM   37  C23 UNL     1       0.137   5.996  11.480  1.00  0.00     0.004 A 
HETATM   38  C25 UNL     1       0.492   6.422  12.773  1.00  0.00     0.018 A 
BRANCH  37  39
HETATM   39  C24 UNL     1      -0.668   4.725  11.307  1.00  0.00     0.479 C 
BRANCH  39  40
HETATM   40  N1  UNL     1       0.015   3.544  11.748  1.00  0.00     0.116 N 
HETATM   41  H24 UNL     1      -0.688   2.807  11.751  1.00  0.00     0.316 HD
HETATM   42  H25 UNL     1       0.288   3.657  12.717  1.00  0.00     0.316 HD
ENDBRANCH  39  40
BRANCH  39  43
HETATM   43  N2  UNL     1      -1.878   4.722  12.087  1.00  0.00     0.116 N 
HETATM   44  H26 UNL     1      -2.453   5.501  11.767  1.00  0.00     0.316 HD
HETATM   45  H27 UNL     1      -1.649   4.947  13.051  1.00  0.00     0.316 HD
ENDBRANCH  39  43
ENDBRANCH  37  39
ENDBRANCH  32  33
ENDBRANCH  20  32
BRANCH   7  46
HETATM   46  O2  UNL     1      -0.890  14.699  20.331  1.00  0.00    -0.359 OA
HETATM   47  H5  UNL     1      -0.918  15.474  20.936  1.00  0.00     0.217 HD
ENDBRANCH   7  46
TORSDOF 6
ENDMDL
MODEL 6
REMARK minimizedAffinity -7.56165218
REMARK CNNscore 0.0637855232
REMARK CNNaffinity 5.49575424
REMARK  6 active torsions:
REMARK  status: ('A' for Active; 'I' for Inactive)
REMARK    1  A    between atoms: C6_7  and  O2_8 
REMARK    2  A    between atoms: C17_21  and  C18_22 
REMARK    3  A    between atoms: C18_22  and  C19_23 
REMARK    4  A    between atoms: C23_27  and  C24_28 
REMARK    5  A    between atoms: C24_28  and  N1_29 
REMARK    6  A    between atoms: C24_28  and  N2_30 
ROOT
HETATM    1  C1  UNL     1      -6.115  17.839   7.022  1.00  0.00     0.077 C 
HETATM    2  C2  UNL     1      -4.696  17.503   6.683  1.00  0.00     0.053 A 
HETATM    3  C3  UNL     1      -3.726  17.464   7.605  1.00  0.00     0.088 A 
HETATM    4  C4  UNL     1      -2.356  17.129   7.192  1.00  0.00     0.190 A 
HETATM    5  O1  UNL     1      -1.435  17.080   8.001  1.00  0.00    -0.287 OA
HETATM    6  C5  UNL     1      -2.132  16.857   5.766  1.00  0.00     0.082 A 
HETATM    7  C6  UNL     1      -0.859  16.547   5.262  1.00  0.00     0.092 A 
HETATM    8  C7  UNL     1      -0.669  16.298   3.893  1.00  0.00     0.016 A 
HETATM    9  C8  UNL     1      -1.801  16.380   3.040  1.00  0.00     0.082 A 
HETATM   10  C9  UNL     1      -3.063  16.700   3.549  1.00  0.00     0.075 A 
HETATM   11  C10 UNL     1      -3.227  16.934   4.910  1.00  0.00     0.095 A 
HETATM   12  O3  UNL     1      -4.495  17.241   5.337  1.00  0.00    -0.314 OA
HETATM   13  O4  UNL     1      -1.780  16.187   1.669  1.00  0.00    -0.337 OA
HETATM   14  C11 UNL     1      -0.609  15.502   1.183  1.00  0.00     0.091 C 
HETATM   15  C12 UNL     1      -0.789  14.003   1.506  1.00  0.00     0.049 C 
HETATM   16  C13 UNL     1      -0.479  15.682  -0.394  1.00  0.00     0.041 C 
HETATM   17  C14 UNL     1       0.449  14.658  -1.124  1.00  0.00     0.003 C 
HETATM   18  C15 UNL     1       1.434  15.163  -2.208  1.00  0.00     0.003 C 
HETATM   19  C16 UNL     1       2.693  15.981  -1.827  1.00  0.00     0.042 C 
HETATM   20  C17 UNL     1       3.811  15.281  -1.017  1.00  0.00     0.107 A 
HETATM   21  O5  UNL     1       3.326  14.290  -0.139  1.00  0.00    -0.352 OA
HETATM   22  C26 UNL     1       3.821  15.475   0.551  1.00  0.00     0.180 A 
HETATM   23  C27 UNL     1       4.720  14.962   1.667  1.00  0.00     0.052 C 
HETATM   24  C28 UNL     1       3.985  14.979   3.063  1.00  0.00     0.004 C 
HETATM   25  C29 UNL     1       2.699  14.112   3.170  1.00  0.00     0.001 C 
HETATM   26  C30 UNL     1       1.437  14.731   3.862  1.00  0.00     0.012 C 
HETATM   27  C31 UNL     1       0.729  16.034   3.330  1.00  0.00     0.057 C 
HETATM   28  C32 UNL     1       0.598  16.208   1.819  1.00  0.00     0.175 C 
HETATM   29  O6  UNL     1       1.708  15.670   1.185  1.00  0.00    -0.310 OA
HETATM   30  C33 UNL     1       2.790  16.415   1.012  1.00  0.00     0.297 C 
HETATM   31  O7  UNL     1       2.965  17.596   1.246  1.00  0.00    -0.262 OA
ENDROOT
BRANCH  20  32
HETATM   32  C18 UNL     1       5.097  14.944  -1.721  1.00  0.00     0.080 C 
BRANCH  32  33
HETATM   33  C19 UNL     1       4.949  13.739  -2.620  1.00  0.00    -0.055 A 
HETATM   34  C20 UNL     1       5.172  12.454  -2.114  1.00  0.00     0.007 A 
HETATM   35  C21 UNL     1       5.023  11.335  -2.930  1.00  0.00     0.001 A 
HETATM   36  C22 UNL     1       4.638  11.489  -4.262  1.00  0.00     0.011 A 
HETATM   37  C23 UNL     1       4.396  12.764  -4.800  1.00  0.00     0.004 A 
HETATM   38  C25 UNL     1       4.563  13.883  -3.962  1.00  0.00     0.018 A 
BRANCH  37  39
HETATM   39  C24 UNL     1       3.938  12.964  -6.230  1.00  0.00     0.479 C 
BRANCH  39  40
HETATM   40  N1  UNL     1       2.757  13.768  -6.351  1.00  0.00     0.116 N 
HETATM   41  H24 UNL     1       2.668  13.974  -7.344  1.00  0.00     0.316 HD
HETATM   42  H25 UNL     1       2.914  14.664  -5.905  1.00  0.00     0.316 HD
ENDBRANCH  39  40
BRANCH  39  43
HETATM   43  N2  UNL     1       4.905  13.668  -7.031  1.00  0.00     0.116 N 
HETATM   44  H26 UNL     1       5.756  13.105  -7.052  1.00  0.00     0.316 HD
HETATM   45  H27 UNL     1       5.171  14.522  -6.551  1.00  0.00     0.316 HD
ENDBRANCH  39  43
ENDBRANCH  37  39
ENDBRANCH  32  33
ENDBRANCH  20  32
BRANCH   7  46
HETATM   46  O2  UNL     1       0.240  16.507   6.083  1.00  0.00    -0.359 OA
HETATM   47  H5  UNL     1      -0.042  16.718   7.001  1.00  0.00     0.217 HD
ENDBRANCH   7  46
TORSDOF 6
ENDMDL
MODEL 7
REMARK minimizedAffinity -7.96703529
REMARK CNNscore 0.0617379434
REMARK CNNaffinity 5.05594254
REMARK  6 active torsions:
REMARK  status: ('A' for Active; 'I' for Inactive)
REMARK    1  A    between atoms: C6_7  and  O2_8 
REMARK    2  A    between atoms: C17_21  and  C18_22 
REMARK    3  A    between atoms: C18_22  and  C19_23 
REMARK    4  A    between atoms: C23_27  and  C24_28 
REMARK    5  A    between atoms: C24_28  and  N1_29 
REMARK    6  A    between atoms: C24_28  and  N2_30 
ROOT
HETATM    1  C1  UNL     1      -8.962  -9.617  12.869  1.00  0.00     0.077 C 
HETATM    2  C2  UNL     1      -8.061  -9.637  11.674  1.00  0.00     0.053 A 
HETATM    3  C3  UNL     1      -6.770  -9.287  11.740  1.00  0.00     0.088 A 
HETATM    4  C4  UNL     1      -5.951  -9.328  10.521  1.00  0.00     0.190 A 
HETATM    5  O1  UNL     1      -4.765  -9.018  10.534  1.00  0.00    -0.287 OA
HETATM    6  C5  UNL     1      -6.614  -9.757   9.281  1.00  0.00     0.082 A 
HETATM    7  C6  UNL     1      -5.929  -9.813   8.058  1.00  0.00     0.092 A 
HETATM    8  C7  UNL     1      -6.586 -10.219   6.884  1.00  0.00     0.016 A 
HETATM    9  C8  UNL     1      -7.961 -10.558   6.978  1.00  0.00     0.082 A 
HETATM   10  C9  UNL     1      -8.638 -10.488   8.199  1.00  0.00     0.075 A 
HETATM   11  C10 UNL     1      -7.963 -10.092   9.348  1.00  0.00     0.095 A 
HETATM   12  O3  UNL     1      -8.692 -10.049  10.511  1.00  0.00    -0.314 OA
HETATM   13  O4  UNL     1      -8.758 -10.953   5.915  1.00  0.00    -0.337 OA
HETATM   14  C11 UNL     1      -8.024 -11.391   4.754  1.00  0.00     0.091 C 
HETATM   15  C12 UNL     1      -7.512 -12.817   5.048  1.00  0.00     0.049 C 
HETATM   16  C13 UNL     1      -8.982 -11.434   3.482  1.00  0.00     0.041 C 
HETATM   17  C14 UNL     1      -8.479 -12.295   2.279  1.00  0.00     0.003 C 
HETATM   18  C15 UNL     1      -8.606 -11.736   0.839  1.00  0.00     0.003 C 
HETATM   19  C16 UNL     1      -7.700 -10.581   0.346  1.00  0.00     0.042 C 
HETATM   20  C17 UNL     1      -6.182 -10.842   0.201  1.00  0.00     0.107 A 
HETATM   21  O5  UNL     1      -5.685 -11.772   1.138  1.00  0.00    -0.352 OA
HETATM   22  C26 UNL     1      -5.239 -10.407   1.392  1.00  0.00     0.180 A 
HETATM   23  C27 UNL     1      -3.739 -10.498   1.631  1.00  0.00     0.052 C 
HETATM   24  C28 UNL     1      -3.387 -10.446   3.168  1.00  0.00     0.004 C 
HETATM   25  C29 UNL     1      -3.989 -11.579   4.046  1.00  0.00     0.001 C 
HETATM   26  C30 UNL     1      -4.637 -11.195   5.420  1.00  0.00     0.012 C 
HETATM   27  C31 UNL     1      -5.863 -10.211   5.536  1.00  0.00     0.057 C 
HETATM   28  C32 UNL     1      -6.963 -10.314   4.484  1.00  0.00     0.175 C 
HETATM   29  O6  UNL     1      -6.411 -10.650   3.256  1.00  0.00    -0.310 OA
HETATM   30  C33 UNL     1      -5.962  -9.695   2.455  1.00  0.00     0.297 C 
HETATM   31  O7  UNL     1      -6.033  -8.486   2.573  1.00  0.00    -0.262 OA
ENDROOT
BRANCH  20  32
HETATM   32  C18 UNL     1      -5.606 -10.953  -1.184  1.00  0.00     0.080 C 
BRANCH  32  33
HETATM   33  C19 UNL     1      -6.510 -10.327  -2.221  1.00  0.00    -0.055 A 
HETATM   34  C20 UNL     1      -6.793 -11.011  -3.409  1.00  0.00     0.007 A 
HETATM   35  C21 UNL     1      -7.636 -10.450  -4.364  1.00  0.00     0.001 A 
HETATM   36  C22 UNL     1      -8.216  -9.201  -4.139  1.00  0.00     0.011 A 
HETATM   37  C23 UNL     1      -7.960  -8.491  -2.952  1.00  0.00     0.004 A 
HETATM   38  C25 UNL     1      -7.096  -9.070  -2.004  1.00  0.00     0.018 A 
BRANCH  37  39
HETATM   39  C24 UNL     1      -8.604  -7.153  -2.658  1.00  0.00     0.479 C 
BRANCH  39  40
HETATM   40  N1  UNL     1      -8.366  -6.678  -1.325  1.00  0.00     0.116 N 
HETATM   41  H24 UNL     1      -8.686  -5.711  -1.320  1.00  0.00     0.316 HD
HETATM   42  H25 UNL     1      -7.368  -6.631  -1.159  1.00  0.00     0.316 HD
ENDBRANCH  39  40
BRANCH  39  43
HETATM   43  N2  UNL     1      -8.090  -6.094  -3.486  1.00  0.00     0.116 N 
HETATM   44  H26 UNL     1      -8.297  -6.333  -4.456  1.00  0.00     0.316 HD
HETATM   45  H27 UNL     1      -7.076  -6.095  -3.430  1.00  0.00     0.316 HD
ENDBRANCH  39  43
ENDBRANCH  37  39
ENDBRANCH  32  33
ENDBRANCH  20  32
BRANCH   7  46
HETATM   46  O2  UNL     1      -4.609  -9.447   7.963  1.00  0.00    -0.359 OA
HETATM   47  H5  UNL     1      -4.293  -9.173   8.853  1.00  0.00     0.217 HD
ENDBRANCH   7  46
TORSDOF 6
ENDMDL
MODEL 8
REMARK minimizedAffinity -8.1420002
REMARK CNNscore 0.0573050901
REMARK CNNaffinity 4.89438868
REMARK  6 active torsions:
REMARK  status: ('A' for Active; 'I' for Inactive)
REMARK    1  A    between atoms: C6_7  and  O2_8 
REMARK    2  A    between atoms: C17_21  and  C18_22 
REMARK    3  A    between atoms: C18_22  and  C19_23 
REMARK    4  A    between atoms: C23_27  and  C24_28 
REMARK    5  A    between atoms: C24_28  and  N1_29 
REMARK    6  A    between atoms: C24_28  and  N2_30 
ROOT
HETATM    1  C1  UNL     1      -6.594   7.092  14.253  1.00  0.00     0.077 C 
HETATM    2  C2  UNL     1      -5.299   7.839  14.167  1.00  0.00     0.053 A 
HETATM    3  C3  UNL     1      -4.702   8.113  13.000  1.00  0.00     0.088 A 
HETATM    4  C4  UNL     1      -3.429   8.847  12.999  1.00  0.00     0.190 A 
HETATM    5  O1  UNL     1      -2.848   9.122  11.955  1.00  0.00    -0.287 OA
HETATM    6  C5  UNL     1      -2.879   9.238  14.304  1.00  0.00     0.082 A 
HETATM    7  C6  UNL     1      -1.661   9.925  14.417  1.00  0.00     0.092 A 
HETATM    8  C7  UNL     1      -1.151  10.281  15.677  1.00  0.00     0.016 A 
HETATM    9  C8  UNL     1      -1.903   9.917  16.824  1.00  0.00     0.082 A 
HETATM   10  C9  UNL     1      -3.110   9.223  16.703  1.00  0.00     0.075 A 
HETATM   11  C10 UNL     1      -3.598   8.889  15.444  1.00  0.00     0.095 A 
HETATM   12  O3  UNL     1      -4.791   8.210  15.402  1.00  0.00    -0.314 OA
HETATM   13  O4  UNL     1      -1.530  10.171  18.134  1.00  0.00    -0.337 OA
HETATM   14  C11 UNL     1      -0.518  11.186  18.277  1.00  0.00     0.091 C 
HETATM   15  C12 UNL     1      -1.211  12.553  18.088  1.00  0.00     0.049 C 
HETATM   16  C13 UNL     1       0.123  11.125  19.734  1.00  0.00     0.041 C 
HETATM   17  C14 UNL     1       0.889  12.406  20.197  1.00  0.00     0.003 C 
HETATM   18  C15 UNL     1       2.254  12.257  20.915  1.00  0.00     0.003 C 
HETATM   19  C16 UNL     1       3.522  11.821  20.140  1.00  0.00     0.042 C 
HETATM   20  C17 UNL     1       4.096  12.774  19.064  1.00  0.00     0.107 A 
HETATM   21  O5  UNL     1       3.106  13.541  18.415  1.00  0.00    -0.352 OA
HETATM   22  C26 UNL     1       3.694  12.518  17.558  1.00  0.00     0.180 A 
HETATM   23  C27 UNL     1       4.030  13.217  16.248  1.00  0.00     0.052 C 
HETATM   24  C28 UNL     1       2.950  12.924  15.136  1.00  0.00     0.004 C 
HETATM   25  C29 UNL     1       1.498  13.377  15.456  1.00  0.00     0.001 C 
HETATM   26  C30 UNL     1       0.322  12.389  15.145  1.00  0.00     0.012 C 
HETATM   27  C31 UNL     1       0.212  10.963  15.808  1.00  0.00     0.057 C 
HETATM   28  C32 UNL     1       0.594  10.829  17.280  1.00  0.00     0.175 C 
HETATM   29  O6  UNL     1       1.638  11.693  17.576  1.00  0.00    -0.310 OA
HETATM   30  C33 UNL     1       2.889  11.301  17.386  1.00  0.00     0.297 C 
HETATM   31  O7  UNL     1       3.319  10.210  17.059  1.00  0.00    -0.262 OA
ENDROOT
BRANCH  20  32
HETATM   32  C18 UNL     1       5.378  13.500  19.365  1.00  0.00     0.080 C 
BRANCH  32  33
HETATM   33  C19 UNL     1       6.579  12.589  19.257  1.00  0.00    -0.055 A 
HETATM   34  C20 UNL     1       6.650  11.640  18.232  1.00  0.00     0.007 A 
HETATM   35  C21 UNL     1       7.759  10.806  18.114  1.00  0.00     0.001 A 
HETATM   36  C22 UNL     1       8.818  10.920  19.015  1.00  0.00     0.011 A 
HETATM   37  C23 UNL     1       8.784  11.869  20.051  1.00  0.00     0.004 A 
HETATM   38  C25 UNL     1       7.649  12.694  20.160  1.00  0.00     0.018 A 
BRANCH  37  39
HETATM   39  C24 UNL     1       9.933  12.047  21.021  1.00  0.00     0.479 C 
BRANCH  39  40
HETATM   40  N1  UNL     1      11.166  12.423  20.394  1.00  0.00     0.116 N 
HETATM   41  H24 UNL     1      11.790  12.686  21.155  1.00  0.00     0.316 HD
HETATM   42  H25 UNL     1      11.025  13.272  19.859  1.00  0.00     0.316 HD
ENDBRANCH  39  40
BRANCH  39  43
HETATM   43  N2  UNL     1       9.703  13.106  21.968  1.00  0.00     0.116 N 
HETATM   44  H26 UNL     1       8.873  12.861  22.509  1.00  0.00     0.316 HD
HETATM   45  H27 UNL     1       9.444  13.949  21.464  1.00  0.00     0.316 HD
ENDBRANCH  39  43
ENDBRANCH  37  39
ENDBRANCH  32  33
ENDBRANCH  20  32
BRANCH   7  46
HETATM   46  O2  UNL     1      -0.916  10.241  13.308  1.00  0.00    -0.359 OA
HETATM   47  H5  UNL     1      -1.386   9.916  12.508  1.00  0.00     0.217 HD
ENDBRANCH   7  46
TORSDOF 6
ENDMDL
MODEL 9
REMARK minimizedAffinity -7.74085474
REMARK CNNscore 0.0561012998
REMARK CNNaffinity 5.06469679
REMARK  6 active torsions:
REMARK  status: ('A' for Active; 'I' for Inactive)
REMARK    1  A    between atoms: C6_7  and  O2_8 
REMARK    2  A    between atoms: C17_21  and  C18_22 
REMARK    3  A    between atoms: C18_22  and  C19_23 
REMARK    4  A    between atoms: C23_27  and  C24_28 
REMARK    5  A    between atoms: C24_28  and  N1_29 
REMARK    6  A    between atoms: C24_28  and  N2_30 
ROOT
HETATM    1  C1  UNL     1     -12.332 -12.126  20.603  1.00  0.00     0.077 C 
HETATM    2  C2  UNL     1     -12.220 -11.076  19.542  1.00  0.00     0.053 A 
HETATM    3  C3  UNL     1     -11.094 -10.874  18.846  1.00  0.00     0.088 A 
HETATM    4  C4  UNL     1     -11.062  -9.819  17.823  1.00  0.00     0.190 A 
HETATM    5  O1  UNL     1     -10.054  -9.599  17.159  1.00  0.00    -0.287 OA
HETATM    6  C5  UNL     1     -12.290  -9.036  17.628  1.00  0.00     0.082 A 
HETATM    7  C6  UNL     1     -12.361  -7.994  16.691  1.00  0.00     0.092 A 
HETATM    8  C7  UNL     1     -13.544  -7.254  16.528  1.00  0.00     0.016 A 
HETATM    9  C8  UNL     1     -14.655  -7.590  17.345  1.00  0.00     0.082 A 
HETATM   10  C9  UNL     1     -14.571  -8.623  18.283  1.00  0.00     0.075 A 
HETATM   11  C10 UNL     1     -13.391  -9.346  18.420  1.00  0.00     0.095 A 
HETATM   12  O3  UNL     1     -13.384 -10.347  19.360  1.00  0.00    -0.314 OA
HETATM   13  O4  UNL     1     -15.881  -6.945  17.326  1.00  0.00    -0.337 OA
HETATM   14  C11 UNL     1     -16.118  -6.156  16.144  1.00  0.00     0.091 C 
HETATM   15  C12 UNL     1     -16.485  -7.133  15.006  1.00  0.00     0.049 C 
HETATM   16  C13 UNL     1     -17.335  -5.157  16.384  1.00  0.00     0.041 C 
HETATM   17  C14 UNL     1     -18.000  -4.569  15.097  1.00  0.00     0.003 C 
HETATM   18  C15 UNL     1     -18.357  -3.062  15.048  1.00  0.00     0.003 C 
HETATM   19  C16 UNL     1     -17.255  -1.981  14.931  1.00  0.00     0.042 C 
HETATM   20  C17 UNL     1     -16.421  -1.912  13.629  1.00  0.00     0.107 A 
HETATM   21  O5  UNL     1     -16.238  -3.170  13.019  1.00  0.00    -0.352 OA
HETATM   22  C26 UNL     1     -15.017  -2.635  13.610  1.00  0.00     0.180 A 
HETATM   23  C27 UNL     1     -13.935  -2.801  12.552  1.00  0.00     0.052 C 
HETATM   24  C28 UNL     1     -13.021  -4.054  12.843  1.00  0.00     0.004 C 
HETATM   25  C29 UNL     1     -13.740  -5.432  12.882  1.00  0.00     0.001 C 
HETATM   26  C30 UNL     1     -13.386  -6.425  14.041  1.00  0.00     0.012 C 
HETATM   27  C31 UNL     1     -13.602  -6.069  15.561  1.00  0.00     0.057 C 
HETATM   28  C32 UNL     1     -14.862  -5.296  15.941  1.00  0.00     0.175 C 
HETATM   29  O6  UNL     1     -15.191  -4.406  14.930  1.00  0.00    -0.310 OA
HETATM   30  C33 UNL     1     -14.651  -3.196  14.918  1.00  0.00     0.297 C 
HETATM   31  O7  UNL     1     -13.936  -2.657  15.742  1.00  0.00    -0.262 OA
ENDROOT
BRANCH  20  32
HETATM   32  C18 UNL     1     -16.667  -0.768  12.684  1.00  0.00     0.080 C 
BRANCH  32  33
HETATM   33  C19 UNL     1     -16.439   0.570  13.349  1.00  0.00    -0.055 A 
HETATM   34  C20 UNL     1     -15.315   0.769  14.158  1.00  0.00     0.007 A 
HETATM   35  C21 UNL     1     -15.087   2.003  14.762  1.00  0.00     0.001 A 
HETATM   36  C22 UNL     1     -15.977   3.057  14.557  1.00  0.00     0.011 A 
HETATM   37  C23 UNL     1     -17.112   2.894  13.743  1.00  0.00     0.004 A 
HETATM   38  C25 UNL     1     -17.330   1.637  13.150  1.00  0.00     0.018 A 
BRANCH  37  39
HETATM   39  C24 UNL     1     -18.076   4.028  13.466  1.00  0.00     0.479 C 
BRANCH  39  40
HETATM   40  N1  UNL     1     -18.361   4.838  14.615  1.00  0.00     0.116 N 
HETATM   41  H24 UNL     1     -18.858   5.652  14.259  1.00  0.00     0.316 HD
HETATM   42  H25 UNL     1     -17.493   5.199  14.994  1.00  0.00     0.316 HD
ENDBRANCH  39  40
BRANCH  39  43
HETATM   43  N2  UNL     1     -17.562   4.975  12.510  1.00  0.00     0.116 N 
HETATM   44  H26 UNL     1     -17.409   4.475  11.634  1.00  0.00     0.316 HD
HETATM   45  H27 UNL     1     -16.637   5.271  12.805  1.00  0.00     0.316 HD
ENDBRANCH  39  43
ENDBRANCH  37  39
ENDBRANCH  32  33
ENDBRANCH  20  32
BRANCH   7  46
HETATM   46  O2  UNL     1     -11.273  -7.645  15.930  1.00  0.00    -0.359 OA
HETATM   47  H5  UNL     1     -10.521  -8.234  16.165  1.00  0.00     0.217 HD
ENDBRANCH   7  46
TORSDOF 6
ENDMDL
