MODEL 1
REMARK minimizedAffinity -8.43725014
REMARK CNNscore 0.426908106
REMARK CNNaffinity 7.50072861
REMARK  19 active torsions:
REMARK  status: ('A' for Active; 'I' for Inactive)
REMARK    1  A    between atoms: C19_20  and  O2_21 
REMARK    2  A    between atoms: C19_20  and  C20_22 
REMARK    3  A    between atoms: C20_22  and  C21_24 
REMARK    4  A    between atoms: C21_24  and  O4_25 
REMARK    5  A    between atoms: O4_25  and  C22_26 
REMARK    6  A    between atoms: C22_26  and  C23_28 
REMARK    7  A    between atoms: C23_28  and  C24_29 
REMARK    8  A    between atoms: C24_29  and  C25_30 
REMARK       I    between atoms: C25_30  and  N1_32 
REMARK    9  A    between atoms: N1_32  and  C26_33 
REMARK   10  A    between atoms: C26_33  and  C27_34 
REMARK   11  A    between atoms: C27_34  and  C28_35 
REMARK   12  A    between atoms: C28_35  and  C29_36 
REMARK   13  A    between atoms: C29_36  and  C30_37 
REMARK   14  A    between atoms: C30_37  and  C31_38 
REMARK       I    between atoms: C31_38  and  N2_40 
REMARK   15  A    between atoms: N2_40  and  C32_41 
REMARK   16  A    between atoms: C32_41  and  C33_42 
REMARK   17  A    between atoms: C32_41  and  C40_49 
REMARK   18  A    between atoms: C33_42  and  C34_43 
REMARK   19  A    between atoms: C40_49  and  O9_51 
ROOT
HETATM    1  C22 UNL     1       0.606  51.821 -17.012  1.00  0.00     0.259 C 
HETATM    2  O5  UNL     1       1.248  52.542 -17.767  1.00  0.00    -0.265 OA
ENDROOT
BRANCH   1   3
HETATM    3  O4  UNL     1      -0.654  51.383 -17.255  1.00  0.00    -0.314 OA
BRANCH   3   4
HETATM    4  C21 UNL     1      -0.894  50.019 -16.898  1.00  0.00     0.260 C 
BRANCH   4   5
HETATM    5  C20 UNL     1      -2.220  49.574 -17.508  1.00  0.00     0.185 C 
HETATM    6  O3  UNL     1      -3.266  49.582 -16.853  1.00  0.00    -0.292 OA
BRANCH   5   7
HETATM    7  C19 UNL     1      -2.179  49.021 -18.952  1.00  0.00     0.128 C 
HETATM    8  C14 UNL     1      -2.216  50.085 -20.097  1.00  0.00    -0.002 C 
HETATM    9  C13 UNL     1      -0.871  50.763 -20.447  1.00  0.00     0.013 C 
HETATM   10  C15 UNL     1      -3.298  51.154 -19.785  1.00  0.00     0.019 C 
HETATM   11  C16 UNL     1      -2.599  49.181 -21.286  1.00  0.00     0.002 C 
HETATM   12  C12 UNL     1      -0.578  50.869 -21.966  1.00  0.00     0.007 C 
HETATM   13  C11 UNL     1      -1.853  51.117 -22.808  1.00  0.00     0.002 C 
HETATM   14  C2  UNL     1      -1.659  51.603 -24.311  1.00  0.00    -0.016 C 
HETATM   15  C10 UNL     1      -2.848  49.917 -22.621  1.00  0.00    -0.004 C 
HETATM   16  C1  UNL     1      -2.802  52.606 -24.626  1.00  0.00     0.020 C 
HETATM   17  C3  UNL     1      -0.300  52.338 -24.494  1.00  0.00     0.022 C 
HETATM   18  C7  UNL     1      -1.768  50.476 -25.338  1.00  0.00    -0.068 C 
HETATM   19  C4  UNL     1       0.033  52.672 -25.943  1.00  0.00     0.084 C 
HETATM   20  C5  UNL     1       0.018  51.413 -26.766  1.00  0.00     0.149 C 
HETATM   21  O1  UNL     1       0.762  51.244 -27.727  1.00  0.00    -0.293 OA
HETATM   22  C6  UNL     1      -0.983  50.373 -26.427  1.00  0.00     0.053 C 
HETATM   23  C8  UNL     1      -2.873  49.481 -25.125  1.00  0.00     0.035 C 
HETATM   24  C9  UNL     1      -2.759  48.870 -23.746  1.00  0.00     0.010 C 
HETATM   25  C17 UNL     1      -3.733  48.312 -20.756  1.00  0.00     0.009 C 
HETATM   26  C18 UNL     1      -3.406  48.117 -19.267  1.00  0.00     0.047 C 
BRANCH   7  27
HETATM   27  O2  UNL     1      -1.001  48.213 -19.067  1.00  0.00    -0.381 OA
HETATM   28  H27 UNL     1      -1.116  47.434 -18.492  1.00  0.00     0.211 HD
ENDBRANCH   7  27
ENDBRANCH   5   7
ENDBRANCH   4   5
ENDBRANCH   3   4
ENDBRANCH   1   3
BRANCH   1  29
HETATM   29  C23 UNL     1       1.079  51.406 -15.638  1.00  0.00     0.120 C 
BRANCH  29  30
HETATM   30  C24 UNL     1       2.542  51.737 -15.364  1.00  0.00     0.112 C 
BRANCH  30  31
HETATM   31  C25 UNL     1       2.930  51.455 -13.927  1.00  0.00     0.217 C 
HETATM   32  O6  UNL     1       3.754  50.603 -13.614  1.00  0.00    -0.274 OA
HETATM   33  N1  UNL     1       2.288  52.270 -13.020  1.00  0.00    -0.361 N 
HETATM   34  H34 UNL     1       1.663  52.990 -13.359  1.00  0.00     0.162 HD
BRANCH  33  35
HETATM   35  C26 UNL     1       2.630  52.263 -11.611  1.00  0.00     0.122 C 
BRANCH  35  36
HETATM   36  C27 UNL     1       3.316  53.568 -11.219  1.00  0.00     0.020 C 
BRANCH  36  37
HETATM   37  C28 UNL     1       2.380  54.560 -10.524  1.00  0.00     0.002 C 
BRANCH  37  38
HETATM   38  C29 UNL     1       2.745  54.780  -9.051  1.00  0.00     0.009 C 
BRANCH  38  39
HETATM   39  C30 UNL     1       1.945  55.911  -8.409  1.00  0.00     0.103 C 
BRANCH  39  40
HETATM   40  C31 UNL     1       0.477  55.579  -8.208  1.00  0.00     0.218 C 
HETATM   41  O7  UNL     1      -0.440  56.359  -8.431  1.00  0.00    -0.274 OA
HETATM   42  N2  UNL     1       0.277  54.295  -7.743  1.00  0.00    -0.346 N 
HETATM   43  H45 UNL     1       1.053  53.877  -7.240  1.00  0.00     0.163 HD
BRANCH  42  44
HETATM   44  C32 UNL     1      -1.064  53.863  -7.324  1.00  0.00     0.186 C 
BRANCH  44  45
HETATM   45  C33 UNL     1      -1.382  52.484  -7.911  1.00  0.00     0.074 C 
BRANCH  45  46
HETATM   46  C34 UNL     1      -2.372  52.521  -9.050  1.00  0.00    -0.056 A 
HETATM   47  C35 UNL     1      -3.059  51.360  -9.433  1.00  0.00     0.007 A 
HETATM   48  C36 UNL     1      -3.963  51.392 -10.497  1.00  0.00     0.001 A 
HETATM   49  C37 UNL     1      -4.191  52.582 -11.184  1.00  0.00     0.000 A 
HETATM   50  C38 UNL     1      -3.515  53.742 -10.810  1.00  0.00     0.001 A 
HETATM   51  C39 UNL     1      -2.608  53.713  -9.748  1.00  0.00     0.007 A 
ENDBRANCH  45  46
ENDBRANCH  44  45
BRANCH  44  52
HETATM   52  C40 UNL     1      -1.055  53.792  -5.799  1.00  0.00     0.163 C 
HETATM   53  O8  UNL     1      -0.055  53.775  -5.094  1.00  0.00    -0.648 OA
BRANCH  52  54
HETATM   54  O9  UNL     1      -2.284  53.739  -5.254  1.00  0.00    -0.775 OA
HETATM   55  H54 UNL     1      -2.131  53.719  -4.287  1.00  0.00     0.167 HD
ENDBRANCH  52  54
ENDBRANCH  44  52
ENDBRANCH  42  44
ENDBRANCH  39  40
ENDBRANCH  38  39
ENDBRANCH  37  38
ENDBRANCH  36  37
ENDBRANCH  35  36
ENDBRANCH  33  35
ENDBRANCH  30  31
ENDBRANCH  29  30
ENDBRANCH   1  29
TORSDOF 19
ENDMDL
MODEL 2
REMARK minimizedAffinity -8.66445923
REMARK CNNscore 0.38299045
REMARK CNNaffinity 6.29254389
REMARK  19 active torsions:
REMARK  status: ('A' for Active; 'I' for Inactive)
REMARK    1  A    between atoms: C19_20  and  O2_21 
REMARK    2  A    between atoms: C19_20  and  C20_22 
REMARK    3  A    between atoms: C20_22  and  C21_24 
REMARK    4  A    between atoms: C21_24  and  O4_25 
REMARK    5  A    between atoms: O4_25  and  C22_26 
REMARK    6  A    between atoms: C22_26  and  C23_28 
REMARK    7  A    between atoms: C23_28  and  C24_29 
REMARK    8  A    between atoms: C24_29  and  C25_30 
REMARK       I    between atoms: C25_30  and  N1_32 
REMARK    9  A    between atoms: N1_32  and  C26_33 
REMARK   10  A    between atoms: C26_33  and  C27_34 
REMARK   11  A    between atoms: C27_34  and  C28_35 
REMARK   12  A    between atoms: C28_35  and  C29_36 
REMARK   13  A    between atoms: C29_36  and  C30_37 
REMARK   14  A    between atoms: C30_37  and  C31_38 
REMARK       I    between atoms: C31_38  and  N2_40 
REMARK   15  A    between atoms: N2_40  and  C32_41 
REMARK   16  A    between atoms: C32_41  and  C33_42 
REMARK   17  A    between atoms: C32_41  and  C40_49 
REMARK   18  A    between atoms: C33_42  and  C34_43 
REMARK   19  A    between atoms: C40_49  and  O9_51 
ROOT
HETATM    1  C22 UNL     1      -7.569  48.589 -24.223  1.00  0.00     0.259 C 
HETATM    2  O5  UNL     1      -6.601  48.019 -24.713  1.00  0.00    -0.265 OA
ENDROOT
BRANCH   1   3
HETATM    3  O4  UNL     1      -7.489  49.591 -23.313  1.00  0.00    -0.314 OA
BRANCH   3   4
HETATM    4  C21 UNL     1      -7.439  49.162 -21.950  1.00  0.00     0.260 C 
BRANCH   4   5
HETATM    5  C20 UNL     1      -6.022  48.699 -21.627  1.00  0.00     0.185 C 
HETATM    6  O3  UNL     1      -5.773  47.520 -21.362  1.00  0.00    -0.292 OA
BRANCH   5   7
HETATM    7  C19 UNL     1      -4.926  49.788 -21.553  1.00  0.00     0.128 C 
HETATM    8  C14 UNL     1      -3.974  49.891 -22.789  1.00  0.00    -0.002 C 
HETATM    9  C13 UNL     1      -4.511  50.685 -24.004  1.00  0.00     0.013 C 
HETATM   10  C15 UNL     1      -3.523  48.472 -23.224  1.00  0.00     0.019 C 
HETATM   11  C16 UNL     1      -2.827  50.717 -22.172  1.00  0.00     0.002 C 
HETATM   12  C12 UNL     1      -3.494  51.674 -24.628  1.00  0.00     0.007 C 
HETATM   13  C11 UNL     1      -2.039  51.151 -24.583  1.00  0.00     0.002 C 
HETATM   14  C2  UNL     1      -0.964  51.884 -25.498  1.00  0.00    -0.016 C 
HETATM   15  C10 UNL     1      -1.604  50.936 -23.090  1.00  0.00    -0.004 C 
HETATM   16  C1  UNL     1       0.017  50.800 -26.023  1.00  0.00     0.020 C 
HETATM   17  C3  UNL     1      -1.638  52.567 -26.722  1.00  0.00     0.022 C 
HETATM   18  C7  UNL     1      -0.119  52.913 -24.746  1.00  0.00    -0.068 C 
HETATM   19  C4  UNL     1      -0.696  53.438 -27.543  1.00  0.00     0.084 C 
HETATM   20  C5  UNL     1      -0.073  54.481 -26.656  1.00  0.00     0.149 C 
HETATM   21  O1  UNL     1       0.219  55.602 -27.060  1.00  0.00    -0.293 OA
HETATM   22  C6  UNL     1       0.250  54.102 -25.259  1.00  0.00     0.053 C 
HETATM   23  C8  UNL     1       0.369  52.511 -23.383  1.00  0.00     0.035 C 
HETATM   24  C9  UNL     1      -0.803  52.117 -22.511  1.00  0.00     0.010 C 
HETATM   25  C17 UNL     1      -2.568  50.060 -20.821  1.00  0.00     0.009 C 
HETATM   26  C18 UNL     1      -3.946  49.553 -20.368  1.00  0.00     0.047 C 
BRANCH   7  27
HETATM   27  O2  UNL     1      -5.585  51.042 -21.331  1.00  0.00    -0.381 OA
HETATM   28  H27 UNL     1      -5.987  51.015 -20.444  1.00  0.00     0.211 HD
ENDBRANCH   7  27
ENDBRANCH   5   7
ENDBRANCH   4   5
ENDBRANCH   3   4
ENDBRANCH   1   3
BRANCH   1  29
HETATM   29  C23 UNL     1      -9.002  48.181 -24.470  1.00  0.00     0.120 C 
BRANCH  29  30
HETATM   30  C24 UNL     1      -9.367  48.077 -25.948  1.00  0.00     0.112 C 
BRANCH  30  31
HETATM   31  C25 UNL     1     -10.796  47.620 -26.150  1.00  0.00     0.217 C 
HETATM   32  O6  UNL     1     -11.736  48.399 -26.263  1.00  0.00    -0.274 OA
HETATM   33  N1  UNL     1     -10.924  46.250 -26.224  1.00  0.00    -0.361 N 
HETATM   34  H34 UNL     1     -10.094  45.673 -26.180  1.00  0.00     0.162 HD
BRANCH  33  35
HETATM   35  C26 UNL     1     -12.184  45.617 -26.564  1.00  0.00     0.122 C 
BRANCH  35  36
HETATM   36  C27 UNL     1     -12.910  45.156 -25.303  1.00  0.00     0.020 C 
BRANCH  36  37
HETATM   37  C28 UNL     1     -13.239  43.661 -25.306  1.00  0.00     0.002 C 
BRANCH  37  38
HETATM   38  C29 UNL     1     -14.501  43.336 -24.498  1.00  0.00     0.009 C 
BRANCH  38  39
HETATM   39  C30 UNL     1     -15.759  43.293 -25.363  1.00  0.00     0.103 C 
BRANCH  39  40
HETATM   40  C31 UNL     1     -17.032  43.612 -24.600  1.00  0.00     0.218 C 
HETATM   41  O7  UNL     1     -17.808  42.765 -24.176  1.00  0.00    -0.274 OA
HETATM   42  N2  UNL     1     -17.231  44.968 -24.431  1.00  0.00    -0.346 N 
HETATM   43  H45 UNL     1     -16.780  45.572 -25.110  1.00  0.00     0.163 HD
BRANCH  42  44
HETATM   44  C32 UNL     1     -18.497  45.464 -23.873  1.00  0.00     0.186 C 
BRANCH  44  45
HETATM   45  C33 UNL     1     -18.221  46.476 -22.756  1.00  0.00     0.074 C 
BRANCH  45  46
HETATM   46  C34 UNL     1     -18.669  46.013 -21.391  1.00  0.00    -0.056 A 
HETATM   47  C35 UNL     1     -19.076  44.687 -21.187  1.00  0.00     0.007 A 
HETATM   48  C36 UNL     1     -19.504  44.265 -19.927  1.00  0.00     0.001 A 
HETATM   49  C37 UNL     1     -19.528  45.161 -18.861  1.00  0.00     0.000 A 
HETATM   50  C38 UNL     1     -19.123  46.480 -19.052  1.00  0.00     0.001 A 
HETATM   51  C39 UNL     1     -18.696  46.907 -20.311  1.00  0.00     0.007 A 
ENDBRANCH  45  46
ENDBRANCH  44  45
BRANCH  44  52
HETATM   52  C40 UNL     1     -19.255  46.138 -25.013  1.00  0.00     0.163 C 
HETATM   53  O8  UNL     1     -19.807  45.560 -25.940  1.00  0.00    -0.648 OA
BRANCH  52  54
HETATM   54  O9  UNL     1     -19.271  47.481 -24.932  1.00  0.00    -0.775 OA
HETATM   55  H54 UNL     1     -19.800  47.774 -25.702  1.00  0.00     0.167 HD
ENDBRANCH  52  54
ENDBRANCH  44  52
ENDBRANCH  42  44
ENDBRANCH  39  40
ENDBRANCH  38  39
ENDBRANCH  37  38
ENDBRANCH  36  37
ENDBRANCH  35  36
ENDBRANCH  33  35
ENDBRANCH  30  31
ENDBRANCH  29  30
ENDBRANCH   1  29
TORSDOF 19
ENDMDL
MODEL 3
REMARK minimizedAffinity -8.75762463
REMARK CNNscore 0.363976449
REMARK CNNaffinity 6.88880682
REMARK  19 active torsions:
REMARK  status: ('A' for Active; 'I' for Inactive)
REMARK    1  A    between atoms: C19_20  and  O2_21 
REMARK    2  A    between atoms: C19_20  and  C20_22 
REMARK    3  A    between atoms: C20_22  and  C21_24 
REMARK    4  A    between atoms: C21_24  and  O4_25 
REMARK    5  A    between atoms: O4_25  and  C22_26 
REMARK    6  A    between atoms: C22_26  and  C23_28 
REMARK    7  A    between atoms: C23_28  and  C24_29 
REMARK    8  A    between atoms: C24_29  and  C25_30 
REMARK       I    between atoms: C25_30  and  N1_32 
REMARK    9  A    between atoms: N1_32  and  C26_33 
REMARK   10  A    between atoms: C26_33  and  C27_34 
REMARK   11  A    between atoms: C27_34  and  C28_35 
REMARK   12  A    between atoms: C28_35  and  C29_36 
REMARK   13  A    between atoms: C29_36  and  C30_37 
REMARK   14  A    between atoms: C30_37  and  C31_38 
REMARK       I    between atoms: C31_38  and  N2_40 
REMARK   15  A    between atoms: N2_40  and  C32_41 
REMARK   16  A    between atoms: C32_41  and  C33_42 
REMARK   17  A    between atoms: C32_41  and  C40_49 
REMARK   18  A    between atoms: C33_42  and  C34_43 
REMARK   19  A    between atoms: C40_49  and  O9_51 
ROOT
HETATM    1  C22 UNL     1      -0.742  49.122 -16.150  1.00  0.00     0.259 C 
HETATM    2  O5  UNL     1       0.446  49.261 -16.418  1.00  0.00    -0.265 OA
ENDROOT
BRANCH   1   3
HETATM    3  O4  UNL     1      -1.616  48.397 -16.890  1.00  0.00    -0.314 OA
BRANCH   3   4
HETATM    4  C21 UNL     1      -1.553  48.635 -18.298  1.00  0.00     0.260 C 
BRANCH   4   5
HETATM    5  C20 UNL     1      -2.407  49.854 -18.634  1.00  0.00     0.185 C 
HETATM    6  O3  UNL     1      -3.587  49.933 -18.281  1.00  0.00    -0.292 OA
BRANCH   5   7
HETATM    7  C19 UNL     1      -1.758  50.945 -19.518  1.00  0.00     0.128 C 
HETATM    8  C14 UNL     1      -1.629  50.609 -21.040  1.00  0.00    -0.002 C 
HETATM    9  C13 UNL     1      -2.894  50.835 -21.901  1.00  0.00     0.013 C 
HETATM   10  C15 UNL     1      -1.104  49.160 -21.216  1.00  0.00     0.019 C 
HETATM   11  C16 UNL     1      -0.593  51.672 -21.459  1.00  0.00     0.002 C 
HETATM   12  C12 UNL     1      -2.637  51.557 -23.249  1.00  0.00     0.007 C 
HETATM   13  C11 UNL     1      -1.282  51.173 -23.888  1.00  0.00     0.002 C 
HETATM   14  C2  UNL     1      -1.056  51.550 -25.417  1.00  0.00    -0.016 C 
HETATM   15  C10 UNL     1      -0.111  51.582 -22.924  1.00  0.00    -0.004 C 
HETATM   16  C1  UNL     1      -0.231  50.402 -26.061  1.00  0.00     0.020 C 
HETATM   17  C3  UNL     1      -2.410  51.663 -26.175  1.00  0.00     0.022 C 
HETATM   18  C7  UNL     1      -0.253  52.835 -25.620  1.00  0.00    -0.068 C 
HETATM   19  C4  UNL     1      -2.282  52.194 -27.596  1.00  0.00     0.084 C 
HETATM   20  C5  UNL     1      -1.597  53.534 -27.573  1.00  0.00     0.149 C 
HETATM   21  O1  UNL     1      -1.857  54.423 -28.378  1.00  0.00    -0.293 OA
HETATM   22  C6  UNL     1      -0.524  53.747 -26.572  1.00  0.00     0.053 C 
HETATM   23  C8  UNL     1       0.944  53.024 -24.732  1.00  0.00     0.035 C 
HETATM   24  C9  UNL     1       0.528  52.937 -23.280  1.00  0.00     0.010 C 
HETATM   25  C17 UNL     1       0.478  51.609 -20.376  1.00  0.00     0.009 C 
HETATM   26  C18 UNL     1      -0.290  51.244 -19.095  1.00  0.00     0.047 C 
BRANCH   7  27
HETATM   27  O2  UNL     1      -2.516  52.147 -19.340  1.00  0.00    -0.381 OA
HETATM   28  H27 UNL     1      -2.390  52.447 -18.421  1.00  0.00     0.211 HD
ENDBRANCH   7  27
ENDBRANCH   5   7
ENDBRANCH   4   5
ENDBRANCH   3   4
ENDBRANCH   1   3
BRANCH   1  29
HETATM   29  C23 UNL     1      -1.439  49.836 -15.015  1.00  0.00     0.120 C 
BRANCH  29  30
HETATM   30  C24 UNL     1      -0.500  50.646 -14.127  1.00  0.00     0.112 C 
BRANCH  30  31
HETATM   31  C25 UNL     1      -1.222  51.768 -13.410  1.00  0.00     0.217 C 
HETATM   32  O6  UNL     1      -0.635  52.674 -12.829  1.00  0.00    -0.274 OA
HETATM   33  N1  UNL     1      -2.593  51.681 -13.505  1.00  0.00    -0.361 N 
HETATM   34  H34 UNL     1      -3.005  50.935 -14.051  1.00  0.00     0.162 HD
BRANCH  33  35
HETATM   35  C26 UNL     1      -3.461  52.735 -13.017  1.00  0.00     0.122 C 
BRANCH  35  36
HETATM   36  C27 UNL     1      -3.780  52.527 -11.539  1.00  0.00     0.020 C 
BRANCH  36  37
HETATM   37  C28 UNL     1      -3.762  53.824 -10.726  1.00  0.00     0.002 C 
BRANCH  37  38
HETATM   38  C29 UNL     1      -2.480  53.982  -9.901  1.00  0.00     0.009 C 
BRANCH  38  39
HETATM   39  C30 UNL     1      -1.615  55.149 -10.376  1.00  0.00     0.103 C 
BRANCH  39  40
HETATM   40  C31 UNL     1      -0.180  55.080  -9.885  1.00  0.00     0.218 C 
HETATM   41  O7  UNL     1       0.232  55.659  -8.888  1.00  0.00    -0.274 OA
HETATM   42  N2  UNL     1       0.623  54.291 -10.684  1.00  0.00    -0.346 N 
HETATM   43  H45 UNL     1       0.320  54.177 -11.646  1.00  0.00     0.163 HD
BRANCH  42  44
HETATM   44  C32 UNL     1       2.076  54.254 -10.462  1.00  0.00     0.186 C 
BRANCH  44  45
HETATM   45  C33 UNL     1       2.572  55.626  -9.992  1.00  0.00     0.074 C 
BRANCH  45  46
HETATM   46  C34 UNL     1       3.964  55.602  -9.406  1.00  0.00    -0.056 A 
HETATM   47  C35 UNL     1       5.058  55.208 -10.190  1.00  0.00     0.007 A 
HETATM   48  C36 UNL     1       6.342  55.171  -9.643  1.00  0.00     0.001 A 
HETATM   49  C37 UNL     1       6.545  55.529  -8.312  1.00  0.00     0.000 A 
HETATM   50  C38 UNL     1       5.464  55.925  -7.526  1.00  0.00     0.001 A 
HETATM   51  C39 UNL     1       4.178  55.960  -8.069  1.00  0.00     0.007 A 
ENDBRANCH  45  46
ENDBRANCH  44  45
BRANCH  44  52
HETATM   52  C40 UNL     1       2.337  53.207  -9.383  1.00  0.00     0.163 C 
HETATM   53  O8  UNL     1       3.211  52.351  -9.421  1.00  0.00    -0.648 OA
BRANCH  52  54
HETATM   54  O9  UNL     1       1.495  53.285  -8.337  1.00  0.00    -0.775 OA
HETATM   55  H54 UNL     1       1.787  52.581  -7.724  1.00  0.00     0.167 HD
ENDBRANCH  52  54
ENDBRANCH  44  52
ENDBRANCH  42  44
ENDBRANCH  39  40
ENDBRANCH  38  39
ENDBRANCH  37  38
ENDBRANCH  36  37
ENDBRANCH  35  36
ENDBRANCH  33  35
ENDBRANCH  30  31
ENDBRANCH  29  30
ENDBRANCH   1  29
TORSDOF 19
ENDMDL
MODEL 4
REMARK minimizedAffinity -8.45476532
REMARK CNNscore 0.314669579
REMARK CNNaffinity 6.98910666
REMARK  19 active torsions:
REMARK  status: ('A' for Active; 'I' for Inactive)
REMARK    1  A    between atoms: C19_20  and  O2_21 
REMARK    2  A    between atoms: C19_20  and  C20_22 
REMARK    3  A    between atoms: C20_22  and  C21_24 
REMARK    4  A    between atoms: C21_24  and  O4_25 
REMARK    5  A    between atoms: O4_25  and  C22_26 
REMARK    6  A    between atoms: C22_26  and  C23_28 
REMARK    7  A    between atoms: C23_28  and  C24_29 
REMARK    8  A    between atoms: C24_29  and  C25_30 
REMARK       I    between atoms: C25_30  and  N1_32 
REMARK    9  A    between atoms: N1_32  and  C26_33 
REMARK   10  A    between atoms: C26_33  and  C27_34 
REMARK   11  A    between atoms: C27_34  and  C28_35 
REMARK   12  A    between atoms: C28_35  and  C29_36 
REMARK   13  A    between atoms: C29_36  and  C30_37 
REMARK   14  A    between atoms: C30_37  and  C31_38 
REMARK       I    between atoms: C31_38  and  N2_40 
REMARK   15  A    between atoms: N2_40  and  C32_41 
REMARK   16  A    between atoms: C32_41  and  C33_42 
REMARK   17  A    between atoms: C32_41  and  C40_49 
REMARK   18  A    between atoms: C33_42  and  C34_43 
REMARK   19  A    between atoms: C40_49  and  O9_51 
ROOT
HETATM    1  C22 UNL     1       0.366  49.886 -15.192  1.00  0.00     0.259 C 
HETATM    2  O5  UNL     1       1.243  49.318 -14.552  1.00  0.00    -0.265 OA
ENDROOT
BRANCH   1   3
HETATM    3  O4  UNL     1      -0.378  49.300 -16.162  1.00  0.00    -0.314 OA
BRANCH   3   4
HETATM    4  C21 UNL     1      -1.081  50.210 -17.012  1.00  0.00     0.260 C 
BRANCH   4   5
HETATM    5  C20 UNL     1      -2.331  49.521 -17.550  1.00  0.00     0.185 C 
HETATM    6  O3  UNL     1      -3.326  49.344 -16.842  1.00  0.00    -0.292 OA
BRANCH   5   7
HETATM    7  C19 UNL     1      -2.263  48.970 -18.994  1.00  0.00     0.128 C 
HETATM    8  C14 UNL     1      -2.307  50.034 -20.139  1.00  0.00    -0.002 C 
HETATM    9  C13 UNL     1      -0.970  50.736 -20.474  1.00  0.00     0.013 C 
HETATM   10  C15 UNL     1      -3.412  51.082 -19.840  1.00  0.00     0.019 C 
HETATM   11  C16 UNL     1      -2.659  49.123 -21.333  1.00  0.00     0.002 C 
HETATM   12  C12 UNL     1      -0.662  50.849 -21.988  1.00  0.00     0.007 C 
HETATM   13  C11 UNL     1      -1.931  51.074 -22.845  1.00  0.00     0.002 C 
HETATM   14  C2  UNL     1      -1.728  51.563 -24.346  1.00  0.00    -0.016 C 
HETATM   15  C10 UNL     1      -2.906  49.855 -22.671  1.00  0.00    -0.004 C 
HETATM   16  C1  UNL     1      -2.887  52.545 -24.674  1.00  0.00     0.020 C 
HETATM   17  C3  UNL     1      -0.382  52.323 -24.513  1.00  0.00     0.022 C 
HETATM   18  C7  UNL     1      -1.805  50.435 -25.375  1.00  0.00    -0.068 C 
HETATM   19  C4  UNL     1      -0.038  52.664 -25.957  1.00  0.00     0.084 C 
HETATM   20  C5  UNL     1      -0.019  51.405 -26.781  1.00  0.00     0.149 C 
HETATM   21  O1  UNL     1       0.739  51.251 -27.733  1.00  0.00    -0.293 OA
HETATM   22  C6  UNL     1      -1.005  50.347 -26.454  1.00  0.00     0.053 C 
HETATM   23  C8  UNL     1      -2.894  49.419 -25.174  1.00  0.00     0.035 C 
HETATM   24  C9  UNL     1      -2.784  48.810 -23.794  1.00  0.00     0.010 C 
HETATM   25  C17 UNL     1      -3.782  48.233 -20.816  1.00  0.00     0.009 C 
HETATM   26  C18 UNL     1      -3.469  48.043 -19.323  1.00  0.00     0.047 C 
BRANCH   7  27
HETATM   27  O2  UNL     1      -1.069  48.184 -19.095  1.00  0.00    -0.381 OA
HETATM   28  H27 UNL     1      -1.176  47.403 -18.522  1.00  0.00     0.211 HD
ENDBRANCH   7  27
ENDBRANCH   5   7
ENDBRANCH   4   5
ENDBRANCH   3   4
ENDBRANCH   1   3
BRANCH   1  29
HETATM   29  C23 UNL     1       0.060  51.361 -15.078  1.00  0.00     0.120 C 
BRANCH  29  30
HETATM   30  C24 UNL     1      -0.357  51.798 -13.677  1.00  0.00     0.112 C 
BRANCH  30  31
HETATM   31  C25 UNL     1      -1.843  51.618 -13.444  1.00  0.00     0.217 C 
HETATM   32  O6  UNL     1      -2.656  51.533 -14.358  1.00  0.00    -0.274 OA
HETATM   33  N1  UNL     1      -2.178  51.532 -12.111  1.00  0.00    -0.361 N 
HETATM   34  H34 UNL     1      -1.444  51.553 -11.414  1.00  0.00     0.162 HD
BRANCH  33  35
HETATM   35  C26 UNL     1      -3.525  51.209 -11.680  1.00  0.00     0.122 C 
BRANCH  35  36
HETATM   36  C27 UNL     1      -4.047  52.268 -10.713  1.00  0.00     0.020 C 
BRANCH  36  37
HETATM   37  C28 UNL     1      -3.538  53.677 -11.026  1.00  0.00     0.002 C 
BRANCH  37  38
HETATM   38  C29 UNL     1      -2.564  54.199  -9.963  1.00  0.00     0.009 C 
BRANCH  38  39
HETATM   39  C30 UNL     1      -1.580  55.226 -10.520  1.00  0.00     0.103 C 
BRANCH  39  40
HETATM   40  C31 UNL     1      -0.179  55.096  -9.950  1.00  0.00     0.218 C 
HETATM   41  O7  UNL     1       0.172  55.570  -8.877  1.00  0.00    -0.274 OA
HETATM   42  N2  UNL     1       0.670  54.383 -10.772  1.00  0.00    -0.346 N 
HETATM   43  H45 UNL     1       0.428  54.367 -11.757  1.00  0.00     0.163 HD
BRANCH  42  44
HETATM   44  C32 UNL     1       2.106  54.311 -10.465  1.00  0.00     0.186 C 
BRANCH  44  45
HETATM   45  C33 UNL     1       2.553  55.581  -9.733  1.00  0.00     0.074 C 
BRANCH  45  46
HETATM   46  C34 UNL     1       3.977  55.526  -9.234  1.00  0.00    -0.056 A 
HETATM   47  C35 UNL     1       4.284  55.902  -7.919  1.00  0.00     0.007 A 
HETATM   48  C36 UNL     1       5.604  55.866  -7.463  1.00  0.00     0.001 A 
HETATM   49  C37 UNL     1       6.626  55.453  -8.315  1.00  0.00     0.000 A 
HETATM   50  C38 UNL     1       6.330  55.075  -9.623  1.00  0.00     0.001 A 
HETATM   51  C39 UNL     1       5.012  55.112 -10.083  1.00  0.00     0.007 A 
ENDBRANCH  45  46
ENDBRANCH  44  45
BRANCH  44  52
HETATM   52  C40 UNL     1       2.312  53.092  -9.570  1.00  0.00     0.163 C 
HETATM   53  O8  UNL     1       1.844  52.946  -8.448  1.00  0.00    -0.648 OA
BRANCH  52  54
HETATM   54  O9  UNL     1       3.088  52.141 -10.121  1.00  0.00    -0.775 OA
HETATM   55  H54 UNL     1       3.117  51.422  -9.458  1.00  0.00     0.167 HD
ENDBRANCH  52  54
ENDBRANCH  44  52
ENDBRANCH  42  44
ENDBRANCH  39  40
ENDBRANCH  38  39
ENDBRANCH  37  38
ENDBRANCH  36  37
ENDBRANCH  35  36
ENDBRANCH  33  35
ENDBRANCH  30  31
ENDBRANCH  29  30
ENDBRANCH   1  29
TORSDOF 19
ENDMDL
MODEL 5
REMARK minimizedAffinity -9.28050137
REMARK CNNscore 0.26823169
REMARK CNNaffinity 7.39842796
REMARK  19 active torsions:
REMARK  status: ('A' for Active; 'I' for Inactive)
REMARK    1  A    between atoms: C19_20  and  O2_21 
REMARK    2  A    between atoms: C19_20  and  C20_22 
REMARK    3  A    between atoms: C20_22  and  C21_24 
REMARK    4  A    between atoms: C21_24  and  O4_25 
REMARK    5  A    between atoms: O4_25  and  C22_26 
REMARK    6  A    between atoms: C22_26  and  C23_28 
REMARK    7  A    between atoms: C23_28  and  C24_29 
REMARK    8  A    between atoms: C24_29  and  C25_30 
REMARK       I    between atoms: C25_30  and  N1_32 
REMARK    9  A    between atoms: N1_32  and  C26_33 
REMARK   10  A    between atoms: C26_33  and  C27_34 
REMARK   11  A    between atoms: C27_34  and  C28_35 
REMARK   12  A    between atoms: C28_35  and  C29_36 
REMARK   13  A    between atoms: C29_36  and  C30_37 
REMARK   14  A    between atoms: C30_37  and  C31_38 
REMARK       I    between atoms: C31_38  and  N2_40 
REMARK   15  A    between atoms: N2_40  and  C32_41 
REMARK   16  A    between atoms: C32_41  and  C33_42 
REMARK   17  A    between atoms: C32_41  and  C40_49 
REMARK   18  A    between atoms: C33_42  and  C34_43 
REMARK   19  A    between atoms: C40_49  and  O9_51 
ROOT
HETATM    1  C22 UNL     1       0.987  53.823 -21.023  1.00  0.00     0.259 C 
HETATM    2  O5  UNL     1       1.964  54.491 -21.342  1.00  0.00    -0.265 OA
ENDROOT
BRANCH   1   3
HETATM    3  O4  UNL     1       0.168  53.193 -21.900  1.00  0.00    -0.314 OA
BRANCH   3   4
HETATM    4  C21 UNL     1       0.831  52.590 -23.014  1.00  0.00     0.260 C 
BRANCH   4   5
HETATM    5  C20 UNL     1       0.337  53.245 -24.300  1.00  0.00     0.185 C 
HETATM    6  O3  UNL     1       0.664  54.395 -24.605  1.00  0.00    -0.292 OA
BRANCH   5   7
HETATM    7  C19 UNL     1      -0.668  52.440 -25.157  1.00  0.00     0.128 C 
HETATM    8  C14 UNL     1      -1.669  51.532 -24.372  1.00  0.00    -0.002 C 
HETATM    9  C13 UNL     1      -2.917  52.233 -23.786  1.00  0.00     0.013 C 
HETATM   10  C15 UNL     1      -0.913  50.753 -23.263  1.00  0.00     0.019 C 
HETATM   11  C16 UNL     1      -2.151  50.618 -25.517  1.00  0.00     0.002 C 
HETATM   12  C12 UNL     1      -4.250  51.477 -24.016  1.00  0.00     0.007 C 
HETATM   13  C11 UNL     1      -4.087  49.939 -23.962  1.00  0.00     0.002 C 
HETATM   14  C2  UNL     1      -5.407  49.063 -23.819  1.00  0.00    -0.016 C 
HETATM   15  C10 UNL     1      -3.101  49.475 -25.093  1.00  0.00    -0.004 C 
HETATM   16  C1  UNL     1      -5.063  47.849 -22.912  1.00  0.00     0.020 C 
HETATM   17  C3  UNL     1      -6.549  49.872 -23.141  1.00  0.00     0.022 C 
HETATM   18  C7  UNL     1      -5.910  48.491 -25.145  1.00  0.00    -0.068 C 
HETATM   19  C4  UNL     1      -7.895  49.158 -23.134  1.00  0.00     0.084 C 
HETATM   20  C5  UNL     1      -8.286  48.807 -24.543  1.00  0.00     0.149 C 
HETATM   21  O1  UNL     1      -9.454  48.787 -24.919  1.00  0.00    -0.293 OA
HETATM   22  C6  UNL     1      -7.210  48.412 -25.484  1.00  0.00     0.053 C 
HETATM   23  C8  UNL     1      -4.868  47.932 -26.071  1.00  0.00     0.035 C 
HETATM   24  C9  UNL     1      -3.819  48.981 -26.363  1.00  0.00     0.010 C 
HETATM   25  C17 UNL     1      -0.876  50.219 -26.250  1.00  0.00     0.009 C 
HETATM   26  C18 UNL     1       0.047  51.440 -26.111  1.00  0.00     0.047 C 
BRANCH   7  27
HETATM   27  O2  UNL     1      -1.385  53.379 -25.969  1.00  0.00    -0.381 OA
HETATM   28  H27 UNL     1      -0.755  53.769 -26.602  1.00  0.00     0.211 HD
ENDBRANCH   7  27
ENDBRANCH   5   7
ENDBRANCH   4   5
ENDBRANCH   3   4
ENDBRANCH   1   3
BRANCH   1  29
HETATM   29  C23 UNL     1       0.479  53.697 -19.605  1.00  0.00     0.120 C 
BRANCH  29  30
HETATM   30  C24 UNL     1       1.440  52.971 -18.669  1.00  0.00     0.112 C 
BRANCH  30  31
HETATM   31  C25 UNL     1       0.711  52.072 -17.692  1.00  0.00     0.217 C 
HETATM   32  O6  UNL     1      -0.230  51.357 -18.017  1.00  0.00    -0.274 OA
HETATM   33  N1  UNL     1       1.231  52.120 -16.417  1.00  0.00    -0.361 N 
HETATM   34  H34 UNL     1       2.046  52.692 -16.236  1.00  0.00     0.162 HD
BRANCH  33  35
HETATM   35  C26 UNL     1       0.774  51.225 -15.371  1.00  0.00     0.122 C 
BRANCH  35  36
HETATM   36  C27 UNL     1       1.781  51.181 -14.225  1.00  0.00     0.020 C 
BRANCH  36  37
HETATM   37  C28 UNL     1       1.124  51.098 -12.845  1.00  0.00     0.002 C 
BRANCH  37  38
HETATM   38  C29 UNL     1      -0.080  50.149 -12.824  1.00  0.00     0.009 C 
BRANCH  38  39
HETATM   39  C30 UNL     1      -0.663  49.969 -11.423  1.00  0.00     0.103 C 
BRANCH  39  40
HETATM   40  C31 UNL     1      -2.104  50.429 -11.301  1.00  0.00     0.218 C 
HETATM   41  O7  UNL     1      -2.999  49.757 -10.804  1.00  0.00    -0.274 OA
HETATM   42  N2  UNL     1      -2.308  51.695 -11.812  1.00  0.00    -0.346 N 
HETATM   43  H45 UNL     1      -1.645  52.003 -12.516  1.00  0.00     0.163 HD
BRANCH  42  44
HETATM   44  C32 UNL     1      -3.671  52.228 -11.940  1.00  0.00     0.186 C 
BRANCH  44  45
HETATM   45  C33 UNL     1      -3.907  53.329 -10.900  1.00  0.00     0.074 C 
BRANCH  45  46
HETATM   46  C34 UNL     1      -2.667  53.717 -10.132  1.00  0.00    -0.056 A 
HETATM   47  C35 UNL     1      -2.335  53.061  -8.937  1.00  0.00     0.007 A 
HETATM   48  C36 UNL     1      -1.196  53.432  -8.220  1.00  0.00     0.001 A 
HETATM   49  C37 UNL     1      -0.378  54.457  -8.689  1.00  0.00     0.000 A 
HETATM   50  C38 UNL     1      -0.697  55.113  -9.877  1.00  0.00     0.001 A 
HETATM   51  C39 UNL     1      -1.837  54.747 -10.596  1.00  0.00     0.007 A 
ENDBRANCH  45  46
ENDBRANCH  44  45
BRANCH  44  52
HETATM   52  C40 UNL     1      -3.797  52.804 -13.347  1.00  0.00     0.163 C 
HETATM   53  O8  UNL     1      -3.415  52.260 -14.375  1.00  0.00    -0.648 OA
BRANCH  52  54
HETATM   54  O9  UNL     1      -4.381  54.016 -13.385  1.00  0.00    -0.775 OA
HETATM   55  H54 UNL     1      -4.415  54.251 -14.335  1.00  0.00     0.167 HD
ENDBRANCH  52  54
ENDBRANCH  44  52
ENDBRANCH  42  44
ENDBRANCH  39  40
ENDBRANCH  38  39
ENDBRANCH  37  38
ENDBRANCH  36  37
ENDBRANCH  35  36
ENDBRANCH  33  35
ENDBRANCH  30  31
ENDBRANCH  29  30
ENDBRANCH   1  29
TORSDOF 19
ENDMDL
MODEL 6
REMARK minimizedAffinity -8.93856716
REMARK CNNscore 0.258492768
REMARK CNNaffinity 6.95263481
REMARK  19 active torsions:
REMARK  status: ('A' for Active; 'I' for Inactive)
REMARK    1  A    between atoms: C19_20  and  O2_21 
REMARK    2  A    between atoms: C19_20  and  C20_22 
REMARK    3  A    between atoms: C20_22  and  C21_24 
REMARK    4  A    between atoms: C21_24  and  O4_25 
REMARK    5  A    between atoms: O4_25  and  C22_26 
REMARK    6  A    between atoms: C22_26  and  C23_28 
REMARK    7  A    between atoms: C23_28  and  C24_29 
REMARK    8  A    between atoms: C24_29  and  C25_30 
REMARK       I    between atoms: C25_30  and  N1_32 
REMARK    9  A    between atoms: N1_32  and  C26_33 
REMARK   10  A    between atoms: C26_33  and  C27_34 
REMARK   11  A    between atoms: C27_34  and  C28_35 
REMARK   12  A    between atoms: C28_35  and  C29_36 
REMARK   13  A    between atoms: C29_36  and  C30_37 
REMARK   14  A    between atoms: C30_37  and  C31_38 
REMARK       I    between atoms: C31_38  and  N2_40 
REMARK   15  A    between atoms: N2_40  and  C32_41 
REMARK   16  A    between atoms: C32_41  and  C33_42 
REMARK   17  A    between atoms: C32_41  and  C40_49 
REMARK   18  A    between atoms: C33_42  and  C34_43 
REMARK   19  A    between atoms: C40_49  and  O9_51 
ROOT
HETATM    1  C22 UNL     1      -3.006  50.352 -17.519  1.00  0.00     0.259 C 
HETATM    2  O5  UNL     1      -2.745  51.463 -17.965  1.00  0.00    -0.265 OA
ENDROOT
BRANCH   1   3
HETATM    3  O4  UNL     1      -3.216  50.081 -16.208  1.00  0.00    -0.314 OA
BRANCH   3   4
HETATM    4  C21 UNL     1      -2.687  51.053 -15.302  1.00  0.00     0.260 C 
BRANCH   4   5
HETATM    5  C20 UNL     1      -2.847  50.539 -13.874  1.00  0.00     0.185 C 
HETATM    6  O3  UNL     1      -3.118  49.358 -13.640  1.00  0.00    -0.292 OA
BRANCH   5   7
HETATM    7  C19 UNL     1      -2.749  51.583 -12.737  1.00  0.00     0.128 C 
HETATM    8  C14 UNL     1      -1.367  51.683 -12.013  1.00  0.00    -0.002 C 
HETATM    9  C13 UNL     1      -0.282  52.530 -12.719  1.00  0.00     0.013 C 
HETATM   10  C15 UNL     1      -0.830  50.259 -11.707  1.00  0.00     0.019 C 
HETATM   11  C16 UNL     1      -1.789  52.445 -10.741  1.00  0.00     0.002 C 
HETATM   12  C12 UNL     1       0.491  53.497 -11.786  1.00  0.00     0.007 C 
HETATM   13  C11 UNL     1       0.714  52.916 -10.369  1.00  0.00     0.002 C 
HETATM   14  C2  UNL     1       1.789  53.632  -9.441  1.00  0.00    -0.016 C 
HETATM   15  C10 UNL     1      -0.675  52.642  -9.689  1.00  0.00    -0.004 C 
HETATM   16  C1  UNL     1       2.501  52.525  -8.615  1.00  0.00     0.020 C 
HETATM   17  C3  UNL     1       2.860  54.374 -10.289  1.00  0.00     0.022 C 
HETATM   18  C7  UNL     1       1.177  54.606  -8.433  1.00  0.00    -0.068 C 
HETATM   19  C4  UNL     1       3.816  55.230  -9.468  1.00  0.00     0.084 C 
HETATM   20  C5  UNL     1       3.031  56.224  -8.655  1.00  0.00     0.149 C 
HETATM   21  O1  UNL     1       3.457  57.343  -8.391  1.00  0.00    -0.293 OA
HETATM   22  C6  UNL     1       1.722  55.793  -8.109  1.00  0.00     0.053 C 
HETATM   23  C8  UNL     1      -0.071  54.147  -7.732  1.00  0.00     0.035 C 
HETATM   24  C9  UNL     1      -1.127  53.774  -8.748  1.00  0.00     0.010 C 
HETATM   25  C17 UNL     1      -3.059  51.742 -10.277  1.00  0.00     0.009 C 
HETATM   26  C18 UNL     1      -3.738  51.276 -11.575  1.00  0.00     0.047 C 
BRANCH   7  27
HETATM   27  O2  UNL     1      -3.110  52.854 -13.291  1.00  0.00    -0.381 OA
HETATM   28  H27 UNL     1      -4.053  52.818 -13.532  1.00  0.00     0.211 HD
ENDBRANCH   7  27
ENDBRANCH   5   7
ENDBRANCH   4   5
ENDBRANCH   3   4
ENDBRANCH   1   3
BRANCH   1  29
HETATM   29  C23 UNL     1      -3.017  49.091 -18.351  1.00  0.00     0.120 C 
BRANCH  29  30
HETATM   30  C24 UNL     1      -1.634  48.648 -18.818  1.00  0.00     0.112 C 
BRANCH  30  31
HETATM   31  C25 UNL     1      -1.640  48.193 -20.263  1.00  0.00     0.217 C 
HETATM   32  O6  UNL     1      -0.654  47.720 -20.817  1.00  0.00    -0.274 OA
HETATM   33  N1  UNL     1      -2.866  48.339 -20.874  1.00  0.00    -0.361 N 
HETATM   34  H34 UNL     1      -3.649  48.684 -20.335  1.00  0.00     0.162 HD
BRANCH  33  35
HETATM   35  C26 UNL     1      -3.121  47.825 -22.206  1.00  0.00     0.122 C 
BRANCH  35  36
HETATM   36  C27 UNL     1      -2.627  48.809 -23.264  1.00  0.00     0.020 C 
BRANCH  36  37
HETATM   37  C28 UNL     1      -3.572  48.936 -24.461  1.00  0.00     0.002 C 
BRANCH  37  38
HETATM   38  C29 UNL     1      -2.821  49.045 -25.793  1.00  0.00     0.009 C 
BRANCH  38  39
HETATM   39  C30 UNL     1      -2.686  50.488 -26.276  1.00  0.00     0.103 C 
BRANCH  39  40
HETATM   40  C31 UNL     1      -1.435  51.183 -25.770  1.00  0.00     0.218 C 
HETATM   41  O7  UNL     1      -0.325  50.666 -25.747  1.00  0.00    -0.274 OA
HETATM   42  N2  UNL     1      -1.675  52.469 -25.331  1.00  0.00    -0.346 N 
HETATM   43  H45 UNL     1      -2.625  52.668 -25.033  1.00  0.00     0.163 HD
BRANCH  42  44
HETATM   44  C32 UNL     1      -0.618  53.224 -24.644  1.00  0.00     0.186 C 
BRANCH  44  45
HETATM   45  C33 UNL     1       0.335  52.262 -23.926  1.00  0.00     0.074 C 
BRANCH  45  46
HETATM   46  C34 UNL     1       0.427  52.494 -22.437  1.00  0.00    -0.056 A 
HETATM   47  C35 UNL     1       1.040  53.650 -21.933  1.00  0.00     0.007 A 
HETATM   48  C36 UNL     1       1.138  53.856 -20.556  1.00  0.00     0.001 A 
HETATM   49  C37 UNL     1       0.622  52.912 -19.670  1.00  0.00     0.000 A 
HETATM   50  C38 UNL     1       0.008  51.761 -20.161  1.00  0.00     0.001 A 
HETATM   51  C39 UNL     1      -0.089  51.551 -21.538  1.00  0.00     0.007 A 
ENDBRANCH  45  46
ENDBRANCH  44  45
BRANCH  44  52
HETATM   52  C40 UNL     1       0.139  54.008 -25.712  1.00  0.00     0.163 C 
HETATM   53  O8  UNL     1       0.663  53.529 -26.709  1.00  0.00    -0.648 OA
BRANCH  52  54
HETATM   54  O9  UNL     1       0.200  55.330 -25.471  1.00  0.00    -0.775 OA
HETATM   55  H54 UNL     1       0.686  55.705 -26.233  1.00  0.00     0.167 HD
ENDBRANCH  52  54
ENDBRANCH  44  52
ENDBRANCH  42  44
ENDBRANCH  39  40
ENDBRANCH  38  39
ENDBRANCH  37  38
ENDBRANCH  36  37
ENDBRANCH  35  36
ENDBRANCH  33  35
ENDBRANCH  30  31
ENDBRANCH  29  30
ENDBRANCH   1  29
TORSDOF 19
ENDMDL
MODEL 7
REMARK minimizedAffinity -8.63311958
REMARK CNNscore 0.257813841
REMARK CNNaffinity 6.49487066
REMARK  19 active torsions:
REMARK  status: ('A' for Active; 'I' for Inactive)
REMARK    1  A    between atoms: C19_20  and  O2_21 
REMARK    2  A    between atoms: C19_20  and  C20_22 
REMARK    3  A    between atoms: C20_22  and  C21_24 
REMARK    4  A    between atoms: C21_24  and  O4_25 
REMARK    5  A    between atoms: O4_25  and  C22_26 
REMARK    6  A    between atoms: C22_26  and  C23_28 
REMARK    7  A    between atoms: C23_28  and  C24_29 
REMARK    8  A    between atoms: C24_29  and  C25_30 
REMARK       I    between atoms: C25_30  and  N1_32 
REMARK    9  A    between atoms: N1_32  and  C26_33 
REMARK   10  A    between atoms: C26_33  and  C27_34 
REMARK   11  A    between atoms: C27_34  and  C28_35 
REMARK   12  A    between atoms: C28_35  and  C29_36 
REMARK   13  A    between atoms: C29_36  and  C30_37 
REMARK   14  A    between atoms: C30_37  and  C31_38 
REMARK       I    between atoms: C31_38  and  N2_40 
REMARK   15  A    between atoms: N2_40  and  C32_41 
REMARK   16  A    between atoms: C32_41  and  C33_42 
REMARK   17  A    between atoms: C32_41  and  C40_49 
REMARK   18  A    between atoms: C33_42  and  C34_43 
REMARK   19  A    between atoms: C40_49  and  O9_51 
ROOT
HETATM    1  C22 UNL     1      -8.050  47.157 -23.970  1.00  0.00     0.259 C 
HETATM    2  O5  UNL     1      -8.338  45.973 -24.098  1.00  0.00    -0.265 OA
ENDROOT
BRANCH   1   3
HETATM    3  O4  UNL     1      -8.395  47.920 -22.904  1.00  0.00    -0.314 OA
BRANCH   3   4
HETATM    4  C21 UNL     1      -7.595  49.090 -22.719  1.00  0.00     0.260 C 
BRANCH   4   5
HETATM    5  C20 UNL     1      -6.465  48.770 -21.746  1.00  0.00     0.185 C 
HETATM    6  O3  UNL     1      -6.510  47.783 -21.006  1.00  0.00    -0.292 OA
BRANCH   5   7
HETATM    7  C19 UNL     1      -5.303  49.789 -21.658  1.00  0.00     0.128 C 
HETATM    8  C14 UNL     1      -4.352  49.855 -22.897  1.00  0.00    -0.002 C 
HETATM    9  C13 UNL     1      -4.843  50.702 -24.094  1.00  0.00     0.013 C 
HETATM   10  C15 UNL     1      -3.991  48.418 -23.359  1.00  0.00     0.019 C 
HETATM   11  C16 UNL     1      -3.153  50.596 -22.270  1.00  0.00     0.002 C 
HETATM   12  C12 UNL     1      -3.770  51.638 -24.706  1.00  0.00     0.007 C 
HETATM   13  C11 UNL     1      -2.349  51.025 -24.677  1.00  0.00     0.002 C 
HETATM   14  C2  UNL     1      -1.235  51.707 -25.584  1.00  0.00    -0.016 C 
HETATM   15  C10 UNL     1      -1.923  50.756 -23.190  1.00  0.00    -0.004 C 
HETATM   16  C1  UNL     1      -0.325  50.573 -26.134  1.00  0.00     0.020 C 
HETATM   17  C3  UNL     1      -1.870  52.452 -26.793  1.00  0.00     0.022 C 
HETATM   18  C7  UNL     1      -0.324  52.667 -24.819  1.00  0.00    -0.068 C 
HETATM   19  C4  UNL     1      -0.879  53.278 -27.603  1.00  0.00     0.084 C 
HETATM   20  C5  UNL     1      -0.189  54.264 -26.700  1.00  0.00     0.149 C 
HETATM   21  O1  UNL     1       0.170  55.372 -27.085  1.00  0.00    -0.293 OA
HETATM   22  C6  UNL     1       0.115  53.840 -25.312  1.00  0.00     0.053 C 
HETATM   23  C8  UNL     1       0.143  52.211 -23.465  1.00  0.00     0.035 C 
HETATM   24  C9  UNL     1      -1.047  51.874 -22.595  1.00  0.00     0.010 C 
HETATM   25  C17 UNL     1      -2.930  49.900 -20.933  1.00  0.00     0.009 C 
HETATM   26  C18 UNL     1      -4.335  49.471 -20.482  1.00  0.00     0.047 C 
BRANCH   7  27
HETATM   27  O2  UNL     1      -5.882  51.076 -21.410  1.00  0.00    -0.381 OA
HETATM   28  H27 UNL     1      -6.282  51.058 -20.521  1.00  0.00     0.211 HD
ENDBRANCH   7  27
ENDBRANCH   5   7
ENDBRANCH   4   5
ENDBRANCH   3   4
ENDBRANCH   1   3
BRANCH   1  29
HETATM   29  C23 UNL     1      -7.366  47.979 -25.038  1.00  0.00     0.120 C 
BRANCH  29  30
HETATM   30  C24 UNL     1      -8.081  47.955 -26.385  1.00  0.00     0.112 C 
BRANCH  30  31
HETATM   31  C25 UNL     1      -9.479  48.531 -26.299  1.00  0.00     0.217 C 
HETATM   32  O6  UNL     1      -9.715  49.641 -25.834  1.00  0.00    -0.274 OA
HETATM   33  N1  UNL     1     -10.444  47.697 -26.819  1.00  0.00    -0.361 N 
HETATM   34  H34 UNL     1     -10.166  46.819 -27.238  1.00  0.00     0.162 HD
BRANCH  33  35
HETATM   35  C26 UNL     1     -11.822  48.123 -26.968  1.00  0.00     0.122 C 
BRANCH  35  36
HETATM   36  C27 UNL     1     -12.505  47.349 -28.092  1.00  0.00     0.020 C 
BRANCH  36  37
HETATM   37  C28 UNL     1     -12.131  45.865 -28.119  1.00  0.00     0.002 C 
BRANCH  37  38
HETATM   38  C29 UNL     1     -13.229  44.994 -28.742  1.00  0.00     0.009 C 
BRANCH  38  39
HETATM   39  C30 UNL     1     -14.618  45.617 -28.612  1.00  0.00     0.103 C 
BRANCH  39  40
HETATM   40  C31 UNL     1     -15.566  44.810 -27.742  1.00  0.00     0.218 C 
HETATM   41  O7  UNL     1     -15.208  44.114 -26.800  1.00  0.00    -0.274 OA
HETATM   42  N2  UNL     1     -16.886  44.939 -28.124  1.00  0.00    -0.346 N 
HETATM   43  H45 UNL     1     -17.046  45.200 -29.091  1.00  0.00     0.163 HD
BRANCH  42  44
HETATM   44  C32 UNL     1     -17.917  44.093 -27.509  1.00  0.00     0.186 C 
BRANCH  44  45
HETATM   45  C33 UNL     1     -19.050  44.962 -26.952  1.00  0.00     0.074 C 
BRANCH  45  46
HETATM   46  C34 UNL     1     -18.861  45.358 -25.507  1.00  0.00    -0.056 A 
HETATM   47  C35 UNL     1     -19.737  44.886 -24.520  1.00  0.00     0.007 A 
HETATM   48  C36 UNL     1     -19.570  45.266 -23.186  1.00  0.00     0.001 A 
HETATM   49  C37 UNL     1     -18.526  46.116 -22.828  1.00  0.00     0.000 A 
HETATM   50  C38 UNL     1     -17.648  46.589 -23.802  1.00  0.00     0.001 A 
HETATM   51  C39 UNL     1     -17.814  46.213 -25.137  1.00  0.00     0.007 A 
ENDBRANCH  45  46
ENDBRANCH  44  45
BRANCH  44  52
HETATM   52  C40 UNL     1     -18.454  43.174 -28.603  1.00  0.00     0.163 C 
HETATM   53  O8  UNL     1     -18.275  41.965 -28.666  1.00  0.00    -0.648 OA
BRANCH  52  54
HETATM   54  O9  UNL     1     -19.168  43.815 -29.546  1.00  0.00    -0.775 OA
HETATM   55  H54 UNL     1     -19.463  43.113 -30.161  1.00  0.00     0.167 HD
ENDBRANCH  52  54
ENDBRANCH  44  52
ENDBRANCH  42  44
ENDBRANCH  39  40
ENDBRANCH  38  39
ENDBRANCH  37  38
ENDBRANCH  36  37
ENDBRANCH  35  36
ENDBRANCH  33  35
ENDBRANCH  30  31
ENDBRANCH  29  30
ENDBRANCH   1  29
TORSDOF 19
ENDMDL
MODEL 8
REMARK minimizedAffinity -8.72816086
REMARK CNNscore 0.254096836
REMARK CNNaffinity 6.98258162
REMARK  19 active torsions:
REMARK  status: ('A' for Active; 'I' for Inactive)
REMARK    1  A    between atoms: C19_20  and  O2_21 
REMARK    2  A    between atoms: C19_20  and  C20_22 
REMARK    3  A    between atoms: C20_22  and  C21_24 
REMARK    4  A    between atoms: C21_24  and  O4_25 
REMARK    5  A    between atoms: O4_25  and  C22_26 
REMARK    6  A    between atoms: C22_26  and  C23_28 
REMARK    7  A    between atoms: C23_28  and  C24_29 
REMARK    8  A    between atoms: C24_29  and  C25_30 
REMARK       I    between atoms: C25_30  and  N1_32 
REMARK    9  A    between atoms: N1_32  and  C26_33 
REMARK   10  A    between atoms: C26_33  and  C27_34 
REMARK   11  A    between atoms: C27_34  and  C28_35 
REMARK   12  A    between atoms: C28_35  and  C29_36 
REMARK   13  A    between atoms: C29_36  and  C30_37 
REMARK   14  A    between atoms: C30_37  and  C31_38 
REMARK       I    between atoms: C31_38  and  N2_40 
REMARK   15  A    between atoms: N2_40  and  C32_41 
REMARK   16  A    between atoms: C32_41  and  C33_42 
REMARK   17  A    between atoms: C32_41  and  C40_49 
REMARK   18  A    between atoms: C33_42  and  C34_43 
REMARK   19  A    between atoms: C40_49  and  O9_51 
ROOT
HETATM    1  C22 UNL     1      -3.813  50.226 -24.233  1.00  0.00     0.259 C 
HETATM    2  O5  UNL     1      -3.035  51.068 -24.664  1.00  0.00    -0.265 OA
ENDROOT
BRANCH   1   3
HETATM    3  O4  UNL     1      -4.222  50.148 -22.943  1.00  0.00    -0.314 OA
BRANCH   3   4
HETATM    4  C21 UNL     1      -3.526  51.010 -22.039  1.00  0.00     0.260 C 
BRANCH   4   5
HETATM    5  C20 UNL     1      -2.840  50.162 -20.973  1.00  0.00     0.185 C 
HETATM    6  O3  UNL     1      -3.417  49.214 -20.433  1.00  0.00    -0.292 OA
BRANCH   5   7
HETATM    7  C19 UNL     1      -1.424  50.599 -20.530  1.00  0.00     0.128 C 
HETATM    8  C14 UNL     1      -1.203  50.757 -18.990  1.00  0.00    -0.002 C 
HETATM    9  C13 UNL     1      -0.916  49.457 -18.202  1.00  0.00     0.013 C 
HETATM   10  C15 UNL     1      -2.401  51.519 -18.364  1.00  0.00     0.019 C 
HETATM   11  C16 UNL     1       0.096  51.588 -18.993  1.00  0.00     0.002 C 
HETATM   12  C12 UNL     1       0.248  49.563 -17.184  1.00  0.00     0.007 C 
HETATM   13  C11 UNL     1       0.333  50.953 -16.510  1.00  0.00     0.002 C 
HETATM   14  C2  UNL     1       1.232  51.084 -15.204  1.00  0.00    -0.016 C 
HETATM   15  C10 UNL     1       0.584  52.052 -17.603  1.00  0.00    -0.004 C 
HETATM   16  C1  UNL     1       0.522  52.083 -14.249  1.00  0.00     0.020 C 
HETATM   17  C3  UNL     1       1.365  49.718 -14.472  1.00  0.00     0.022 C 
HETATM   18  C7  UNL     1       2.626  51.652 -15.474  1.00  0.00    -0.068 C 
HETATM   19  C4  UNL     1       2.356  49.729 -13.316  1.00  0.00     0.084 C 
HETATM   20  C5  UNL     1       3.705  50.175 -13.812  1.00  0.00     0.149 C 
HETATM   21  O1  UNL     1       4.755  49.751 -13.340  1.00  0.00    -0.293 OA
HETATM   22  C6  UNL     1       3.746  51.212 -14.871  1.00  0.00     0.053 C 
HETATM   23  C8  UNL     1       2.704  52.813 -16.424  1.00  0.00     0.035 C 
HETATM   24  C9  UNL     1       2.067  52.444 -17.745  1.00  0.00     0.010 C 
HETATM   25  C17 UNL     1      -0.146  52.672 -20.036  1.00  0.00     0.009 C 
HETATM   26  C18 UNL     1      -1.043  52.000 -21.089  1.00  0.00     0.047 C 
BRANCH   7  27
HETATM   27  O2  UNL     1      -0.495  49.648 -21.068  1.00  0.00    -0.381 OA
HETATM   28  H27 UNL     1      -0.505  49.738 -22.038  1.00  0.00     0.211 HD
ENDBRANCH   7  27
ENDBRANCH   5   7
ENDBRANCH   4   5
ENDBRANCH   3   4
ENDBRANCH   1   3
BRANCH   1  29
HETATM   29  C23 UNL     1      -4.344  49.071 -25.050  1.00  0.00     0.120 C 
BRANCH  29  30
HETATM   30  C24 UNL     1      -3.490  48.733 -26.267  1.00  0.00     0.112 C 
BRANCH  30  31
HETATM   31  C25 UNL     1      -4.273  48.839 -27.559  1.00  0.00     0.217 C 
HETATM   32  O6  UNL     1      -3.873  49.468 -28.533  1.00  0.00    -0.274 OA
HETATM   33  N1  UNL     1      -5.457  48.135 -27.537  1.00  0.00    -0.361 N 
HETATM   34  H34 UNL     1      -5.694  47.592 -26.717  1.00  0.00     0.162 HD
BRANCH  33  35
HETATM   35  C26 UNL     1      -6.279  47.985 -28.722  1.00  0.00     0.122 C 
BRANCH  35  36
HETATM   36  C27 UNL     1      -5.453  47.435 -29.881  1.00  0.00     0.020 C 
BRANCH  36  37
HETATM   37  C28 UNL     1      -5.527  48.300 -31.142  1.00  0.00     0.002 C 
BRANCH  37  38
HETATM   38  C29 UNL     1      -5.864  47.484 -32.395  1.00  0.00     0.009 C 
BRANCH  38  39
HETATM   39  C30 UNL     1      -6.774  46.294 -32.096  1.00  0.00     0.103 C 
BRANCH  39  40
HETATM   40  C31 UNL     1      -8.249  46.590 -32.300  1.00  0.00     0.218 C 
HETATM   41  O7  UNL     1      -8.695  47.700 -32.563  1.00  0.00    -0.274 OA
HETATM   42  N2  UNL     1      -9.046  45.473 -32.155  1.00  0.00    -0.346 N 
HETATM   43  H45 UNL     1      -8.665  44.725 -31.584  1.00  0.00     0.163 HD
BRANCH  42  44
HETATM   44  C32 UNL     1     -10.509  45.607 -32.141  1.00  0.00     0.186 C 
BRANCH  44  45
HETATM   45  C33 UNL     1     -10.908  46.975 -31.576  1.00  0.00     0.074 C 
BRANCH  45  46
HETATM   46  C34 UNL     1     -11.657  46.898 -30.267  1.00  0.00    -0.056 A 
HETATM   47  C35 UNL     1     -11.846  48.047 -29.487  1.00  0.00     0.007 A 
HETATM   48  C36 UNL     1     -12.525  47.972 -28.270  1.00  0.00     0.001 A 
HETATM   49  C37 UNL     1     -13.023  46.750 -27.822  1.00  0.00     0.000 A 
HETATM   50  C38 UNL     1     -12.842  45.602 -28.591  1.00  0.00     0.001 A 
HETATM   51  C39 UNL     1     -12.161  45.673 -29.808  1.00  0.00     0.007 A 
ENDBRANCH  45  46
ENDBRANCH  44  45
BRANCH  44  52
HETATM   52  C40 UNL     1     -10.984  45.481 -33.586  1.00  0.00     0.163 C 
HETATM   53  O8  UNL     1     -10.292  45.655 -34.580  1.00  0.00    -0.648 OA
BRANCH  52  54
HETATM   54  O9  UNL     1     -12.284  45.153 -33.701  1.00  0.00    -0.775 OA
HETATM   55  H54 UNL     1     -12.444  45.086 -34.664  1.00  0.00     0.167 HD
ENDBRANCH  52  54
ENDBRANCH  44  52
ENDBRANCH  42  44
ENDBRANCH  39  40
ENDBRANCH  38  39
ENDBRANCH  37  38
ENDBRANCH  36  37
ENDBRANCH  35  36
ENDBRANCH  33  35
ENDBRANCH  30  31
ENDBRANCH  29  30
ENDBRANCH   1  29
TORSDOF 19
ENDMDL
MODEL 9
REMARK minimizedAffinity -8.54810905
REMARK CNNscore 0.233534127
REMARK CNNaffinity 6.79617691
REMARK  19 active torsions:
REMARK  status: ('A' for Active; 'I' for Inactive)
REMARK    1  A    between atoms: C19_20  and  O2_21 
REMARK    2  A    between atoms: C19_20  and  C20_22 
REMARK    3  A    between atoms: C20_22  and  C21_24 
REMARK    4  A    between atoms: C21_24  and  O4_25 
REMARK    5  A    between atoms: O4_25  and  C22_26 
REMARK    6  A    between atoms: C22_26  and  C23_28 
REMARK    7  A    between atoms: C23_28  and  C24_29 
REMARK    8  A    between atoms: C24_29  and  C25_30 
REMARK       I    between atoms: C25_30  and  N1_32 
REMARK    9  A    between atoms: N1_32  and  C26_33 
REMARK   10  A    between atoms: C26_33  and  C27_34 
REMARK   11  A    between atoms: C27_34  and  C28_35 
REMARK   12  A    between atoms: C28_35  and  C29_36 
REMARK   13  A    between atoms: C29_36  and  C30_37 
REMARK   14  A    between atoms: C30_37  and  C31_38 
REMARK       I    between atoms: C31_38  and  N2_40 
REMARK   15  A    between atoms: N2_40  and  C32_41 
REMARK   16  A    between atoms: C32_41  and  C33_42 
REMARK   17  A    between atoms: C32_41  and  C40_49 
REMARK   18  A    between atoms: C33_42  and  C34_43 
REMARK   19  A    between atoms: C40_49  and  O9_51 
ROOT
HETATM    1  C22 UNL     1       0.591  50.692 -15.543  1.00  0.00     0.259 C 
HETATM    2  O5  UNL     1       1.765  51.043 -15.570  1.00  0.00    -0.265 OA
ENDROOT
BRANCH   1   3
HETATM    3  O4  UNL     1      -0.058  50.100 -16.576  1.00  0.00    -0.314 OA
BRANCH   3   4
HETATM    4  C21 UNL     1      -1.384  50.583 -16.807  1.00  0.00     0.260 C 
BRANCH   4   5
HETATM    5  C20 UNL     1      -1.728  50.400 -18.282  1.00  0.00     0.185 C 
HETATM    6  O3  UNL     1      -2.245  49.361 -18.701  1.00  0.00    -0.292 OA
BRANCH   5   7
HETATM    7  C19 UNL     1      -1.312  51.537 -19.246  1.00  0.00     0.128 C 
HETATM    8  C14 UNL     1      -1.049  51.118 -20.730  1.00  0.00    -0.002 C 
HETATM    9  C13 UNL     1      -2.297  50.972 -21.633  1.00  0.00     0.013 C 
HETATM   10  C15 UNL     1      -0.198  49.821 -20.766  1.00  0.00     0.019 C 
HETATM   11  C16 UNL     1      -0.270  52.355 -21.219  1.00  0.00     0.002 C 
HETATM   12  C12 UNL     1      -2.159  51.622 -23.033  1.00  0.00     0.007 C 
HETATM   13  C11 UNL     1      -0.727  51.514 -23.608  1.00  0.00     0.002 C 
HETATM   14  C2  UNL     1      -0.533  51.807 -25.160  1.00  0.00    -0.016 C 
HETATM   15  C10 UNL     1       0.278  52.262 -22.661  1.00  0.00    -0.004 C 
HETATM   16  C1  UNL     1       0.559  50.835 -25.684  1.00  0.00     0.020 C 
HETATM   17  C3  UNL     1      -1.845  51.540 -25.952  1.00  0.00     0.022 C 
HETATM   18  C7  UNL     1      -0.040  53.223 -25.460  1.00  0.00    -0.068 C 
HETATM   19  C4  UNL     1      -1.786  51.970 -27.412  1.00  0.00     0.084 C 
HETATM   20  C5  UNL     1      -1.430  53.429 -27.493  1.00  0.00     0.149 C 
HETATM   21  O1  UNL     1      -1.856  54.165 -28.378  1.00  0.00    -0.293 OA
HETATM   22  C6  UNL     1      -0.476  53.967 -26.494  1.00  0.00     0.053 C 
HETATM   23  C8  UNL     1       1.044  53.758 -24.567  1.00  0.00     0.035 C 
HETATM   24  C9  UNL     1       0.601  53.694 -23.123  1.00  0.00     0.010 C 
HETATM   25  C17 UNL     1       0.742  52.632 -20.114  1.00  0.00     0.009 C 
HETATM   26  C18 UNL     1       0.028  52.203 -18.822  1.00  0.00     0.047 C 
BRANCH   7  27
HETATM   27  O2  UNL     1      -2.334  52.540 -19.190  1.00  0.00    -0.381 OA
HETATM   28  H27 UNL     1      -2.317  52.934 -18.298  1.00  0.00     0.211 HD
ENDBRANCH   7  27
ENDBRANCH   5   7
ENDBRANCH   4   5
ENDBRANCH   3   4
ENDBRANCH   1   3
BRANCH   1  29
HETATM   29  C23 UNL     1      -0.347  50.973 -14.391  1.00  0.00     0.120 C 
BRANCH  29  30
HETATM   30  C24 UNL     1       0.363  51.391 -13.107  1.00  0.00     0.112 C 
BRANCH  30  31
HETATM   31  C25 UNL     1      -0.555  51.331 -11.904  1.00  0.00     0.217 C 
HETATM   32  O6  UNL     1      -0.156  51.081 -10.773  1.00  0.00    -0.274 OA
HETATM   33  N1  UNL     1      -1.869  51.613 -12.208  1.00  0.00    -0.361 N 
HETATM   34  H34 UNL     1      -2.114  51.868 -13.157  1.00  0.00     0.162 HD
BRANCH  33  35
HETATM   35  C26 UNL     1      -2.878  51.755 -11.176  1.00  0.00     0.122 C 
BRANCH  35  36
HETATM   36  C27 UNL     1      -3.636  53.070 -11.344  1.00  0.00     0.020 C 
BRANCH  36  37
HETATM   37  C28 UNL     1      -3.224  54.140 -10.330  1.00  0.00     0.002 C 
BRANCH  37  38
HETATM   38  C29 UNL     1      -1.796  54.648 -10.559  1.00  0.00     0.009 C 
BRANCH  38  39
HETATM   39  C30 UNL     1      -1.393  55.739  -9.568  1.00  0.00     0.103 C 
BRANCH  39  40
HETATM   40  C31 UNL     1      -0.246  55.339  -8.658  1.00  0.00     0.218 C 
HETATM   41  O7  UNL     1       0.038  54.180  -8.381  1.00  0.00    -0.274 OA
HETATM   42  N2  UNL     1       0.453  56.423  -8.167  1.00  0.00    -0.346 N 
HETATM   43  H45 UNL     1      -0.056  57.301  -8.129  1.00  0.00     0.163 HD
BRANCH  42  44
HETATM   44  C32 UNL     1       1.480  56.232  -7.133  1.00  0.00     0.186 C 
BRANCH  44  45
HETATM   45  C33 UNL     1       2.716  57.078  -7.455  1.00  0.00     0.074 C 
BRANCH  45  46
HETATM   46  C34 UNL     1       3.705  56.390  -8.366  1.00  0.00    -0.056 A 
HETATM   47  C35 UNL     1       4.867  55.807  -7.843  1.00  0.00     0.007 A 
HETATM   48  C36 UNL     1       5.788  55.184  -8.688  1.00  0.00     0.001 A 
HETATM   49  C37 UNL     1       5.555  55.137 -10.061  1.00  0.00     0.000 A 
HETATM   50  C38 UNL     1       4.401  55.712 -10.591  1.00  0.00     0.001 A 
HETATM   51  C39 UNL     1       3.479  56.337  -9.748  1.00  0.00     0.007 A 
ENDBRANCH  45  46
ENDBRANCH  44  45
BRANCH  44  52
HETATM   52  C40 UNL     1       0.870  56.682  -5.808  1.00  0.00     0.163 C 
HETATM   53  O8  UNL     1       1.499  57.039  -4.821  1.00  0.00    -0.648 OA
BRANCH  52  54
HETATM   54  O9  UNL     1      -0.475  56.652  -5.794  1.00  0.00    -0.775 OA
HETATM   55  H54 UNL     1      -0.726  56.980  -4.907  1.00  0.00     0.167 HD
ENDBRANCH  52  54
ENDBRANCH  44  52
ENDBRANCH  42  44
ENDBRANCH  39  40
ENDBRANCH  38  39
ENDBRANCH  37  38
ENDBRANCH  36  37
ENDBRANCH  35  36
ENDBRANCH  33  35
ENDBRANCH  30  31
ENDBRANCH  29  30
ENDBRANCH   1  29
TORSDOF 19
ENDMDL
