MODEL 1
REMARK minimizedAffinity -8.34641171
REMARK CNNscore 0.599493504
REMARK CNNaffinity 7.28850365
REMARK  12 active torsions:
REMARK  status: ('A' for Active; 'I' for Inactive)
REMARK    1  A    between atoms: C2_2  and  C3_3 
REMARK    2  A    between atoms: C2_2  and  C9_11 
REMARK    3  A    between atoms: C3_3  and  C4_4 
REMARK    4  A    between atoms: C4_4  and  C5_6 
REMARK    5  A    between atoms: C5_6  and  C6_7 
REMARK    6  A    between atoms: C6_7  and  O2_10 
REMARK    7  A    between atoms: C25_28  and  O4_29 
REMARK    8  A    between atoms: C27_31  and  O5_32 
REMARK    9  A    between atoms: O5_32  and  C28_33 
REMARK   10  A    between atoms: C30_36  and  O7_37 
REMARK   11  A    between atoms: C31_38  and  O8_39 
REMARK   12  A    between atoms: C32_40  and  O9_41 
ROOT
HETATM    1  C9  UNL     1      -4.020   5.604  12.870  1.00  0.00     0.068 C 
HETATM    2  C10 UNL     1      -4.620   4.198  13.089  1.00  0.00     0.133 C 
HETATM    3  O3  UNL     1      -4.040   3.144  12.853  1.00  0.00    -0.298 OA
HETATM    4  C11 UNL     1      -6.028   4.227  13.663  1.00  0.00     0.089 C 
HETATM    5  C12 UNL     1      -6.364   5.724  13.601  1.00  0.00    -0.022 C 
HETATM    6  C13 UNL     1      -6.931   5.996  12.171  1.00  0.00     0.017 C 
HETATM    7  C14 UNL     1      -7.367   6.214  14.700  1.00  0.00     0.024 C 
HETATM    8  C15 UNL     1      -8.817   5.710  14.565  1.00  0.00     0.014 C 
HETATM    9  C16 UNL     1      -9.805   6.541  13.732  1.00  0.00     0.036 C 
HETATM   10  C17 UNL     1     -10.304   7.905  14.219  1.00  0.00    -0.064 C 
HETATM   11  C18 UNL     1      -9.632   8.696  15.099  1.00  0.00    -0.044 C 
HETATM   12  C19 UNL     1      -8.331   8.320  15.784  1.00  0.00     0.071 C 
HETATM   13  C20 UNL     1      -7.290   7.721  14.869  1.00  0.00    -0.075 C 
HETATM   14  C21 UNL     1      -6.303   8.471  14.335  1.00  0.00    -0.022 C 
HETATM   15  C22 UNL     1      -5.109   7.912  13.594  1.00  0.00     0.038 C 
HETATM   16  C23 UNL     1      -4.947   6.398  13.852  1.00  0.00    -0.022 C 
HETATM   17  C24 UNL     1      -4.431   6.199  15.320  1.00  0.00     0.017 C 
HETATM   18  C25 UNL     1     -10.143  10.062  15.536  1.00  0.00     0.150 C 
HETATM   19  C26 UNL     1     -11.296  10.621  14.718  1.00  0.00     0.069 C 
HETATM   20  C27 UNL     1     -12.317   9.541  14.409  1.00  0.00     0.139 C 
HETATM   21  C33 UNL     1     -11.660   8.370  13.594  1.00  0.00     0.003 C 
HETATM   22  C34 UNL     1     -11.384   8.844  12.149  1.00  0.00     0.022 C 
HETATM   23  C35 UNL     1     -12.713   7.234  13.518  1.00  0.00     0.022 C 
ENDROOT
BRANCH  20  24
HETATM   24  O5  UNL     1     -12.895   9.007  15.610  1.00  0.00    -0.352 OA
BRANCH  24  25
HETATM   25  C28 UNL     1     -14.217   9.468  15.899  1.00  0.00     0.291 C 
HETATM   26  O6  UNL     1     -14.775  10.074  14.735  1.00  0.00    -0.356 OA
HETATM   27  C29 UNL     1     -16.155  10.404  14.913  1.00  0.00     0.205 C 
HETATM   28  C30 UNL     1     -16.471  11.014  16.286  1.00  0.00     0.173 C 
HETATM   29  C31 UNL     1     -15.209  11.568  16.968  1.00  0.00     0.182 C 
HETATM   30  C32 UNL     1     -14.096  10.510  17.037  1.00  0.00     0.204 C 
BRANCH  28  31
HETATM   31  O7  UNL     1     -17.476  12.019  16.128  1.00  0.00    -0.391 OA
HETATM   32  H44 UNL     1     -17.321  12.699  16.814  1.00  0.00     0.210 HD
ENDBRANCH  28  31
BRANCH  29  33
HETATM   33  O8  UNL     1     -14.747  12.744  16.284  1.00  0.00    -0.390 OA
HETATM   34  H46 UNL     1     -14.615  12.514  15.342  1.00  0.00     0.210 HD
ENDBRANCH  29  33
BRANCH  30  35
HETATM   35  O9  UNL     1     -14.166   9.826  18.302  1.00  0.00    -0.388 OA
HETATM   36  H48 UNL     1     -13.614  10.333  18.922  1.00  0.00     0.210 HD
ENDBRANCH  30  35
ENDBRANCH  24  25
ENDBRANCH  20  24
BRANCH  18  37
HETATM   37  O4  UNL     1      -9.080  11.018  15.449  1.00  0.00    -0.391 OA
HETATM   38  H36 UNL     1      -9.408  11.841  15.845  1.00  0.00     0.210 HD
ENDBRANCH  18  37
BRANCH   1  39
HETATM   39  C2  UNL     1      -2.475   5.636  13.050  1.00  0.00     0.000 C 
HETATM   40  C1  UNL     1      -2.048   5.391  14.503  1.00  0.00     0.011 C 
BRANCH  39  41
HETATM   41  C3  UNL     1      -1.901   7.009  12.613  1.00  0.00     0.083 C 
BRANCH  41  42
HETATM   42  C4  UNL     1      -0.438   6.994  12.184  1.00  0.00     0.130 C 
HETATM   43  O1  UNL     1       0.441   7.156  13.037  1.00  0.00    -0.298 OA
BRANCH  42  44
HETATM   44  C5  UNL     1      -0.078   6.772  10.721  1.00  0.00     0.115 C 
BRANCH  44  45
HETATM   45  C6  UNL     1       0.646   7.929  10.013  1.00  0.00     0.057 C 
HETATM   46  C7  UNL     1      -0.095   8.464   8.790  1.00  0.00     0.045 C 
HETATM   47  C8  UNL     1       2.041   7.447   9.588  1.00  0.00     0.045 C 
BRANCH  45  48
HETATM   48  O2  UNL     1       0.835   9.000  10.937  1.00  0.00    -0.390 OA
HETATM   49  H15 UNL     1       1.241   9.749  10.466  1.00  0.00     0.210 HD
ENDBRANCH  45  48
ENDBRANCH  44  45
ENDBRANCH  42  44
ENDBRANCH  41  42
ENDBRANCH  39  41
ENDBRANCH   1  39
TORSDOF 12
ENDMDL
MODEL 2
REMARK minimizedAffinity -10.4064274
REMARK CNNscore 0.577019393
REMARK CNNaffinity 7.52536011
REMARK  12 active torsions:
REMARK  status: ('A' for Active; 'I' for Inactive)
REMARK    1  A    between atoms: C2_2  and  C3_3 
REMARK    2  A    between atoms: C2_2  and  C9_11 
REMARK    3  A    between atoms: C3_3  and  C4_4 
REMARK    4  A    between atoms: C4_4  and  C5_6 
REMARK    5  A    between atoms: C5_6  and  C6_7 
REMARK    6  A    between atoms: C6_7  and  O2_10 
REMARK    7  A    between atoms: C25_28  and  O4_29 
REMARK    8  A    between atoms: C27_31  and  O5_32 
REMARK    9  A    between atoms: O5_32  and  C28_33 
REMARK   10  A    between atoms: C30_36  and  O7_37 
REMARK   11  A    between atoms: C31_38  and  O8_39 
REMARK   12  A    between atoms: C32_40  and  O9_41 
ROOT
HETATM    1  C9  UNL     1      -7.166   7.045  14.017  1.00  0.00     0.068 C 
HETATM    2  C10 UNL     1      -6.909   8.241  14.958  1.00  0.00     0.133 C 
HETATM    3  O3  UNL     1      -7.784   8.899  15.511  1.00  0.00    -0.298 OA
HETATM    4  C11 UNL     1      -5.432   8.532  15.172  1.00  0.00     0.089 C 
HETATM    5  C12 UNL     1      -4.774   7.590  14.155  1.00  0.00    -0.022 C 
HETATM    6  C13 UNL     1      -4.737   8.357  12.794  1.00  0.00     0.017 C 
HETATM    7  C14 UNL     1      -3.341   7.096  14.553  1.00  0.00     0.024 C 
HETATM    8  C15 UNL     1      -2.230   8.163  14.539  1.00  0.00     0.014 C 
HETATM    9  C16 UNL     1      -1.451   8.390  13.234  1.00  0.00     0.036 C 
HETATM   10  C17 UNL     1      -0.474   7.338  12.699  1.00  0.00    -0.064 C 
HETATM   11  C18 UNL     1      -0.540   6.012  12.996  1.00  0.00    -0.044 C 
HETATM   12  C19 UNL     1      -1.537   5.386  13.954  1.00  0.00     0.071 C 
HETATM   13  C20 UNL     1      -2.961   5.852  13.771  1.00  0.00    -0.075 C 
HETATM   14  C21 UNL     1      -3.849   5.139  13.045  1.00  0.00    -0.022 C 
HETATM   15  C22 UNL     1      -5.335   5.421  12.995  1.00  0.00     0.038 C 
HETATM   16  C23 UNL     1      -5.769   6.351  14.150  1.00  0.00    -0.022 C 
HETATM   17  C24 UNL     1      -5.726   5.532  15.487  1.00  0.00     0.017 C 
HETATM   18  C25 UNL     1       0.429   4.989  12.419  1.00  0.00     0.150 C 
HETATM   19  C26 UNL     1       1.291   5.482  11.267  1.00  0.00     0.069 C 
HETATM   20  C27 UNL     1       1.807   6.884  11.537  1.00  0.00     0.139 C 
HETATM   21  C33 UNL     1       0.617   7.890  11.724  1.00  0.00     0.003 C 
HETATM   22  C34 UNL     1      -0.052   8.152  10.355  1.00  0.00     0.022 C 
HETATM   23  C35 UNL     1       1.235   9.229  12.203  1.00  0.00     0.022 C 
ENDROOT
BRANCH  20  24
HETATM   24  O5  UNL     1       2.638   6.920  12.708  1.00  0.00    -0.352 OA
BRANCH  24  25
HETATM   25  C28 UNL     1       3.928   7.505  12.514  1.00  0.00     0.291 C 
HETATM   26  O6  UNL     1       4.767   6.588  11.814  1.00  0.00    -0.356 OA
HETATM   27  C29 UNL     1       6.014   7.180  11.444  1.00  0.00     0.205 C 
HETATM   28  C30 UNL     1       6.634   8.054  12.545  1.00  0.00     0.173 C 
HETATM   29  C31 UNL     1       6.046   7.729  13.928  1.00  0.00     0.182 C 
HETATM   30  C32 UNL     1       4.511   7.796  13.918  1.00  0.00     0.204 C 
BRANCH  28  31
HETATM   31  O7  UNL     1       8.054   7.897  12.519  1.00  0.00    -0.391 OA
HETATM   32  H44 UNL     1       8.378   8.010  13.435  1.00  0.00     0.210 HD
ENDBRANCH  28  31
BRANCH  29  33
HETATM   33  O8  UNL     1       6.492   6.436  14.369  1.00  0.00    -0.390 OA
HETATM   34  H46 UNL     1       6.256   5.783  13.680  1.00  0.00     0.210 HD
ENDBRANCH  29  33
BRANCH  30  35
HETATM   35  O9  UNL     1       4.088   9.109  14.333  1.00  0.00    -0.388 OA
HETATM   36  H48 UNL     1       4.001   9.079  15.301  1.00  0.00     0.210 HD
ENDBRANCH  30  35
ENDBRANCH  24  25
ENDBRANCH  20  24
BRANCH  18  37
HETATM   37  O4  UNL     1      -0.306   3.863  11.925  1.00  0.00    -0.391 OA
HETATM   38  H36 UNL     1       0.345   3.188  11.677  1.00  0.00     0.210 HD
ENDBRANCH  18  37
BRANCH   1  39
HETATM   39  C2  UNL     1      -8.466   6.267  14.370  1.00  0.00     0.000 C 
HETATM   40  C1  UNL     1      -8.930   5.351  13.229  1.00  0.00     0.011 C 
BRANCH  39  41
HETATM   41  C3  UNL     1      -9.623   7.249  14.688  1.00  0.00     0.083 C 
BRANCH  41  42
HETATM   42  C4  UNL     1     -10.924   6.987  13.936  1.00  0.00     0.130 C 
HETATM   43  O1  UNL     1     -11.758   6.220  14.426  1.00  0.00    -0.298 OA
BRANCH  42  44
HETATM   44  C5  UNL     1     -11.181   7.677  12.603  1.00  0.00     0.115 C 
BRANCH  44  45
HETATM   45  C6  UNL     1     -12.008   8.973  12.654  1.00  0.00     0.057 C 
HETATM   46  C7  UNL     1     -11.557   9.951  13.736  1.00  0.00     0.045 C 
HETATM   47  C8  UNL     1     -13.481   8.604  12.888  1.00  0.00     0.045 C 
BRANCH  45  48
HETATM   48  O2  UNL     1     -11.936   9.626  11.388  1.00  0.00    -0.390 OA
HETATM   49  H15 UNL     1     -12.412  10.472  11.446  1.00  0.00     0.210 HD
ENDBRANCH  45  48
ENDBRANCH  44  45
ENDBRANCH  42  44
ENDBRANCH  41  42
ENDBRANCH  39  41
ENDBRANCH   1  39
TORSDOF 12
ENDMDL
MODEL 3
REMARK minimizedAffinity -9.84116459
REMARK CNNscore 0.53797549
REMARK CNNaffinity 7.52409601
REMARK  12 active torsions:
REMARK  status: ('A' for Active; 'I' for Inactive)
REMARK    1  A    between atoms: C2_2  and  C3_3 
REMARK    2  A    between atoms: C2_2  and  C9_11 
REMARK    3  A    between atoms: C3_3  and  C4_4 
REMARK    4  A    between atoms: C4_4  and  C5_6 
REMARK    5  A    between atoms: C5_6  and  C6_7 
REMARK    6  A    between atoms: C6_7  and  O2_10 
REMARK    7  A    between atoms: C25_28  and  O4_29 
REMARK    8  A    between atoms: C27_31  and  O5_32 
REMARK    9  A    between atoms: O5_32  and  C28_33 
REMARK   10  A    between atoms: C30_36  and  O7_37 
REMARK   11  A    between atoms: C31_38  and  O8_39 
REMARK   12  A    between atoms: C32_40  and  O9_41 
ROOT
HETATM    1  C9  UNL     1      -6.462   6.879  13.731  1.00  0.00     0.068 C 
HETATM    2  C10 UNL     1      -6.394   8.010  14.779  1.00  0.00     0.133 C 
HETATM    3  O3  UNL     1      -7.368   8.550  15.292  1.00  0.00    -0.298 OA
HETATM    4  C11 UNL     1      -4.973   8.397  15.156  1.00  0.00     0.089 C 
HETATM    5  C12 UNL     1      -4.147   7.596  14.139  1.00  0.00    -0.022 C 
HETATM    6  C13 UNL     1      -4.054   8.473  12.850  1.00  0.00     0.017 C 
HETATM    7  C14 UNL     1      -2.720   7.184  14.636  1.00  0.00     0.024 C 
HETATM    8  C15 UNL     1      -1.707   8.333  14.809  1.00  0.00     0.014 C 
HETATM    9  C16 UNL     1      -0.836   8.726  13.606  1.00  0.00     0.036 C 
HETATM   10  C17 UNL     1       0.271   7.802  13.090  1.00  0.00    -0.064 C 
HETATM   11  C18 UNL     1       0.293   6.454  13.280  1.00  0.00    -0.044 C 
HETATM   12  C19 UNL     1      -0.729   5.676  14.088  1.00  0.00     0.071 C 
HETATM   13  C20 UNL     1      -2.165   6.043  13.803  1.00  0.00    -0.075 C 
HETATM   14  C21 UNL     1      -2.920   5.325  12.945  1.00  0.00    -0.022 C 
HETATM   15  C22 UNL     1      -4.414   5.493  12.773  1.00  0.00     0.038 C 
HETATM   16  C23 UNL     1      -5.029   6.288  13.946  1.00  0.00    -0.022 C 
HETATM   17  C24 UNL     1      -5.036   5.367  15.216  1.00  0.00     0.017 C 
HETATM   18  C25 UNL     1       1.394   5.561  12.724  1.00  0.00     0.150 C 
HETATM   19  C26 UNL     1       2.311   6.214  11.701  1.00  0.00     0.069 C 
HETATM   20  C27 UNL     1       2.679   7.624  12.124  1.00  0.00     0.139 C 
HETATM   21  C33 UNL     1       1.395   8.516  12.269  1.00  0.00     0.003 C 
HETATM   22  C34 UNL     1       0.832   8.836  10.865  1.00  0.00     0.022 C 
HETATM   23  C35 UNL     1       1.850   9.855  12.904  1.00  0.00     0.022 C 
ENDROOT
BRANCH  20  24
HETATM   24  O5  UNL     1       3.394   7.629  13.368  1.00  0.00    -0.352 OA
BRANCH  24  25
HETATM   25  C28 UNL     1       4.661   8.290  13.333  1.00  0.00     0.291 C 
HETATM   26  O6  UNL     1       4.679   9.230  12.260  1.00  0.00    -0.356 OA
HETATM   27  C29 UNL     1       5.857  10.040  12.277  1.00  0.00     0.205 C 
HETATM   28  C30 UNL     1       7.140   9.256  12.591  1.00  0.00     0.173 C 
HETATM   29  C31 UNL     1       6.959   7.748  12.351  1.00  0.00     0.182 C 
HETATM   30  C32 UNL     1       5.736   7.200  13.103  1.00  0.00     0.204 C 
BRANCH  28  31
HETATM   31  O7  UNL     1       8.214   9.794  11.818  1.00  0.00    -0.391 OA
HETATM   32  H44 UNL     1       8.833   9.061  11.626  1.00  0.00     0.210 HD
ENDBRANCH  28  31
BRANCH  29  33
HETATM   33  O8  UNL     1       6.851   7.476  10.944  1.00  0.00    -0.390 OA
HETATM   34  H46 UNL     1       6.121   8.019  10.586  1.00  0.00     0.210 HD
ENDBRANCH  29  33
BRANCH  30  35
HETATM   35  O9  UNL     1       6.154   6.684  14.382  1.00  0.00    -0.388 OA
HETATM   36  H48 UNL     1       6.386   5.750  14.240  1.00  0.00     0.210 HD
ENDBRANCH  30  35
ENDBRANCH  24  25
ENDBRANCH  20  24
BRANCH  18  37
HETATM   37  O4  UNL     1       0.805   4.426  12.079  1.00  0.00    -0.391 OA
HETATM   38  H36 UNL     1       1.532   3.827  11.846  1.00  0.00     0.210 HD
ENDBRANCH  18  37
BRANCH   1  39
HETATM   39  C2  UNL     1      -7.717   5.975  13.898  1.00  0.00     0.000 C 
HETATM   40  C1  UNL     1      -7.577   4.985  15.062  1.00  0.00     0.011 C 
BRANCH  39  41
HETATM   41  C3  UNL     1      -7.977   5.155  12.608  1.00  0.00     0.083 C 
BRANCH  41  42
HETATM   42  C4  UNL     1      -7.704   3.658  12.723  1.00  0.00     0.130 C 
HETATM   43  O1  UNL     1      -8.658   2.876  12.784  1.00  0.00    -0.298 OA
BRANCH  42  44
HETATM   44  C5  UNL     1      -6.269   3.149  12.750  1.00  0.00     0.115 C 
BRANCH  44  45
HETATM   45  C6  UNL     1      -5.852   2.223  11.595  1.00  0.00     0.057 C 
HETATM   46  C7  UNL     1      -4.503   1.541  11.809  1.00  0.00     0.045 C 
HETATM   47  C8  UNL     1      -5.802   3.048  10.301  1.00  0.00     0.045 C 
BRANCH  45  48
HETATM   48  O2  UNL     1      -6.849   1.219  11.415  1.00  0.00    -0.390 OA
HETATM   49  H15 UNL     1      -6.549   0.604  10.722  1.00  0.00     0.210 HD
ENDBRANCH  45  48
ENDBRANCH  44  45
ENDBRANCH  42  44
ENDBRANCH  41  42
ENDBRANCH  39  41
ENDBRANCH   1  39
TORSDOF 12
ENDMDL
MODEL 4
REMARK minimizedAffinity -8.97146606
REMARK CNNscore 0.494219899
REMARK CNNaffinity 7.12717056
REMARK  12 active torsions:
REMARK  status: ('A' for Active; 'I' for Inactive)
REMARK    1  A    between atoms: C2_2  and  C3_3 
REMARK    2  A    between atoms: C2_2  and  C9_11 
REMARK    3  A    between atoms: C3_3  and  C4_4 
REMARK    4  A    between atoms: C4_4  and  C5_6 
REMARK    5  A    between atoms: C5_6  and  C6_7 
REMARK    6  A    between atoms: C6_7  and  O2_10 
REMARK    7  A    between atoms: C25_28  and  O4_29 
REMARK    8  A    between atoms: C27_31  and  O5_32 
REMARK    9  A    between atoms: O5_32  and  C28_33 
REMARK   10  A    between atoms: C30_36  and  O7_37 
REMARK   11  A    between atoms: C31_38  and  O8_39 
REMARK   12  A    between atoms: C32_40  and  O9_41 
ROOT
HETATM    1  C9  UNL     1      -3.623   5.587  12.605  1.00  0.00     0.068 C 
HETATM    2  C10 UNL     1      -4.102   4.167  12.972  1.00  0.00     0.133 C 
HETATM    3  O3  UNL     1      -3.475   3.137  12.752  1.00  0.00    -0.298 OA
HETATM    4  C11 UNL     1      -5.451   4.148  13.675  1.00  0.00     0.089 C 
HETATM    5  C12 UNL     1      -5.894   5.612  13.547  1.00  0.00    -0.022 C 
HETATM    6  C13 UNL     1      -6.606   5.744  12.163  1.00  0.00     0.017 C 
HETATM    7  C14 UNL     1      -6.824   6.116  14.702  1.00  0.00     0.024 C 
HETATM    8  C15 UNL     1      -8.242   5.514  14.740  1.00  0.00     0.014 C 
HETATM    9  C16 UNL     1      -9.357   6.219  13.952  1.00  0.00     0.036 C 
HETATM   10  C17 UNL     1      -9.903   7.580  14.394  1.00  0.00    -0.064 C 
HETATM   11  C18 UNL     1      -9.210   8.473  15.151  1.00  0.00    -0.044 C 
HETATM   12  C19 UNL     1      -7.829   8.231  15.732  1.00  0.00     0.071 C 
HETATM   13  C20 UNL     1      -6.837   7.633  14.763  1.00  0.00    -0.075 C 
HETATM   14  C21 UNL     1      -5.957   8.404  14.089  1.00  0.00    -0.022 C 
HETATM   15  C22 UNL     1      -4.799   7.869  13.276  1.00  0.00     0.038 C 
HETATM   16  C23 UNL     1      -4.510   6.390  13.616  1.00  0.00    -0.022 C 
HETATM   17  C24 UNL     1      -3.850   6.331  15.039  1.00  0.00     0.017 C 
HETATM   18  C25 UNL     1      -9.773   9.833  15.544  1.00  0.00     0.150 C 
HETATM   19  C26 UNL     1     -11.032  10.257  14.805  1.00  0.00     0.069 C 
HETATM   20  C27 UNL     1     -11.999   9.095  14.667  1.00  0.00     0.139 C 
HETATM   21  C33 UNL     1     -11.340   7.913  13.872  1.00  0.00     0.003 C 
HETATM   22  C34 UNL     1     -11.230   8.298  12.378  1.00  0.00     0.022 C 
HETATM   23  C35 UNL     1     -12.313   6.710  13.971  1.00  0.00     0.022 C 
ENDROOT
BRANCH  20  24
HETATM   24  O5  UNL     1     -12.427   8.614  15.950  1.00  0.00    -0.352 OA
BRANCH  24  25
HETATM   25  C28 UNL     1     -13.810   8.827  16.242  1.00  0.00     0.291 C 
HETATM   26  O6  UNL     1     -14.482   7.570  16.307  1.00  0.00    -0.356 OA
HETATM   27  C29 UNL     1     -15.831   7.708  16.761  1.00  0.00     0.205 C 
HETATM   28  C30 UNL     1     -16.568   8.908  16.149  1.00  0.00     0.173 C 
HETATM   29  C31 UNL     1     -15.885   9.401  14.863  1.00  0.00     0.182 C 
HETATM   30  C32 UNL     1     -14.391   9.683  15.092  1.00  0.00     0.204 C 
BRANCH  28  31
HETATM   31  O7  UNL     1     -17.933   8.549  15.923  1.00  0.00    -0.391 OA
HETATM   32  H44 UNL     1     -18.243   9.051  15.143  1.00  0.00     0.210 HD
ENDBRANCH  28  31
BRANCH  29  33
HETATM   33  O8  UNL     1     -16.063   8.446  13.805  1.00  0.00    -0.390 OA
HETATM   34  H46 UNL     1     -15.730   7.581  14.118  1.00  0.00     0.210 HD
ENDBRANCH  29  33
BRANCH  30  35
HETATM   35  O9  UNL     1     -14.212  11.076  15.413  1.00  0.00    -0.388 OA
HETATM   36  H48 UNL     1     -14.090  11.541  14.568  1.00  0.00     0.210 HD
ENDBRANCH  30  35
ENDBRANCH  24  25
ENDBRANCH  20  24
BRANCH  18  37
HETATM   37  O4  UNL     1      -8.791  10.845  15.293  1.00  0.00    -0.391 OA
HETATM   38  H36 UNL     1      -9.138  11.671  15.664  1.00  0.00     0.210 HD
ENDBRANCH  18  37
BRANCH   1  39
HETATM   39  C2  UNL     1      -2.075   5.729  12.634  1.00  0.00     0.000 C 
HETATM   40  C1  UNL     1      -1.620   7.195  12.664  1.00  0.00     0.011 C 
BRANCH  39  41
HETATM   41  C3  UNL     1      -1.440   5.063  11.386  1.00  0.00     0.083 C 
BRANCH  41  42
HETATM   42  C4  UNL     1      -0.036   4.503  11.590  1.00  0.00     0.130 C 
HETATM   43  O1  UNL     1       0.150   3.288  11.470  1.00  0.00    -0.298 OA
BRANCH  42  44
HETATM   44  C5  UNL     1       1.113   5.443  11.928  1.00  0.00     0.115 C 
BRANCH  44  45
HETATM   45  C6  UNL     1       2.172   5.647  10.832  1.00  0.00     0.057 C 
HETATM   46  C7  UNL     1       3.408   6.408  11.303  1.00  0.00     0.045 C 
HETATM   47  C8  UNL     1       1.526   6.406   9.663  1.00  0.00     0.045 C 
BRANCH  45  48
HETATM   48  O2  UNL     1       2.581   4.375  10.332  1.00  0.00    -0.390 OA
HETATM   49  H15 UNL     1       3.292   4.511   9.681  1.00  0.00     0.210 HD
ENDBRANCH  45  48
ENDBRANCH  44  45
ENDBRANCH  42  44
ENDBRANCH  41  42
ENDBRANCH  39  41
ENDBRANCH   1  39
TORSDOF 12
ENDMDL
MODEL 5
REMARK minimizedAffinity -7.70460463
REMARK CNNscore 0.468192846
REMARK CNNaffinity 6.43685341
REMARK  12 active torsions:
REMARK  status: ('A' for Active; 'I' for Inactive)
REMARK    1  A    between atoms: C2_2  and  C3_3 
REMARK    2  A    between atoms: C2_2  and  C9_11 
REMARK    3  A    between atoms: C3_3  and  C4_4 
REMARK    4  A    between atoms: C4_4  and  C5_6 
REMARK    5  A    between atoms: C5_6  and  C6_7 
REMARK    6  A    between atoms: C6_7  and  O2_10 
REMARK    7  A    between atoms: C25_28  and  O4_29 
REMARK    8  A    between atoms: C27_31  and  O5_32 
REMARK    9  A    between atoms: O5_32  and  C28_33 
REMARK   10  A    between atoms: C30_36  and  O7_37 
REMARK   11  A    between atoms: C31_38  and  O8_39 
REMARK   12  A    between atoms: C32_40  and  O9_41 
ROOT
HETATM    1  C9  UNL     1     -17.779  -1.382  13.253  1.00  0.00     0.068 C 
HETATM    2  C10 UNL     1     -17.354  -1.101  11.796  1.00  0.00     0.133 C 
HETATM    3  O3  UNL     1     -17.929  -0.332  11.034  1.00  0.00    -0.298 OA
HETATM    4  C11 UNL     1     -16.106  -1.862  11.376  1.00  0.00     0.089 C 
HETATM    5  C12 UNL     1     -15.886  -2.795  12.575  1.00  0.00    -0.022 C 
HETATM    6  C13 UNL     1     -16.758  -4.065  12.318  1.00  0.00     0.017 C 
HETATM    7  C14 UNL     1     -14.392  -3.189  12.830  1.00  0.00     0.024 C 
HETATM    8  C15 UNL     1     -13.746  -4.111  11.778  1.00  0.00     0.014 C 
HETATM    9  C16 UNL     1     -13.857  -5.631  11.972  1.00  0.00     0.036 C 
HETATM   10  C17 UNL     1     -13.096  -6.346  13.093  1.00  0.00    -0.064 C 
HETATM   11  C18 UNL     1     -12.678  -5.744  14.240  1.00  0.00    -0.044 C 
HETATM   12  C19 UNL     1     -12.835  -4.267  14.549  1.00  0.00     0.071 C 
HETATM   13  C20 UNL     1     -14.202  -3.703  14.246  1.00  0.00    -0.075 C 
HETATM   14  C21 UNL     1     -15.142  -3.574  15.207  1.00  0.00    -0.022 C 
HETATM   15  C22 UNL     1     -16.445  -2.825  15.034  1.00  0.00     0.038 C 
HETATM   16  C23 UNL     1     -16.407  -1.912  13.789  1.00  0.00    -0.022 C 
HETATM   17  C24 UNL     1     -15.470  -0.692  14.099  1.00  0.00     0.017 C 
HETATM   18  C25 UNL     1     -11.953  -6.494  15.348  1.00  0.00     0.150 C 
HETATM   19  C26 UNL     1     -11.978  -8.011  15.235  1.00  0.00     0.069 C 
HETATM   20  C27 UNL     1     -11.746  -8.453  13.802  1.00  0.00     0.139 C 
HETATM   21  C33 UNL     1     -12.854  -7.873  12.853  1.00  0.00     0.003 C 
HETATM   22  C34 UNL     1     -14.186  -8.615  13.109  1.00  0.00     0.022 C 
HETATM   23  C35 UNL     1     -12.413  -8.195  11.402  1.00  0.00     0.022 C 
ENDROOT
BRANCH  20  24
HETATM   24  O5  UNL     1     -10.457  -8.033  13.326  1.00  0.00    -0.352 OA
BRANCH  24  25
HETATM   25  C28 UNL     1      -9.572  -9.096  12.967  1.00  0.00     0.291 C 
HETATM   26  O6  UNL     1      -9.064  -9.713  14.149  1.00  0.00    -0.356 OA
HETATM   27  C29 UNL     1      -8.305 -10.888  13.855  1.00  0.00     0.205 C 
HETATM   28  C30 UNL     1      -7.372 -10.734  12.645  1.00  0.00     0.173 C 
HETATM   29  C31 UNL     1      -7.104  -9.256  12.318  1.00  0.00     0.182 C 
HETATM   30  C32 UNL     1      -8.413  -8.468  12.155  1.00  0.00     0.204 C 
BRANCH  28  31
HETATM   31  O7  UNL     1      -6.162 -11.452  12.897  1.00  0.00    -0.391 OA
HETATM   32  H44 UNL     1      -5.440 -10.983  12.432  1.00  0.00     0.210 HD
ENDBRANCH  28  31
BRANCH  29  33
HETATM   33  O8  UNL     1      -6.279  -8.661  13.333  1.00  0.00    -0.390 OA
HETATM   34  H46 UNL     1      -6.717  -8.797  14.197  1.00  0.00     0.210 HD
ENDBRANCH  29  33
BRANCH  30  35
HETATM   35  O9  UNL     1      -8.784  -8.442  10.763  1.00  0.00    -0.388 OA
HETATM   36  H48 UNL     1      -8.357  -7.657  10.378  1.00  0.00     0.210 HD
ENDBRANCH  30  35
ENDBRANCH  24  25
ENDBRANCH  20  24
BRANCH  18  37
HETATM   37  O4  UNL     1     -12.547  -6.170  16.610  1.00  0.00    -0.391 OA
HETATM   38  H36 UNL     1     -11.989  -6.569  17.296  1.00  0.00     0.210 HD
ENDBRANCH  18  37
BRANCH   1  39
HETATM   39  C2  UNL     1     -18.467  -0.161  13.928  1.00  0.00     0.000 C 
HETATM   40  C1  UNL     1     -19.930   0.002  13.494  1.00  0.00     0.011 C 
BRANCH  39  41
HETATM   41  C3  UNL     1     -17.720   1.152  13.577  1.00  0.00     0.083 C 
BRANCH  41  42
HETATM   42  C4  UNL     1     -17.842   2.265  14.612  1.00  0.00     0.130 C 
HETATM   43  O1  UNL     1     -18.025   1.968  15.797  1.00  0.00    -0.298 OA
BRANCH  42  44
HETATM   44  C5  UNL     1     -17.726   3.720  14.178  1.00  0.00     0.115 C 
BRANCH  44  45
HETATM   45  C6  UNL     1     -16.555   4.519  14.774  1.00  0.00     0.057 C 
HETATM   46  C7  UNL     1     -16.262   5.825  14.040  1.00  0.00     0.045 C 
HETATM   47  C8  UNL     1     -15.299   3.635  14.753  1.00  0.00     0.045 C 
BRANCH  45  48
HETATM   48  O2  UNL     1     -16.837   4.816  16.140  1.00  0.00    -0.390 OA
HETATM   49  H15 UNL     1     -16.119   5.371  16.493  1.00  0.00     0.210 HD
ENDBRANCH  45  48
ENDBRANCH  44  45
ENDBRANCH  42  44
ENDBRANCH  41  42
ENDBRANCH  39  41
ENDBRANCH   1  39
TORSDOF 12
ENDMDL
MODEL 6
REMARK minimizedAffinity -8.18593121
REMARK CNNscore 0.449803174
REMARK CNNaffinity 6.74745893
REMARK  12 active torsions:
REMARK  status: ('A' for Active; 'I' for Inactive)
REMARK    1  A    between atoms: C2_2  and  C3_3 
REMARK    2  A    between atoms: C2_2  and  C9_11 
REMARK    3  A    between atoms: C3_3  and  C4_4 
REMARK    4  A    between atoms: C4_4  and  C5_6 
REMARK    5  A    between atoms: C5_6  and  C6_7 
REMARK    6  A    between atoms: C6_7  and  O2_10 
REMARK    7  A    between atoms: C25_28  and  O4_29 
REMARK    8  A    between atoms: C27_31  and  O5_32 
REMARK    9  A    between atoms: O5_32  and  C28_33 
REMARK   10  A    between atoms: C30_36  and  O7_37 
REMARK   11  A    between atoms: C31_38  and  O8_39 
REMARK   12  A    between atoms: C32_40  and  O9_41 
ROOT
HETATM    1  C9  UNL     1      -6.824 -10.239  -0.267  1.00  0.00     0.068 C 
HETATM    2  C10 UNL     1      -8.288 -10.704  -0.112  1.00  0.00     0.133 C 
HETATM    3  O3  UNL     1      -9.102 -10.771  -1.025  1.00  0.00    -0.298 OA
HETATM    4  C11 UNL     1      -8.643 -11.110   1.310  1.00  0.00     0.089 C 
HETATM    5  C12 UNL     1      -7.389 -10.680   2.084  1.00  0.00    -0.022 C 
HETATM    6  C13 UNL     1      -7.586  -9.176   2.455  1.00  0.00     0.017 C 
HETATM    7  C14 UNL     1      -7.087 -11.533   3.363  1.00  0.00     0.024 C 
HETATM    8  C15 UNL     1      -8.073 -11.367   4.535  1.00  0.00     0.014 C 
HETATM    9  C16 UNL     1      -7.794 -10.272   5.576  1.00  0.00     0.036 C 
HETATM   10  C17 UNL     1      -6.621 -10.388   6.555  1.00  0.00    -0.064 C 
HETATM   11  C18 UNL     1      -5.504 -11.133   6.327  1.00  0.00    -0.044 C 
HETATM   12  C19 UNL     1      -5.283 -12.013   5.112  1.00  0.00     0.071 C 
HETATM   13  C20 UNL     1      -5.641 -11.367   3.795  1.00  0.00    -0.075 C 
HETATM   14  C21 UNL     1      -4.704 -10.783   3.018  1.00  0.00    -0.022 C 
HETATM   15  C22 UNL     1      -4.941 -10.312   1.600  1.00  0.00     0.038 C 
HETATM   16  C23 UNL     1      -6.236 -10.918   1.016  1.00  0.00    -0.022 C 
HETATM   17  C24 UNL     1      -5.982 -12.438   0.724  1.00  0.00     0.017 C 
HETATM   18  C25 UNL     1      -4.342 -11.198   7.309  1.00  0.00     0.150 C 
HETATM   19  C26 UNL     1      -4.368 -10.161   8.422  1.00  0.00     0.069 C 
HETATM   20  C27 UNL     1      -5.770 -10.000   8.981  1.00  0.00     0.139 C 
HETATM   21  C33 UNL     1      -6.768  -9.539   7.861  1.00  0.00     0.003 C 
HETATM   22  C34 UNL     1      -6.491  -8.060   7.505  1.00  0.00     0.022 C 
HETATM   23  C35 UNL     1      -8.191  -9.612   8.472  1.00  0.00     0.022 C 
ENDROOT
BRANCH  20  24
HETATM   24  O5  UNL     1      -6.248 -11.224   9.559  1.00  0.00    -0.352 OA
BRANCH  24  25
HETATM   25  C28 UNL     1      -6.591 -11.143  10.944  1.00  0.00     0.291 C 
HETATM   26  O6  UNL     1      -8.002 -11.284  11.096  1.00  0.00    -0.356 OA
HETATM   27  C29 UNL     1      -8.386 -11.380  12.470  1.00  0.00     0.205 C 
HETATM   28  C30 UNL     1      -7.641 -10.400  13.388  1.00  0.00     0.173 C 
HETATM   29  C31 UNL     1      -7.018  -9.238  12.596  1.00  0.00     0.182 C 
HETATM   30  C32 UNL     1      -6.139  -9.750  11.444  1.00  0.00     0.204 C 
BRANCH  28  31
HETATM   31  O7  UNL     1      -8.539  -9.936  14.398  1.00  0.00    -0.391 OA
HETATM   32  H44 UNL     1      -8.270  -9.025  14.633  1.00  0.00     0.210 HD
ENDBRANCH  28  31
BRANCH  29  33
HETATM   33  O8  UNL     1      -8.046  -8.366  12.099  1.00  0.00    -0.390 OA
HETATM   34  H46 UNL     1      -8.673  -8.904  11.576  1.00  0.00     0.210 HD
ENDBRANCH  29  33
BRANCH  30  35
HETATM   35  O9  UNL     1      -4.772  -9.837  11.890  1.00  0.00    -0.388 OA
HETATM   36  H48 UNL     1      -4.366  -8.972  11.711  1.00  0.00     0.210 HD
ENDBRANCH  30  35
ENDBRANCH  24  25
ENDBRANCH  20  24
BRANCH  18  37
HETATM   37  O4  UNL     1      -3.111 -11.008   6.603  1.00  0.00    -0.391 OA
HETATM   38  H36 UNL     1      -2.395 -11.174   7.236  1.00  0.00     0.210 HD
ENDBRANCH  18  37
BRANCH   1  39
HETATM   39  C2  UNL     1      -6.232 -10.564  -1.668  1.00  0.00     0.000 C 
HETATM   40  C1  UNL     1      -4.756 -10.978  -1.601  1.00  0.00     0.011 C 
BRANCH  39  41
HETATM   41  C3  UNL     1      -6.336  -9.333  -2.606  1.00  0.00     0.083 C 
BRANCH  41  42
HETATM   42  C4  UNL     1      -7.286  -9.495  -3.788  1.00  0.00     0.130 C 
HETATM   43  O1  UNL     1      -7.747 -10.613  -4.041  1.00  0.00    -0.298 OA
BRANCH  42  44
HETATM   44  C5  UNL     1      -7.660  -8.284  -4.632  1.00  0.00     0.115 C 
BRANCH  44  45
HETATM   45  C6  UNL     1      -8.599  -7.259  -3.975  1.00  0.00     0.057 C 
HETATM   46  C7  UNL     1      -9.468  -7.841  -2.863  1.00  0.00     0.045 C 
HETATM   47  C8  UNL     1      -9.504  -6.658  -5.061  1.00  0.00     0.045 C 
BRANCH  45  48
HETATM   48  O2  UNL     1      -7.823  -6.190  -3.437  1.00  0.00    -0.390 OA
HETATM   49  H15 UNL     1      -8.419  -5.576  -2.973  1.00  0.00     0.210 HD
ENDBRANCH  45  48
ENDBRANCH  44  45
ENDBRANCH  42  44
ENDBRANCH  41  42
ENDBRANCH  39  41
ENDBRANCH   1  39
TORSDOF 12
ENDMDL
MODEL 7
REMARK minimizedAffinity -9.59990788
REMARK CNNscore 0.413935125
REMARK CNNaffinity 7.1041398
REMARK  12 active torsions:
REMARK  status: ('A' for Active; 'I' for Inactive)
REMARK    1  A    between atoms: C2_2  and  C3_3 
REMARK    2  A    between atoms: C2_2  and  C9_11 
REMARK    3  A    between atoms: C3_3  and  C4_4 
REMARK    4  A    between atoms: C4_4  and  C5_6 
REMARK    5  A    between atoms: C5_6  and  C6_7 
REMARK    6  A    between atoms: C6_7  and  O2_10 
REMARK    7  A    between atoms: C25_28  and  O4_29 
REMARK    8  A    between atoms: C27_31  and  O5_32 
REMARK    9  A    between atoms: O5_32  and  C28_33 
REMARK   10  A    between atoms: C30_36  and  O7_37 
REMARK   11  A    between atoms: C31_38  and  O8_39 
REMARK   12  A    between atoms: C32_40  and  O9_41 
ROOT
HETATM    1  C9  UNL     1       0.372   7.770  15.064  1.00  0.00     0.068 C 
HETATM    2  C10 UNL     1       0.266   9.308  14.993  1.00  0.00     0.133 C 
HETATM    3  O3  UNL     1       1.202  10.084  15.154  1.00  0.00    -0.298 OA
HETATM    4  C11 UNL     1      -1.136   9.801  14.670  1.00  0.00     0.089 C 
HETATM    5  C12 UNL     1      -1.952   8.503  14.746  1.00  0.00    -0.022 C 
HETATM    6  C13 UNL     1      -2.353   8.315  16.244  1.00  0.00     0.017 C 
HETATM    7  C14 UNL     1      -3.218   8.472  13.824  1.00  0.00     0.024 C 
HETATM    8  C15 UNL     1      -4.368   9.418  14.221  1.00  0.00     0.014 C 
HETATM    9  C16 UNL     1      -5.441   8.897  15.189  1.00  0.00     0.036 C 
HETATM   10  C17 UNL     1      -6.447   7.826  14.756  1.00  0.00    -0.064 C 
HETATM   11  C18 UNL     1      -6.231   6.934  13.751  1.00  0.00    -0.044 C 
HETATM   12  C19 UNL     1      -5.001   6.910  12.864  1.00  0.00     0.071 C 
HETATM   13  C20 UNL     1      -3.691   7.047  13.601  1.00  0.00    -0.075 C 
HETATM   14  C21 UNL     1      -2.953   5.967  13.935  1.00  0.00    -0.022 C 
HETATM   15  C22 UNL     1      -1.540   6.029  14.474  1.00  0.00     0.038 C 
HETATM   16  C23 UNL     1      -0.909   7.419  14.235  1.00  0.00    -0.022 C 
HETATM   17  C24 UNL     1      -0.587   7.558  12.706  1.00  0.00     0.017 C 
HETATM   18  C25 UNL     1      -7.241   5.860  13.371  1.00  0.00     0.150 C 
HETATM   19  C26 UNL     1      -8.376   5.650  14.360  1.00  0.00     0.069 C 
HETATM   20  C27 UNL     1      -8.903   6.979  14.871  1.00  0.00     0.139 C 
HETATM   21  C33 UNL     1      -7.769   7.789  15.593  1.00  0.00     0.003 C 
HETATM   22  C34 UNL     1      -7.455   7.127  16.955  1.00  0.00     0.022 C 
HETATM   23  C35 UNL     1      -8.341   9.200  15.883  1.00  0.00     0.022 C 
ENDROOT
BRANCH  20  24
HETATM   24  O5  UNL     1      -9.439   7.776  13.804  1.00  0.00    -0.352 OA
BRANCH  24  25
HETATM   25  C28 UNL     1     -10.864   7.883  13.788  1.00  0.00     0.291 C 
HETATM   26  O6  UNL     1     -11.387   7.135  12.692  1.00  0.00    -0.356 OA
HETATM   27  C29 UNL     1     -12.815   7.067  12.723  1.00  0.00     0.205 C 
HETATM   28  C30 UNL     1     -13.488   8.396  13.096  1.00  0.00     0.173 C 
HETATM   29  C31 UNL     1     -12.543   9.591  12.890  1.00  0.00     0.182 C 
HETATM   30  C32 UNL     1     -11.206   9.384  13.620  1.00  0.00     0.204 C 
BRANCH  28  31
HETATM   31  O7  UNL     1     -14.694   8.534  12.341  1.00  0.00    -0.391 OA
HETATM   32  H44 UNL     1     -14.835   9.490  12.188  1.00  0.00     0.210 HD
ENDBRANCH  28  31
BRANCH  29  33
HETATM   33  O8  UNL     1     -12.324   9.819  11.489  1.00  0.00    -0.390 OA
HETATM   34  H46 UNL     1     -11.994   8.987  11.094  1.00  0.00     0.210 HD
ENDBRANCH  29  33
BRANCH  30  35
HETATM   35  O9  UNL     1     -11.274   9.993  14.923  1.00  0.00    -0.388 OA
HETATM   36  H48 UNL     1     -10.981  10.914  14.814  1.00  0.00     0.210 HD
ENDBRANCH  30  35
ENDBRANCH  24  25
ENDBRANCH  20  24
BRANCH  18  37
HETATM   37  O4  UNL     1      -6.571   4.600  13.246  1.00  0.00    -0.391 OA
HETATM   38  H36 UNL     1      -7.218   3.971  12.889  1.00  0.00     0.210 HD
ENDBRANCH  18  37
BRANCH   1  39
HETATM   39  C2  UNL     1       1.765   7.239  14.619  1.00  0.00     0.000 C 
HETATM   40  C1  UNL     1       2.784   7.231  15.767  1.00  0.00     0.011 C 
BRANCH  39  41
HETATM   41  C3  UNL     1       2.345   8.113  13.478  1.00  0.00     0.083 C 
BRANCH  41  42
HETATM   42  C4  UNL     1       3.344   7.410  12.564  1.00  0.00     0.130 C 
HETATM   43  O1  UNL     1       4.551   7.497  12.811  1.00  0.00    -0.298 OA
BRANCH  42  44
HETATM   44  C5  UNL     1       2.844   6.606  11.371  1.00  0.00     0.115 C 
BRANCH  44  45
HETATM   45  C6  UNL     1       3.669   6.719  10.078  1.00  0.00     0.057 C 
HETATM   46  C7  UNL     1       3.846   8.151   9.582  1.00  0.00     0.045 C 
HETATM   47  C8  UNL     1       2.981   5.887   8.985  1.00  0.00     0.045 C 
BRANCH  45  48
HETATM   48  O2  UNL     1       4.958   6.146  10.292  1.00  0.00    -0.390 OA
HETATM   49  H15 UNL     1       5.492   6.274   9.489  1.00  0.00     0.210 HD
ENDBRANCH  45  48
ENDBRANCH  44  45
ENDBRANCH  42  44
ENDBRANCH  41  42
ENDBRANCH  39  41
ENDBRANCH   1  39
TORSDOF 12
ENDMDL
MODEL 8
REMARK minimizedAffinity -7.73023415
REMARK CNNscore 0.391017258
REMARK CNNaffinity 6.62387991
REMARK  12 active torsions:
REMARK  status: ('A' for Active; 'I' for Inactive)
REMARK    1  A    between atoms: C2_2  and  C3_3 
REMARK    2  A    between atoms: C2_2  and  C9_11 
REMARK    3  A    between atoms: C3_3  and  C4_4 
REMARK    4  A    between atoms: C4_4  and  C5_6 
REMARK    5  A    between atoms: C5_6  and  C6_7 
REMARK    6  A    between atoms: C6_7  and  O2_10 
REMARK    7  A    between atoms: C25_28  and  O4_29 
REMARK    8  A    between atoms: C27_31  and  O5_32 
REMARK    9  A    between atoms: O5_32  and  C28_33 
REMARK   10  A    between atoms: C30_36  and  O7_37 
REMARK   11  A    between atoms: C31_38  and  O8_39 
REMARK   12  A    between atoms: C32_40  and  O9_41 
ROOT
HETATM    1  C9  UNL     1      -7.219 -10.770  -0.458  1.00  0.00     0.068 C 
HETATM    2  C10 UNL     1      -7.930 -12.139  -0.388  1.00  0.00     0.133 C 
HETATM    3  O3  UNL     1      -8.333 -12.770  -1.359  1.00  0.00    -0.298 OA
HETATM    4  C11 UNL     1      -8.072 -12.672   1.029  1.00  0.00     0.089 C 
HETATM    5  C12 UNL     1      -7.601 -11.474   1.866  1.00  0.00    -0.022 C 
HETATM    6  C13 UNL     1      -8.848 -10.558   2.075  1.00  0.00     0.017 C 
HETATM    7  C14 UNL     1      -6.952 -11.852   3.240  1.00  0.00     0.024 C 
HETATM    8  C15 UNL     1      -7.905 -12.435   4.301  1.00  0.00     0.014 C 
HETATM    9  C16 UNL     1      -8.617 -11.464   5.256  1.00  0.00     0.036 C 
HETATM   10  C17 UNL     1      -7.844 -10.706   6.340  1.00  0.00    -0.064 C 
HETATM   11  C18 UNL     1      -6.512 -10.434   6.281  1.00  0.00    -0.044 C 
HETATM   12  C19 UNL     1      -5.580 -10.898   5.176  1.00  0.00     0.071 C 
HETATM   13  C20 UNL     1      -6.117 -10.704   3.779  1.00  0.00    -0.075 C 
HETATM   14  C21 UNL     1      -5.779  -9.629   3.035  1.00  0.00    -0.022 C 
HETATM   15  C22 UNL     1      -6.095  -9.473   1.564  1.00  0.00     0.038 C 
HETATM   16  C23 UNL     1      -6.495 -10.823   0.929  1.00  0.00    -0.022 C 
HETATM   17  C24 UNL     1      -5.206 -11.710   0.803  1.00  0.00     0.017 C 
HETATM   18  C25 UNL     1      -5.782  -9.648   7.361  1.00  0.00     0.150 C 
HETATM   19  C26 UNL     1      -6.674  -8.935   8.366  1.00  0.00     0.069 C 
HETATM   20  C27 UNL     1      -7.836  -9.818   8.784  1.00  0.00     0.139 C 
HETATM   21  C33 UNL     1      -8.713 -10.211   7.543  1.00  0.00     0.003 C 
HETATM   22  C34 UNL     1      -9.520  -8.977   7.075  1.00  0.00     0.022 C 
HETATM   23  C35 UNL     1      -9.730 -11.274   8.032  1.00  0.00     0.022 C 
ENDROOT
BRANCH  20  24
HETATM   24  O5  UNL     1      -7.377 -11.016   9.430  1.00  0.00    -0.352 OA
BRANCH  24  25
HETATM   25  C28 UNL     1      -7.581 -11.055  10.844  1.00  0.00     0.291 C 
HETATM   26  O6  UNL     1      -8.943 -10.746  11.138  1.00  0.00    -0.356 OA
HETATM   27  C29 UNL     1      -9.247 -10.933  12.522  1.00  0.00     0.205 C 
HETATM   28  C30 UNL     1      -8.153 -10.417  13.469  1.00  0.00     0.173 C 
HETATM   29  C31 UNL     1      -7.222  -9.412  12.770  1.00  0.00     0.182 C 
HETATM   30  C32 UNL     1      -6.647  -9.989  11.467  1.00  0.00     0.204 C 
BRANCH  28  31
HETATM   31  O7  UNL     1      -8.770  -9.854  14.629  1.00  0.00    -0.391 OA
HETATM   32  H44 UNL     1      -8.190  -9.134  14.949  1.00  0.00     0.210 HD
ENDBRANCH  28  31
BRANCH  29  33
HETATM   33  O8  UNL     1      -7.917  -8.181  12.515  1.00  0.00    -0.390 OA
HETATM   34  H46 UNL     1      -8.724  -8.389  12.002  1.00  0.00     0.210 HD
ENDBRANCH  29  33
BRANCH  30  35
HETATM   35  O9  UNL     1      -5.368 -10.594  11.736  1.00  0.00    -0.388 OA
HETATM   36  H48 UNL     1      -4.702  -9.893  11.626  1.00  0.00     0.210 HD
ENDBRANCH  30  35
ENDBRANCH  24  25
ENDBRANCH  20  24
BRANCH  18  37
HETATM   37  O4  UNL     1      -4.969  -8.640   6.751  1.00  0.00    -0.391 OA
HETATM   38  H36 UNL     1      -4.434  -8.244   7.456  1.00  0.00     0.210 HD
ENDBRANCH  18  37
BRANCH   1  39
HETATM   39  C2  UNL     1      -6.399 -10.581  -1.766  1.00  0.00     0.000 C 
HETATM   40  C1  UNL     1      -4.959 -10.125  -1.495  1.00  0.00     0.011 C 
BRANCH  39  41
HETATM   41  C3  UNL     1      -7.066  -9.523  -2.683  1.00  0.00     0.083 C 
BRANCH  41  42
HETATM   42  C4  UNL     1      -7.943 -10.088  -3.796  1.00  0.00     0.130 C 
HETATM   43  O1  UNL     1      -9.167 -10.124  -3.636  1.00  0.00    -0.298 OA
BRANCH  42  44
HETATM   44  C5  UNL     1      -7.305 -10.586  -5.085  1.00  0.00     0.115 C 
BRANCH  44  45
HETATM   45  C6  UNL     1      -7.361  -9.630  -6.288  1.00  0.00     0.057 C 
HETATM   46  C7  UNL     1      -7.723  -8.194  -5.919  1.00  0.00     0.045 C 
HETATM   47  C8  UNL     1      -8.391 -10.168  -7.293  1.00  0.00     0.045 C 
BRANCH  45  48
HETATM   48  O2  UNL     1      -6.095  -9.628  -6.946  1.00  0.00    -0.390 OA
HETATM   49  H15 UNL     1      -6.121  -8.978  -7.669  1.00  0.00     0.210 HD
ENDBRANCH  45  48
ENDBRANCH  44  45
ENDBRANCH  42  44
ENDBRANCH  41  42
ENDBRANCH  39  41
ENDBRANCH   1  39
TORSDOF 12
ENDMDL
MODEL 9
REMARK minimizedAffinity -8.08880806
REMARK CNNscore 0.377613753
REMARK CNNaffinity 6.89885712
REMARK  12 active torsions:
REMARK  status: ('A' for Active; 'I' for Inactive)
REMARK    1  A    between atoms: C2_2  and  C3_3 
REMARK    2  A    between atoms: C2_2  and  C9_11 
REMARK    3  A    between atoms: C3_3  and  C4_4 
REMARK    4  A    between atoms: C4_4  and  C5_6 
REMARK    5  A    between atoms: C5_6  and  C6_7 
REMARK    6  A    between atoms: C6_7  and  O2_10 
REMARK    7  A    between atoms: C25_28  and  O4_29 
REMARK    8  A    between atoms: C27_31  and  O5_32 
REMARK    9  A    between atoms: O5_32  and  C28_33 
REMARK   10  A    between atoms: C30_36  and  O7_37 
REMARK   11  A    between atoms: C31_38  and  O8_39 
REMARK   12  A    between atoms: C32_40  and  O9_41 
ROOT
HETATM    1  C9  UNL     1      -0.104   6.622  11.504  1.00  0.00     0.068 C 
HETATM    2  C10 UNL     1      -1.369   5.837  11.913  1.00  0.00     0.133 C 
HETATM    3  O3  UNL     1      -1.773   4.821  11.359  1.00  0.00    -0.298 OA
HETATM    4  C11 UNL     1      -2.085   6.432  13.115  1.00  0.00     0.089 C 
HETATM    5  C12 UNL     1      -1.323   7.750  13.315  1.00  0.00    -0.022 C 
HETATM    6  C13 UNL     1      -1.999   8.803  12.380  1.00  0.00     0.017 C 
HETATM    7  C14 UNL     1      -1.285   8.264  14.794  1.00  0.00     0.024 C 
HETATM    8  C15 UNL     1      -2.626   8.754  15.375  1.00  0.00     0.014 C 
HETATM    9  C16 UNL     1      -3.003  10.233  15.197  1.00  0.00     0.036 C 
HETATM   10  C17 UNL     1      -2.253  11.339  15.947  1.00  0.00    -0.064 C 
HETATM   11  C18 UNL     1      -0.981  11.219  16.415  1.00  0.00    -0.044 C 
HETATM   12  C19 UNL     1      -0.142   9.957  16.334  1.00  0.00     0.071 C 
HETATM   13  C20 UNL     1      -0.167   9.273  14.989  1.00  0.00    -0.075 C 
HETATM   14  C21 UNL     1       0.807   9.474  14.076  1.00  0.00    -0.022 C 
HETATM   15  C22 UNL     1       0.970   8.668  12.806  1.00  0.00     0.038 C 
HETATM   16  C23 UNL     1       0.149   7.361  12.861  1.00  0.00    -0.022 C 
HETATM   17  C24 UNL     1       0.853   6.377  13.860  1.00  0.00     0.017 C 
HETATM   18  C25 UNL     1      -0.254  12.352  17.127  1.00  0.00     0.150 C 
HETATM   19  C26 UNL     1      -0.917  13.717  17.029  1.00  0.00     0.069 C 
HETATM   20  C27 UNL     1      -2.420  13.605  17.211  1.00  0.00     0.139 C 
HETATM   21  C33 UNL     1      -3.048  12.676  16.112  1.00  0.00     0.003 C 
HETATM   22  C34 UNL     1      -3.036  13.412  14.752  1.00  0.00     0.022 C 
HETATM   23  C35 UNL     1      -4.530  12.454  16.508  1.00  0.00     0.022 C 
ENDROOT
BRANCH  20  24
HETATM   24  O5  UNL     1      -2.754  13.085  18.508  1.00  0.00    -0.352 OA
BRANCH  24  25
HETATM   25  C28 UNL     1      -3.206  14.061  19.450  1.00  0.00     0.291 C 
HETATM   26  O6  UNL     1      -4.461  14.588  19.024  1.00  0.00    -0.356 OA
HETATM   27  C29 UNL     1      -5.044  15.445  20.010  1.00  0.00     0.205 C 
HETATM   28  C30 UNL     1      -4.035  16.391  20.678  1.00  0.00     0.173 C 
HETATM   29  C31 UNL     1      -2.758  16.548  19.837  1.00  0.00     0.182 C 
HETATM   30  C32 UNL     1      -2.142  15.184  19.487  1.00  0.00     0.204 C 
BRANCH  28  31
HETATM   31  O7  UNL     1      -4.670  17.647  20.924  1.00  0.00    -0.391 OA
HETATM   32  H44 UNL     1      -3.982  18.340  20.863  1.00  0.00     0.210 HD
ENDBRANCH  28  31
BRANCH  29  33
HETATM   33  O8  UNL     1      -3.035  17.299  18.644  1.00  0.00    -0.390 OA
HETATM   34  H46 UNL     1      -3.764  16.853  18.168  1.00  0.00     0.210 HD
ENDBRANCH  29  33
BRANCH  30  35
HETATM   35  O9  UNL     1      -1.144  14.845  20.469  1.00  0.00    -0.388 OA
HETATM   36  H48 UNL     1      -0.304  15.218  20.150  1.00  0.00     0.210 HD
ENDBRANCH  30  35
ENDBRANCH  24  25
ENDBRANCH  20  24
BRANCH  18  37
HETATM   37  O4  UNL     1       1.059  12.496  16.574  1.00  0.00    -0.391 OA
HETATM   38  H36 UNL     1       1.529  13.140  17.127  1.00  0.00     0.210 HD
ENDBRANCH  18  37
BRANCH   1  39
HETATM   39  C2  UNL     1       0.998   5.714  10.888  1.00  0.00     0.000 C 
HETATM   40  C1  UNL     1       1.055   4.329  11.548  1.00  0.00     0.011 C 
BRANCH  39  41
HETATM   41  C3  UNL     1       2.395   6.368  11.039  1.00  0.00     0.083 C 
BRANCH  41  42
HETATM   42  C4  UNL     1       3.142   6.616   9.732  1.00  0.00     0.130 C 
HETATM   43  O1  UNL     1       4.324   6.973   9.773  1.00  0.00    -0.298 OA
BRANCH  42  44
HETATM   44  C5  UNL     1       2.431   6.411   8.401  1.00  0.00     0.115 C 
BRANCH  44  45
HETATM   45  C6  UNL     1       1.908   7.678   7.705  1.00  0.00     0.057 C 
HETATM   46  C7  UNL     1       0.680   8.288   8.375  1.00  0.00     0.045 C 
HETATM   47  C8  UNL     1       1.570   7.331   6.248  1.00  0.00     0.045 C 
BRANCH  45  48
HETATM   48  O2  UNL     1       2.945   8.658   7.673  1.00  0.00    -0.390 OA
HETATM   49  H15 UNL     1       2.589   9.475   7.284  1.00  0.00     0.210 HD
ENDBRANCH  45  48
ENDBRANCH  44  45
ENDBRANCH  42  44
ENDBRANCH  41  42
ENDBRANCH  39  41
ENDBRANCH   1  39
TORSDOF 12
ENDMDL
