MODEL 1
REMARK minimizedAffinity -9.57560921
REMARK  7 active torsions:
REMARK  status: ('A' for Active; 'I' for Inactive)
REMARK    1  A    between atoms: C2_2  and  C30_32 
REMARK    2  A    between atoms: C3_3  and  C4_4 
REMARK    3  A    between atoms: C4_4  and  O1_5 
REMARK    4  A    between atoms: C4_4  and  C5_6 
REMARK    5  A    between atoms: C5_6  and  C6_7 
REMARK    6  A    between atoms: C6_7  and  C8_9 
REMARK    7  A    between atoms: C30_32  and  O3_33 
ROOT
HETATM    1  C8  UNL     1       0.621   7.501  12.379  1.00  0.00    -0.002 C 
HETATM    2  C9  UNL     1       0.562   6.267  11.426  1.00  0.00     0.007 C 
HETATM    3  C10 UNL     1      -0.811   5.595  11.619  1.00  0.00     0.015 C 
HETATM    4  C11 UNL     1      -1.387   6.246  12.890  1.00  0.00    -0.013 C 
HETATM    5  C12 UNL     1      -0.755   5.470  14.092  1.00  0.00     0.021 C 
HETATM    6  C13 UNL     1      -2.897   6.194  13.102  1.00  0.00    -0.070 C 
HETATM    7  C14 UNL     1      -3.645   5.160  12.678  1.00  0.00    -0.022 C 
HETATM    8  C15 UNL     1      -5.104   4.991  12.968  1.00  0.00     0.034 C 
HETATM    9  C16 UNL     1      -5.794   6.230  13.583  1.00  0.00     0.013 C 
HETATM   10  C17 UNL     1      -7.260   5.931  14.071  1.00  0.00     0.018 C 
HETATM   11  C18 UNL     1      -7.463   4.534  14.693  1.00  0.00     0.023 C 
HETATM   12  C19 UNL     1      -8.231   6.040  12.876  1.00  0.00     0.023 C 
HETATM   13  C20 UNL     1      -7.692   6.992  15.087  1.00  0.00     0.135 C 
HETATM   14  O2  UNL     1      -8.563   6.790  15.934  1.00  0.00    -0.297 OA
HETATM   15  C21 UNL     1      -7.059   8.348  14.949  1.00  0.00     0.080 C 
HETATM   16  C22 UNL     1      -5.551   8.274  15.135  1.00  0.00     0.017 C 
HETATM   17  C23 UNL     1      -4.867   6.964  14.625  1.00  0.00    -0.031 C 
HETATM   18  C24 UNL     1      -4.572   6.066  15.851  1.00  0.00     0.016 C 
HETATM   19  C25 UNL     1      -3.526   7.353  13.876  1.00  0.00     0.024 C 
HETATM   20  C26 UNL     1      -2.489   8.100  14.751  1.00  0.00     0.010 C 
HETATM   21  C27 UNL     1      -1.185   8.510  14.023  1.00  0.00     0.011 C 
HETATM   22  C28 UNL     1      -0.890   7.728  12.725  1.00  0.00    -0.029 C 
HETATM   23  C29 UNL     1      -1.551   8.477  11.523  1.00  0.00     0.016 C 
ENDROOT
BRANCH   1  24
HETATM   24  C6  UNL     1       1.488   8.660  11.787  1.00  0.00    -0.011 C 
HETATM   25  C7  UNL     1       2.357   9.331  12.854  1.00  0.00     0.010 C 
BRANCH  24  26
HETATM   26  C5  UNL     1       2.350   8.113  10.607  1.00  0.00     0.040 C 
BRANCH  26  27
HETATM   27  C4  UNL     1       3.746   7.584  10.986  1.00  0.00     0.141 C 
BRANCH  27  28
HETATM   28  C3  UNL     1       3.923   6.137  10.589  1.00  0.00     0.009 C 
HETATM   29  C2  UNL     1       3.532   5.564   9.428  1.00  0.00    -0.062 C 
HETATM   30  C1  UNL     1       2.796   6.293   8.335  1.00  0.00     0.045 C 
BRANCH  29  31
HETATM   31  C30 UNL     1       3.810   4.113   9.145  1.00  0.00     0.198 C 
BRANCH  31  32
HETATM   32  O3  UNL     1       2.988   3.326   9.994  1.00  0.00    -0.397 OA
HETATM   33  H48 UNL     1       3.202   2.397   9.805  1.00  0.00     0.209 HD
ENDBRANCH  31  32
ENDBRANCH  29  31
ENDBRANCH  27  28
BRANCH  27  34
HETATM   34  O1  UNL     1       3.911   7.687  12.398  1.00  0.00    -0.392 OA
HETATM   35  H6  UNL     1       3.696   6.821  12.784  1.00  0.00     0.210 HD
ENDBRANCH  27  34
ENDBRANCH  26  27
ENDBRANCH  24  26
ENDBRANCH   1  24
TORSDOF 7
ENDMDL
MODEL 2
REMARK minimizedAffinity -9.50144863
REMARK  7 active torsions:
REMARK  status: ('A' for Active; 'I' for Inactive)
REMARK    1  A    between atoms: C2_2  and  C30_32 
REMARK    2  A    between atoms: C3_3  and  C4_4 
REMARK    3  A    between atoms: C4_4  and  O1_5 
REMARK    4  A    between atoms: C4_4  and  C5_6 
REMARK    5  A    between atoms: C5_6  and  C6_7 
REMARK    6  A    between atoms: C6_7  and  C8_9 
REMARK    7  A    between atoms: C30_32  and  O3_33 
ROOT
HETATM    1  C8  UNL     1      -5.233   7.237  15.479  1.00  0.00    -0.002 C 
HETATM    2  C9  UNL     1      -5.525   8.672  14.942  1.00  0.00     0.007 C 
HETATM    3  C10 UNL     1      -4.310   9.111  14.103  1.00  0.00     0.015 C 
HETATM    4  C11 UNL     1      -3.218   8.076  14.428  1.00  0.00    -0.013 C 
HETATM    5  C12 UNL     1      -2.560   8.551  15.765  1.00  0.00     0.021 C 
HETATM    6  C13 UNL     1      -2.073   7.903  13.434  1.00  0.00    -0.070 C 
HETATM    7  C14 UNL     1      -1.599   8.926  12.702  1.00  0.00    -0.022 C 
HETATM    8  C15 UNL     1      -0.400   8.849  11.809  1.00  0.00     0.034 C 
HETATM    9  C16 UNL     1       0.138   7.420  11.561  1.00  0.00     0.013 C 
HETATM   10  C17 UNL     1       1.518   7.412  10.806  1.00  0.00     0.018 C 
HETATM   11  C18 UNL     1       2.480   8.551  11.201  1.00  0.00     0.023 C 
HETATM   12  C19 UNL     1       1.272   7.533   9.286  1.00  0.00     0.023 C 
HETATM   13  C20 UNL     1       2.221   6.070  11.031  1.00  0.00     0.135 C 
HETATM   14  O2  UNL     1       3.442   5.934  10.947  1.00  0.00    -0.297 OA
HETATM   15  C21 UNL     1       1.334   4.883  11.279  1.00  0.00     0.080 C 
HETATM   16  C22 UNL     1       0.508   5.065  12.543  1.00  0.00     0.017 C 
HETATM   17  C23 UNL     1       0.069   6.531  12.861  1.00  0.00    -0.031 C 
HETATM   18  C24 UNL     1       0.996   7.081  13.973  1.00  0.00     0.016 C 
HETATM   19  C25 UNL     1      -1.441   6.513  13.344  1.00  0.00     0.024 C 
HETATM   20  C26 UNL     1      -1.703   5.670  14.616  1.00  0.00     0.010 C 
HETATM   21  C27 UNL     1      -3.179   5.622  15.083  1.00  0.00     0.011 C 
HETATM   22  C28 UNL     1      -4.071   6.760  14.542  1.00  0.00    -0.029 C 
HETATM   23  C29 UNL     1      -4.701   6.306  13.186  1.00  0.00     0.016 C 
ENDROOT
BRANCH   1  24
HETATM   24  C6  UNL     1      -6.538   6.388  15.627  1.00  0.00    -0.011 C 
HETATM   25  C7  UNL     1      -7.421   6.887  16.773  1.00  0.00     0.010 C 
BRANCH  24  26
HETATM   26  C5  UNL     1      -7.310   6.381  14.270  1.00  0.00     0.040 C 
BRANCH  26  27
HETATM   27  C4  UNL     1      -7.719   4.994  13.739  1.00  0.00     0.141 C 
BRANCH  27  28
HETATM   28  C3  UNL     1      -6.671   4.417  12.816  1.00  0.00     0.009 C 
HETATM   29  C2  UNL     1      -6.544   3.123  12.447  1.00  0.00    -0.062 C 
HETATM   30  C1  UNL     1      -7.428   2.013  12.950  1.00  0.00     0.045 C 
BRANCH  29  31
HETATM   31  C30 UNL     1      -5.472   2.691  11.483  1.00  0.00     0.198 C 
BRANCH  31  32
HETATM   32  O3  UNL     1      -6.029   1.733  10.595  1.00  0.00    -0.397 OA
HETATM   33  H48 UNL     1      -5.313   1.457   9.999  1.00  0.00     0.209 HD
ENDBRANCH  31  32
ENDBRANCH  29  31
ENDBRANCH  27  28
BRANCH  27  34
HETATM   34  O1  UNL     1      -8.939   5.120  13.014  1.00  0.00    -0.392 OA
HETATM   35  H6  UNL     1      -8.714   5.195  12.070  1.00  0.00     0.210 HD
ENDBRANCH  27  34
ENDBRANCH  26  27
ENDBRANCH  24  26
ENDBRANCH   1  24
TORSDOF 7
ENDMDL
MODEL 3
REMARK minimizedAffinity -9.15262222
REMARK  7 active torsions:
REMARK  status: ('A' for Active; 'I' for Inactive)
REMARK    1  A    between atoms: C2_2  and  C30_32 
REMARK    2  A    between atoms: C3_3  and  C4_4 
REMARK    3  A    between atoms: C4_4  and  O1_5 
REMARK    4  A    between atoms: C4_4  and  C5_6 
REMARK    5  A    between atoms: C5_6  and  C6_7 
REMARK    6  A    between atoms: C6_7  and  C8_9 
REMARK    7  A    between atoms: C30_32  and  O3_33 
ROOT
HETATM    1  C8  UNL     1       0.517   7.674  12.977  1.00  0.00    -0.002 C 
HETATM    2  C9  UNL     1       0.578   6.493  11.960  1.00  0.00     0.007 C 
HETATM    3  C10 UNL     1      -0.785   5.776  11.997  1.00  0.00     0.015 C 
HETATM    4  C11 UNL     1      -1.488   6.340  13.245  1.00  0.00    -0.013 C 
HETATM    5  C12 UNL     1      -0.938   5.518  14.456  1.00  0.00     0.021 C 
HETATM    6  C13 UNL     1      -3.008   6.237  13.321  1.00  0.00    -0.070 C 
HETATM    7  C14 UNL     1      -3.684   5.208  12.780  1.00  0.00    -0.022 C 
HETATM    8  C15 UNL     1      -5.157   4.985  12.933  1.00  0.00     0.034 C 
HETATM    9  C16 UNL     1      -5.936   6.170  13.548  1.00  0.00     0.013 C 
HETATM   10  C17 UNL     1      -7.428   5.806  13.890  1.00  0.00     0.018 C 
HETATM   11  C18 UNL     1      -7.640   4.373  14.419  1.00  0.00     0.023 C 
HETATM   12  C19 UNL     1      -8.296   5.954  12.622  1.00  0.00     0.023 C 
HETATM   13  C20 UNL     1      -7.978   6.799  14.918  1.00  0.00     0.135 C 
HETATM   14  O2  UNL     1      -8.912   6.528  15.674  1.00  0.00    -0.297 OA
HETATM   15  C21 UNL     1      -7.378   8.176  14.906  1.00  0.00     0.080 C 
HETATM   16  C22 UNL     1      -5.890   8.133  15.220  1.00  0.00     0.017 C 
HETATM   17  C23 UNL     1      -5.125   6.871  14.704  1.00  0.00    -0.031 C 
HETATM   18  C24 UNL     1      -4.909   5.915  15.903  1.00  0.00     0.016 C 
HETATM   19  C25 UNL     1      -3.737   7.336  14.096  1.00  0.00     0.024 C 
HETATM   20  C26 UNL     1      -2.803   8.061  15.096  1.00  0.00     0.010 C 
HETATM   21  C27 UNL     1      -1.455   8.544  14.507  1.00  0.00     0.011 C 
HETATM   22  C28 UNL     1      -1.025   7.843  13.200  1.00  0.00    -0.029 C 
HETATM   23  C29 UNL     1      -1.604   8.638  11.986  1.00  0.00     0.016 C 
ENDROOT
BRANCH   1  24
HETATM   24  C6  UNL     1       1.394   8.887  12.524  1.00  0.00    -0.011 C 
HETATM   25  C7  UNL     1       1.864   9.732  13.711  1.00  0.00     0.010 C 
BRANCH  24  26
HETATM   26  C5  UNL     1       2.598   8.369  11.677  1.00  0.00     0.040 C 
BRANCH  26  27
HETATM   27  C4  UNL     1       3.848   7.950  12.476  1.00  0.00     0.141 C 
BRANCH  27  28
HETATM   28  C3  UNL     1       4.745   7.038  11.673  1.00  0.00     0.009 C 
HETATM   29  C2  UNL     1       6.051   6.777  11.908  1.00  0.00    -0.062 C 
HETATM   30  C1  UNL     1       6.850   7.411  13.015  1.00  0.00     0.045 C 
BRANCH  29  31
HETATM   31  C30 UNL     1       6.818   5.810  11.047  1.00  0.00     0.198 C 
BRANCH  31  32
HETATM   32  O3  UNL     1       5.890   4.957  10.396  1.00  0.00    -0.397 OA
HETATM   33  H48 UNL     1       6.411   4.332   9.864  1.00  0.00     0.209 HD
ENDBRANCH  31  32
ENDBRANCH  29  31
ENDBRANCH  27  28
BRANCH  27  34
HETATM   34  O1  UNL     1       3.434   7.257  13.650  1.00  0.00    -0.392 OA
HETATM   35  H6  UNL     1       3.481   6.304  13.461  1.00  0.00     0.210 HD
ENDBRANCH  27  34
ENDBRANCH  26  27
ENDBRANCH  24  26
ENDBRANCH   1  24
TORSDOF 7
ENDMDL
MODEL 4
REMARK minimizedAffinity -8.95619965
REMARK  7 active torsions:
REMARK  status: ('A' for Active; 'I' for Inactive)
REMARK    1  A    between atoms: C2_2  and  C30_32 
REMARK    2  A    between atoms: C3_3  and  C4_4 
REMARK    3  A    between atoms: C4_4  and  O1_5 
REMARK    4  A    between atoms: C4_4  and  C5_6 
REMARK    5  A    between atoms: C5_6  and  C6_7 
REMARK    6  A    between atoms: C6_7  and  C8_9 
REMARK    7  A    between atoms: C30_32  and  O3_33 
ROOT
HETATM    1  C8  UNL     1      -3.702   6.383  14.398  1.00  0.00    -0.002 C 
HETATM    2  C9  UNL     1      -4.139   5.104  13.620  1.00  0.00     0.007 C 
HETATM    3  C10 UNL     1      -5.677   5.120  13.523  1.00  0.00     0.015 C 
HETATM    4  C11 UNL     1      -6.117   6.219  14.508  1.00  0.00    -0.013 C 
HETATM    5  C12 UNL     1      -6.138   5.546  15.920  1.00  0.00     0.021 C 
HETATM    6  C13 UNL     1      -7.496   6.844  14.318  1.00  0.00    -0.070 C 
HETATM    7  C14 UNL     1      -8.540   6.143  13.840  1.00  0.00    -0.022 C 
HETATM    8  C15 UNL     1      -9.942   6.661  13.753  1.00  0.00     0.034 C 
HETATM    9  C16 UNL     1     -10.094   8.179  14.008  1.00  0.00     0.013 C 
HETATM   10  C17 UNL     1     -11.597   8.629  14.124  1.00  0.00     0.018 C 
HETATM   11  C18 UNL     1     -12.522   7.621  14.835  1.00  0.00     0.023 C 
HETATM   12  C19 UNL     1     -12.175   8.856  12.711  1.00  0.00     0.023 C 
HETATM   13  C20 UNL     1     -11.677   9.973  14.853  1.00  0.00     0.135 C 
HETATM   14  O2  UNL     1     -12.683  10.345  15.458  1.00  0.00    -0.297 OA
HETATM   15  C21 UNL     1     -10.484  10.878  14.723  1.00  0.00     0.080 C 
HETATM   16  C22 UNL     1      -9.237  10.233  15.309  1.00  0.00     0.017 C 
HETATM   17  C23 UNL     1      -9.143   8.680  15.161  1.00  0.00    -0.031 C 
HETATM   18  C24 UNL     1      -9.518   8.043  16.521  1.00  0.00     0.016 C 
HETATM   19  C25 UNL     1      -7.659   8.301  14.751  1.00  0.00     0.024 C 
HETATM   20  C26 UNL     1      -6.576   8.731  15.772  1.00  0.00     0.010 C 
HETATM   21  C27 UNL     1      -5.120   8.390  15.371  1.00  0.00     0.011 C 
HETATM   22  C28 UNL     1      -4.980   7.285  14.301  1.00  0.00    -0.029 C 
HETATM   23  C29 UNL     1      -4.996   7.947  12.885  1.00  0.00     0.016 C 
ENDROOT
BRANCH   1  24
HETATM   24  C6  UNL     1      -2.311   6.916  13.919  1.00  0.00    -0.011 C 
HETATM   25  C7  UNL     1      -1.657   7.828  14.960  1.00  0.00     0.010 C 
BRANCH  24  26
HETATM   26  C5  UNL     1      -1.391   5.710  13.555  1.00  0.00     0.040 C 
BRANCH  26  27
HETATM   27  C4  UNL     1      -1.190   5.451  12.050  1.00  0.00     0.141 C 
BRANCH  27  28
HETATM   28  C3  UNL     1      -0.963   3.986  11.759  1.00  0.00     0.009 C 
HETATM   29  C2  UNL     1      -1.753   3.177  11.019  1.00  0.00    -0.062 C 
HETATM   30  C1  UNL     1      -3.048   3.613  10.386  1.00  0.00     0.045 C 
BRANCH  29  31
HETATM   31  C30 UNL     1      -1.383   1.738  10.776  1.00  0.00     0.198 C 
BRANCH  31  32
HETATM   32  O3  UNL     1       0.026   1.614  10.883  1.00  0.00    -0.397 OA
HETATM   33  H48 UNL     1       0.239   0.683  10.702  1.00  0.00     0.209 HD
ENDBRANCH  31  32
ENDBRANCH  29  31
ENDBRANCH  27  28
BRANCH  27  34
HETATM   34  O1  UNL     1      -0.050   6.181  11.604  1.00  0.00    -0.392 OA
HETATM   35  H6  UNL     1       0.709   5.573  11.607  1.00  0.00     0.210 HD
ENDBRANCH  27  34
ENDBRANCH  26  27
ENDBRANCH  24  26
ENDBRANCH   1  24
TORSDOF 7
ENDMDL
MODEL 5
REMARK minimizedAffinity -8.94723415
REMARK  7 active torsions:
REMARK  status: ('A' for Active; 'I' for Inactive)
REMARK    1  A    between atoms: C2_2  and  C30_32 
REMARK    2  A    between atoms: C3_3  and  C4_4 
REMARK    3  A    between atoms: C4_4  and  O1_5 
REMARK    4  A    between atoms: C4_4  and  C5_6 
REMARK    5  A    between atoms: C5_6  and  C6_7 
REMARK    6  A    between atoms: C6_7  and  C8_9 
REMARK    7  A    between atoms: C30_32  and  O3_33 
ROOT
HETATM    1  C8  UNL     1      -3.883   6.054  13.041  1.00  0.00    -0.002 C 
HETATM    2  C9  UNL     1      -2.411   5.560  12.884  1.00  0.00     0.007 C 
HETATM    3  C10 UNL     1      -1.506   6.544  13.648  1.00  0.00     0.015 C 
HETATM    4  C11 UNL     1      -2.414   7.749  13.957  1.00  0.00    -0.013 C 
HETATM    5  C12 UNL     1      -2.410   8.631  12.666  1.00  0.00     0.021 C 
HETATM    6  C13 UNL     1      -2.014   8.675  15.101  1.00  0.00    -0.070 C 
HETATM    7  C14 UNL     1      -0.727   8.917  15.411  1.00  0.00    -0.022 C 
HETATM    8  C15 UNL     1      -0.272   9.911  16.434  1.00  0.00     0.034 C 
HETATM    9  C16 UNL     1      -1.394  10.484  17.331  1.00  0.00     0.013 C 
HETATM   10  C17 UNL     1      -0.903  11.678  18.231  1.00  0.00     0.018 C 
HETATM   11  C18 UNL     1       0.117  12.619  17.559  1.00  0.00     0.023 C 
HETATM   12  C19 UNL     1      -0.233  11.119  19.504  1.00  0.00     0.023 C 
HETATM   13  C20 UNL     1      -2.107  12.503  18.694  1.00  0.00     0.135 C 
HETATM   14  O2  UNL     1      -2.019  13.687  19.019  1.00  0.00    -0.297 OA
HETATM   15  C21 UNL     1      -3.412  11.770  18.821  1.00  0.00     0.080 C 
HETATM   16  C22 UNL     1      -3.863  11.209  17.481  1.00  0.00     0.017 C 
HETATM   17  C23 UNL     1      -2.721  10.744  16.521  1.00  0.00    -0.031 C 
HETATM   18  C24 UNL     1      -2.521  11.838  15.444  1.00  0.00     0.016 C 
HETATM   19  C25 UNL     1      -3.148   9.370  15.856  1.00  0.00     0.024 C 
HETATM   20  C26 UNL     1      -4.451   9.432  15.021  1.00  0.00     0.010 C 
HETATM   21  C27 UNL     1      -4.893   8.090  14.388  1.00  0.00     0.011 C 
HETATM   22  C28 UNL     1      -3.778   7.029  14.263  1.00  0.00    -0.029 C 
HETATM   23  C29 UNL     1      -3.751   6.168  15.566  1.00  0.00     0.016 C 
ENDROOT
BRANCH   1  24
HETATM   24  C6  UNL     1      -4.903   4.868  13.052  1.00  0.00    -0.011 C 
HETATM   25  C7  UNL     1      -6.336   5.346  13.301  1.00  0.00     0.010 C 
BRANCH  24  26
HETATM   26  C5  UNL     1      -4.788   4.073  11.714  1.00  0.00     0.040 C 
BRANCH  26  27
HETATM   27  C4  UNL     1      -4.817   2.538  11.843  1.00  0.00     0.141 C 
BRANCH  27  28
HETATM   28  C3  UNL     1      -3.429   1.945  11.772  1.00  0.00     0.009 C 
HETATM   29  C2  UNL     1      -2.414   2.356  10.981  1.00  0.00    -0.062 C 
HETATM   30  C1  UNL     1      -2.525   3.477   9.982  1.00  0.00     0.045 C 
BRANCH  29  31
HETATM   31  C30 UNL     1      -1.062   1.697  11.044  1.00  0.00     0.198 C 
BRANCH  31  32
HETATM   32  O3  UNL     1      -1.126   0.477  10.321  1.00  0.00    -0.397 OA
HETATM   33  H48 UNL     1      -0.249   0.064  10.394  1.00  0.00     0.209 HD
ENDBRANCH  31  32
ENDBRANCH  29  31
ENDBRANCH  27  28
BRANCH  27  34
HETATM   34  O1  UNL     1      -5.592   2.000  10.775  1.00  0.00    -0.392 OA
HETATM   35  H6  UNL     1      -4.977   1.730  10.071  1.00  0.00     0.210 HD
ENDBRANCH  27  34
ENDBRANCH  26  27
ENDBRANCH  24  26
ENDBRANCH   1  24
TORSDOF 7
ENDMDL
MODEL 6
REMARK minimizedAffinity -8.87173843
REMARK  7 active torsions:
REMARK  status: ('A' for Active; 'I' for Inactive)
REMARK    1  A    between atoms: C2_2  and  C30_32 
REMARK    2  A    between atoms: C3_3  and  C4_4 
REMARK    3  A    between atoms: C4_4  and  O1_5 
REMARK    4  A    between atoms: C4_4  and  C5_6 
REMARK    5  A    between atoms: C5_6  and  C6_7 
REMARK    6  A    between atoms: C6_7  and  C8_9 
REMARK    7  A    between atoms: C30_32  and  O3_33 
ROOT
HETATM    1  C8  UNL     1      -3.815   6.183  12.794  1.00  0.00    -0.002 C 
HETATM    2  C9  UNL     1      -2.336   5.717  12.625  1.00  0.00     0.007 C 
HETATM    3  C10 UNL     1      -1.448   6.680  13.437  1.00  0.00     0.015 C 
HETATM    4  C11 UNL     1      -2.375   7.857  13.792  1.00  0.00    -0.013 C 
HETATM    5  C12 UNL     1      -2.376   8.795  12.540  1.00  0.00     0.021 C 
HETATM    6  C13 UNL     1      -1.995   8.738  14.978  1.00  0.00    -0.070 C 
HETATM    7  C14 UNL     1      -0.714   8.984  15.306  1.00  0.00    -0.022 C 
HETATM    8  C15 UNL     1      -0.279   9.939  16.374  1.00  0.00     0.034 C 
HETATM    9  C16 UNL     1      -1.413  10.457  17.288  1.00  0.00     0.013 C 
HETATM   10  C17 UNL     1      -0.944  11.617  18.242  1.00  0.00     0.018 C 
HETATM   11  C18 UNL     1       0.066  12.600  17.618  1.00  0.00     0.023 C 
HETATM   12  C19 UNL     1      -0.275  11.012  19.494  1.00  0.00     0.023 C 
HETATM   13  C20 UNL     1      -2.163  12.404  18.732  1.00  0.00     0.135 C 
HETATM   14  O2  UNL     1      -2.093  13.575  19.109  1.00  0.00    -0.297 OA
HETATM   15  C21 UNL     1      -3.459  11.648  18.819  1.00  0.00     0.080 C 
HETATM   16  C22 UNL     1      -3.894  11.140  17.453  1.00  0.00     0.017 C 
HETATM   17  C23 UNL     1      -2.739  10.733  16.482  1.00  0.00    -0.031 C 
HETATM   18  C24 UNL     1      -2.549  11.876  15.454  1.00  0.00     0.016 C 
HETATM   19  C25 UNL     1      -3.143   9.384  15.755  1.00  0.00     0.024 C 
HETATM   20  C26 UNL     1      -4.442   9.464  14.915  1.00  0.00     0.010 C 
HETATM   21  C27 UNL     1      -4.862   8.145  14.221  1.00  0.00     0.011 C 
HETATM   22  C28 UNL     1      -3.731   7.106  14.057  1.00  0.00    -0.029 C 
HETATM   23  C29 UNL     1      -3.700   6.189  15.322  1.00  0.00     0.016 C 
ENDROOT
BRANCH   1  24
HETATM   24  C6  UNL     1      -4.818   4.984  12.746  1.00  0.00    -0.011 C 
HETATM   25  C7  UNL     1      -4.103   3.633  12.823  1.00  0.00     0.010 C 
BRANCH  24  26
HETATM   26  C5  UNL     1      -5.869   5.142  13.889  1.00  0.00     0.040 C 
BRANCH  26  27
HETATM   27  C4  UNL     1      -7.115   4.242  13.782  1.00  0.00     0.141 C 
BRANCH  27  28
HETATM   28  C3  UNL     1      -8.117   4.788  12.792  1.00  0.00     0.009 C 
HETATM   29  C2  UNL     1      -8.842   5.921  12.919  1.00  0.00    -0.062 C 
HETATM   30  C1  UNL     1      -8.797   6.821  14.126  1.00  0.00     0.045 C 
BRANCH  29  31
HETATM   31  C30 UNL     1      -9.779   6.372  11.830  1.00  0.00     0.198 C 
BRANCH  31  32
HETATM   32  O3  UNL     1      -9.168   6.106  10.577  1.00  0.00    -0.397 OA
HETATM   33  H48 UNL     1      -9.783   6.424   9.894  1.00  0.00     0.209 HD
ENDBRANCH  31  32
ENDBRANCH  29  31
ENDBRANCH  27  28
BRANCH  27  34
HETATM   34  O1  UNL     1      -7.739   4.165  15.061  1.00  0.00    -0.392 OA
HETATM   35  H6  UNL     1      -8.459   4.820  15.077  1.00  0.00     0.210 HD
ENDBRANCH  27  34
ENDBRANCH  26  27
ENDBRANCH  24  26
ENDBRANCH   1  24
TORSDOF 7
ENDMDL
MODEL 7
REMARK minimizedAffinity -8.82125473
REMARK  7 active torsions:
REMARK  status: ('A' for Active; 'I' for Inactive)
REMARK    1  A    between atoms: C2_2  and  C30_32 
REMARK    2  A    between atoms: C3_3  and  C4_4 
REMARK    3  A    between atoms: C4_4  and  O1_5 
REMARK    4  A    between atoms: C4_4  and  C5_6 
REMARK    5  A    between atoms: C5_6  and  C6_7 
REMARK    6  A    between atoms: C6_7  and  C8_9 
REMARK    7  A    between atoms: C30_32  and  O3_33 
ROOT
HETATM    1  C8  UNL     1      -5.518   7.013  15.094  1.00  0.00    -0.002 C 
HETATM    2  C9  UNL     1      -5.860   8.403  14.474  1.00  0.00     0.007 C 
HETATM    3  C10 UNL     1      -4.636   8.863  13.660  1.00  0.00     0.015 C 
HETATM    4  C11 UNL     1      -3.507   7.903  14.078  1.00  0.00    -0.013 C 
HETATM    5  C12 UNL     1      -2.928   8.477  15.412  1.00  0.00     0.021 C 
HETATM    6  C13 UNL     1      -2.317   7.742  13.137  1.00  0.00    -0.070 C 
HETATM    7  C14 UNL     1      -1.866   8.751  12.372  1.00  0.00    -0.022 C 
HETATM    8  C15 UNL     1      -0.629   8.693  11.530  1.00  0.00     0.034 C 
HETATM    9  C16 UNL     1      -0.011   7.284  11.376  1.00  0.00     0.013 C 
HETATM   10  C17 UNL     1       1.397   7.311  10.673  1.00  0.00     0.018 C 
HETATM   11  C18 UNL     1       2.284   8.516  11.046  1.00  0.00     0.023 C 
HETATM   12  C19 UNL     1       1.206   7.344   9.142  1.00  0.00     0.023 C 
HETATM   13  C20 UNL     1       2.156   6.020  10.993  1.00  0.00     0.135 C 
HETATM   14  O2  UNL     1       3.385   5.944  10.962  1.00  0.00    -0.297 OA
HETATM   15  C21 UNL     1       1.321   4.802  11.268  1.00  0.00     0.080 C 
HETATM   16  C22 UNL     1       0.437   5.002  12.489  1.00  0.00     0.017 C 
HETATM   17  C23 UNL     1      -0.088   6.457  12.715  1.00  0.00    -0.031 C 
HETATM   18  C24 UNL     1       0.766   7.109  13.831  1.00  0.00     0.016 C 
HETATM   19  C25 UNL     1      -1.612   6.384  13.142  1.00  0.00     0.024 C 
HETATM   20  C26 UNL     1      -1.882   5.592  14.445  1.00  0.00     0.010 C 
HETATM   21  C27 UNL     1      -3.371   5.490  14.858  1.00  0.00     0.011 C 
HETATM   22  C28 UNL     1      -4.297   6.552  14.226  1.00  0.00    -0.029 C 
HETATM   23  C29 UNL     1      -4.849   6.000  12.873  1.00  0.00     0.016 C 
ENDROOT
BRANCH   1  24
HETATM   24  C6  UNL     1      -6.784   6.105  15.236  1.00  0.00    -0.011 C 
HETATM   25  C7  UNL     1      -7.425   6.226  16.621  1.00  0.00     0.010 C 
BRANCH  24  26
HETATM   26  C5  UNL     1      -7.799   6.449  14.103  1.00  0.00     0.040 C 
BRANCH  26  27
HETATM   27  C4  UNL     1      -9.281   6.500  14.523  1.00  0.00     0.141 C 
BRANCH  27  28
HETATM   28  C3  UNL     1      -9.921   7.819  14.159  1.00  0.00     0.009 C 
HETATM   29  C2  UNL     1     -10.169   8.854  14.992  1.00  0.00    -0.062 C 
HETATM   30  C1  UNL     1      -9.876   8.835  16.469  1.00  0.00     0.045 C 
BRANCH  29  31
HETATM   31  C30 UNL     1     -10.778  10.133  14.485  1.00  0.00     0.198 C 
BRANCH  31  32
HETATM   32  O3  UNL     1     -11.335   9.885  13.203  1.00  0.00    -0.397 OA
HETATM   33  H48 UNL     1     -11.702  10.730  12.891  1.00  0.00     0.209 HD
ENDBRANCH  31  32
ENDBRANCH  29  31
ENDBRANCH  27  28
BRANCH  27  34
HETATM   34  O1  UNL     1      -9.366   6.331  15.935  1.00  0.00    -0.392 OA
HETATM   35  H6  UNL     1      -9.429   7.216  16.335  1.00  0.00     0.210 HD
ENDBRANCH  27  34
ENDBRANCH  26  27
ENDBRANCH  24  26
ENDBRANCH   1  24
TORSDOF 7
ENDMDL
MODEL 8
REMARK minimizedAffinity -8.54122066
REMARK  7 active torsions:
REMARK  status: ('A' for Active; 'I' for Inactive)
REMARK    1  A    between atoms: C2_2  and  C30_32 
REMARK    2  A    between atoms: C3_3  and  C4_4 
REMARK    3  A    between atoms: C4_4  and  O1_5 
REMARK    4  A    between atoms: C4_4  and  C5_6 
REMARK    5  A    between atoms: C5_6  and  C6_7 
REMARK    6  A    between atoms: C6_7  and  C8_9 
REMARK    7  A    between atoms: C30_32  and  O3_33 
ROOT
HETATM    1  C8  UNL     1      -2.487   8.814  15.679  1.00  0.00    -0.002 C 
HETATM    2  C9  UNL     1      -1.367   9.341  16.629  1.00  0.00     0.007 C 
HETATM    3  C10 UNL     1      -0.011   9.044  15.961  1.00  0.00     0.015 C 
HETATM    4  C11 UNL     1      -0.348   8.078  14.810  1.00  0.00    -0.013 C 
HETATM    5  C12 UNL     1      -0.427   6.655  15.454  1.00  0.00     0.021 C 
HETATM    6  C13 UNL     1       0.643   7.963  13.655  1.00  0.00    -0.070 C 
HETATM    7  C14 UNL     1       1.969   8.097  13.833  1.00  0.00    -0.022 C 
HETATM    8  C15 UNL     1       2.996   7.868  12.768  1.00  0.00     0.034 C 
HETATM    9  C16 UNL     1       2.430   7.715  11.338  1.00  0.00     0.013 C 
HETATM   10  C17 UNL     1       3.520   7.258  10.298  1.00  0.00     0.018 C 
HETATM   11  C18 UNL     1       4.552   6.251  10.842  1.00  0.00     0.023 C 
HETATM   12  C19 UNL     1       4.306   8.492   9.804  1.00  0.00     0.023 C 
HETATM   13  C20 UNL     1       2.836   6.652   9.069  1.00  0.00     0.135 C 
HETATM   14  O2  UNL     1       3.395   5.845   8.325  1.00  0.00    -0.297 OA
HETATM   15  C21 UNL     1       1.458   7.159   8.750  1.00  0.00     0.080 C 
HETATM   16  C22 UNL     1       0.485   6.857   9.879  1.00  0.00     0.017 C 
HETATM   17  C23 UNL     1       1.087   6.890  11.321  1.00  0.00    -0.031 C 
HETATM   18  C24 UNL     1       1.314   5.429  11.782  1.00  0.00     0.016 C 
HETATM   19  C25 UNL     1       0.064   7.630  12.279  1.00  0.00     0.024 C 
HETATM   20  C26 UNL     1      -1.329   6.960  12.379  1.00  0.00     0.010 C 
HETATM   21  C27 UNL     1      -2.347   7.689  13.292  1.00  0.00     0.011 C 
HETATM   22  C28 UNL     1      -1.724   8.659  14.318  1.00  0.00    -0.029 C 
HETATM   23  C29 UNL     1      -1.606  10.076  13.668  1.00  0.00     0.016 C 
ENDROOT
BRANCH   1  24
HETATM   24  C6  UNL     1      -3.789   9.675  15.770  1.00  0.00    -0.011 C 
HETATM   25  C7  UNL     1      -3.493  11.175  15.677  1.00  0.00     0.010 C 
BRANCH  24  26
HETATM   26  C5  UNL     1      -4.791   9.219  14.665  1.00  0.00     0.040 C 
BRANCH  26  27
HETATM   27  C4  UNL     1      -5.991   8.384  15.151  1.00  0.00     0.141 C 
BRANCH  27  28
HETATM   28  C3  UNL     1      -6.166   7.126  14.332  1.00  0.00     0.009 C 
HETATM   29  C2  UNL     1      -6.775   5.985  14.724  1.00  0.00    -0.062 C 
HETATM   30  C1  UNL     1      -7.353   5.767  16.097  1.00  0.00     0.045 C 
BRANCH  29  31
HETATM   31  C30 UNL     1      -6.916   4.817  13.785  1.00  0.00     0.198 C 
BRANCH  31  32
HETATM   32  O3  UNL     1      -7.721   3.833  14.415  1.00  0.00    -0.397 OA
HETATM   33  H48 UNL     1      -7.779   3.083  13.798  1.00  0.00     0.209 HD
ENDBRANCH  31  32
ENDBRANCH  29  31
ENDBRANCH  27  28
BRANCH  27  34
HETATM   34  O1  UNL     1      -7.176   9.167  15.035  1.00  0.00    -0.392 OA
HETATM   35  H6  UNL     1      -7.605   8.929  14.195  1.00  0.00     0.210 HD
ENDBRANCH  27  34
ENDBRANCH  26  27
ENDBRANCH  24  26
ENDBRANCH   1  24
TORSDOF 7
ENDMDL
MODEL 9
REMARK minimizedAffinity -8.45247555
REMARK  7 active torsions:
REMARK  status: ('A' for Active; 'I' for Inactive)
REMARK    1  A    between atoms: C2_2  and  C30_32 
REMARK    2  A    between atoms: C3_3  and  C4_4 
REMARK    3  A    between atoms: C4_4  and  O1_5 
REMARK    4  A    between atoms: C4_4  and  C5_6 
REMARK    5  A    between atoms: C5_6  and  C6_7 
REMARK    6  A    between atoms: C6_7  and  C8_9 
REMARK    7  A    between atoms: C30_32  and  O3_33 
ROOT
HETATM    1  C8  UNL     1      -3.109   6.927  14.292  1.00  0.00    -0.002 C 
HETATM    2  C9  UNL     1      -3.331   5.657  13.414  1.00  0.00     0.007 C 
HETATM    3  C10 UNL     1      -4.851   5.446  13.276  1.00  0.00     0.015 C 
HETATM    4  C11 UNL     1      -5.471   6.389  14.323  1.00  0.00    -0.013 C 
HETATM    5  C12 UNL     1      -5.412   5.618  15.683  1.00  0.00     0.021 C 
HETATM    6  C13 UNL     1      -6.926   6.808  14.140  1.00  0.00    -0.070 C 
HETATM    7  C14 UNL     1      -7.842   5.994  13.585  1.00  0.00    -0.022 C 
HETATM    8  C15 UNL     1      -9.305   6.297  13.496  1.00  0.00     0.034 C 
HETATM    9  C16 UNL     1      -9.693   7.750  13.852  1.00  0.00     0.013 C 
HETATM   10  C17 UNL     1     -11.250   7.956  13.958  1.00  0.00     0.018 C 
HETATM   11  C18 UNL     1     -12.020   6.769  14.571  1.00  0.00     0.023 C 
HETATM   12  C19 UNL     1     -11.833   8.196  12.549  1.00  0.00     0.023 C 
HETATM   13  C20 UNL     1     -11.549   9.215  14.777  1.00  0.00     0.135 C 
HETATM   14  O2  UNL     1     -12.610   9.384  15.379  1.00  0.00    -0.297 OA
HETATM   15  C21 UNL     1     -10.507  10.298  14.745  1.00  0.00     0.080 C 
HETATM   16  C22 UNL     1      -9.186   9.810  15.318  1.00  0.00     0.017 C 
HETATM   17  C23 UNL     1      -8.851   8.305  15.063  1.00  0.00    -0.031 C 
HETATM   18  C24 UNL     1      -9.146   7.519  16.365  1.00  0.00     0.016 C 
HETATM   19  C25 UNL     1      -7.320   8.188  14.670  1.00  0.00     0.024 C 
HETATM   20  C26 UNL     1      -6.333   8.701  15.747  1.00  0.00     0.010 C 
HETATM   21  C27 UNL     1      -4.835   8.617  15.364  1.00  0.00     0.011 C 
HETATM   22  C28 UNL     1      -4.509   7.628  14.223  1.00  0.00    -0.029 C 
HETATM   23  C29 UNL     1      -4.603   8.383  12.858  1.00  0.00     0.016 C 
ENDROOT
BRANCH   1  24
HETATM   24  C6  UNL     1      -1.809   7.699  13.890  1.00  0.00    -0.011 C 
HETATM   25  C7  UNL     1      -0.826   7.815  15.058  1.00  0.00     0.010 C 
BRANCH  24  26
HETATM   26  C5  UNL     1      -1.154   7.005  12.656  1.00  0.00     0.040 C 
BRANCH  26  27
HETATM   27  C4  UNL     1      -0.718   7.942  11.514  1.00  0.00     0.141 C 
BRANCH  27  28
HETATM   28  C3  UNL     1       0.255   7.266  10.576  1.00  0.00     0.009 C 
HETATM   29  C2  UNL     1       1.417   6.665  10.914  1.00  0.00    -0.062 C 
HETATM   30  C1  UNL     1       1.963   6.614  12.317  1.00  0.00     0.045 C 
BRANCH  29  31
HETATM   31  C30 UNL     1       2.275   5.991   9.877  1.00  0.00     0.198 C 
BRANCH  31  32
HETATM   32  O3  UNL     1       3.385   5.397  10.532  1.00  0.00    -0.397 OA
HETATM   33  H48 UNL     1       3.931   4.987   9.839  1.00  0.00     0.209 HD
ENDBRANCH  31  32
ENDBRANCH  29  31
ENDBRANCH  27  28
BRANCH  27  34
HETATM   34  O1  UNL     1      -0.083   9.088  12.074  1.00  0.00    -0.392 OA
HETATM   35  H6  UNL     1       0.878   8.936  12.047  1.00  0.00     0.210 HD
ENDBRANCH  27  34
ENDBRANCH  26  27
ENDBRANCH  24  26
ENDBRANCH   1  24
TORSDOF 7
ENDMDL
