MODEL 1
REMARK minimizedAffinity -7.0568347
REMARK CNNscore 0.845187128
REMARK CNNaffinity 6.610044
REMARK  12 active torsions:
REMARK  status: ('A' for Active; 'I' for Inactive)
REMARK    1  A    between atoms: O1_2  and  P1_3 
REMARK    2  A    between atoms: P1_3  and  O3_5 
REMARK    3  A    between atoms: P1_3  and  O4_6 
REMARK    4  A    between atoms: O4_6  and  C2_7 
REMARK    5  A    between atoms: C4_10  and  C5_11 
REMARK    6  A    between atoms: C5_11  and  C7_13 
REMARK    7  A    between atoms: C20_26  and  O6_27 
REMARK    8  A    between atoms: C21_28  and  O7_29 
REMARK    9  A    between atoms: C23_31  and  O8_32 
REMARK   10  A    between atoms: C24_33  and  O9_34 
REMARK   11  A    between atoms: O9_34  and  S1_35 
REMARK   12  A    between atoms: S1_35  and  O12_38 
ROOT
HETATM    1  C2  UNL     1       0.277  11.417  16.664  1.00  0.00     0.168 C 
HETATM    2  C3  UNL     1      -0.845  11.971  17.568  1.00  0.00     0.157 C 
HETATM    3  O5  UNL     1      -0.637  13.319  17.960  1.00  0.00    -0.377 OA
HETATM    4  C4  UNL     1      -1.795  13.994  18.481  1.00  0.00     0.126 C 
HETATM    5  C10 UNL     1      -2.955  13.023  18.822  1.00  0.00     0.037 C 
HETATM    6  C11 UNL     1      -3.329  12.038  17.689  1.00  0.00    -0.009 C 
HETATM    7  C12 UNL     1      -4.608  12.467  16.968  1.00  0.00     0.010 C 
HETATM    8  C13 UNL     1      -2.135  11.871  16.741  1.00  0.00     0.030 C 
HETATM    9  C14 UNL     1      -1.927  10.581  15.916  1.00  0.00    -0.031 C 
HETATM   10  C15 UNL     1      -2.101   9.305  16.769  1.00  0.00     0.016 C 
HETATM   11  C16 UNL     1      -2.778  10.488  14.643  1.00  0.00     0.010 C 
HETATM   12  C17 UNL     1      -2.325   9.334  13.730  1.00  0.00     0.007 C 
HETATM   13  C18 UNL     1      -0.797   9.297  13.443  1.00  0.00     0.001 C 
HETATM   14  C19 UNL     1       0.114   9.654  14.658  1.00  0.00     0.029 C 
HETATM   15  C20 UNL     1       1.546   9.966  14.153  1.00  0.00     0.152 C 
HETATM   16  C21 UNL     1       1.921   9.173  12.883  1.00  0.00     0.154 C 
HETATM   17  C22 UNL     1       1.265   7.782  12.920  1.00  0.00     0.057 C 
HETATM   18  C23 UNL     1       1.926   6.757  11.971  1.00  0.00     0.156 C 
HETATM   19  C24 UNL     1       1.556   6.974  10.502  1.00  0.00     0.173 C 
HETATM   20  C25 UNL     1       0.033   7.007  10.333  1.00  0.00     0.037 C 
HETATM   21  C26 UNL     1      -0.630   8.068  11.213  1.00  0.00     0.012 C 
HETATM   22  C27 UNL     1      -0.291   7.960  12.730  1.00  0.00    -0.031 C 
HETATM   23  C28 UNL     1      -1.014   6.724  13.323  1.00  0.00     0.016 C 
HETATM   24  C29 UNL     1      -0.471  10.840  15.441  1.00  0.00     0.033 C 
ENDROOT
BRANCH   1  25
HETATM   25  O4  UNL     1       1.007  10.389  17.316  1.00  0.00    -0.288 OA
BRANCH  25  26
HETATM   26  P1  UNL     1       2.171  10.789  18.351  1.00  0.00     0.393 P 
HETATM   27  O2  UNL     1       3.537  10.387  17.897  1.00  0.00    -0.631 OA
BRANCH  26  28
HETATM   28  O1  UNL     1       1.732  10.216  19.777  1.00  0.00    -0.302 OA
HETATM   29  C1  UNL     1       1.971  11.058  20.887  1.00  0.00     0.214 C 
ENDBRANCH  26  28
BRANCH  26  30
HETATM   30  O3  UNL     1       2.060  12.378  18.525  1.00  0.00    -0.307 OA
HETATM   31  H4  UNL     1       2.953  12.763  18.602  1.00  0.00     0.222 HD
ENDBRANCH  26  30
ENDBRANCH  25  26
ENDBRANCH   1  25
BRANCH   4  32
HETATM   32  C5  UNL     1      -2.191  15.175  17.542  1.00  0.00     0.014 C 
HETATM   33  C6  UNL     1      -2.319  16.488  18.334  1.00  0.00     0.013 C 
BRANCH  32  34
HETATM   34  C7  UNL     1      -1.251  15.404  16.315  1.00  0.00    -0.017 C 
HETATM   35  C8  UNL     1      -0.678  16.825  16.263  1.00  0.00     0.010 C 
HETATM   36  C9  UNL     1      -1.888  15.038  14.972  1.00  0.00     0.010 C 
ENDBRANCH  32  34
ENDBRANCH   4  32
BRANCH  15  37
HETATM   37  O6  UNL     1       2.535   9.642  15.141  1.00  0.00    -0.393 OA
HETATM   38  H36 UNL     1       2.138   9.052  15.811  1.00  0.00     0.210 HD
ENDBRANCH  15  37
BRANCH  16  39
HETATM   39  O7  UNL     1       3.354   9.096  12.774  1.00  0.00    -0.392 OA
HETATM   40  H38 UNL     1       3.654   9.161  13.712  1.00  0.00     0.210 HD
ENDBRANCH  16  39
BRANCH  18  41
HETATM   41  O8  UNL     1       1.566   5.423  12.337  1.00  0.00    -0.392 OA
HETATM   42  H41 UNL     1       2.087   5.179  13.120  1.00  0.00     0.210 HD
ENDBRANCH  18  41
BRANCH  19  43
HETATM   43  O9  UNL     1       2.104   8.201  10.033  1.00  0.00    -0.256 OA
BRANCH  43  44
HETATM   44  S1  UNL     1       3.447   8.173   9.119  1.00  0.00     0.240 S 
HETATM   45  O10 UNL     1       3.174   8.803   7.847  1.00  0.00    -0.579 OA
HETATM   46  O11 UNL     1       4.555   8.590   9.939  1.00  0.00    -0.579 OA
BRANCH  44  47
HETATM   47  O12 UNL     1       3.612   6.602   8.820  1.00  0.00    -0.274 OA
HETATM   48  H43 UNL     1       2.760   6.267   8.440  1.00  0.00     0.234 HD
ENDBRANCH  44  47
ENDBRANCH  43  44
ENDBRANCH  19  43
TORSDOF 12
ENDMDL
MODEL 2
REMARK minimizedAffinity -8.7575922
REMARK CNNscore 0.581768394
REMARK CNNaffinity 6.95737696
REMARK  12 active torsions:
REMARK  status: ('A' for Active; 'I' for Inactive)
REMARK    1  A    between atoms: O1_2  and  P1_3 
REMARK    2  A    between atoms: P1_3  and  O3_5 
REMARK    3  A    between atoms: P1_3  and  O4_6 
REMARK    4  A    between atoms: O4_6  and  C2_7 
REMARK    5  A    between atoms: C4_10  and  C5_11 
REMARK    6  A    between atoms: C5_11  and  C7_13 
REMARK    7  A    between atoms: C20_26  and  O6_27 
REMARK    8  A    between atoms: C21_28  and  O7_29 
REMARK    9  A    between atoms: C23_31  and  O8_32 
REMARK   10  A    between atoms: C24_33  and  O9_34 
REMARK   11  A    between atoms: O9_34  and  S1_35 
REMARK   12  A    between atoms: S1_35  and  O12_38 
ROOT
HETATM    1  C2  UNL     1       1.439   6.188  12.657  1.00  0.00     0.168 C 
HETATM    2  C3  UNL     1       2.462   6.667  11.605  1.00  0.00     0.157 C 
HETATM    3  O5  UNL     1       3.164   5.604  10.980  1.00  0.00    -0.377 OA
HETATM    4  C4  UNL     1       3.845   5.950   9.761  1.00  0.00     0.126 C 
HETATM    5  C10 UNL     1       3.956   7.481   9.547  1.00  0.00     0.037 C 
HETATM    6  C11 UNL     1       2.623   8.254   9.696  1.00  0.00    -0.009 C 
HETATM    7  C12 UNL     1       2.041   8.641   8.336  1.00  0.00     0.010 C 
HETATM    8  C13 UNL     1       1.650   7.434  10.552  1.00  0.00     0.030 C 
HETATM    9  C14 UNL     1       0.537   8.107  11.385  1.00  0.00    -0.031 C 
HETATM   10  C15 UNL     1       1.059   9.314  12.196  1.00  0.00     0.016 C 
HETATM   11  C16 UNL     1      -0.712   8.506  10.589  1.00  0.00     0.010 C 
HETATM   12  C17 UNL     1      -1.880   8.904  11.508  1.00  0.00     0.007 C 
HETATM   13  C18 UNL     1      -2.185   7.887  12.644  1.00  0.00     0.001 C 
HETATM   14  C19 UNL     1      -0.930   7.245  13.312  1.00  0.00     0.029 C 
HETATM   15  C20 UNL     1      -1.361   5.994  14.121  1.00  0.00     0.152 C 
HETATM   16  C21 UNL     1      -2.789   6.113  14.695  1.00  0.00     0.154 C 
HETATM   17  C22 UNL     1      -3.080   7.575  15.078  1.00  0.00     0.057 C 
HETATM   18  C23 UNL     1      -4.255   7.736  16.069  1.00  0.00     0.156 C 
HETATM   19  C24 UNL     1      -5.624   7.558  15.410  1.00  0.00     0.173 C 
HETATM   20  C25 UNL     1      -5.764   8.494  14.204  1.00  0.00     0.037 C 
HETATM   21  C26 UNL     1      -4.647   8.296  13.178  1.00  0.00     0.012 C 
HETATM   22  C27 UNL     1      -3.205   8.422  13.753  1.00  0.00    -0.031 C 
HETATM   23  C28 UNL     1      -2.918   9.909  14.079  1.00  0.00     0.016 C 
HETATM   24  C29 UNL     1       0.121   6.887  12.251  1.00  0.00     0.033 C 
ENDROOT
BRANCH   1  25
HETATM   25  O4  UNL     1       1.816   6.588  13.966  1.00  0.00    -0.288 OA
BRANCH  25  26
HETATM   26  P1  UNL     1       3.053   7.601  14.151  1.00  0.00     0.393 P 
HETATM   27  O2  UNL     1       2.639   9.033  14.258  1.00  0.00    -0.631 OA
BRANCH  26  28
HETATM   28  O1  UNL     1       4.089   7.277  12.977  1.00  0.00    -0.302 OA
HETATM   29  C1  UNL     1       5.448   7.548  13.255  1.00  0.00     0.214 C 
ENDBRANCH  26  28
BRANCH  26  30
HETATM   30  O3  UNL     1       3.809   7.113  15.476  1.00  0.00    -0.307 OA
HETATM   31  H4  UNL     1       4.130   7.888  15.975  1.00  0.00     0.222 HD
ENDBRANCH  26  30
ENDBRANCH  25  26
ENDBRANCH   1  25
BRANCH   4  32
HETATM   32  C5  UNL     1       3.222   5.169   8.562  1.00  0.00     0.014 C 
HETATM   33  C6  UNL     1       2.610   6.136   7.535  1.00  0.00     0.013 C 
BRANCH  32  34
HETATM   34  C7  UNL     1       4.186   4.182   7.829  1.00  0.00    -0.017 C 
HETATM   35  C8  UNL     1       3.600   3.645   6.518  1.00  0.00     0.010 C 
HETATM   36  C9  UNL     1       4.672   3.026   8.707  1.00  0.00     0.010 C 
ENDBRANCH  32  34
ENDBRANCH   4  32
BRANCH  15  37
HETATM   37  O6  UNL     1      -0.491   5.764  15.238  1.00  0.00    -0.393 OA
HETATM   38  H36 UNL     1       0.022   6.576  15.418  1.00  0.00     0.210 HD
ENDBRANCH  15  37
BRANCH  16  39
HETATM   39  O7  UNL     1      -2.928   5.220  15.815  1.00  0.00    -0.392 OA
HETATM   40  H38 UNL     1      -2.006   5.141  16.157  1.00  0.00     0.210 HD
ENDBRANCH  16  39
BRANCH  18  41
HETATM   41  O8  UNL     1      -4.216   9.020  16.695  1.00  0.00    -0.392 OA
HETATM   42  H41 UNL     1      -3.521   9.000  17.373  1.00  0.00     0.210 HD
ENDBRANCH  18  41
BRANCH  19  43
HETATM   43  O9  UNL     1      -5.790   6.212  14.977  1.00  0.00    -0.256 OA
BRANCH  43  44
HETATM   44  S1  UNL     1      -7.286   5.653  14.679  1.00  0.00     0.240 S 
HETATM   45  O10 UNL     1      -7.370   4.267  15.083  1.00  0.00    -0.579 OA
HETATM   46  O11 UNL     1      -8.231   6.630  15.153  1.00  0.00    -0.579 OA
BRANCH  44  47
HETATM   47  O12 UNL     1      -7.329   5.659  13.071  1.00  0.00    -0.274 OA
HETATM   48  H43 UNL     1      -6.546   5.150  12.739  1.00  0.00     0.234 HD
ENDBRANCH  44  47
ENDBRANCH  43  44
ENDBRANCH  19  43
TORSDOF 12
ENDMDL
MODEL 3
REMARK minimizedAffinity -7.27406645
REMARK CNNscore 0.523481905
REMARK CNNaffinity 6.07302523
REMARK  12 active torsions:
REMARK  status: ('A' for Active; 'I' for Inactive)
REMARK    1  A    between atoms: O1_2  and  P1_3 
REMARK    2  A    between atoms: P1_3  and  O3_5 
REMARK    3  A    between atoms: P1_3  and  O4_6 
REMARK    4  A    between atoms: O4_6  and  C2_7 
REMARK    5  A    between atoms: C4_10  and  C5_11 
REMARK    6  A    between atoms: C5_11  and  C7_13 
REMARK    7  A    between atoms: C20_26  and  O6_27 
REMARK    8  A    between atoms: C21_28  and  O7_29 
REMARK    9  A    between atoms: C23_31  and  O8_32 
REMARK   10  A    between atoms: C24_33  and  O9_34 
REMARK   11  A    between atoms: O9_34  and  S1_35 
REMARK   12  A    between atoms: S1_35  and  O12_38 
ROOT
HETATM    1  C2  UNL     1       0.721  10.879  17.467  1.00  0.00     0.168 C 
HETATM    2  C3  UNL     1      -0.739  10.828  17.964  1.00  0.00     0.157 C 
HETATM    3  O5  UNL     1      -1.171  12.038  18.567  1.00  0.00    -0.377 OA
HETATM    4  C4  UNL     1      -2.595  12.179  18.711  1.00  0.00     0.126 C 
HETATM    5  C10 UNL     1      -3.358  10.848  18.486  1.00  0.00     0.037 C 
HETATM    6  C11 UNL     1      -2.987  10.101  17.183  1.00  0.00    -0.009 C 
HETATM    7  C12 UNL     1      -4.058  10.281  16.106  1.00  0.00     0.010 C 
HETATM    8  C13 UNL     1      -1.592  10.542  16.720  1.00  0.00     0.030 C 
HETATM    9  C14 UNL     1      -0.688   9.618  15.875  1.00  0.00    -0.031 C 
HETATM   10  C15 UNL     1      -0.622   8.182  16.442  1.00  0.00     0.016 C 
HETATM   11  C16 UNL     1      -1.025   9.581  14.379  1.00  0.00     0.010 C 
HETATM   12  C17 UNL     1       0.071   8.877  13.558  1.00  0.00     0.007 C 
HETATM   13  C18 UNL     1       1.515   9.380  13.842  1.00  0.00     0.001 C 
HETATM   14  C19 UNL     1       1.825   9.692  15.339  1.00  0.00     0.029 C 
HETATM   15  C20 UNL     1       3.120  10.539  15.431  1.00  0.00     0.152 C 
HETATM   16  C21 UNL     1       4.120  10.231  14.296  1.00  0.00     0.154 C 
HETATM   17  C22 UNL     1       4.046   8.740  13.921  1.00  0.00     0.057 C 
HETATM   18  C23 UNL     1       5.289   8.229  13.158  1.00  0.00     0.156 C 
HETATM   19  C24 UNL     1       5.319   8.672  11.694  1.00  0.00     0.173 C 
HETATM   20  C25 UNL     1       4.016   8.278  10.989  1.00  0.00     0.037 C 
HETATM   21  C26 UNL     1       2.779   8.839  11.692  1.00  0.00     0.012 C 
HETATM   22  C27 UNL     1       2.667   8.475  13.203  1.00  0.00    -0.031 C 
HETATM   23  C28 UNL     1       2.312   6.973  13.336  1.00  0.00     0.016 C 
HETATM   24  C29 UNL     1       0.639  10.415  15.995  1.00  0.00     0.033 C 
ENDROOT
BRANCH   1  25
HETATM   25  O4  UNL     1       1.551   9.997  18.208  1.00  0.00    -0.288 OA
BRANCH  25  26
HETATM   26  P1  UNL     1       2.274  10.534  19.542  1.00  0.00     0.393 P 
HETATM   27  O2  UNL     1       3.381  11.502  19.271  1.00  0.00    -0.631 OA
BRANCH  26  28
HETATM   28  O1  UNL     1       2.690   9.243  20.388  1.00  0.00    -0.302 OA
HETATM   29  C1  UNL     1       3.053   9.473  21.735  1.00  0.00     0.214 C 
ENDBRANCH  26  28
BRANCH  26  30
HETATM   30  O3  UNL     1       1.113  11.208  20.415  1.00  0.00    -0.307 OA
HETATM   31  H4  UNL     1       1.458  12.003  20.863  1.00  0.00     0.222 HD
ENDBRANCH  26  30
ENDBRANCH  25  26
ENDBRANCH   1  25
BRANCH   4  32
HETATM   32  C5  UNL     1      -3.102  13.374  17.845  1.00  0.00     0.014 C 
HETATM   33  C6  UNL     1      -2.886  13.098  16.348  1.00  0.00     0.013 C 
BRANCH  32  34
HETATM   34  C7  UNL     1      -4.588  13.793  18.082  1.00  0.00    -0.017 C 
HETATM   35  C8  UNL     1      -5.116  13.359  19.454  1.00  0.00     0.010 C 
HETATM   36  C9  UNL     1      -5.543  13.337  16.977  1.00  0.00     0.010 C 
ENDBRANCH  32  34
ENDBRANCH   4  32
BRANCH  15  37
HETATM   37  O6  UNL     1       3.818  10.303  16.662  1.00  0.00    -0.393 OA
HETATM   38  H36 UNL     1       3.488   9.476  17.064  1.00  0.00     0.210 HD
ENDBRANCH  15  37
BRANCH  16  39
HETATM   39  O7  UNL     1       5.443  10.624  14.706  1.00  0.00    -0.392 OA
HETATM   40  H38 UNL     1       5.405  10.548  15.689  1.00  0.00     0.210 HD
ENDBRANCH  16  39
BRANCH  18  41
HETATM   41  O8  UNL     1       5.357   6.802  13.202  1.00  0.00    -0.392 OA
HETATM   42  H41 UNL     1       5.674   6.546  14.084  1.00  0.00     0.210 HD
ENDBRANCH  18  41
BRANCH  19  43
HETATM   43  O9  UNL     1       5.486  10.083  11.611  1.00  0.00    -0.256 OA
BRANCH  43  44
HETATM   44  S1  UNL     1       6.986  10.699  11.504  1.00  0.00     0.240 S 
HETATM   45  O10 UNL     1       7.675  10.507  12.760  1.00  0.00    -0.579 OA
HETATM   46  O11 UNL     1       7.561  10.261  10.259  1.00  0.00    -0.579 OA
BRANCH  44  47
HETATM   47  O12 UNL     1       6.689  12.275  11.387  1.00  0.00    -0.274 OA
HETATM   48  H43 UNL     1       6.110  12.539  12.147  1.00  0.00     0.234 HD
ENDBRANCH  44  47
ENDBRANCH  43  44
ENDBRANCH  19  43
TORSDOF 12
ENDMDL
MODEL 4
REMARK minimizedAffinity -7.29750967
REMARK CNNscore 0.510917485
REMARK CNNaffinity 6.39778757
REMARK  12 active torsions:
REMARK  status: ('A' for Active; 'I' for Inactive)
REMARK    1  A    between atoms: O1_2  and  P1_3 
REMARK    2  A    between atoms: P1_3  and  O3_5 
REMARK    3  A    between atoms: P1_3  and  O4_6 
REMARK    4  A    between atoms: O4_6  and  C2_7 
REMARK    5  A    between atoms: C4_10  and  C5_11 
REMARK    6  A    between atoms: C5_11  and  C7_13 
REMARK    7  A    between atoms: C20_26  and  O6_27 
REMARK    8  A    between atoms: C21_28  and  O7_29 
REMARK    9  A    between atoms: C23_31  and  O8_32 
REMARK   10  A    between atoms: C24_33  and  O9_34 
REMARK   11  A    between atoms: O9_34  and  S1_35 
REMARK   12  A    between atoms: S1_35  and  O12_38 
ROOT
HETATM    1  C2  UNL     1       1.521  11.403  18.219  1.00  0.00     0.168 C 
HETATM    2  C3  UNL     1       0.976  12.601  19.026  1.00  0.00     0.157 C 
HETATM    3  O5  UNL     1       1.901  13.671  19.138  1.00  0.00    -0.377 OA
HETATM    4  C4  UNL     1       1.338  14.930  19.547  1.00  0.00     0.126 C 
HETATM    5  C10 UNL     1      -0.103  14.792  20.105  1.00  0.00     0.037 C 
HETATM    6  C11 UNL     1      -1.075  13.999  19.199  1.00  0.00    -0.009 C 
HETATM    7  C12 UNL     1      -2.026  14.928  18.443  1.00  0.00     0.010 C 
HETATM    8  C13 UNL     1      -0.273  13.079  18.271  1.00  0.00     0.030 C 
HETATM    9  C14 UNL     1      -0.871  11.769  17.711  1.00  0.00    -0.031 C 
HETATM   10  C15 UNL     1      -1.571  10.930  18.803  1.00  0.00     0.016 C 
HETATM   11  C16 UNL     1      -1.801  11.950  16.505  1.00  0.00     0.010 C 
HETATM   12  C17 UNL     1      -2.134  10.609  15.826  1.00  0.00     0.007 C 
HETATM   13  C18 UNL     1      -0.898   9.720  15.510  1.00  0.00     0.001 C 
HETATM   14  C19 UNL     1       0.213   9.717  16.606  1.00  0.00     0.029 C 
HETATM   15  C20 UNL     1       1.522   9.136  16.011  1.00  0.00     0.152 C 
HETATM   16  C21 UNL     1       1.265   8.082  14.912  1.00  0.00     0.154 C 
HETATM   17  C22 UNL     1      -0.007   7.280  15.241  1.00  0.00     0.057 C 
HETATM   18  C23 UNL     1      -0.100   5.930  14.495  1.00  0.00     0.156 C 
HETATM   19  C24 UNL     1      -0.488   6.083  13.023  1.00  0.00     0.173 C 
HETATM   20  C25 UNL     1      -1.781   6.897  12.892  1.00  0.00     0.037 C 
HETATM   21  C26 UNL     1      -1.679   8.267  13.563  1.00  0.00     0.012 C 
HETATM   22  C27 UNL     1      -1.254   8.228  15.061  1.00  0.00    -0.031 C 
HETATM   23  C28 UNL     1      -2.430   7.677  15.906  1.00  0.00     0.016 C 
HETATM   24  C29 UNL     1       0.433  11.135  17.155  1.00  0.00     0.033 C 
ENDROOT
BRANCH   1  25
HETATM   25  O4  UNL     1       1.689  10.258  19.041  1.00  0.00    -0.288 OA
BRANCH  25  26
HETATM   26  P1  UNL     1       2.680  10.338  20.306  1.00  0.00     0.393 P 
HETATM   27  O2  UNL     1       4.096  10.642  19.935  1.00  0.00    -0.631 OA
BRANCH  26  28
HETATM   28  O1  UNL     1       2.468   8.991  21.139  1.00  0.00    -0.302 OA
HETATM   29  C1  UNL     1       2.846   9.035  22.501  1.00  0.00     0.214 C 
ENDBRANCH  26  28
BRANCH  26  30
HETATM   30  O3  UNL     1       2.070  11.476  21.254  1.00  0.00    -0.307 OA
HETATM   31  H4  UNL     1       2.794  11.988  21.661  1.00  0.00     0.222 HD
ENDBRANCH  26  30
ENDBRANCH  25  26
ENDBRANCH   1  25
BRANCH   4  32
HETATM   32  C5  UNL     1       1.495  15.980  18.405  1.00  0.00     0.014 C 
HETATM   33  C6  UNL     1       1.468  15.301  17.025  1.00  0.00     0.013 C 
BRANCH  32  34
HETATM   34  C7  UNL     1       0.463  17.153  18.422  1.00  0.00    -0.017 C 
HETATM   35  C8  UNL     1       0.058  17.608  17.015  1.00  0.00     0.010 C 
HETATM   36  C9  UNL     1       0.905  18.353  19.262  1.00  0.00     0.010 C 
ENDBRANCH  32  34
ENDBRANCH   4  32
BRANCH  15  37
HETATM   37  O6  UNL     1       2.316   8.490  17.015  1.00  0.00    -0.393 OA
HETATM   38  H36 UNL     1       1.760   8.313  17.799  1.00  0.00     0.210 HD
ENDBRANCH  15  37
BRANCH  16  39
HETATM   39  O7  UNL     1       2.423   7.237  14.782  1.00  0.00    -0.392 OA
HETATM   40  H38 UNL     1       2.830   7.274  15.680  1.00  0.00     0.210 HD
ENDBRANCH  16  39
BRANCH  18  41
HETATM   41  O8  UNL     1      -1.050   5.068  15.127  1.00  0.00    -0.392 OA
HETATM   42  H41 UNL     1      -0.636   4.706  15.929  1.00  0.00     0.210 HD
ENDBRANCH  18  41
BRANCH  19  43
HETATM   43  O9  UNL     1       0.551   6.740  12.307  1.00  0.00    -0.256 OA
BRANCH  43  44
HETATM   44  S1  UNL     1       1.431   5.897  11.232  1.00  0.00     0.240 S 
HETATM   45  O10 UNL     1       1.051   4.503  11.289  1.00  0.00    -0.579 OA
HETATM   46  O11 UNL     1       1.433   6.622   9.988  1.00  0.00    -0.579 OA
BRANCH  44  47
HETATM   47  O12 UNL     1       2.906   5.989  11.864  1.00  0.00    -0.274 OA
HETATM   48  H43 UNL     1       2.861   5.678  12.804  1.00  0.00     0.234 HD
ENDBRANCH  44  47
ENDBRANCH  43  44
ENDBRANCH  19  43
TORSDOF 12
ENDMDL
MODEL 5
REMARK minimizedAffinity -8.70830059
REMARK CNNscore 0.472484231
REMARK CNNaffinity 6.03271484
REMARK  12 active torsions:
REMARK  status: ('A' for Active; 'I' for Inactive)
REMARK    1  A    between atoms: O1_2  and  P1_3 
REMARK    2  A    between atoms: P1_3  and  O3_5 
REMARK    3  A    between atoms: P1_3  and  O4_6 
REMARK    4  A    between atoms: O4_6  and  C2_7 
REMARK    5  A    between atoms: C4_10  and  C5_11 
REMARK    6  A    between atoms: C5_11  and  C7_13 
REMARK    7  A    between atoms: C20_26  and  O6_27 
REMARK    8  A    between atoms: C21_28  and  O7_29 
REMARK    9  A    between atoms: C23_31  and  O8_32 
REMARK   10  A    between atoms: C24_33  and  O9_34 
REMARK   11  A    between atoms: O9_34  and  S1_35 
REMARK   12  A    between atoms: S1_35  and  O12_38 
ROOT
HETATM    1  C2  UNL     1      -1.493   8.348  14.222  1.00  0.00     0.168 C 
HETATM    2  C3  UNL     1      -2.926   8.202  13.668  1.00  0.00     0.157 C 
HETATM    3  O5  UNL     1      -3.212   6.898  13.186  1.00  0.00    -0.377 OA
HETATM    4  C4  UNL     1      -4.608   6.603  13.005  1.00  0.00     0.126 C 
HETATM    5  C10 UNL     1      -5.503   7.868  13.053  1.00  0.00     0.037 C 
HETATM    6  C11 UNL     1      -5.267   8.781  14.280  1.00  0.00    -0.009 C 
HETATM    7  C12 UNL     1      -6.367   8.612  15.329  1.00  0.00     0.010 C 
HETATM    8  C13 UNL     1      -3.861   8.532  14.840  1.00  0.00     0.030 C 
HETATM    9  C14 UNL     1      -3.089   9.625  15.612  1.00  0.00    -0.031 C 
HETATM   10  C15 UNL     1      -3.132  10.991  14.894  1.00  0.00     0.016 C 
HETATM   11  C16 UNL     1      -3.499   9.786  17.082  1.00  0.00     0.010 C 
HETATM   12  C17 UNL     1      -2.515  10.677  17.861  1.00  0.00     0.007 C 
HETATM   13  C18 UNL     1      -1.019  10.292  17.688  1.00  0.00     0.001 C 
HETATM   14  C19 UNL     1      -0.609   9.856  16.247  1.00  0.00     0.029 C 
HETATM   15  C20 UNL     1       0.763   9.136  16.298  1.00  0.00     0.152 C 
HETATM   16  C21 UNL     1       1.674   9.659  17.429  1.00  0.00     0.154 C 
HETATM   17  C22 UNL     1       1.442  11.167  17.634  1.00  0.00     0.057 C 
HETATM   18  C23 UNL     1       2.593  11.876  18.383  1.00  0.00     0.156 C 
HETATM   19  C24 UNL     1       2.594  11.595  19.887  1.00  0.00     0.173 C 
HETATM   20  C25 UNL     1       1.227  11.931  20.495  1.00  0.00     0.037 C 
HETATM   21  C26 UNL     1       0.084  11.179  19.812  1.00  0.00     0.012 C 
HETATM   22  C27 UNL     1       0.011  11.369  18.267  1.00  0.00    -0.031 C 
HETATM   23  C28 UNL     1      -0.477  12.806  17.956  1.00  0.00     0.016 C 
HETATM   24  C29 UNL     1      -1.689   8.954  15.630  1.00  0.00     0.033 C 
ENDROOT
BRANCH   1  25
HETATM   25  O4  UNL     1      -0.715   9.224  13.420  1.00  0.00    -0.288 OA
BRANCH  25  26
HETATM   26  P1  UNL     1       0.030   8.643  12.118  1.00  0.00     0.393 P 
HETATM   27  O2  UNL     1       1.442   9.114  11.980  1.00  0.00    -0.631 OA
BRANCH  26  28
HETATM   28  O1  UNL     1      -0.918   8.957  10.870  1.00  0.00    -0.302 OA
HETATM   29  C1  UNL     1      -0.412   8.600   9.599  1.00  0.00     0.214 C 
ENDBRANCH  26  28
BRANCH  26  30
HETATM   30  O3  UNL     1      -0.039   7.049  12.262  1.00  0.00    -0.307 OA
HETATM   31  H4  UNL     1       0.790   6.653  11.936  1.00  0.00     0.222 HD
ENDBRANCH  26  30
ENDBRANCH  25  26
ENDBRANCH   1  25
BRANCH   4  32
HETATM   32  C5  UNL     1      -5.042   5.462  13.977  1.00  0.00     0.014 C 
HETATM   33  C6  UNL     1      -6.316   5.849  14.745  1.00  0.00     0.013 C 
BRANCH  32  34
HETATM   34  C7  UNL     1      -5.244   4.058  13.320  1.00  0.00    -0.017 C 
HETATM   35  C8  UNL     1      -4.087   3.664  12.395  1.00  0.00     0.010 C 
HETATM   36  C9  UNL     1      -6.582   3.903  12.594  1.00  0.00     0.010 C 
ENDBRANCH  32  34
ENDBRANCH   4  32
BRANCH  15  37
HETATM   37  O6  UNL     1       1.494   9.308  15.075  1.00  0.00    -0.393 OA
HETATM   38  H36 UNL     1       1.107  10.051  14.572  1.00  0.00     0.210 HD
ENDBRANCH  15  37
BRANCH  16  39
HETATM   39  O7  UNL     1       3.046   9.358  17.114  1.00  0.00    -0.392 OA
HETATM   40  H38 UNL     1       3.049   9.326  16.128  1.00  0.00     0.210 HD
ENDBRANCH  16  39
BRANCH  18  41
HETATM   41  O8  UNL     1       2.528  13.290  18.185  1.00  0.00    -0.392 OA
HETATM   42  H41 UNL     1       2.862  13.482  17.293  1.00  0.00     0.210 HD
ENDBRANCH  18  41
BRANCH  19  43
HETATM   43  O9  UNL     1       2.889  10.225  20.131  1.00  0.00    -0.256 OA
BRANCH  43  44
HETATM   44  S1  UNL     1       3.060   9.710  21.662  1.00  0.00     0.240 S 
HETATM   45  O10 UNL     1       1.963   8.831  21.999  1.00  0.00    -0.579 OA
HETATM   46  O11 UNL     1       4.429   9.305  21.848  1.00  0.00    -0.579 OA
BRANCH  44  47
HETATM   47  O12 UNL     1       2.826  11.065  22.496  1.00  0.00    -0.274 OA
HETATM   48  H43 UNL     1       1.962  11.460  22.211  1.00  0.00     0.234 HD
ENDBRANCH  44  47
ENDBRANCH  43  44
ENDBRANCH  19  43
TORSDOF 12
ENDMDL
MODEL 6
REMARK minimizedAffinity -7.38110828
REMARK CNNscore 0.37208721
REMARK CNNaffinity 5.75648642
REMARK  12 active torsions:
REMARK  status: ('A' for Active; 'I' for Inactive)
REMARK    1  A    between atoms: O1_2  and  P1_3 
REMARK    2  A    between atoms: P1_3  and  O3_5 
REMARK    3  A    between atoms: P1_3  and  O4_6 
REMARK    4  A    between atoms: O4_6  and  C2_7 
REMARK    5  A    between atoms: C4_10  and  C5_11 
REMARK    6  A    between atoms: C5_11  and  C7_13 
REMARK    7  A    between atoms: C20_26  and  O6_27 
REMARK    8  A    between atoms: C21_28  and  O7_29 
REMARK    9  A    between atoms: C23_31  and  O8_32 
REMARK   10  A    between atoms: C24_33  and  O9_34 
REMARK   11  A    between atoms: O9_34  and  S1_35 
REMARK   12  A    between atoms: S1_35  and  O12_38 
ROOT
HETATM    1  C2  UNL     1      -0.719  11.899  18.136  1.00  0.00     0.168 C 
HETATM    2  C3  UNL     1      -1.643  12.850  18.926  1.00  0.00     0.157 C 
HETATM    3  O5  UNL     1      -1.131  14.170  19.034  1.00  0.00    -0.377 OA
HETATM    4  C4  UNL     1      -2.088  15.170  19.425  1.00  0.00     0.126 C 
HETATM    5  C10 UNL     1      -3.405  14.562  19.973  1.00  0.00     0.037 C 
HETATM    6  C11 UNL     1      -4.045  13.482  19.068  1.00  0.00    -0.009 C 
HETATM    7  C12 UNL     1      -5.244  14.032  18.294  1.00  0.00     0.010 C 
HETATM    8  C13 UNL     1      -2.970  12.876  18.156  1.00  0.00     0.030 C 
HETATM    9  C14 UNL     1      -3.089  11.438  17.606  1.00  0.00    -0.031 C 
HETATM   10  C15 UNL     1      -3.480  10.421  18.702  1.00  0.00     0.016 C 
HETATM   11  C16 UNL     1      -4.013  11.287  16.391  1.00  0.00     0.010 C 
HETATM   12  C17 UNL     1      -3.869   9.907  15.724  1.00  0.00     0.007 C 
HETATM   13  C18 UNL     1      -2.403   9.482  15.428  1.00  0.00     0.001 C 
HETATM   14  C19 UNL     1      -1.368   9.859  16.532  1.00  0.00     0.029 C 
HETATM   15  C20 UNL     1       0.066   9.746  15.953  1.00  0.00     0.152 C 
HETATM   16  C21 UNL     1       0.189   8.659  14.864  1.00  0.00     0.154 C 
HETATM   17  C22 UNL     1      -0.743   7.480  15.192  1.00  0.00     0.057 C 
HETATM   18  C23 UNL     1      -0.370   6.170  14.460  1.00  0.00     0.156 C 
HETATM   19  C24 UNL     1      -0.771   6.174  12.983  1.00  0.00     0.173 C 
HETATM   20  C25 UNL     1      -2.260   6.506  12.834  1.00  0.00     0.037 C 
HETATM   21  C26 UNL     1      -2.631   7.836  13.490  1.00  0.00     0.012 C 
HETATM   22  C27 UNL     1      -2.235   7.953  14.992  1.00  0.00    -0.031 C 
HETATM   23  C28 UNL     1      -3.167   7.046  15.834  1.00  0.00     0.016 C 
HETATM   24  C29 UNL     1      -1.642  11.273  17.067  1.00  0.00     0.033 C 
ENDROOT
BRANCH   1  25
HETATM   25  O4  UNL     1      -0.186  10.883  18.972  1.00  0.00    -0.288 OA
BRANCH  25  26
HETATM   26  P1  UNL     1       1.212  11.139  19.727  1.00  0.00     0.393 P 
HETATM   27  O2  UNL     1       2.385  11.204  18.803  1.00  0.00    -0.631 OA
BRANCH  26  28
HETATM   28  O1  UNL     1       1.315  10.041  20.883  1.00  0.00    -0.302 OA
HETATM   29  C1  UNL     1       2.596   9.857  21.454  1.00  0.00     0.214 C 
ENDBRANCH  26  28
BRANCH  26  30
HETATM   30  O3  UNL     1       1.021  12.517  20.522  1.00  0.00    -0.307 OA
HETATM   31  H4  UNL     1       1.851  13.028  20.497  1.00  0.00     0.222 HD
ENDBRANCH  26  30
ENDBRANCH  25  26
ENDBRANCH   1  25
BRANCH   4  32
HETATM   32  C5  UNL     1      -2.279  16.204  18.272  1.00  0.00     0.014 C 
HETATM   33  C6  UNL     1      -1.627  17.551  18.629  1.00  0.00     0.013 C 
BRANCH  32  34
HETATM   34  C7  UNL     1      -1.776  15.745  16.866  1.00  0.00    -0.017 C 
HETATM   35  C8  UNL     1      -0.549  16.530  16.389  1.00  0.00     0.010 C 
HETATM   36  C9  UNL     1      -2.864  15.751  15.789  1.00  0.00     0.010 C 
ENDBRANCH  32  34
ENDBRANCH   4  32
BRANCH  15  37
HETATM   37  O6  UNL     1       1.020   9.411  16.971  1.00  0.00    -0.393 OA
HETATM   38  H36 UNL     1       0.547   9.064  17.753  1.00  0.00     0.210 HD
ENDBRANCH  15  37
BRANCH  16  39
HETATM   39  O7  UNL     1       1.565   8.250  14.753  1.00  0.00    -0.392 OA
HETATM   40  H38 UNL     1       1.926   8.428  15.653  1.00  0.00     0.210 HD
ENDBRANCH  16  39
BRANCH  18  41
HETATM   41  O8  UNL     1      -0.983   5.045  15.094  1.00  0.00    -0.392 OA
HETATM   42  H41 UNL     1      -0.481   4.849  15.903  1.00  0.00     0.210 HD
ENDBRANCH  18  41
BRANCH  19  43
HETATM   43  O9  UNL     1      -0.004   7.136  12.268  1.00  0.00    -0.256 OA
BRANCH  43  44
HETATM   44  S1  UNL     1       1.226   6.634  11.333  1.00  0.00     0.240 S 
HETATM   45  O10 UNL     1       0.931   5.315  10.819  1.00  0.00    -0.579 OA
HETATM   46  O11 UNL     1       1.591   7.716  10.456  1.00  0.00    -0.579 OA
BRANCH  44  47
HETATM   47  O12 UNL     1       2.406   6.446  12.409  1.00  0.00    -0.274 OA
HETATM   48  H43 UNL     1       2.075   5.855  13.133  1.00  0.00     0.234 HD
ENDBRANCH  44  47
ENDBRANCH  43  44
ENDBRANCH  19  43
TORSDOF 12
ENDMDL
MODEL 7
REMARK minimizedAffinity -6.76422501
REMARK CNNscore 0.328376949
REMARK CNNaffinity 5.6177597
REMARK  12 active torsions:
REMARK  status: ('A' for Active; 'I' for Inactive)
REMARK    1  A    between atoms: O1_2  and  P1_3 
REMARK    2  A    between atoms: P1_3  and  O3_5 
REMARK    3  A    between atoms: P1_3  and  O4_6 
REMARK    4  A    between atoms: O4_6  and  C2_7 
REMARK    5  A    between atoms: C4_10  and  C5_11 
REMARK    6  A    between atoms: C5_11  and  C7_13 
REMARK    7  A    between atoms: C20_26  and  O6_27 
REMARK    8  A    between atoms: C21_28  and  O7_29 
REMARK    9  A    between atoms: C23_31  and  O8_32 
REMARK   10  A    between atoms: C24_33  and  O9_34 
REMARK   11  A    between atoms: O9_34  and  S1_35 
REMARK   12  A    between atoms: S1_35  and  O12_38 
ROOT
HETATM    1  C2  UNL     1       2.358  11.461  17.781  1.00  0.00     0.168 C 
HETATM    2  C3  UNL     1       2.992  11.049  19.126  1.00  0.00     0.157 C 
HETATM    3  O5  UNL     1       4.410  11.107  19.122  1.00  0.00    -0.377 OA
HETATM    4  C4  UNL     1       5.030  11.094  20.419  1.00  0.00     0.126 C 
HETATM    5  C10 UNL     1       4.051  10.686  21.550  1.00  0.00     0.037 C 
HETATM    6  C11 UNL     1       2.715  11.466  21.563  1.00  0.00    -0.009 C 
HETATM    7  C12 UNL     1       2.696  12.534  22.658  1.00  0.00     0.010 C 
HETATM    8  C13 UNL     1       2.441  12.036  20.166  1.00  0.00     0.030 C 
HETATM    9  C14 UNL     1       1.005  12.310  19.668  1.00  0.00    -0.031 C 
HETATM   10  C15 UNL     1       0.051  11.128  19.947  1.00  0.00     0.016 C 
HETATM   11  C16 UNL     1       0.388  13.620  20.175  1.00  0.00     0.010 C 
HETATM   12  C17 UNL     1      -0.912  13.971  19.429  1.00  0.00     0.007 C 
HETATM   13  C18 UNL     1      -0.805  13.912  17.879  1.00  0.00     0.001 C 
HETATM   14  C19 UNL     1       0.050  12.733  17.319  1.00  0.00     0.029 C 
HETATM   15  C20 UNL     1       0.401  13.011  15.835  1.00  0.00     0.152 C 
HETATM   16  C21 UNL     1      -0.685  13.830  15.105  1.00  0.00     0.154 C 
HETATM   17  C22 UNL     1      -2.076  13.455  15.644  1.00  0.00     0.057 C 
HETATM   18  C23 UNL     1      -3.235  13.842  14.697  1.00  0.00     0.156 C 
HETATM   19  C24 UNL     1      -3.550  15.339  14.715  1.00  0.00     0.173 C 
HETATM   20  C25 UNL     1      -3.804  15.815  16.150  1.00  0.00     0.037 C 
HETATM   21  C26 UNL     1      -2.633  15.505  17.084  1.00  0.00     0.012 C 
HETATM   22  C27 UNL     1      -2.206  14.007  17.116  1.00  0.00    -0.031 C 
HETATM   23  C28 UNL     1      -3.286  13.188  17.866  1.00  0.00     0.016 C 
HETATM   24  C29 UNL     1       1.318  12.539  18.164  1.00  0.00     0.033 C 
ENDROOT
BRANCH   1  25
HETATM   25  O4  UNL     1       1.711  10.363  17.155  1.00  0.00    -0.288 OA
BRANCH  25  26
HETATM   26  P1  UNL     1       2.573   9.363  16.237  1.00  0.00     0.393 P 
HETATM   27  O2  UNL     1       4.036   9.672  16.230  1.00  0.00    -0.631 OA
BRANCH  26  28
HETATM   28  O1  UNL     1       1.874   9.345  14.799  1.00  0.00    -0.302 OA
HETATM   29  C1  UNL     1       1.351   8.100  14.378  1.00  0.00     0.214 C 
ENDBRANCH  26  28
BRANCH  26  30
HETATM   30  O3  UNL     1       2.292   7.898  16.820  1.00  0.00    -0.307 OA
HETATM   31  H4  UNL     1       3.108   7.366  16.780  1.00  0.00     0.222 HD
ENDBRANCH  26  30
ENDBRANCH  25  26
ENDBRANCH   1  25
BRANCH   4  32
HETATM   32  C5  UNL     1       5.781  12.440  20.663  1.00  0.00     0.014 C 
HETATM   33  C6  UNL     1       5.161  13.574  19.830  1.00  0.00     0.013 C 
BRANCH  32  34
HETATM   34  C7  UNL     1       5.883  12.893  22.155  1.00  0.00    -0.017 C 
HETATM   35  C8  UNL     1       5.894  14.417  22.313  1.00  0.00     0.010 C 
HETATM   36  C9  UNL     1       7.059  12.271  22.911  1.00  0.00     0.010 C 
ENDBRANCH  32  34
ENDBRANCH   4  32
BRANCH  15  37
HETATM   37  O6  UNL     1       0.559  11.793  15.094  1.00  0.00    -0.393 OA
HETATM   38  H36 UNL     1       0.156  11.058  15.595  1.00  0.00     0.210 HD
ENDBRANCH  15  37
BRANCH  16  39
HETATM   39  O7  UNL     1      -0.573  13.612  13.687  1.00  0.00    -0.392 OA
HETATM   40  H38 UNL     1      -0.172  12.713  13.628  1.00  0.00     0.210 HD
ENDBRANCH  16  39
BRANCH  18  41
HETATM   41  O8  UNL     1      -4.424  13.124  15.034  1.00  0.00    -0.392 OA
HETATM   42  H41 UNL     1      -4.327  12.216  14.701  1.00  0.00     0.210 HD
ENDBRANCH  18  41
BRANCH  19  43
HETATM   43  O9  UNL     1      -2.464  16.076  14.163  1.00  0.00    -0.256 OA
BRANCH  43  44
HETATM   44  S1  UNL     1      -2.776  17.342  13.194  1.00  0.00     0.240 S 
HETATM   45  O10 UNL     1      -4.174  17.331  12.824  1.00  0.00    -0.579 OA
HETATM   46  O11 UNL     1      -2.163  18.510  13.771  1.00  0.00    -0.579 OA
BRANCH  44  47
HETATM   47  O12 UNL     1      -1.955  16.954  11.867  1.00  0.00    -0.274 OA
HETATM   48  H43 UNL     1      -2.234  16.046  11.583  1.00  0.00     0.234 HD
ENDBRANCH  44  47
ENDBRANCH  43  44
ENDBRANCH  19  43
TORSDOF 12
ENDMDL
MODEL 8
REMARK minimizedAffinity -6.57792616
REMARK CNNscore 0.320791751
REMARK CNNaffinity 5.82495642
REMARK  12 active torsions:
REMARK  status: ('A' for Active; 'I' for Inactive)
REMARK    1  A    between atoms: O1_2  and  P1_3 
REMARK    2  A    between atoms: P1_3  and  O3_5 
REMARK    3  A    between atoms: P1_3  and  O4_6 
REMARK    4  A    between atoms: O4_6  and  C2_7 
REMARK    5  A    between atoms: C4_10  and  C5_11 
REMARK    6  A    between atoms: C5_11  and  C7_13 
REMARK    7  A    between atoms: C20_26  and  O6_27 
REMARK    8  A    between atoms: C21_28  and  O7_29 
REMARK    9  A    between atoms: C23_31  and  O8_32 
REMARK   10  A    between atoms: C24_33  and  O9_34 
REMARK   11  A    between atoms: O9_34  and  S1_35 
REMARK   12  A    between atoms: S1_35  and  O12_38 
ROOT
HETATM    1  C2  UNL     1       1.643  12.109  16.751  1.00  0.00     0.168 C 
HETATM    2  C3  UNL     1       0.177  11.667  16.553  1.00  0.00     0.157 C 
HETATM    3  O5  UNL     1       0.005  10.753  15.481  1.00  0.00    -0.377 OA
HETATM    4  C4  UNL     1      -1.241  10.035  15.479  1.00  0.00     0.126 C 
HETATM    5  C10 UNL     1      -2.286  10.639  16.454  1.00  0.00     0.037 C 
HETATM    6  C11 UNL     1      -1.766  10.878  17.892  1.00  0.00    -0.009 C 
HETATM    7  C12 UNL     1      -2.269   9.806  18.859  1.00  0.00     0.010 C 
HETATM    8  C13 UNL     1      -0.237  10.996  17.871  1.00  0.00     0.030 C 
HETATM    9  C14 UNL     1       0.529  11.808  18.938  1.00  0.00    -0.031 C 
HETATM   10  C15 UNL     1      -0.100  13.198  19.181  1.00  0.00     0.016 C 
HETATM   11  C16 UNL     1       0.739  11.081  20.272  1.00  0.00     0.010 C 
HETATM   12  C17 UNL     1       1.739  11.819  21.180  1.00  0.00     0.007 C 
HETATM   13  C18 UNL     1       3.075  12.210  20.487  1.00  0.00     0.001 C 
HETATM   14  C19 UNL     1       2.936  12.708  19.015  1.00  0.00     0.029 C 
HETATM   15  C20 UNL     1       4.326  12.681  18.329  1.00  0.00     0.152 C 
HETATM   16  C21 UNL     1       5.487  12.935  19.314  1.00  0.00     0.154 C 
HETATM   17  C22 UNL     1       5.042  13.926  20.404  1.00  0.00     0.057 C 
HETATM   18  C23 UNL     1       6.217  14.604  21.145  1.00  0.00     0.156 C 
HETATM   19  C24 UNL     1       6.899  13.682  22.157  1.00  0.00     0.173 C 
HETATM   20  C25 UNL     1       5.869  13.102  23.134  1.00  0.00     0.037 C 
HETATM   21  C26 UNL     1       4.737  12.364  22.417  1.00  0.00     0.012 C 
HETATM   22  C27 UNL     1       3.994  13.204  21.336  1.00  0.00    -0.031 C 
HETATM   23  C28 UNL     1       3.123  14.276  22.039  1.00  0.00     0.016 C 
HETATM   24  C29 UNL     1       1.920  11.847  18.249  1.00  0.00     0.033 C 
ENDROOT
BRANCH   1  25
HETATM   25  O4  UNL     1       1.811  13.489  16.461  1.00  0.00    -0.288 OA
BRANCH  25  26
HETATM   26  P1  UNL     1       1.984  13.953  14.930  1.00  0.00     0.393 P 
HETATM   27  O2  UNL     1       3.188  14.809  14.700  1.00  0.00    -0.631 OA
BRANCH  26  28
HETATM   28  O1  UNL     1       0.592  14.602  14.488  1.00  0.00    -0.302 OA
HETATM   29  C1  UNL     1       0.572  15.231  13.222  1.00  0.00     0.214 C 
ENDBRANCH  26  28
BRANCH  26  30
HETATM   30  O3  UNL     1       2.063  12.598  14.079  1.00  0.00    -0.307 OA
HETATM   31  H4  UNL     1       2.705  12.703  13.352  1.00  0.00     0.222 HD
ENDBRANCH  26  30
ENDBRANCH  25  26
ENDBRANCH   1  25
BRANCH   4  32
HETATM   32  C5  UNL     1      -0.977   8.509  15.672  1.00  0.00     0.014 C 
HETATM   33  C6  UNL     1      -2.288   7.758  15.961  1.00  0.00     0.013 C 
BRANCH  32  34
HETATM   34  C7  UNL     1      -0.226   7.803  14.499  1.00  0.00    -0.017 C 
HETATM   35  C8  UNL     1       1.281   7.682  14.747  1.00  0.00     0.010 C 
HETATM   36  C9  UNL     1      -0.491   8.431  13.129  1.00  0.00     0.010 C 
ENDBRANCH  32  34
ENDBRANCH   4  32
BRANCH  15  37
HETATM   37  O6  UNL     1       4.430  13.685  17.310  1.00  0.00    -0.393 OA
HETATM   38  H36 UNL     1       3.721  14.345  17.436  1.00  0.00     0.210 HD
ENDBRANCH  15  37
BRANCH  16  39
HETATM   39  O7  UNL     1       6.635  13.407  18.586  1.00  0.00    -0.392 OA
HETATM   40  H38 UNL     1       6.238  13.843  17.796  1.00  0.00     0.210 HD
ENDBRANCH  16  39
BRANCH  18  41
HETATM   41  O8  UNL     1       5.773  15.778  21.828  1.00  0.00    -0.392 OA
HETATM   42  H41 UNL     1       5.658  16.481  21.167  1.00  0.00     0.210 HD
ENDBRANCH  18  41
BRANCH  19  43
HETATM   43  O9  UNL     1       7.557  12.614  21.485  1.00  0.00    -0.256 OA
BRANCH  43  44
HETATM   44  S1  UNL     1       9.068  12.210  21.924  1.00  0.00     0.240 S 
HETATM   45  O10 UNL     1       9.897  13.394  21.938  1.00  0.00    -0.579 OA
HETATM   46  O11 UNL     1       8.984  11.340  23.068  1.00  0.00    -0.579 OA
BRANCH  44  47
HETATM   47  O12 UNL     1       9.555  11.333  20.667  1.00  0.00    -0.274 OA
HETATM   48  H43 UNL     1       9.416  11.866  19.843  1.00  0.00     0.234 HD
ENDBRANCH  44  47
ENDBRANCH  43  44
ENDBRANCH  19  43
TORSDOF 12
ENDMDL
MODEL 9
REMARK minimizedAffinity -10.4267912
REMARK CNNscore 0.306537032
REMARK CNNaffinity 6.63412905
REMARK  12 active torsions:
REMARK  status: ('A' for Active; 'I' for Inactive)
REMARK    1  A    between atoms: O1_2  and  P1_3 
REMARK    2  A    between atoms: P1_3  and  O3_5 
REMARK    3  A    between atoms: P1_3  and  O4_6 
REMARK    4  A    between atoms: O4_6  and  C2_7 
REMARK    5  A    between atoms: C4_10  and  C5_11 
REMARK    6  A    between atoms: C5_11  and  C7_13 
REMARK    7  A    between atoms: C20_26  and  O6_27 
REMARK    8  A    between atoms: C21_28  and  O7_29 
REMARK    9  A    between atoms: C23_31  and  O8_32 
REMARK   10  A    between atoms: C24_33  and  O9_34 
REMARK   11  A    between atoms: O9_34  and  S1_35 
REMARK   12  A    between atoms: S1_35  and  O12_38 
ROOT
HETATM    1  C2  UNL     1      -1.911   4.740  11.620  1.00  0.00     0.168 C 
HETATM    2  C3  UNL     1      -0.411   5.104  11.651  1.00  0.00     0.157 C 
HETATM    3  O5  UNL     1       0.179   5.166  10.362  1.00  0.00    -0.377 OA
HETATM    4  C4  UNL     1       1.446   5.845  10.299  1.00  0.00     0.126 C 
HETATM    5  C10 UNL     1       2.073   6.081  11.697  1.00  0.00     0.037 C 
HETATM    6  C11 UNL     1       1.125   6.736  12.729  1.00  0.00    -0.009 C 
HETATM    7  C12 UNL     1       1.442   8.220  12.924  1.00  0.00     0.010 C 
HETATM    8  C13 UNL     1      -0.331   6.483  12.320  1.00  0.00     0.030 C 
HETATM    9  C14 UNL     1      -1.471   6.439  13.361  1.00  0.00    -0.031 C 
HETATM   10  C15 UNL     1      -1.114   5.570  14.586  1.00  0.00     0.016 C 
HETATM   11  C16 UNL     1      -1.980   7.813  13.817  1.00  0.00     0.010 C 
HETATM   12  C17 UNL     1      -3.286   7.705  14.625  1.00  0.00     0.007 C 
HETATM   13  C18 UNL     1      -4.391   6.841  13.955  1.00  0.00     0.001 C 
HETATM   14  C19 UNL     1      -3.881   5.554  13.237  1.00  0.00     0.029 C 
HETATM   15  C20 UNL     1      -4.991   5.014  12.297  1.00  0.00     0.152 C 
HETATM   16  C21 UNL     1      -6.414   5.315  12.815  1.00  0.00     0.154 C 
HETATM   17  C22 UNL     1      -6.434   5.263  14.353  1.00  0.00     0.057 C 
HETATM   18  C23 UNL     1      -7.849   5.082  14.949  1.00  0.00     0.156 C 
HETATM   19  C24 UNL     1      -8.687   6.361  14.907  1.00  0.00     0.173 C 
HETATM   20  C25 UNL     1      -7.932   7.518  15.573  1.00  0.00     0.037 C 
HETATM   21  C26 UNL     1      -6.559   7.758  14.943  1.00  0.00     0.012 C 
HETATM   22  C27 UNL     1      -5.633   6.505  14.904  1.00  0.00    -0.031 C 
HETATM   23  C28 UNL     1      -5.145   6.191  16.341  1.00  0.00     0.016 C 
HETATM   24  C29 UNL     1      -2.589   5.847  12.460  1.00  0.00     0.033 C 
ENDROOT
BRANCH   1  25
HETATM   25  O4  UNL     1      -2.149   3.470  12.208  1.00  0.00    -0.288 OA
BRANCH  25  26
HETATM   26  P1  UNL     1      -2.159   2.161  11.273  1.00  0.00     0.393 P 
HETATM   27  O2  UNL     1      -3.251   1.197  11.609  1.00  0.00    -0.631 OA
BRANCH  26  28
HETATM   28  O1  UNL     1      -0.680   1.557  11.316  1.00  0.00    -0.302 OA
HETATM   29  C1  UNL     1      -0.457   0.402  10.531  1.00  0.00     0.214 C 
ENDBRANCH  26  28
BRANCH  26  30
HETATM   30  O3  UNL     1      -2.307   2.709   9.775  1.00  0.00    -0.307 OA
HETATM   31  H4  UNL     1      -2.878   2.108   9.260  1.00  0.00     0.222 HD
ENDBRANCH  26  30
ENDBRANCH  25  26
ENDBRANCH   1  25
BRANCH   4  32
HETATM   32  C5  UNL     1       1.320   7.126   9.417  1.00  0.00     0.014 C 
HETATM   33  C6  UNL     1       1.395   8.397  10.281  1.00  0.00     0.013 C 
BRANCH  32  34
HETATM   34  C7  UNL     1       2.347   7.239   8.245  1.00  0.00    -0.017 C 
HETATM   35  C8  UNL     1       3.264   8.460   8.375  1.00  0.00     0.010 C 
HETATM   36  C9  UNL     1       1.704   7.202   6.856  1.00  0.00     0.010 C 
ENDBRANCH  32  34
ENDBRANCH   4  32
BRANCH  15  37
HETATM   37  O6  UNL     1      -4.906   3.591  12.146  1.00  0.00    -0.393 OA
HETATM   38  H36 UNL     1      -4.350   3.224  12.860  1.00  0.00     0.210 HD
ENDBRANCH  15  37
BRANCH  16  39
HETATM   39  O7  UNL     1      -7.341   4.385  12.227  1.00  0.00    -0.392 OA
HETATM   40  H38 UNL     1      -6.782   3.594  12.044  1.00  0.00     0.210 HD
ENDBRANCH  16  39
BRANCH  18  41
HETATM   41  O8  UNL     1      -7.771   4.635  16.305  1.00  0.00    -0.392 OA
HETATM   42  H41 UNL     1      -7.550   3.689  16.294  1.00  0.00     0.210 HD
ENDBRANCH  18  41
BRANCH  19  43
HETATM   43  O9  UNL     1      -8.982   6.711  13.560  1.00  0.00    -0.256 OA
BRANCH  43  44
HETATM   44  S1  UNL     1     -10.479   7.213  13.180  1.00  0.00     0.240 S 
HETATM   45  O10 UNL     1     -10.719   8.506  13.781  1.00  0.00    -0.579 OA
HETATM   46  O11 UNL     1     -10.681   6.994  11.772  1.00  0.00    -0.579 OA
BRANCH  44  47
HETATM   47  O12 UNL     1     -11.396   6.164  13.984  1.00  0.00    -0.274 OA
HETATM   48  H43 UNL     1     -11.110   6.166  14.933  1.00  0.00     0.234 HD
ENDBRANCH  44  47
ENDBRANCH  43  44
ENDBRANCH  19  43
TORSDOF 12
ENDMDL
