MODEL 1
REMARK minimizedAffinity -9.163908
REMARK CNNscore 0.345529914
REMARK CNNaffinity 7.21547651
REMARK  10 active torsions:
REMARK  status: ('A' for Active; 'I' for Inactive)
REMARK    1  A    between atoms: O1_2  and  C2_3 
REMARK    2  A    between atoms: C2_3  and  C3_5 
REMARK    3  A    between atoms: C3_5  and  C4_6 
REMARK    4  A    between atoms: C3_5  and  N1_13 
REMARK    5  A    between atoms: C4_6  and  C5_7 
REMARK       I    between atoms: N1_13  and  C11_14 
REMARK    6  A    between atoms: C11_14  and  C12_16 
REMARK    7  A    between atoms: C12_16  and  O4_17 
REMARK    8  A    between atoms: O4_17  and  N2_18 
REMARK    9  A    between atoms: C27_34  and  O5_35 
REMARK   10  A    between atoms: C27_34  and  C28_36 
ROOT
HETATM    1  N2  UNL     1      -3.161   4.826  13.901  1.00  0.00    -0.271 N 
ATOM      2  H2  UNL     1      -2.895   3.921  13.510  1.00  0.00     0.194 HD
HETATM    3  C13 UNL     1      -4.355   5.330  13.813  1.00  0.00     0.032 C 
HETATM    4  C14 UNL     1      -4.788   6.641  14.374  1.00  0.00     0.030 C 
HETATM    5  C15 UNL     1      -6.091   6.974  14.457  1.00  0.00    -0.069 C 
HETATM    6  C16 UNL     1      -6.482   8.367  14.900  1.00  0.00     0.035 C 
HETATM    7  C17 UNL     1      -7.842   8.453  15.592  1.00  0.00     0.010 C 
HETATM    8  C18 UNL     1      -8.975   7.699  14.866  1.00  0.00    -0.004 C 
HETATM    9  C19 UNL     1      -8.457   6.899  13.629  1.00  0.00     0.002 C 
HETATM   10  C20 UNL     1      -9.602   6.136  12.923  1.00  0.00     0.007 C 
HETATM   11  C21 UNL     1     -10.805   7.042  12.594  1.00  0.00     0.013 C 
HETATM   12  C22 UNL     1     -11.331   7.789  13.834  1.00  0.00    -0.002 C 
HETATM   13  C23 UNL     1     -11.936   6.764  14.834  1.00  0.00     0.019 C 
HETATM   14  C24 UNL     1     -10.137   8.597  14.422  1.00  0.00     0.002 C 
HETATM   15  C25 UNL     1     -10.801   9.498  15.457  1.00  0.00     0.009 C 
HETATM   16  C26 UNL     1     -12.167   9.852  14.839  1.00  0.00     0.047 C 
HETATM   17  C27 UNL     1     -12.343   8.949  13.584  1.00  0.00     0.125 C 
HETATM   18  C30 UNL     1      -7.211   6.028  14.017  1.00  0.00    -0.016 C 
HETATM   19  C31 UNL     1      -7.544   5.061  15.180  1.00  0.00     0.020 C 
HETATM   20  C32 UNL     1      -6.695   5.218  12.804  1.00  0.00     0.020 C 
HETATM   21  C33 UNL     1      -5.385   4.485  13.081  1.00  0.00     0.060 C 
ENDROOT
BRANCH   1  22
HETATM   22  O4  UNL     1      -2.278   5.667  14.595  1.00  0.00    -0.271 OA
BRANCH  22  23
HETATM   23  C12 UNL     1      -1.608   6.504  13.657  1.00  0.00     0.303 C 
BRANCH  23  24
HETATM   24  C11 UNL     1      -0.275   5.872  13.287  1.00  0.00     0.244 C 
HETATM   25  N1  UNL     1       0.637   6.765  12.758  1.00  0.00    -0.345 N 
HETATM   26  H12 UNL     1       0.472   7.748  12.956  1.00  0.00     0.163 HD
HETATM   27  O3  UNL     1      -0.064   4.666  13.394  1.00  0.00    -0.271 OA
BRANCH  25  28
HETATM   28  C3  UNL     1       2.007   6.369  12.399  1.00  0.00     0.188 C 
BRANCH  28  29
HETATM   29  C2  UNL     1       2.938   7.590  12.304  1.00  0.00     0.281 C 
HETATM   30  O2  UNL     1       2.576   8.717  11.982  1.00  0.00    -0.263 OA
BRANCH  29  31
HETATM   31  O1  UNL     1       4.220   7.273  12.671  1.00  0.00    -0.325 OA
HETATM   32  C1  UNL     1       5.096   7.030  11.569  1.00  0.00     0.213 C 
ENDBRANCH  29  31
ENDBRANCH  28  29
BRANCH  28  33
HETATM   33  C4  UNL     1       1.995   5.636  11.046  1.00  0.00     0.074 C 
BRANCH  33  34
HETATM   34  C5  UNL     1       1.711   6.558   9.883  1.00  0.00    -0.056 A 
HETATM   35  C6  UNL     1       2.624   6.686   8.829  1.00  0.00     0.007 A 
HETATM   36  C7  UNL     1       2.349   7.538   7.757  1.00  0.00     0.001 A 
HETATM   37  C8  UNL     1       1.161   8.263   7.728  1.00  0.00     0.000 A 
HETATM   38  C9  UNL     1       0.242   8.136   8.768  1.00  0.00     0.001 A 
HETATM   39  C10 UNL     1       0.514   7.286   9.841  1.00  0.00     0.007 A 
ENDBRANCH  33  34
ENDBRANCH  28  33
ENDBRANCH  25  28
ENDBRANCH  23  24
ENDBRANCH  22  23
ENDBRANCH   1  22
BRANCH  17  40
HETATM   40  O5  UNL     1     -11.943   9.712  12.437  1.00  0.00    -0.381 OA
HETATM   41  H34 UNL     1     -12.465  10.536  12.431  1.00  0.00     0.211 HD
ENDBRANCH  17  40
BRANCH  17  42
HETATM   42  C28 UNL     1     -13.808   8.497  13.379  1.00  0.00     0.158 C 
HETATM   43  C29 UNL     1     -14.049   7.227  12.600  1.00  0.00     0.094 C 
HETATM   44  O6  UNL     1     -14.762   9.115  13.860  1.00  0.00    -0.295 OA
ENDBRANCH  17  42
TORSDOF 10
ENDMDL
MODEL 2
REMARK minimizedAffinity -8.85903645
REMARK CNNscore 0.337743193
REMARK CNNaffinity 7.10874987
REMARK  10 active torsions:
REMARK  status: ('A' for Active; 'I' for Inactive)
REMARK    1  A    between atoms: O1_2  and  C2_3 
REMARK    2  A    between atoms: C2_3  and  C3_5 
REMARK    3  A    between atoms: C3_5  and  C4_6 
REMARK    4  A    between atoms: C3_5  and  N1_13 
REMARK    5  A    between atoms: C4_6  and  C5_7 
REMARK       I    between atoms: N1_13  and  C11_14 
REMARK    6  A    between atoms: C11_14  and  C12_16 
REMARK    7  A    between atoms: C12_16  and  O4_17 
REMARK    8  A    between atoms: O4_17  and  N2_18 
REMARK    9  A    between atoms: C27_34  and  O5_35 
REMARK   10  A    between atoms: C27_34  and  C28_36 
ROOT
HETATM    1  N2  UNL     1     -11.958   7.370  15.075  1.00  0.00    -0.271 N 
ATOM      2  H2  UNL     1     -12.479   7.938  15.744  1.00  0.00     0.194 HD
HETATM    3  C13 UNL     1     -10.680   7.481  14.871  1.00  0.00     0.032 C 
HETATM    4  C14 UNL     1      -9.880   6.668  13.912  1.00  0.00     0.030 C 
HETATM    5  C15 UNL     1      -8.533   6.672  13.941  1.00  0.00    -0.069 C 
HETATM    6  C16 UNL     1      -7.757   5.946  12.863  1.00  0.00     0.035 C 
HETATM    7  C17 UNL     1      -6.386   5.434  13.303  1.00  0.00     0.010 C 
HETATM    8  C18 UNL     1      -5.541   6.465  14.079  1.00  0.00    -0.004 C 
HETATM    9  C19 UNL     1      -6.326   7.786  14.357  1.00  0.00     0.002 C 
HETATM   10  C20 UNL     1      -5.469   8.801  15.149  1.00  0.00     0.007 C 
HETATM   11  C21 UNL     1      -4.088   9.043  14.508  1.00  0.00     0.013 C 
HETATM   12  C22 UNL     1      -3.311   7.733  14.282  1.00  0.00    -0.002 C 
HETATM   13  C23 UNL     1      -2.945   7.109  15.658  1.00  0.00     0.019 C 
HETATM   14  C24 UNL     1      -4.208   6.813  13.403  1.00  0.00     0.002 C 
HETATM   15  C25 UNL     1      -3.269   5.679  13.012  1.00  0.00     0.009 C 
HETATM   16  C26 UNL     1      -1.896   6.357  12.844  1.00  0.00     0.047 C 
HETATM   17  C27 UNL     1      -2.041   7.811  13.380  1.00  0.00     0.125 C 
HETATM   18  C30 UNL     1      -7.734   7.474  14.971  1.00  0.00    -0.016 C 
HETATM   19  C31 UNL     1      -7.606   6.644  16.272  1.00  0.00     0.020 C 
HETATM   20  C32 UNL     1      -8.517   8.776  15.265  1.00  0.00     0.020 C 
HETATM   21  C33 UNL     1      -9.958   8.526  15.705  1.00  0.00     0.060 C 
ENDROOT
BRANCH   1  22
HETATM   22  O4  UNL     1     -12.541   6.381  14.269  1.00  0.00    -0.271 OA
BRANCH  22  23
HETATM   23  C12 UNL     1     -13.084   6.996  13.104  1.00  0.00     0.303 C 
BRANCH  23  24
HETATM   24  C11 UNL     1     -14.585   6.759  13.067  1.00  0.00     0.244 C 
HETATM   25  N1  UNL     1     -15.054   5.996  14.119  1.00  0.00    -0.345 N 
HETATM   26  H12 UNL     1     -14.457   5.947  14.941  1.00  0.00     0.163 HD
HETATM   27  O3  UNL     1     -15.295   7.158  12.146  1.00  0.00    -0.271 OA
BRANCH  25  28
HETATM   28  C3  UNL     1     -16.484   5.708  14.305  1.00  0.00     0.188 C 
BRANCH  28  29
HETATM   29  C2  UNL     1     -17.209   6.880  14.989  1.00  0.00     0.281 C 
HETATM   30  O2  UNL     1     -16.646   7.801  15.571  1.00  0.00    -0.263 OA
BRANCH  29  31
HETATM   31  O1  UNL     1     -18.567   6.794  14.826  1.00  0.00    -0.325 OA
HETATM   32  C1  UNL     1     -19.318   7.474  15.834  1.00  0.00     0.213 C 
ENDBRANCH  29  31
ENDBRANCH  28  29
BRANCH  28  33
HETATM   33  C4  UNL     1     -16.648   4.442  15.164  1.00  0.00     0.074 C 
BRANCH  33  34
HETATM   34  C5  UNL     1     -16.491   3.169  14.365  1.00  0.00    -0.056 A 
HETATM   35  C6  UNL     1     -15.497   2.237  14.688  1.00  0.00     0.007 A 
HETATM   36  C7  UNL     1     -15.363   1.062  13.946  1.00  0.00     0.001 A 
HETATM   37  C8  UNL     1     -16.223   0.806  12.880  1.00  0.00     0.000 A 
HETATM   38  C9  UNL     1     -17.221   1.723  12.557  1.00  0.00     0.001 A 
HETATM   39  C10 UNL     1     -17.357   2.900  13.296  1.00  0.00     0.007 A 
ENDBRANCH  33  34
ENDBRANCH  28  33
ENDBRANCH  25  28
ENDBRANCH  23  24
ENDBRANCH  22  23
ENDBRANCH   1  22
BRANCH  17  40
HETATM   40  O5  UNL     1      -2.288   8.668  12.257  1.00  0.00    -0.381 OA
HETATM   41  H34 UNL     1      -1.565   8.534  11.615  1.00  0.00     0.211 HD
ENDBRANCH  17  40
BRANCH  17  42
HETATM   42  C28 UNL     1      -0.766   8.308  14.099  1.00  0.00     0.158 C 
HETATM   43  C29 UNL     1      -0.639   9.789  14.362  1.00  0.00     0.094 C 
HETATM   44  O6  UNL     1       0.115   7.536  14.490  1.00  0.00    -0.295 OA
ENDBRANCH  17  42
TORSDOF 10
ENDMDL
MODEL 3
REMARK minimizedAffinity -9.43321705
REMARK CNNscore 0.280667961
REMARK CNNaffinity 7.27741051
REMARK  10 active torsions:
REMARK  status: ('A' for Active; 'I' for Inactive)
REMARK    1  A    between atoms: O1_2  and  C2_3 
REMARK    2  A    between atoms: C2_3  and  C3_5 
REMARK    3  A    between atoms: C3_5  and  C4_6 
REMARK    4  A    between atoms: C3_5  and  N1_13 
REMARK    5  A    between atoms: C4_6  and  C5_7 
REMARK       I    between atoms: N1_13  and  C11_14 
REMARK    6  A    between atoms: C11_14  and  C12_16 
REMARK    7  A    between atoms: C12_16  and  O4_17 
REMARK    8  A    between atoms: O4_17  and  N2_18 
REMARK    9  A    between atoms: C27_34  and  O5_35 
REMARK   10  A    between atoms: C27_34  and  C28_36 
ROOT
HETATM    1  N2  UNL     1      -4.472   3.228  12.644  1.00  0.00    -0.271 N 
ATOM      2  H2  UNL     1      -4.677   2.249  12.444  1.00  0.00     0.194 HD
HETATM    3  C13 UNL     1      -5.382   4.119  12.904  1.00  0.00     0.032 C 
HETATM    4  C14 UNL     1      -5.128   5.556  13.209  1.00  0.00     0.030 C 
HETATM    5  C15 UNL     1      -6.096   6.349  13.707  1.00  0.00    -0.069 C 
HETATM    6  C16 UNL     1      -5.841   7.832  13.871  1.00  0.00     0.035 C 
HETATM    7  C17 UNL     1      -6.639   8.493  14.994  1.00  0.00     0.010 C 
HETATM    8  C18 UNL     1      -8.136   8.123  15.014  1.00  0.00    -0.004 C 
HETATM    9  C19 UNL     1      -8.494   7.043  13.944  1.00  0.00     0.002 C 
HETATM   10  C20 UNL     1      -9.995   6.672  13.990  1.00  0.00     0.007 C 
HETATM   11  C21 UNL     1     -10.915   7.907  13.932  1.00  0.00     0.013 C 
HETATM   12  C22 UNL     1     -10.576   8.940  15.022  1.00  0.00    -0.002 C 
HETATM   13  C23 UNL     1     -10.897   8.338  16.419  1.00  0.00     0.019 C 
HETATM   14  C24 UNL     1      -9.077   9.322  14.842  1.00  0.00     0.002 C 
HETATM   15  C25 UNL     1      -8.909  10.522  15.766  1.00  0.00     0.009 C 
HETATM   16  C26 UNL     1     -10.251  11.273  15.671  1.00  0.00     0.047 C 
HETATM   17  C27 UNL     1     -11.230  10.351  14.888  1.00  0.00     0.125 C 
HETATM   18  C30 UNL     1      -7.501   5.833  14.027  1.00  0.00    -0.016 C 
HETATM   19  C31 UNL     1      -7.501   5.204  15.442  1.00  0.00     0.020 C 
HETATM   20  C32 UNL     1      -7.853   4.748  12.981  1.00  0.00     0.020 C 
HETATM   21  C33 UNL     1      -6.820   3.627  12.904  1.00  0.00     0.060 C 
ENDROOT
BRANCH   1  22
HETATM   22  O4  UNL     1      -3.177   3.768  12.671  1.00  0.00    -0.271 OA
BRANCH  22  23
HETATM   23  C12 UNL     1      -2.373   3.078  11.718  1.00  0.00     0.303 C 
BRANCH  23  24
HETATM   24  C11 UNL     1      -0.984   3.697  11.696  1.00  0.00     0.244 C 
HETATM   25  N1  UNL     1      -0.963   5.030  12.058  1.00  0.00    -0.345 N 
HETATM   26  H12 UNL     1      -1.764   5.366  12.587  1.00  0.00     0.163 HD
HETATM   27  O3  UNL     1       0.011   3.076  11.328  1.00  0.00    -0.271 OA
BRANCH  25  28
HETATM   28  C3  UNL     1       0.288   5.796  12.166  1.00  0.00     0.188 C 
BRANCH  28  29
HETATM   29  C2  UNL     1       0.627   6.113  13.633  1.00  0.00     0.281 C 
HETATM   30  O2  UNL     1       1.694   6.582  14.014  1.00  0.00    -0.263 OA
BRANCH  29  31
HETATM   31  O1  UNL     1      -0.432   5.849  14.461  1.00  0.00    -0.325 OA
HETATM   32  C1  UNL     1      -0.950   7.003  15.127  1.00  0.00     0.213 C 
ENDBRANCH  29  31
ENDBRANCH  28  29
BRANCH  28  33
HETATM   33  C4  UNL     1       0.156   7.114  11.382  1.00  0.00     0.074 C 
BRANCH  33  34
HETATM   34  C5  UNL     1       0.894   7.085  10.063  1.00  0.00    -0.056 A 
HETATM   35  C6  UNL     1       0.567   7.981   9.038  1.00  0.00     0.007 A 
HETATM   36  C7  UNL     1       1.258   7.949   7.825  1.00  0.00     0.001 A 
HETATM   37  C8  UNL     1       2.283   7.026   7.629  1.00  0.00     0.000 A 
HETATM   38  C9  UNL     1       2.622   6.137   8.647  1.00  0.00     0.001 A 
HETATM   39  C10 UNL     1       1.932   6.165   9.860  1.00  0.00     0.007 A 
ENDBRANCH  33  34
ENDBRANCH  28  33
ENDBRANCH  25  28
ENDBRANCH  23  24
ENDBRANCH  22  23
ENDBRANCH   1  22
BRANCH  17  40
HETATM   40  O5  UNL     1     -11.221  10.768  13.516  1.00  0.00    -0.381 OA
HETATM   41  H34 UNL     1     -11.439  11.718  13.493  1.00  0.00     0.211 HD
ENDBRANCH  17  40
BRANCH  17  42
HETATM   42  C28 UNL     1     -12.681  10.443  15.415  1.00  0.00     0.158 C 
HETATM   43  C29 UNL     1     -13.760   9.740  14.628  1.00  0.00     0.094 C 
HETATM   44  O6  UNL     1     -12.967  11.033  16.461  1.00  0.00    -0.295 OA
ENDBRANCH  17  42
TORSDOF 10
ENDMDL
MODEL 4
REMARK minimizedAffinity -9.16453648
REMARK CNNscore 0.257783324
REMARK CNNaffinity 7.15891123
REMARK  10 active torsions:
REMARK  status: ('A' for Active; 'I' for Inactive)
REMARK    1  A    between atoms: O1_2  and  C2_3 
REMARK    2  A    between atoms: C2_3  and  C3_5 
REMARK    3  A    between atoms: C3_5  and  C4_6 
REMARK    4  A    between atoms: C3_5  and  N1_13 
REMARK    5  A    between atoms: C4_6  and  C5_7 
REMARK       I    between atoms: N1_13  and  C11_14 
REMARK    6  A    between atoms: C11_14  and  C12_16 
REMARK    7  A    between atoms: C12_16  and  O4_17 
REMARK    8  A    between atoms: O4_17  and  N2_18 
REMARK    9  A    between atoms: C27_34  and  O5_35 
REMARK   10  A    between atoms: C27_34  and  C28_36 
ROOT
HETATM    1  N2  UNL     1     -11.445   7.407  15.116  1.00  0.00    -0.271 N 
ATOM      2  H2  UNL     1     -11.856   7.984  15.851  1.00  0.00     0.194 HD
HETATM    3  C13 UNL     1     -10.169   7.342  14.876  1.00  0.00     0.032 C 
HETATM    4  C14 UNL     1      -9.526   6.508  13.821  1.00  0.00     0.030 C 
HETATM    5  C15 UNL     1      -8.194   6.307  13.800  1.00  0.00    -0.069 C 
HETATM    6  C16 UNL     1      -7.565   5.573  12.635  1.00  0.00     0.035 C 
HETATM    7  C17 UNL     1      -6.278   4.823  12.979  1.00  0.00     0.010 C 
HETATM    8  C18 UNL     1      -5.267   5.640  13.809  1.00  0.00    -0.004 C 
HETATM    9  C19 UNL     1      -5.833   7.034  14.228  1.00  0.00     0.002 C 
HETATM   10  C20 UNL     1      -4.813   7.832  15.073  1.00  0.00     0.007 C 
HETATM   11  C21 UNL     1      -3.427   7.920  14.404  1.00  0.00     0.013 C 
HETATM   12  C22 UNL     1      -2.865   6.534  14.038  1.00  0.00    -0.002 C 
HETATM   13  C23 UNL     1      -2.567   5.739  15.341  1.00  0.00     0.019 C 
HETATM   14  C24 UNL     1      -3.913   5.843  13.117  1.00  0.00     0.002 C 
HETATM   15  C25 UNL     1      -3.168   4.620  12.595  1.00  0.00     0.009 C 
HETATM   16  C26 UNL     1      -1.711   5.097  12.435  1.00  0.00     0.047 C 
HETATM   17  C27 UNL     1      -1.619   6.501  13.099  1.00  0.00     0.125 C 
HETATM   18  C30 UNL     1      -7.258   6.882  14.865  1.00  0.00    -0.016 C 
HETATM   19  C31 UNL     1      -7.228   5.928  16.084  1.00  0.00     0.020 C 
HETATM   20  C32 UNL     1      -7.825   8.255  15.299  1.00  0.00     0.020 C 
HETATM   21  C33 UNL     1      -9.276   8.187  15.770  1.00  0.00     0.060 C 
ENDROOT
BRANCH   1  22
HETATM   22  O4  UNL     1     -12.191   6.594  14.251  1.00  0.00    -0.271 OA
BRANCH  22  23
HETATM   23  C12 UNL     1     -12.518   7.343  13.084  1.00  0.00     0.303 C 
BRANCH  23  24
HETATM   24  C11 UNL     1     -14.002   7.675  13.103  1.00  0.00     0.244 C 
HETATM   25  N1  UNL     1     -14.722   7.065  12.094  1.00  0.00    -0.345 N 
HETATM   26  H12 UNL     1     -14.293   6.250  11.664  1.00  0.00     0.163 HD
HETATM   27  O3  UNL     1     -14.492   8.464  13.908  1.00  0.00    -0.271 OA
BRANCH  25  28
HETATM   28  C3  UNL     1     -16.182   7.202  11.977  1.00  0.00     0.188 C 
BRANCH  28  29
HETATM   29  C2  UNL     1     -16.585   8.646  11.631  1.00  0.00     0.281 C 
HETATM   30  O2  UNL     1     -16.182   9.265  10.652  1.00  0.00    -0.263 OA
BRANCH  29  31
HETATM   31  O1  UNL     1     -17.490   9.143  12.532  1.00  0.00    -0.325 OA
HETATM   32  C1  UNL     1     -17.249  10.500  12.910  1.00  0.00     0.213 C 
ENDBRANCH  29  31
ENDBRANCH  28  29
BRANCH  28  33
HETATM   33  C4  UNL     1     -16.847   6.794  13.303  1.00  0.00     0.074 C 
BRANCH  33  34
HETATM   34  C5  UNL     1     -16.780   5.306  13.557  1.00  0.00    -0.056 A 
HETATM   35  C6  UNL     1     -15.932   4.783  14.541  1.00  0.00     0.007 A 
HETATM   36  C7  UNL     1     -15.882   3.407  14.771  1.00  0.00     0.001 A 
HETATM   37  C8  UNL     1     -16.682   2.544  14.025  1.00  0.00     0.000 A 
HETATM   38  C9  UNL     1     -17.537   3.056  13.051  1.00  0.00     0.001 A 
HETATM   39  C10 UNL     1     -17.588   4.431  12.818  1.00  0.00     0.007 A 
ENDBRANCH  33  34
ENDBRANCH  28  33
ENDBRANCH  25  28
ENDBRANCH  23  24
ENDBRANCH  22  23
ENDBRANCH   1  22
BRANCH  17  40
HETATM   40  O5  UNL     1      -1.758   7.484  12.064  1.00  0.00    -0.381 OA
HETATM   41  H34 UNL     1      -1.080   7.301  11.387  1.00  0.00     0.211 HD
ENDBRANCH  17  40
BRANCH  17  42
HETATM   42  C28 UNL     1      -0.266   6.733  13.811  1.00  0.00     0.158 C 
HETATM   43  C29 UNL     1       0.889   5.837  13.433  1.00  0.00     0.094 C 
HETATM   44  O6  UNL     1      -0.100   7.638  14.634  1.00  0.00    -0.295 OA
ENDBRANCH  17  42
TORSDOF 10
ENDMDL
MODEL 5
REMARK minimizedAffinity -8.65008831
REMARK CNNscore 0.222332567
REMARK CNNaffinity 7.15469408
REMARK  10 active torsions:
REMARK  status: ('A' for Active; 'I' for Inactive)
REMARK    1  A    between atoms: O1_2  and  C2_3 
REMARK    2  A    between atoms: C2_3  and  C3_5 
REMARK    3  A    between atoms: C3_5  and  C4_6 
REMARK    4  A    between atoms: C3_5  and  N1_13 
REMARK    5  A    between atoms: C4_6  and  C5_7 
REMARK       I    between atoms: N1_13  and  C11_14 
REMARK    6  A    between atoms: C11_14  and  C12_16 
REMARK    7  A    between atoms: C12_16  and  O4_17 
REMARK    8  A    between atoms: O4_17  and  N2_18 
REMARK    9  A    between atoms: C27_34  and  O5_35 
REMARK   10  A    between atoms: C27_34  and  C28_36 
ROOT
HETATM    1  N2  UNL     1      -3.627   3.676  12.904  1.00  0.00    -0.271 N 
ATOM      2  H2  UNL     1      -3.501   2.845  12.326  1.00  0.00     0.194 HD
HETATM    3  C13 UNL     1      -4.734   4.355  12.964  1.00  0.00     0.032 C 
HETATM    4  C14 UNL     1      -4.964   5.568  13.800  1.00  0.00     0.030 C 
HETATM    5  C15 UNL     1      -6.202   6.061  13.995  1.00  0.00    -0.069 C 
HETATM    6  C16 UNL     1      -6.381   7.372  14.731  1.00  0.00     0.035 C 
HETATM    7  C17 UNL     1      -7.710   7.507  15.473  1.00  0.00     0.010 C 
HETATM    8  C18 UNL     1      -8.945   7.094  14.647  1.00  0.00    -0.004 C 
HETATM    9  C19 UNL     1      -8.557   6.504  13.254  1.00  0.00     0.002 C 
HETATM   10  C20 UNL     1      -9.806   6.080  12.447  1.00  0.00     0.007 C 
HETATM   11  C21 UNL     1     -10.862   7.199  12.355  1.00  0.00     0.013 C 
HETATM   12  C22 UNL     1     -11.265   7.738  13.740  1.00  0.00    -0.002 C 
HETATM   13  C23 UNL     1     -12.013   6.624  14.527  1.00  0.00     0.019 C 
HETATM   14  C24 UNL     1      -9.963   8.223  14.440  1.00  0.00     0.002 C 
HETATM   15  C25 UNL     1     -10.481   8.973  15.662  1.00  0.00     0.009 C 
HETATM   16  C26 UNL     1     -11.781   9.643  15.179  1.00  0.00     0.047 C 
HETATM   17  C27 UNL     1     -12.095   9.059  13.771  1.00  0.00     0.125 C 
HETATM   18  C30 UNL     1      -7.453   5.401  13.409  1.00  0.00    -0.016 C 
HETATM   19  C31 UNL     1      -7.921   4.270  14.358  1.00  0.00     0.020 C 
HETATM   20  C32 UNL     1      -7.069   4.797  12.037  1.00  0.00     0.020 C 
HETATM   21  C33 UNL     1      -5.881   3.841  12.111  1.00  0.00     0.060 C 
ENDROOT
BRANCH   1  22
HETATM   22  O4  UNL     1      -2.626   4.217  13.725  1.00  0.00    -0.271 OA
BRANCH  22  23
HETATM   23  C12 UNL     1      -1.697   4.927  12.911  1.00  0.00     0.303 C 
BRANCH  23  24
HETATM   24  C11 UNL     1      -1.214   6.158  13.661  1.00  0.00     0.244 C 
HETATM   25  N1  UNL     1      -0.357   6.955  12.929  1.00  0.00    -0.345 N 
HETATM   26  H12 UNL     1      -0.385   6.839  11.919  1.00  0.00     0.163 HD
HETATM   27  O3  UNL     1      -1.515   6.378  14.833  1.00  0.00    -0.271 OA
BRANCH  25  28
HETATM   28  C3  UNL     1       0.170   8.227  13.447  1.00  0.00     0.188 C 
BRANCH  28  29
HETATM   29  C2  UNL     1      -0.809   9.387  13.191  1.00  0.00     0.281 C 
HETATM   30  O2  UNL     1      -1.538   9.476  12.209  1.00  0.00    -0.263 OA
BRANCH  29  31
HETATM   31  O1  UNL     1      -0.799  10.288  14.223  1.00  0.00    -0.325 OA
HETATM   32  C1  UNL     1      -2.078  10.861  14.505  1.00  0.00     0.213 C 
ENDBRANCH  29  31
ENDBRANCH  28  29
BRANCH  28  33
HETATM   33  C4  UNL     1       1.516   8.542  12.771  1.00  0.00     0.074 C 
BRANCH  33  34
HETATM   34  C5  UNL     1       1.744   7.731  11.516  1.00  0.00    -0.056 A 
HETATM   35  C6  UNL     1       2.495   6.550  11.553  1.00  0.00     0.007 A 
HETATM   36  C7  UNL     1       2.696   5.805  10.388  1.00  0.00     0.001 A 
HETATM   37  C8  UNL     1       2.145   6.232   9.182  1.00  0.00     0.000 A 
HETATM   38  C9  UNL     1       1.388   7.402   9.138  1.00  0.00     0.001 A 
HETATM   39  C10 UNL     1       1.187   8.148  10.300  1.00  0.00     0.007 A 
ENDBRANCH  33  34
ENDBRANCH  28  33
ENDBRANCH  25  28
ENDBRANCH  23  24
ENDBRANCH  22  23
ENDBRANCH   1  22
BRANCH  17  40
HETATM   40  O5  UNL     1     -11.591   9.979  12.794  1.00  0.00    -0.381 OA
HETATM   41  H34 UNL     1     -11.984  10.853  12.977  1.00  0.00     0.211 HD
ENDBRANCH  17  40
BRANCH  17  42
HETATM   42  C28 UNL     1     -13.611   8.876  13.529  1.00  0.00     0.158 C 
HETATM   43  C29 UNL     1     -14.548   9.186  14.673  1.00  0.00     0.094 C 
HETATM   44  O6  UNL     1     -14.068   8.529  12.436  1.00  0.00    -0.295 OA
ENDBRANCH  17  42
TORSDOF 10
ENDMDL
MODEL 6
REMARK minimizedAffinity -7.702847
REMARK CNNscore 0.21233578
REMARK CNNaffinity 6.33754158
REMARK  10 active torsions:
REMARK  status: ('A' for Active; 'I' for Inactive)
REMARK    1  A    between atoms: O1_2  and  C2_3 
REMARK    2  A    between atoms: C2_3  and  C3_5 
REMARK    3  A    between atoms: C3_5  and  C4_6 
REMARK    4  A    between atoms: C3_5  and  N1_13 
REMARK    5  A    between atoms: C4_6  and  C5_7 
REMARK       I    between atoms: N1_13  and  C11_14 
REMARK    6  A    between atoms: C11_14  and  C12_16 
REMARK    7  A    between atoms: C12_16  and  O4_17 
REMARK    8  A    between atoms: O4_17  and  N2_18 
REMARK    9  A    between atoms: C27_34  and  O5_35 
REMARK   10  A    between atoms: C27_34  and  C28_36 
ROOT
HETATM    1  N2  UNL     1       2.659  11.875  18.056  1.00  0.00    -0.271 N 
ATOM      2  H2  UNL     1       2.659  12.858  18.330  1.00  0.00     0.194 HD
HETATM    3  C13 UNL     1       1.600  11.234  17.659  1.00  0.00     0.032 C 
HETATM    4  C14 UNL     1       1.556   9.804  17.243  1.00  0.00     0.030 C 
HETATM    5  C15 UNL     1       0.482   9.288  16.613  1.00  0.00    -0.069 C 
HETATM    6  C16 UNL     1       0.418   7.802  16.335  1.00  0.00     0.035 C 
HETATM    7  C17 UNL     1      -0.410   7.423  15.107  1.00  0.00     0.010 C 
HETATM    8  C18 UNL     1      -1.782   8.123  15.023  1.00  0.00    -0.004 C 
HETATM    9  C19 UNL     1      -1.981   9.174  16.160  1.00  0.00     0.002 C 
HETATM   10  C20 UNL     1      -3.354   9.878  16.051  1.00  0.00     0.007 C 
HETATM   11  C21 UNL     1      -4.525   8.882  15.938  1.00  0.00     0.013 C 
HETATM   12  C22 UNL     1      -4.332   7.881  14.783  1.00  0.00    -0.002 C 
HETATM   13  C23 UNL     1      -4.396   8.641  13.428  1.00  0.00     0.019 C 
HETATM   14  C24 UNL     1      -2.975   7.158  15.025  1.00  0.00     0.002 C 
HETATM   15  C25 UNL     1      -2.998   6.022  14.010  1.00  0.00     0.009 C 
HETATM   16  C26 UNL     1      -4.475   5.589  13.950  1.00  0.00     0.047 C 
HETATM   17  C27 UNL     1      -5.290   6.650  14.747  1.00  0.00     0.125 C 
HETATM   18  C30 UNL     1      -0.743  10.132  16.251  1.00  0.00    -0.016 C 
HETATM   19  C31 UNL     1      -0.486  10.846  14.901  1.00  0.00     0.020 C 
HETATM   20  C32 UNL     1      -0.933  11.189  17.365  1.00  0.00     0.020 C 
HETATM   21  C33 UNL     1       0.311  12.038  17.610  1.00  0.00     0.060 C 
ENDROOT
BRANCH   1  22
HETATM   22  O4  UNL     1       3.801  11.060  18.065  1.00  0.00    -0.271 OA
BRANCH  22  23
HETATM   23  C12 UNL     1       4.951  11.883  18.246  1.00  0.00     0.303 C 
BRANCH  23  24
HETATM   24  C11 UNL     1       4.677  12.885  19.357  1.00  0.00     0.244 C 
HETATM   25  N1  UNL     1       4.982  12.413  20.619  1.00  0.00    -0.345 N 
HETATM   26  H12 UNL     1       5.625  11.626  20.663  1.00  0.00     0.163 HD
HETATM   27  O3  UNL     1       4.172  13.985  19.145  1.00  0.00    -0.271 OA
BRANCH  25  28
HETATM   28  C3  UNL     1       4.855  13.249  21.823  1.00  0.00     0.188 C 
BRANCH  28  29
HETATM   29  C2  UNL     1       6.028  13.021  22.792  1.00  0.00     0.281 C 
HETATM   30  O2  UNL     1       6.442  11.919  23.134  1.00  0.00    -0.263 OA
BRANCH  29  31
HETATM   31  O1  UNL     1       6.586  14.208  23.190  1.00  0.00    -0.325 OA
HETATM   32  C1  UNL     1       6.160  15.336  22.424  1.00  0.00     0.213 C 
ENDBRANCH  29  31
ENDBRANCH  28  29
BRANCH  28  33
HETATM   33  C4  UNL     1       3.534  12.921  22.541  1.00  0.00     0.074 C 
BRANCH  33  34
HETATM   34  C5  UNL     1       3.130  11.473  22.390  1.00  0.00    -0.056 A 
HETATM   35  C6  UNL     1       3.602  10.499  23.279  1.00  0.00     0.007 A 
HETATM   36  C7  UNL     1       3.218   9.164  23.132  1.00  0.00     0.001 A 
HETATM   37  C8  UNL     1       2.357   8.794  22.102  1.00  0.00     0.000 A 
HETATM   38  C9  UNL     1       1.874   9.757  21.219  1.00  0.00     0.001 A 
HETATM   39  C10 UNL     1       2.257  11.092  21.361  1.00  0.00     0.007 A 
ENDBRANCH  33  34
ENDBRANCH  28  33
ENDBRANCH  25  28
ENDBRANCH  23  24
ENDBRANCH  22  23
ENDBRANCH   1  22
BRANCH  17  40
HETATM   40  O5  UNL     1      -5.487   6.142  16.074  1.00  0.00    -0.381 OA
HETATM   41  H34 UNL     1      -5.910   5.267  15.998  1.00  0.00     0.211 HD
ENDBRANCH  17  40
BRANCH  17  42
HETATM   42  C28 UNL     1      -6.676   6.926  14.121  1.00  0.00     0.158 C 
HETATM   43  C29 UNL     1      -7.631   7.806  14.891  1.00  0.00     0.094 C 
HETATM   44  O6  UNL     1      -7.000   6.486  13.014  1.00  0.00    -0.295 OA
ENDBRANCH  17  42
TORSDOF 10
ENDMDL
MODEL 7
REMARK minimizedAffinity -8.81157017
REMARK CNNscore 0.20900251
REMARK CNNaffinity 5.94288015
REMARK  10 active torsions:
REMARK  status: ('A' for Active; 'I' for Inactive)
REMARK    1  A    between atoms: O1_2  and  C2_3 
REMARK    2  A    between atoms: C2_3  and  C3_5 
REMARK    3  A    between atoms: C3_5  and  C4_6 
REMARK    4  A    between atoms: C3_5  and  N1_13 
REMARK    5  A    between atoms: C4_6  and  C5_7 
REMARK       I    between atoms: N1_13  and  C11_14 
REMARK    6  A    between atoms: C11_14  and  C12_16 
REMARK    7  A    between atoms: C12_16  and  O4_17 
REMARK    8  A    between atoms: O4_17  and  N2_18 
REMARK    9  A    between atoms: C27_34  and  O5_35 
REMARK   10  A    between atoms: C27_34  and  C28_36 
ROOT
HETATM    1  N2  UNL     1       2.061  12.566  17.324  1.00  0.00    -0.271 N 
ATOM      2  H2  UNL     1       1.993  13.565  17.517  1.00  0.00     0.194 HD
HETATM    3  C13 UNL     1       1.044  11.815  17.024  1.00  0.00     0.032 C 
HETATM    4  C14 UNL     1       1.099  10.356  16.727  1.00  0.00     0.030 C 
HETATM    5  C15 UNL     1       0.049   9.709  16.185  1.00  0.00    -0.069 C 
HETATM    6  C16 UNL     1       0.093   8.204  16.031  1.00  0.00     0.035 C 
HETATM    7  C17 UNL     1      -0.744   7.661  14.873  1.00  0.00     0.010 C 
HETATM    8  C18 UNL     1      -2.169   8.245  14.787  1.00  0.00    -0.004 C 
HETATM    9  C19 UNL     1      -2.412   9.370  15.843  1.00  0.00     0.002 C 
HETATM   10  C20 UNL     1      -3.839   9.955  15.732  1.00  0.00     0.007 C 
HETATM   11  C21 UNL     1      -4.931   8.867  15.748  1.00  0.00     0.013 C 
HETATM   12  C22 UNL     1      -4.699   7.790  14.671  1.00  0.00    -0.002 C 
HETATM   13  C23 UNL     1      -4.868   8.427  13.263  1.00  0.00     0.019 C 
HETATM   14  C24 UNL     1      -3.281   7.196  14.916  1.00  0.00     0.002 C 
HETATM   15  C25 UNL     1      -3.248   5.980  13.998  1.00  0.00     0.009 C 
HETATM   16  C26 UNL     1      -4.688   5.433  14.033  1.00  0.00     0.047 C 
HETATM   17  C27 UNL     1      -5.556   6.491  14.774  1.00  0.00     0.125 C 
HETATM   18  C30 UNL     1      -1.251  10.423  15.806  1.00  0.00    -0.016 C 
HETATM   19  C31 UNL     1      -1.098  11.038  14.393  1.00  0.00     0.020 C 
HETATM   20  C32 UNL     1      -1.487  11.552  16.837  1.00  0.00     0.020 C 
HETATM   21  C33 UNL     1      -0.306  12.512  16.962  1.00  0.00     0.060 C 
ENDROOT
BRANCH   1  22
HETATM   22  O4  UNL     1       3.264  11.844  17.353  1.00  0.00    -0.271 OA
BRANCH  22  23
HETATM   23  C12 UNL     1       4.224  12.580  18.106  1.00  0.00     0.303 C 
BRANCH  23  24
HETATM   24  C11 UNL     1       4.802  11.684  19.190  1.00  0.00     0.244 C 
HETATM   25  N1  UNL     1       4.055  11.663  20.352  1.00  0.00    -0.345 N 
HETATM   26  H12 UNL     1       3.086  11.960  20.270  1.00  0.00     0.163 HD
HETATM   27  O3  UNL     1       5.869  11.089  19.056  1.00  0.00    -0.271 OA
BRANCH  25  28
HETATM   28  C3  UNL     1       4.405  10.807  21.496  1.00  0.00     0.188 C 
BRANCH  28  29
HETATM   29  C2  UNL     1       3.405   9.650  21.659  1.00  0.00     0.281 C 
HETATM   30  O2  UNL     1       2.694   9.214  20.760  1.00  0.00    -0.263 OA
BRANCH  29  31
HETATM   31  O1  UNL     1       3.439   9.132  22.927  1.00  0.00    -0.325 OA
HETATM   32  C1  UNL     1       2.295   8.346  23.265  1.00  0.00     0.213 C 
ENDBRANCH  29  31
ENDBRANCH  28  29
BRANCH  28  33
HETATM   33  C4  UNL     1       4.420  11.649  22.784  1.00  0.00     0.074 C 
BRANCH  33  34
HETATM   34  C5  UNL     1       5.680  12.470  22.932  1.00  0.00    -0.056 A 
HETATM   35  C6  UNL     1       5.622  13.867  23.005  1.00  0.00     0.007 A 
HETATM   36  C7  UNL     1       6.791  14.617  23.146  1.00  0.00     0.001 A 
HETATM   37  C8  UNL     1       8.026  13.977  23.220  1.00  0.00     0.000 A 
HETATM   38  C9  UNL     1       8.094  12.586  23.158  1.00  0.00     0.001 A 
HETATM   39  C10 UNL     1       6.927  11.834  23.015  1.00  0.00     0.007 A 
ENDBRANCH  33  34
ENDBRANCH  28  33
ENDBRANCH  25  28
ENDBRANCH  23  24
ENDBRANCH  22  23
ENDBRANCH   1  22
BRANCH  17  40
HETATM   40  O5  UNL     1      -5.668   6.083  16.144  1.00  0.00    -0.381 OA
HETATM   41  H34 UNL     1      -6.022   5.175  16.157  1.00  0.00     0.211 HD
ENDBRANCH  17  40
BRANCH  17  42
HETATM   42  C28 UNL     1      -6.980   6.607  14.184  1.00  0.00     0.158 C 
HETATM   43  C29 UNL     1      -7.401   5.585  13.157  1.00  0.00     0.094 C 
HETATM   44  O6  UNL     1      -7.779   7.473  14.554  1.00  0.00    -0.295 OA
ENDBRANCH  17  42
TORSDOF 10
ENDMDL
MODEL 8
REMARK minimizedAffinity -8.08880138
REMARK CNNscore 0.206809923
REMARK CNNaffinity 5.10132265
REMARK  10 active torsions:
REMARK  status: ('A' for Active; 'I' for Inactive)
REMARK    1  A    between atoms: O1_2  and  C2_3 
REMARK    2  A    between atoms: C2_3  and  C3_5 
REMARK    3  A    between atoms: C3_5  and  C4_6 
REMARK    4  A    between atoms: C3_5  and  N1_13 
REMARK    5  A    between atoms: C4_6  and  C5_7 
REMARK       I    between atoms: N1_13  and  C11_14 
REMARK    6  A    between atoms: C11_14  and  C12_16 
REMARK    7  A    between atoms: C12_16  and  O4_17 
REMARK    8  A    between atoms: O4_17  and  N2_18 
REMARK    9  A    between atoms: C27_34  and  O5_35 
REMARK   10  A    between atoms: C27_34  and  C28_36 
ROOT
HETATM    1  N2  UNL     1      -0.847  10.308  18.066  1.00  0.00    -0.271 N 
ATOM      2  H2  UNL     1      -1.758  10.283  18.523  1.00  0.00     0.194 HD
HETATM    3  C13 UNL     1       0.213  10.844  18.592  1.00  0.00     0.032 C 
HETATM    4  C14 UNL     1       1.564  10.895  17.964  1.00  0.00     0.030 C 
HETATM    5  C15 UNL     1       2.655  11.242  18.673  1.00  0.00    -0.069 C 
HETATM    6  C16 UNL     1       3.983  11.420  17.968  1.00  0.00     0.035 C 
HETATM    7  C17 UNL     1       5.206  11.140  18.839  1.00  0.00     0.010 C 
HETATM    8  C18 UNL     1       5.159  11.798  20.234  1.00  0.00    -0.004 C 
HETATM    9  C19 UNL     1       3.800  12.517  20.504  1.00  0.00     0.002 C 
HETATM   10  C20 UNL     1       3.764  13.156  21.912  1.00  0.00     0.007 C 
HETATM   11  C21 UNL     1       4.986  14.054  22.189  1.00  0.00     0.013 C 
HETATM   12  C22 UNL     1       6.318  13.314  21.959  1.00  0.00    -0.002 C 
HETATM   13  C23 UNL     1       6.470  12.189  23.022  1.00  0.00     0.019 C 
HETATM   14  C24 UNL     1       6.303  12.786  20.495  1.00  0.00     0.002 C 
HETATM   15  C25 UNL     1       7.737  12.319  20.278  1.00  0.00     0.009 C 
HETATM   16  C26 UNL     1       8.594  13.322  21.073  1.00  0.00     0.047 C 
HETATM   17  C27 UNL     1       7.612  14.185  21.918  1.00  0.00     0.125 C 
HETATM   18  C30 UNL     1       2.597  11.569  20.167  1.00  0.00    -0.016 C 
HETATM   19  C31 UNL     1       2.676  10.253  20.979  1.00  0.00     0.020 C 
HETATM   20  C32 UNL     1       1.242  12.265  20.444  1.00  0.00     0.020 C 
HETATM   21  C33 UNL     1       0.039  11.450  19.975  1.00  0.00     0.060 C 
ENDROOT
BRANCH   1  22
HETATM   22  O4  UNL     1      -0.595   9.769  16.795  1.00  0.00    -0.271 OA
BRANCH  22  23
HETATM   23  C12 UNL     1      -1.330   8.556  16.656  1.00  0.00     0.303 C 
BRANCH  23  24
HETATM   24  C11 UNL     1      -1.109   7.995  15.261  1.00  0.00     0.244 C 
HETATM   25  N1  UNL     1      -1.146   6.616  15.203  1.00  0.00    -0.345 N 
HETATM   26  H12 UNL     1      -1.613   6.145  15.974  1.00  0.00     0.163 HD
HETATM   27  O3  UNL     1      -0.858   8.711  14.293  1.00  0.00    -0.271 OA
BRANCH  25  28
HETATM   28  C3  UNL     1      -1.022   5.878  13.936  1.00  0.00     0.188 C 
BRANCH  28  29
HETATM   29  C2  UNL     1       0.380   6.045  13.324  1.00  0.00     0.281 C 
HETATM   30  O2  UNL     1       1.404   6.232  13.972  1.00  0.00    -0.263 OA
BRANCH  29  31
HETATM   31  O1  UNL     1       0.350   5.912  11.960  1.00  0.00    -0.325 OA
HETATM   32  C1  UNL     1       0.642   4.591  11.499  1.00  0.00     0.213 C 
ENDBRANCH  29  31
ENDBRANCH  28  29
BRANCH  28  33
HETATM   33  C4  UNL     1      -2.075   6.388  12.937  1.00  0.00     0.074 C 
BRANCH  33  34
HETATM   34  C5  UNL     1      -3.276   5.477  12.838  1.00  0.00    -0.056 A 
HETATM   35  C6  UNL     1      -4.527   5.883  13.320  1.00  0.00     0.007 A 
HETATM   36  C7  UNL     1      -5.632   5.034  13.219  1.00  0.00     0.001 A 
HETATM   37  C8  UNL     1      -5.497   3.779  12.632  1.00  0.00     0.000 A 
HETATM   38  C9  UNL     1      -4.259   3.370  12.140  1.00  0.00     0.001 A 
HETATM   39  C10 UNL     1      -3.153   4.215  12.240  1.00  0.00     0.007 A 
ENDBRANCH  33  34
ENDBRANCH  28  33
ENDBRANCH  25  28
ENDBRANCH  23  24
ENDBRANCH  22  23
ENDBRANCH   1  22
BRANCH  17  40
HETATM   40  O5  UNL     1       7.365  15.399  21.196  1.00  0.00    -0.381 OA
HETATM   41  H34 UNL     1       8.227  15.815  21.010  1.00  0.00     0.211 HD
ENDBRANCH  17  40
BRANCH  17  42
HETATM   42  C28 UNL     1       8.189  14.553  23.305  1.00  0.00     0.158 C 
HETATM   43  C29 UNL     1       7.694  15.821  23.957  1.00  0.00     0.094 C 
HETATM   44  O6  UNL     1       8.997  13.831  23.896  1.00  0.00    -0.295 OA
ENDBRANCH  17  42
TORSDOF 10
ENDMDL
MODEL 9
REMARK minimizedAffinity -8.02128601
REMARK CNNscore 0.195843846
REMARK CNNaffinity 6.56479073
REMARK  10 active torsions:
REMARK  status: ('A' for Active; 'I' for Inactive)
REMARK    1  A    between atoms: O1_2  and  C2_3 
REMARK    2  A    between atoms: C2_3  and  C3_5 
REMARK    3  A    between atoms: C3_5  and  C4_6 
REMARK    4  A    between atoms: C3_5  and  N1_13 
REMARK    5  A    between atoms: C4_6  and  C5_7 
REMARK       I    between atoms: N1_13  and  C11_14 
REMARK    6  A    between atoms: C11_14  and  C12_16 
REMARK    7  A    between atoms: C12_16  and  O4_17 
REMARK    8  A    between atoms: O4_17  and  N2_18 
REMARK    9  A    between atoms: C27_34  and  O5_35 
REMARK   10  A    between atoms: C27_34  and  C28_36 
ROOT
HETATM    1  N2  UNL     1       2.737   6.547  10.395  1.00  0.00    -0.271 N 
ATOM      2  H2  UNL     1       3.336   5.726  10.300  1.00  0.00     0.194 HD
HETATM    3  C13 UNL     1       1.534   6.513  10.886  1.00  0.00     0.032 C 
HETATM    4  C14 UNL     1       0.630   7.686  11.051  1.00  0.00     0.030 C 
HETATM    5  C15 UNL     1      -0.493   7.609  11.790  1.00  0.00    -0.069 C 
HETATM    6  C16 UNL     1      -1.455   8.777  11.818  1.00  0.00     0.035 C 
HETATM    7  C17 UNL     1      -2.269   8.898  13.106  1.00  0.00     0.010 C 
HETATM    8  C18 UNL     1      -2.896   7.574  13.590  1.00  0.00    -0.004 C 
HETATM    9  C19 UNL     1      -2.459   6.357  12.715  1.00  0.00     0.002 C 
HETATM   10  C20 UNL     1      -3.083   5.037  13.225  1.00  0.00     0.007 C 
HETATM   11  C21 UNL     1      -4.611   5.132  13.405  1.00  0.00     0.013 C 
HETATM   12  C22 UNL     1      -5.021   6.312  14.305  1.00  0.00    -0.002 C 
HETATM   13  C23 UNL     1      -4.520   6.051  15.754  1.00  0.00     0.019 C 
HETATM   14  C24 UNL     1      -4.428   7.603  13.668  1.00  0.00     0.002 C 
HETATM   15  C25 UNL     1      -5.099   8.722  14.457  1.00  0.00     0.009 C 
HETATM   16  C26 UNL     1      -6.517   8.193  14.745  1.00  0.00     0.047 C 
HETATM   17  C27 UNL     1      -6.534   6.694  14.327  1.00  0.00     0.125 C 
HETATM   18  C30 UNL     1      -0.901   6.336  12.537  1.00  0.00    -0.016 C 
HETATM   19  C31 UNL     1      -0.180   6.298  13.907  1.00  0.00     0.020 C 
HETATM   20  C32 UNL     1      -0.452   5.125  11.684  1.00  0.00     0.020 C 
HETATM   21  C33 UNL     1       1.035   5.151  11.337  1.00  0.00     0.060 C 
ENDROOT
BRANCH   1  22
HETATM   22  O4  UNL     1       3.118   7.842  10.011  1.00  0.00    -0.271 OA
BRANCH  22  23
HETATM   23  C12 UNL     1       4.538   7.891   9.905  1.00  0.00     0.303 C 
BRANCH  23  24
HETATM   24  C11 UNL     1       5.054   9.103  10.665  1.00  0.00     0.244 C 
HETATM   25  N1  UNL     1       4.670   9.132  11.992  1.00  0.00    -0.345 N 
HETATM   26  H12 UNL     1       4.381   8.246  12.397  1.00  0.00     0.163 HD
HETATM   27  O3  UNL     1       5.697   9.998  10.122  1.00  0.00    -0.271 OA
BRANCH  25  28
HETATM   28  C3  UNL     1       5.118  10.184  12.917  1.00  0.00     0.188 C 
BRANCH  28  29
HETATM   29  C2  UNL     1       5.403   9.616  14.318  1.00  0.00     0.281 C 
HETATM   30  O2  UNL     1       4.559   9.100  15.043  1.00  0.00    -0.263 OA
BRANCH  29  31
HETATM   31  O1  UNL     1       6.731   9.716  14.639  1.00  0.00    -0.325 OA
HETATM   32  C1  UNL     1       7.078   9.088  15.875  1.00  0.00     0.213 C 
ENDBRANCH  29  31
ENDBRANCH  28  29
BRANCH  28  33
HETATM   33  C4  UNL     1       4.038  11.274  13.022  1.00  0.00     0.074 C 
BRANCH  33  34
HETATM   34  C5  UNL     1       4.525  12.628  12.559  1.00  0.00    -0.056 A 
HETATM   35  C6  UNL     1       3.643  13.710  12.452  1.00  0.00     0.007 A 
HETATM   36  C7  UNL     1       4.105  14.958  12.027  1.00  0.00     0.001 A 
HETATM   37  C8  UNL     1       5.450  15.134  11.711  1.00  0.00     0.000 A 
HETATM   38  C9  UNL     1       6.337  14.065  11.824  1.00  0.00     0.001 A 
HETATM   39  C10 UNL     1       5.879  12.817  12.247  1.00  0.00     0.007 A 
ENDBRANCH  33  34
ENDBRANCH  28  33
ENDBRANCH  25  28
ENDBRANCH  23  24
ENDBRANCH  22  23
ENDBRANCH   1  22
BRANCH  17  40
HETATM   40  O5  UNL     1      -7.079   6.615  13.002  1.00  0.00    -0.381 OA
HETATM   41  H34 UNL     1      -7.951   7.052  13.013  1.00  0.00     0.211 HD
ENDBRANCH  17  40
BRANCH  17  42
HETATM   42  C28 UNL     1      -7.407   5.827  15.263  1.00  0.00     0.158 C 
HETATM   43  C29 UNL     1      -7.672   4.398  14.853  1.00  0.00     0.094 C 
HETATM   44  O6  UNL     1      -7.850   6.253  16.333  1.00  0.00    -0.295 OA
ENDBRANCH  17  42
TORSDOF 10
ENDMDL
