MODEL 1
REMARK minimizedAffinity -7.95465803
REMARK CNNscore 0.740658998
REMARK CNNaffinity 6.35742378
REMARK  9 active torsions:
REMARK  status: ('A' for Active; 'I' for Inactive)
REMARK    1  A    between atoms: C3_3  and  O1_4 
REMARK    2  A    between atoms: N1_14  and  O2_16 
REMARK    3  A    between atoms: O2_16  and  C13_17 
REMARK    4  A    between atoms: C13_17  and  C14_18 
REMARK       I    between atoms: C14_18  and  N2_20 
REMARK    5  A    between atoms: N2_20  and  C15_21 
REMARK    6  A    between atoms: C15_21  and  C16_22 
REMARK    7  A    between atoms: C15_21  and  C18_26 
REMARK    8  A    between atoms: C16_22  and  C17_23 
REMARK    9  A    between atoms: C17_23  and  O5_25 
ROOT
HETATM    1  C1  UNL     1      -5.358  47.800 -29.982  1.00  0.00     0.015 C 
HETATM    2  C2  UNL     1      -6.052  47.217 -30.770  1.00  0.00    -0.078 C 
HETATM    3  C3  UNL     1      -6.895  46.505 -31.756  1.00  0.00     0.128 C 
HETATM    4  C4  UNL     1      -7.598  47.518 -32.662  1.00  0.00     0.052 C 
HETATM    5  C5  UNL     1      -8.778  47.985 -31.820  1.00  0.00     0.010 C 
HETATM    6  C6  UNL     1      -9.265  46.741 -31.046  1.00  0.00     0.002 C 
HETATM    7  C7  UNL     1      -9.684  47.055 -29.591  1.00  0.00    -0.004 C 
HETATM    8  C8  UNL     1     -10.760  48.160 -29.471  1.00  0.00     0.010 C 
HETATM    9  C9  UNL     1     -12.200  47.662 -29.501  1.00  0.00     0.035 C 
HETATM   10  C10 UNL     1     -12.342  46.585 -28.457  1.00  0.00    -0.069 C 
HETATM   11  C11 UNL     1     -13.049  46.823 -27.339  1.00  0.00     0.030 C 
HETATM   12  C12 UNL     1     -12.977  45.899 -26.171  1.00  0.00     0.032 C 
HETATM   13  N1  UNL     1     -13.704  45.968 -25.099  1.00  0.00    -0.271 N 
ATOM     14  H1  UNL     1     -13.624  45.329 -24.308  1.00  0.00     0.194 HD
HETATM   15  C25 UNL     1     -11.895  44.840 -26.212  1.00  0.00     0.060 C 
HETATM   16  C26 UNL     1     -11.787  44.260 -27.613  1.00  0.00     0.020 C 
HETATM   17  C27 UNL     1     -11.517  45.326 -28.717  1.00  0.00    -0.016 C 
HETATM   18  C28 UNL     1     -11.985  44.670 -30.041  1.00  0.00     0.020 C 
HETATM   19  C29 UNL     1     -10.006  45.773 -28.743  1.00  0.00     0.002 C 
HETATM   20  C30 UNL     1      -9.029  44.610 -29.031  1.00  0.00     0.007 C 
HETATM   21  C31 UNL     1      -7.770  45.052 -29.772  1.00  0.00     0.014 C 
HETATM   22  C32 UNL     1      -8.094  45.702 -31.141  1.00  0.00     0.003 C 
HETATM   23  C33 UNL     1      -8.525  44.568 -32.117  1.00  0.00     0.020 C 
ENDROOT
BRANCH   3  24
HETATM   24  O1  UNL     1      -6.044  45.680 -32.539  1.00  0.00    -0.377 OA
HETATM   25  H2  UNL     1      -5.532  45.136 -31.917  1.00  0.00     0.211 HD
ENDBRANCH   3  24
BRANCH  13  26
HETATM   26  O2  UNL     1     -14.617  47.034 -25.167  1.00  0.00    -0.271 OA
BRANCH  26  27
HETATM   27  C13 UNL     1     -15.154  47.274 -23.875  1.00  0.00     0.303 C 
BRANCH  27  28
HETATM   28  C14 UNL     1     -16.085  46.135 -23.462  1.00  0.00     0.244 C 
HETATM   29  O3  UNL     1     -15.817  44.943 -23.582  1.00  0.00    -0.271 OA
HETATM   30  N2  UNL     1     -17.289  46.579 -22.944  1.00  0.00    -0.354 N 
HETATM   31  H16 UNL     1     -17.464  47.584 -22.924  1.00  0.00     0.162 HD
BRANCH  30  32
HETATM   32  C15 UNL     1     -18.399  45.681 -22.630  1.00  0.00     0.098 C 
BRANCH  32  33
HETATM   33  C16 UNL     1     -19.158  45.284 -23.910  1.00  0.00     0.135 C 
BRANCH  33  34
HETATM   34  C17 UNL     1     -19.125  46.365 -24.957  1.00  0.00     0.141 C 
HETATM   35  O4  UNL     1     -19.239  47.568 -24.789  1.00  0.00    -0.650 OA
BRANCH  34  36
HETATM   36  O5  UNL     1     -18.934  45.865 -26.194  1.00  0.00    -0.776 OA
HETATM   37  H20 UNL     1     -18.892  46.657 -26.769  1.00  0.00     0.167 HD
ENDBRANCH  34  36
ENDBRANCH  33  34
ENDBRANCH  32  33
BRANCH  32  38
HETATM   38  C18 UNL     1     -17.938  44.470 -21.751  1.00  0.00     0.014 C 
HETATM   39  C19 UNL     1     -18.831  43.232 -21.953  1.00  0.00     0.033 C 
HETATM   40  C20 UNL     1     -20.001  43.149 -20.973  1.00  0.00     0.169 C 
HETATM   41  O6  UNL     1     -20.215  44.385 -20.285  1.00  0.00    -0.381 OA
HETATM   42  C21 UNL     1     -19.110  44.809 -19.464  1.00  0.00     0.054 C 
HETATM   43  C22 UNL     1     -19.058  43.972 -18.175  1.00  0.00     0.045 C 
HETATM   44  C23 UNL     1     -19.404  46.262 -19.058  1.00  0.00     0.045 C 
HETATM   45  C24 UNL     1     -17.779  44.724 -20.240  1.00  0.00     0.044 C 
ENDBRANCH  32  38
ENDBRANCH  30  32
ENDBRANCH  27  28
ENDBRANCH  26  27
ENDBRANCH  13  26
TORSDOF 9
ENDMDL
MODEL 2
REMARK minimizedAffinity -8.31108189
REMARK CNNscore 0.525126636
REMARK CNNaffinity 7.24145746
REMARK  9 active torsions:
REMARK  status: ('A' for Active; 'I' for Inactive)
REMARK    1  A    between atoms: C3_3  and  O1_4 
REMARK    2  A    between atoms: N1_14  and  O2_16 
REMARK    3  A    between atoms: O2_16  and  C13_17 
REMARK    4  A    between atoms: C13_17  and  C14_18 
REMARK       I    between atoms: C14_18  and  N2_20 
REMARK    5  A    between atoms: N2_20  and  C15_21 
REMARK    6  A    between atoms: C15_21  and  C16_22 
REMARK    7  A    between atoms: C15_21  and  C18_26 
REMARK    8  A    between atoms: C16_22  and  C17_23 
REMARK    9  A    between atoms: C17_23  and  O5_25 
ROOT
HETATM    1  C1  UNL     1       2.060  44.619 -14.475  1.00  0.00     0.015 C 
HETATM    2  C2  UNL     1       1.373  45.278 -13.742  1.00  0.00    -0.078 C 
HETATM    3  C3  UNL     1       0.521  46.072 -12.829  1.00  0.00     0.128 C 
HETATM    4  C4  UNL     1      -0.953  45.778 -13.112  1.00  0.00     0.052 C 
HETATM    5  C5  UNL     1      -1.258  46.638 -14.330  1.00  0.00     0.010 C 
HETATM    6  C6  UNL     1      -0.458  47.945 -14.135  1.00  0.00     0.002 C 
HETATM    7  C7  UNL     1       0.165  48.478 -15.447  1.00  0.00    -0.004 C 
HETATM    8  C8  UNL     1      -0.859  48.693 -16.587  1.00  0.00     0.010 C 
HETATM    9  C9  UNL     1      -1.490  50.079 -16.632  1.00  0.00     0.035 C 
HETATM   10  C10 UNL     1      -0.379  51.097 -16.636  1.00  0.00    -0.069 C 
HETATM   11  C11 UNL     1      -0.121  51.803 -17.750  1.00  0.00     0.030 C 
HETATM   12  C12 UNL     1       1.132  52.602 -17.883  1.00  0.00     0.032 C 
HETATM   13  N1  UNL     1       1.421  53.410 -18.855  1.00  0.00    -0.271 N 
ATOM     14  H1  UNL     1       2.294  53.933 -18.928  1.00  0.00     0.194 HD
HETATM   15  C25 UNL     1       2.193  52.376 -16.825  1.00  0.00     0.060 C 
HETATM   16  C26 UNL     1       1.545  52.252 -15.456  1.00  0.00     0.020 C 
HETATM   17  C27 UNL     1       0.470  51.126 -15.367  1.00  0.00    -0.016 C 
HETATM   18  C28 UNL     1      -0.423  51.508 -14.160  1.00  0.00     0.020 C 
HETATM   19  C29 UNL     1       1.127  49.700 -15.230  1.00  0.00     0.002 C 
HETATM   20  C30 UNL     1       2.003  49.549 -13.965  1.00  0.00     0.007 C 
HETATM   21  C31 UNL     1       2.023  48.125 -13.415  1.00  0.00     0.014 C 
HETATM   22  C32 UNL     1       0.608  47.625 -13.030  1.00  0.00     0.003 C 
HETATM   23  C33 UNL     1       0.186  48.351 -11.720  1.00  0.00     0.020 C 
ENDROOT
BRANCH   3  24
HETATM   24  O1  UNL     1       0.835  45.686 -11.498  1.00  0.00    -0.377 OA
HETATM   25  H2  UNL     1       1.797  45.779 -11.400  1.00  0.00     0.211 HD
ENDBRANCH   3  24
BRANCH  13  26
HETATM   26  O2  UNL     1       0.379  53.472 -19.797  1.00  0.00    -0.271 OA
BRANCH  26  27
HETATM   27  C13 UNL     1       0.931  53.585 -21.100  1.00  0.00     0.303 C 
BRANCH  27  28
HETATM   28  C14 UNL     1       0.276  52.584 -22.049  1.00  0.00     0.244 C 
HETATM   29  O3  UNL     1       0.802  52.150 -23.070  1.00  0.00    -0.271 OA
HETATM   30  N2  UNL     1      -0.999  52.217 -21.654  1.00  0.00    -0.354 N 
HETATM   31  H16 UNL     1      -1.393  52.659 -20.824  1.00  0.00     0.162 HD
BRANCH  30  32
HETATM   32  C15 UNL     1      -1.883  51.398 -22.482  1.00  0.00     0.098 C 
BRANCH  32  33
HETATM   33  C16 UNL     1      -2.715  50.440 -21.609  1.00  0.00     0.135 C 
BRANCH  33  34
HETATM   34  C17 UNL     1      -3.374  51.141 -20.452  1.00  0.00     0.141 C 
HETATM   35  O4  UNL     1      -2.831  51.719 -19.524  1.00  0.00    -0.650 OA
BRANCH  34  36
HETATM   36  O5  UNL     1      -4.718  51.089 -20.528  1.00  0.00    -0.776 OA
HETATM   37  H20 UNL     1      -5.022  51.606 -19.753  1.00  0.00     0.167 HD
ENDBRANCH  34  36
ENDBRANCH  33  34
ENDBRANCH  32  33
BRANCH  32  38
HETATM   38  C18 UNL     1      -2.729  52.270 -23.470  1.00  0.00     0.014 C 
HETATM   39  C19 UNL     1      -4.106  51.646 -23.762  1.00  0.00     0.033 C 
HETATM   40  C20 UNL     1      -4.122  50.730 -24.985  1.00  0.00     0.169 C 
HETATM   41  O6  UNL     1      -2.802  50.385 -25.416  1.00  0.00    -0.381 OA
HETATM   42  C21 UNL     1      -2.002  51.505 -25.839  1.00  0.00     0.054 C 
HETATM   43  C22 UNL     1      -2.452  51.981 -27.229  1.00  0.00     0.045 C 
HETATM   44  C23 UNL     1      -0.562  50.983 -25.974  1.00  0.00     0.045 C 
HETATM   45  C24 UNL     1      -2.066  52.652 -24.807  1.00  0.00     0.044 C 
ENDBRANCH  32  38
ENDBRANCH  30  32
ENDBRANCH  27  28
ENDBRANCH  26  27
ENDBRANCH  13  26
TORSDOF 9
ENDMDL
MODEL 3
REMARK minimizedAffinity -9.4620676
REMARK CNNscore 0.280990154
REMARK CNNaffinity 7.24452162
REMARK  9 active torsions:
REMARK  status: ('A' for Active; 'I' for Inactive)
REMARK    1  A    between atoms: C3_3  and  O1_4 
REMARK    2  A    between atoms: N1_14  and  O2_16 
REMARK    3  A    between atoms: O2_16  and  C13_17 
REMARK    4  A    between atoms: C13_17  and  C14_18 
REMARK       I    between atoms: C14_18  and  N2_20 
REMARK    5  A    between atoms: N2_20  and  C15_21 
REMARK    6  A    between atoms: C15_21  and  C16_22 
REMARK    7  A    between atoms: C15_21  and  C18_26 
REMARK    8  A    between atoms: C16_22  and  C17_23 
REMARK    9  A    between atoms: C17_23  and  O5_25 
ROOT
HETATM    1  C1  UNL     1       2.093  51.459 -27.270  1.00  0.00     0.015 C 
HETATM    2  C2  UNL     1       1.028  51.992 -27.116  1.00  0.00    -0.078 C 
HETATM    3  C3  UNL     1      -0.280  52.662 -26.943  1.00  0.00     0.128 C 
HETATM    4  C4  UNL     1      -0.065  54.109 -26.496  1.00  0.00     0.052 C 
HETATM    5  C5  UNL     1       0.197  53.983 -25.002  1.00  0.00     0.010 C 
HETATM    6  C6  UNL     1      -0.726  52.848 -24.505  1.00  0.00     0.002 C 
HETATM    7  C7  UNL     1      -0.055  51.936 -23.452  1.00  0.00    -0.004 C 
HETATM    8  C8  UNL     1       0.495  52.696 -22.222  1.00  0.00     0.010 C 
HETATM    9  C9  UNL     1      -0.491  52.857 -21.071  1.00  0.00     0.035 C 
HETATM   10  C10 UNL     1      -1.034  51.495 -20.728  1.00  0.00    -0.069 C 
HETATM   11  C11 UNL     1      -0.671  50.897 -19.580  1.00  0.00     0.030 C 
HETATM   12  C12 UNL     1      -0.955  49.453 -19.340  1.00  0.00     0.032 C 
HETATM   13  N1  UNL     1      -0.758  48.812 -18.230  1.00  0.00    -0.271 N 
ATOM     14  H1  UNL     1      -0.948  47.818 -18.098  1.00  0.00     0.194 HD
HETATM   15  C25 UNL     1      -1.433  48.650 -20.533  1.00  0.00     0.060 C 
HETATM   16  C26 UNL     1      -2.425  49.467 -21.345  1.00  0.00     0.020 C 
HETATM   17  C27 UNL     1      -1.865  50.839 -21.829  1.00  0.00    -0.016 C 
HETATM   18  C28 UNL     1      -3.114  51.710 -22.118  1.00  0.00     0.020 C 
HETATM   19  C29 UNL     1      -0.916  50.677 -23.076  1.00  0.00     0.002 C 
HETATM   20  C30 UNL     1      -1.619  50.052 -24.303  1.00  0.00     0.007 C 
HETATM   21  C31 UNL     1      -1.052  50.539 -25.634  1.00  0.00     0.014 C 
HETATM   22  C32 UNL     1      -1.174  52.076 -25.794  1.00  0.00     0.003 C 
HETATM   23  C33 UNL     1      -2.670  52.409 -26.068  1.00  0.00     0.020 C 
ENDROOT
BRANCH   3  24
HETATM   24  O1  UNL     1      -0.945  52.647 -28.199  1.00  0.00    -0.377 OA
HETATM   25  H2  UNL     1      -0.955  51.723 -28.499  1.00  0.00     0.211 HD
ENDBRANCH   3  24
BRANCH  13  26
HETATM   26  O2  UNL     1      -0.251  49.661 -17.231  1.00  0.00    -0.271 OA
BRANCH  26  27
HETATM   27  C13 UNL     1       0.266  48.876 -16.167  1.00  0.00     0.303 C 
BRANCH  27  28
HETATM   28  C14 UNL     1       0.861  49.770 -15.081  1.00  0.00     0.244 C 
HETATM   29  O3  UNL     1       1.614  50.715 -15.297  1.00  0.00    -0.271 OA
HETATM   30  N2  UNL     1       0.480  49.399 -13.804  1.00  0.00    -0.354 N 
HETATM   31  H16 UNL     1      -0.105  48.570 -13.697  1.00  0.00     0.162 HD
BRANCH  30  32
HETATM   32  C15 UNL     1       1.046  50.002 -12.598  1.00  0.00     0.098 C 
BRANCH  32  33
HETATM   33  C16 UNL     1       2.105  49.076 -11.972  1.00  0.00     0.135 C 
BRANCH  33  34
HETATM   34  C17 UNL     1       2.869  48.293 -13.005  1.00  0.00     0.141 C 
HETATM   35  O4  UNL     1       3.777  48.690 -13.718  1.00  0.00    -0.650 OA
BRANCH  34  36
HETATM   36  O5  UNL     1       2.450  47.015 -13.084  1.00  0.00    -0.776 OA
HETATM   37  H20 UNL     1       3.042  46.609 -13.750  1.00  0.00     0.167 HD
ENDBRANCH  34  36
ENDBRANCH  33  34
ENDBRANCH  32  33
BRANCH  32  38
HETATM   38  C18 UNL     1       1.539  51.466 -12.855  1.00  0.00     0.014 C 
HETATM   39  C19 UNL     1       2.822  51.793 -12.070  1.00  0.00     0.033 C 
HETATM   40  C20 UNL     1       2.564  52.409 -10.695  1.00  0.00     0.169 C 
HETATM   41  O6  UNL     1       1.201  52.263 -10.287  1.00  0.00    -0.381 OA
HETATM   42  C21 UNL     1       0.249  52.924 -11.142  1.00  0.00     0.054 C 
HETATM   43  C22 UNL     1       0.278  54.441 -10.892  1.00  0.00     0.045 C 
HETATM   44  C23 UNL     1      -1.139  52.414 -10.722  1.00  0.00     0.045 C 
HETATM   45  C24 UNL     1       0.518  52.597 -12.627  1.00  0.00     0.044 C 
ENDBRANCH  32  38
ENDBRANCH  30  32
ENDBRANCH  27  28
ENDBRANCH  26  27
ENDBRANCH  13  26
TORSDOF 9
ENDMDL
MODEL 4
REMARK minimizedAffinity -7.93337154
REMARK CNNscore 0.27823326
REMARK CNNaffinity 5.86380386
REMARK  9 active torsions:
REMARK  status: ('A' for Active; 'I' for Inactive)
REMARK    1  A    between atoms: C3_3  and  O1_4 
REMARK    2  A    between atoms: N1_14  and  O2_16 
REMARK    3  A    between atoms: O2_16  and  C13_17 
REMARK    4  A    between atoms: C13_17  and  C14_18 
REMARK       I    between atoms: C14_18  and  N2_20 
REMARK    5  A    between atoms: N2_20  and  C15_21 
REMARK    6  A    between atoms: C15_21  and  C16_22 
REMARK    7  A    between atoms: C15_21  and  C18_26 
REMARK    8  A    between atoms: C16_22  and  C17_23 
REMARK    9  A    between atoms: C17_23  and  O5_25 
ROOT
HETATM    1  C1  UNL     1     -17.528  42.644 -22.169  1.00  0.00     0.015 C 
HETATM    2  C2  UNL     1     -18.020  43.673 -21.792  1.00  0.00    -0.078 C 
HETATM    3  C3  UNL     1     -18.642  44.937 -21.340  1.00  0.00     0.128 C 
HETATM    4  C4  UNL     1     -18.670  45.941 -22.494  1.00  0.00     0.052 C 
HETATM    5  C5  UNL     1     -17.257  46.507 -22.505  1.00  0.00     0.010 C 
HETATM    6  C6  UNL     1     -16.831  46.609 -21.024  1.00  0.00     0.002 C 
HETATM    7  C7  UNL     1     -15.353  46.220 -20.788  1.00  0.00    -0.004 C 
HETATM    8  C8  UNL     1     -14.347  47.024 -21.646  1.00  0.00     0.010 C 
HETATM    9  C9  UNL     1     -13.837  48.309 -21.005  1.00  0.00     0.035 C 
HETATM   10  C10 UNL     1     -13.306  47.968 -19.637  1.00  0.00    -0.069 C 
HETATM   11  C11 UNL     1     -11.983  48.001 -19.403  1.00  0.00     0.030 C 
HETATM   12  C12 UNL     1     -11.404  47.405 -18.164  1.00  0.00     0.032 C 
HETATM   13  N1  UNL     1     -10.167  47.488 -17.785  1.00  0.00    -0.271 N 
ATOM     14  H1  UNL     1      -9.794  47.057 -16.939  1.00  0.00     0.194 HD
HETATM   15  C25 UNL     1     -12.335  46.553 -17.326  1.00  0.00     0.060 C 
HETATM   16  C26 UNL     1     -13.709  47.200 -17.255  1.00  0.00     0.020 C 
HETATM   17  C27 UNL     1     -14.355  47.461 -18.649  1.00  0.00    -0.016 C 
HETATM   18  C28 UNL     1     -15.411  48.569 -18.408  1.00  0.00     0.020 C 
HETATM   19  C29 UNL     1     -14.961  46.146 -19.269  1.00  0.00     0.002 C 
HETATM   20  C30 UNL     1     -16.073  45.515 -18.400  1.00  0.00     0.007 C 
HETATM   21  C31 UNL     1     -17.129  44.777 -19.218  1.00  0.00     0.014 C 
HETATM   22  C32 UNL     1     -17.841  45.708 -20.233  1.00  0.00     0.003 C 
HETATM   23  C33 UNL     1     -18.803  46.636 -19.435  1.00  0.00     0.020 C 
ENDROOT
BRANCH   3  24
HETATM   24  O1  UNL     1     -19.971  44.645 -20.933  1.00  0.00    -0.377 OA
HETATM   25  H2  UNL     1     -19.913  43.923 -20.286  1.00  0.00     0.211 HD
ENDBRANCH   3  24
BRANCH  13  26
HETATM   26  O2  UNL     1      -9.404  48.248 -18.689  1.00  0.00    -0.271 OA
BRANCH  26  27
HETATM   27  C13 UNL     1      -8.042  48.224 -18.288  1.00  0.00     0.303 C 
BRANCH  27  28
HETATM   28  C14 UNL     1      -7.124  48.279 -19.508  1.00  0.00     0.244 C 
HETATM   29  O3  UNL     1      -7.213  47.531 -20.477  1.00  0.00    -0.271 OA
HETATM   30  N2  UNL     1      -6.150  49.258 -19.410  1.00  0.00    -0.354 N 
HETATM   31  H16 UNL     1      -6.102  49.806 -18.551  1.00  0.00     0.162 HD
BRANCH  30  32
HETATM   32  C15 UNL     1      -5.061  49.396 -20.376  1.00  0.00     0.098 C 
BRANCH  32  33
HETATM   33  C16 UNL     1      -3.722  49.640 -19.656  1.00  0.00     0.135 C 
BRANCH  33  34
HETATM   34  C17 UNL     1      -3.279  51.076 -19.736  1.00  0.00     0.141 C 
HETATM   35  O4  UNL     1      -3.049  51.837 -18.811  1.00  0.00    -0.650 OA
BRANCH  34  36
HETATM   36  O5  UNL     1      -3.132  51.490 -21.010  1.00  0.00    -0.776 OA
HETATM   37  H20 UNL     1      -2.808  52.410 -20.928  1.00  0.00     0.167 HD
ENDBRANCH  34  36
ENDBRANCH  33  34
ENDBRANCH  32  33
BRANCH  32  38
HETATM   38  C18 UNL     1      -5.037  48.211 -21.400  1.00  0.00     0.014 C 
HETATM   39  C19 UNL     1      -3.660  47.525 -21.463  1.00  0.00     0.033 C 
HETATM   40  C20 UNL     1      -2.729  48.106 -22.526  1.00  0.00     0.169 C 
HETATM   41  O6  UNL     1      -3.198  49.362 -23.023  1.00  0.00    -0.381 OA
HETATM   42  C21 UNL     1      -4.476  49.302 -23.684  1.00  0.00     0.054 C 
HETATM   43  C22 UNL     1      -4.319  48.681 -25.081  1.00  0.00     0.045 C 
HETATM   44  C23 UNL     1      -4.935  50.757 -23.875  1.00  0.00     0.045 C 
HETATM   45  C24 UNL     1      -5.501  48.519 -22.836  1.00  0.00     0.044 C 
ENDBRANCH  32  38
ENDBRANCH  30  32
ENDBRANCH  27  28
ENDBRANCH  26  27
ENDBRANCH  13  26
TORSDOF 9
ENDMDL
MODEL 5
REMARK minimizedAffinity -8.30149651
REMARK CNNscore 0.258070916
REMARK CNNaffinity 5.98748922
REMARK  9 active torsions:
REMARK  status: ('A' for Active; 'I' for Inactive)
REMARK    1  A    between atoms: C3_3  and  O1_4 
REMARK    2  A    between atoms: N1_14  and  O2_16 
REMARK    3  A    between atoms: O2_16  and  C13_17 
REMARK    4  A    between atoms: C13_17  and  C14_18 
REMARK       I    between atoms: C14_18  and  N2_20 
REMARK    5  A    between atoms: N2_20  and  C15_21 
REMARK    6  A    between atoms: C15_21  and  C16_22 
REMARK    7  A    between atoms: C15_21  and  C18_26 
REMARK    8  A    between atoms: C16_22  and  C17_23 
REMARK    9  A    between atoms: C17_23  and  O5_25 
ROOT
HETATM    1  C1  UNL     1      -3.780  52.332 -25.173  1.00  0.00     0.015 C 
HETATM    2  C2  UNL     1      -3.266  51.294 -24.852  1.00  0.00    -0.078 C 
HETATM    3  C3  UNL     1      -2.619  50.019 -24.473  1.00  0.00     0.128 C 
HETATM    4  C4  UNL     1      -2.805  48.992 -25.592  1.00  0.00     0.052 C 
HETATM    5  C5  UNL     1      -4.219  48.474 -25.366  1.00  0.00     0.010 C 
HETATM    6  C6  UNL     1      -4.408  48.416 -23.834  1.00  0.00     0.002 C 
HETATM    7  C7  UNL     1      -5.818  48.861 -23.378  1.00  0.00    -0.004 C 
HETATM    8  C8  UNL     1      -6.971  48.075 -24.046  1.00  0.00     0.010 C 
HETATM    9  C9  UNL     1      -7.412  46.821 -23.301  1.00  0.00     0.035 C 
HETATM   10  C10 UNL     1      -7.709  47.207 -21.875  1.00  0.00    -0.069 C 
HETATM   11  C11 UNL     1      -8.979  47.224 -21.436  1.00  0.00     0.030 C 
HETATM   12  C12 UNL     1      -9.336  47.864 -20.136  1.00  0.00     0.032 C 
HETATM   13  N1  UNL     1     -10.500  47.831 -19.565  1.00  0.00    -0.271 N 
ATOM     14  H1  UNL     1     -10.720  48.291 -18.682  1.00  0.00     0.194 HD
HETATM   15  C25 UNL     1      -8.258  48.700 -19.476  1.00  0.00     0.060 C 
HETATM   16  C26 UNL     1      -6.911  48.008 -19.606  1.00  0.00     0.020 C 
HETATM   17  C27 UNL     1      -6.502  47.698 -21.078  1.00  0.00    -0.016 C 
HETATM   18  C28 UNL     1      -5.455  46.559 -20.979  1.00  0.00     0.020 C 
HETATM   19  C29 UNL     1      -5.962  48.979 -21.819  1.00  0.00     0.002 C 
HETATM   20  C30 UNL     1      -4.707  49.588 -21.152  1.00  0.00     0.007 C 
HETATM   21  C31 UNL     1      -3.771  50.272 -22.144  1.00  0.00     0.014 C 
HETATM   22  C32 UNL     1      -3.259  49.298 -23.234  1.00  0.00     0.003 C 
HETATM   23  C33 UNL     1      -2.212  48.353 -22.575  1.00  0.00     0.020 C 
ENDROOT
BRANCH   3  24
HETATM   24  O1  UNL     1      -1.234  50.273 -24.288  1.00  0.00    -0.377 OA
HETATM   25  H2  UNL     1      -1.167  51.009 -23.658  1.00  0.00     0.211 HD
ENDBRANCH   3  24
BRANCH  13  26
HETATM   26  O2  UNL     1     -11.419  47.080 -20.318  1.00  0.00    -0.271 OA
BRANCH  26  27
HETATM   27  C13 UNL     1     -12.672  47.068 -19.650  1.00  0.00     0.303 C 
BRANCH  27  28
HETATM   28  C14 UNL     1     -13.814  47.238 -20.651  1.00  0.00     0.244 C 
HETATM   29  O3  UNL     1     -14.200  48.319 -21.085  1.00  0.00    -0.271 OA
HETATM   30  N2  UNL     1     -14.396  46.037 -21.018  1.00  0.00    -0.354 N 
HETATM   31  H16 UNL     1     -14.058  45.182 -20.577  1.00  0.00     0.162 HD
BRANCH  30  32
HETATM   32  C15 UNL     1     -15.605  45.957 -21.837  1.00  0.00     0.098 C 
BRANCH  32  33
HETATM   33  C16 UNL     1     -15.248  45.714 -23.314  1.00  0.00     0.135 C 
BRANCH  33  34
HETATM   34  C17 UNL     1     -15.701  46.836 -24.209  1.00  0.00     0.141 C 
HETATM   35  O4  UNL     1     -15.370  48.009 -24.157  1.00  0.00    -0.650 OA
BRANCH  34  36
HETATM   36  O5  UNL     1     -16.561  46.412 -25.156  1.00  0.00    -0.776 OA
HETATM   37  H20 UNL     1     -16.746  47.213 -25.688  1.00  0.00     0.167 HD
ENDBRANCH  34  36
ENDBRANCH  33  34
ENDBRANCH  32  33
BRANCH  32  38
HETATM   38  C18 UNL     1     -16.642  44.942 -21.247  1.00  0.00     0.014 C 
HETATM   39  C19 UNL     1     -17.833  44.712 -22.194  1.00  0.00     0.033 C 
HETATM   40  C20 UNL     1     -19.014  45.649 -21.940  1.00  0.00     0.169 C 
HETATM   41  O6  UNL     1     -18.656  46.748 -21.099  1.00  0.00    -0.381 OA
HETATM   42  C21 UNL     1     -18.227  46.372 -19.776  1.00  0.00     0.054 C 
HETATM   43  C22 UNL     1     -19.440  45.969 -18.923  1.00  0.00     0.045 C 
HETATM   44  C23 UNL     1     -17.617  47.633 -19.143  1.00  0.00     0.045 C 
HETATM   45  C24 UNL     1     -17.183  45.237 -19.835  1.00  0.00     0.044 C 
ENDBRANCH  32  38
ENDBRANCH  30  32
ENDBRANCH  27  28
ENDBRANCH  26  27
ENDBRANCH  13  26
TORSDOF 9
ENDMDL
MODEL 6
REMARK minimizedAffinity -10.4042645
REMARK CNNscore 0.211765513
REMARK CNNaffinity 6.62735367
REMARK  9 active torsions:
REMARK  status: ('A' for Active; 'I' for Inactive)
REMARK    1  A    between atoms: C3_3  and  O1_4 
REMARK    2  A    between atoms: N1_14  and  O2_16 
REMARK    3  A    between atoms: O2_16  and  C13_17 
REMARK    4  A    between atoms: C13_17  and  C14_18 
REMARK       I    between atoms: C14_18  and  N2_20 
REMARK    5  A    between atoms: N2_20  and  C15_21 
REMARK    6  A    between atoms: C15_21  and  C16_22 
REMARK    7  A    between atoms: C15_21  and  C18_26 
REMARK    8  A    between atoms: C16_22  and  C17_23 
REMARK    9  A    between atoms: C17_23  and  O5_25 
ROOT
HETATM    1  C1  UNL     1      -0.562  54.306 -27.636  1.00  0.00     0.015 C 
HETATM    2  C2  UNL     1      -0.053  53.679 -26.746  1.00  0.00    -0.078 C 
HETATM    3  C3  UNL     1       0.592  52.914 -25.657  1.00  0.00     0.128 C 
HETATM    4  C4  UNL     1       1.325  51.703 -26.240  1.00  0.00     0.052 C 
HETATM    5  C5  UNL     1       0.213  50.685 -26.452  1.00  0.00     0.010 C 
HETATM    6  C6  UNL     1      -0.756  50.864 -25.263  1.00  0.00     0.002 C 
HETATM    7  C7  UNL     1      -2.244  50.740 -25.667  1.00  0.00    -0.004 C 
HETATM    8  C8  UNL     1      -2.591  49.417 -26.390  1.00  0.00     0.010 C 
HETATM    9  C9  UNL     1      -3.017  48.275 -25.474  1.00  0.00     0.035 C 
HETATM   10  C10 UNL     1      -4.131  48.776 -24.593  1.00  0.00    -0.069 C 
HETATM   11  C11 UNL     1      -5.386  48.333 -24.781  1.00  0.00     0.030 C 
HETATM   12  C12 UNL     1      -6.546  49.006 -24.129  1.00  0.00     0.032 C 
HETATM   13  N1  UNL     1      -7.775  48.592 -24.146  1.00  0.00    -0.271 N 
ATOM     14  H1  UNL     1      -8.553  49.081 -23.703  1.00  0.00     0.194 HD
HETATM   15  C25 UNL     1      -6.269  50.339 -23.465  1.00  0.00     0.060 C 
HETATM   16  C26 UNL     1      -4.942  50.285 -22.724  1.00  0.00     0.020 C 
HETATM   17  C27 UNL     1      -3.734  49.889 -23.626  1.00  0.00    -0.016 C 
HETATM   18  C28 UNL     1      -2.653  49.359 -22.648  1.00  0.00     0.020 C 
HETATM   19  C29 UNL     1      -3.239  51.098 -24.506  1.00  0.00     0.002 C 
HETATM   20  C30 UNL     1      -2.764  52.310 -23.671  1.00  0.00     0.007 C 
HETATM   21  C31 UNL     1      -1.660  53.113 -24.352  1.00  0.00     0.014 C 
HETATM   22  C32 UNL     1      -0.401  52.256 -24.636  1.00  0.00     0.003 C 
HETATM   23  C33 UNL     1       0.324  52.010 -23.280  1.00  0.00     0.020 C 
ENDROOT
BRANCH   3  24
HETATM   24  O1  UNL     1       1.527  53.771 -25.019  1.00  0.00    -0.377 OA
HETATM   25  H2  UNL     1       1.043  54.576 -24.769  1.00  0.00     0.211 HD
ENDBRANCH   3  24
BRANCH  13  26
HETATM   26  O2  UNL     1      -7.899  47.383 -24.852  1.00  0.00    -0.271 OA
BRANCH  26  27
HETATM   27  C13 UNL     1      -7.823  47.644 -26.245  1.00  0.00     0.303 C 
BRANCH  27  28
HETATM   28  C14 UNL     1      -8.867  46.825 -27.002  1.00  0.00     0.244 C 
HETATM   29  O3  UNL     1      -8.979  45.605 -26.924  1.00  0.00    -0.271 OA
HETATM   30  N2  UNL     1      -9.680  47.598 -27.812  1.00  0.00    -0.354 N 
HETATM   31  H16 UNL     1      -9.493  48.599 -27.868  1.00  0.00     0.162 HD
BRANCH  30  32
HETATM   32  C15 UNL     1     -10.643  47.024 -28.751  1.00  0.00     0.098 C 
BRANCH  32  33
HETATM   33  C16 UNL     1     -12.008  46.815 -28.071  1.00  0.00     0.135 C 
BRANCH  33  34
HETATM   34  C17 UNL     1     -12.259  47.806 -26.966  1.00  0.00     0.141 C 
HETATM   35  O4  UNL     1     -12.064  47.654 -25.771  1.00  0.00    -0.650 OA
BRANCH  34  36
HETATM   36  O5  UNL     1     -12.746  48.972 -27.433  1.00  0.00    -0.776 OA
HETATM   37  H20 UNL     1     -12.827  49.535 -26.636  1.00  0.00     0.167 HD
ENDBRANCH  34  36
ENDBRANCH  33  34
ENDBRANCH  32  33
BRANCH  32  38
HETATM   38  C18 UNL     1     -10.706  47.835 -30.089  1.00  0.00     0.014 C 
HETATM   39  C19 UNL     1     -11.362  47.030 -31.226  1.00  0.00     0.033 C 
HETATM   40  C20 UNL     1     -10.369  46.233 -32.071  1.00  0.00     0.169 C 
HETATM   41  O6  UNL     1      -9.086  46.140 -31.447  1.00  0.00    -0.381 OA
HETATM   42  C21 UNL     1      -8.427  47.405 -31.248  1.00  0.00     0.054 C 
HETATM   43  C22 UNL     1      -7.865  47.924 -32.582  1.00  0.00     0.045 C 
HETATM   44  C23 UNL     1      -7.232  47.130 -30.321  1.00  0.00     0.045 C 
HETATM   45  C24 UNL     1      -9.384  48.432 -30.607  1.00  0.00     0.044 C 
ENDBRANCH  32  38
ENDBRANCH  30  32
ENDBRANCH  27  28
ENDBRANCH  26  27
ENDBRANCH  13  26
TORSDOF 9
ENDMDL
MODEL 7
REMARK minimizedAffinity -8.21636963
REMARK CNNscore 0.210587606
REMARK CNNaffinity 6.11906815
REMARK  9 active torsions:
REMARK  status: ('A' for Active; 'I' for Inactive)
REMARK    1  A    between atoms: C3_3  and  O1_4 
REMARK    2  A    between atoms: N1_14  and  O2_16 
REMARK    3  A    between atoms: O2_16  and  C13_17 
REMARK    4  A    between atoms: C13_17  and  C14_18 
REMARK       I    between atoms: C14_18  and  N2_20 
REMARK    5  A    between atoms: N2_20  and  C15_21 
REMARK    6  A    between atoms: C15_21  and  C16_22 
REMARK    7  A    between atoms: C15_21  and  C18_26 
REMARK    8  A    between atoms: C16_22  and  C17_23 
REMARK    9  A    between atoms: C17_23  and  O5_25 
ROOT
HETATM    1  C1  UNL     1      -4.124  51.878 -21.771  1.00  0.00     0.015 C 
HETATM    2  C2  UNL     1      -3.679  50.787 -21.542  1.00  0.00    -0.078 C 
HETATM    3  C3  UNL     1      -3.143  49.434 -21.275  1.00  0.00     0.128 C 
HETATM    4  C4  UNL     1      -4.223  48.569 -20.624  1.00  0.00     0.052 C 
HETATM    5  C5  UNL     1      -4.186  48.997 -19.163  1.00  0.00     0.010 C 
HETATM    6  C6  UNL     1      -2.699  49.256 -18.836  1.00  0.00     0.002 C 
HETATM    7  C7  UNL     1      -2.483  50.487 -17.925  1.00  0.00    -0.004 C 
HETATM    8  C8  UNL     1      -3.276  50.433 -16.598  1.00  0.00     0.010 C 
HETATM    9  C9  UNL     1      -2.543  49.773 -15.436  1.00  0.00     0.035 C 
HETATM   10  C10 UNL     1      -1.199  50.439 -15.294  1.00  0.00    -0.069 C 
HETATM   11  C11 UNL     1      -0.956  51.242 -14.244  1.00  0.00     0.030 C 
HETATM   12  C12 UNL     1       0.241  52.132 -14.216  1.00  0.00     0.032 C 
HETATM   13  N1  UNL     1       0.632  52.850 -13.210  1.00  0.00    -0.271 N 
ATOM     14  H1  UNL     1       1.448  53.462 -13.223  1.00  0.00     0.194 HD
HETATM   15  C25 UNL     1       1.012  52.269 -15.513  1.00  0.00     0.060 C 
HETATM   16  C26 UNL     1       1.121  50.917 -16.199  1.00  0.00     0.020 C 
HETATM   17  C27 UNL     1      -0.256  50.241 -16.479  1.00  0.00    -0.016 C 
HETATM   18  C28 UNL     1       0.057  48.731 -16.639  1.00  0.00     0.020 C 
HETATM   19  C29 UNL     1      -0.971  50.866 -17.736  1.00  0.00     0.002 C 
HETATM   20  C30 UNL     1      -0.154  50.719 -19.041  1.00  0.00     0.007 C 
HETATM   21  C31 UNL     1      -1.029  50.603 -20.286  1.00  0.00     0.014 C 
HETATM   22  C32 UNL     1      -1.979  49.381 -20.224  1.00  0.00     0.003 C 
HETATM   23  C33 UNL     1      -1.124  48.100 -20.447  1.00  0.00     0.020 C 
ENDROOT
BRANCH   3  24
HETATM   24  O1  UNL     1      -2.765  48.863 -22.520  1.00  0.00    -0.377 OA
HETATM   25  H2  UNL     1      -2.170  49.499 -22.950  1.00  0.00     0.211 HD
ENDBRANCH   3  24
BRANCH  13  26
HETATM   26  O2  UNL     1      -0.212  52.678 -12.099  1.00  0.00    -0.271 OA
BRANCH  26  27
HETATM   27  C13 UNL     1      -0.101  53.809 -11.248  1.00  0.00     0.303 C 
BRANCH  27  28
HETATM   28  C14 UNL     1       1.002  53.596 -10.213  1.00  0.00     0.244 C 
HETATM   29  O3  UNL     1       0.802  53.360  -9.025  1.00  0.00    -0.271 OA
HETATM   30  N2  UNL     1       2.274  53.713 -10.745  1.00  0.00    -0.354 N 
HETATM   31  H16 UNL     1       2.364  53.964 -11.730  1.00  0.00     0.162 HD
BRANCH  30  32
HETATM   32  C15 UNL     1       3.484  53.709  -9.923  1.00  0.00     0.098 C 
BRANCH  32  33
HETATM   33  C16 UNL     1       4.293  52.419 -10.150  1.00  0.00     0.135 C 
BRANCH  33  34
HETATM   34  C17 UNL     1       3.463  51.317 -10.752  1.00  0.00     0.141 C 
HETATM   35  O4  UNL     1       2.928  50.387 -10.172  1.00  0.00    -0.650 OA
BRANCH  34  36
HETATM   36  O5  UNL     1       3.335  51.452 -12.087  1.00  0.00    -0.776 OA
HETATM   37  H20 UNL     1       2.751  50.710 -12.348  1.00  0.00     0.167 HD
ENDBRANCH  34  36
ENDBRANCH  33  34
ENDBRANCH  32  33
BRANCH  32  38
HETATM   38  C18 UNL     1       4.310  55.029 -10.096  1.00  0.00     0.014 C 
HETATM   39  C19 UNL     1       5.667  54.963  -9.371  1.00  0.00     0.033 C 
HETATM   40  C20 UNL     1       5.627  55.495  -7.939  1.00  0.00     0.169 C 
HETATM   41  O6  UNL     1       4.289  55.646  -7.458  1.00  0.00    -0.381 OA
HETATM   42  C21 UNL     1       3.493  56.592  -8.196  1.00  0.00     0.054 C 
HETATM   43  C22 UNL     1       3.904  58.027  -7.830  1.00  0.00     0.045 C 
HETATM   44  C23 UNL     1       2.042  56.395  -7.728  1.00  0.00     0.045 C 
HETATM   45  C24 UNL     1       3.609  56.346  -9.715  1.00  0.00     0.044 C 
ENDBRANCH  32  38
ENDBRANCH  30  32
ENDBRANCH  27  28
ENDBRANCH  26  27
ENDBRANCH  13  26
TORSDOF 9
ENDMDL
MODEL 8
REMARK minimizedAffinity -10.1310644
REMARK CNNscore 0.19840163
REMARK CNNaffinity 7.07595205
REMARK  9 active torsions:
REMARK  status: ('A' for Active; 'I' for Inactive)
REMARK    1  A    between atoms: C3_3  and  O1_4 
REMARK    2  A    between atoms: N1_14  and  O2_16 
REMARK    3  A    between atoms: O2_16  and  C13_17 
REMARK    4  A    between atoms: C13_17  and  C14_18 
REMARK       I    between atoms: C14_18  and  N2_20 
REMARK    5  A    between atoms: N2_20  and  C15_21 
REMARK    6  A    between atoms: C15_21  and  C16_22 
REMARK    7  A    between atoms: C15_21  and  C18_26 
REMARK    8  A    between atoms: C16_22  and  C17_23 
REMARK    9  A    between atoms: C17_23  and  O5_25 
ROOT
HETATM    1  C1  UNL     1       2.332  51.588 -27.481  1.00  0.00     0.015 C 
HETATM    2  C2  UNL     1       1.257  52.116 -27.389  1.00  0.00    -0.078 C 
HETATM    3  C3  UNL     1      -0.062  52.781 -27.291  1.00  0.00     0.128 C 
HETATM    4  C4  UNL     1       0.103  54.165 -26.661  1.00  0.00     0.052 C 
HETATM    5  C5  UNL     1       0.193  53.868 -25.171  1.00  0.00     0.010 C 
HETATM    6  C6  UNL     1      -0.782  52.698 -24.914  1.00  0.00     0.002 C 
HETATM    7  C7  UNL     1      -0.238  51.663 -23.901  1.00  0.00    -0.004 C 
HETATM    8  C8  UNL     1       0.169  52.273 -22.539  1.00  0.00     0.010 C 
HETATM    9  C9  UNL     1      -0.941  52.318 -21.496  1.00  0.00     0.035 C 
HETATM   10  C10 UNL     1      -1.522  50.933 -21.374  1.00  0.00    -0.069 C 
HETATM   11  C11 UNL     1      -1.293  50.205 -20.267  1.00  0.00     0.030 C 
HETATM   12  C12 UNL     1      -1.605  48.747 -20.227  1.00  0.00     0.032 C 
HETATM   13  N1  UNL     1      -1.538  47.982 -19.181  1.00  0.00    -0.271 N 
ATOM     14  H1  UNL     1      -1.742  46.983 -19.185  1.00  0.00     0.194 HD
HETATM   15  C25 UNL     1      -1.944  48.091 -21.549  1.00  0.00     0.060 C 
HETATM   16  C26 UNL     1      -2.836  49.008 -22.371  1.00  0.00     0.020 C 
HETATM   17  C27 UNL     1      -2.222  50.417 -22.629  1.00  0.00    -0.016 C 
HETATM   18  C28 UNL     1      -3.429  51.333 -22.957  1.00  0.00     0.020 C 
HETATM   19  C29 UNL     1      -1.138  50.383 -23.771  1.00  0.00     0.002 C 
HETATM   20  C30 UNL     1      -1.696  49.910 -25.132  1.00  0.00     0.007 C 
HETATM   21  C31 UNL     1      -0.981  50.536 -26.326  1.00  0.00     0.014 C 
HETATM   22  C32 UNL     1      -1.082  52.082 -26.325  1.00  0.00     0.003 C 
HETATM   23  C33 UNL     1      -2.536  52.465 -26.727  1.00  0.00     0.020 C 
ENDROOT
BRANCH   3  24
HETATM   24  O1  UNL     1      -0.578  52.917 -28.607  1.00  0.00    -0.377 OA
HETATM   25  H2  UNL     1      -0.556  52.033 -29.009  1.00  0.00     0.211 HD
ENDBRANCH   3  24
BRANCH  13  26
HETATM   26  O2  UNL     1      -1.146  48.706 -18.041  1.00  0.00    -0.271 OA
BRANCH  26  27
HETATM   27  C13 UNL     1      -2.301  49.213 -17.389  1.00  0.00     0.303 C 
BRANCH  27  28
HETATM   28  C14 UNL     1      -1.952  49.703 -15.985  1.00  0.00     0.244 C 
HETATM   29  O3  UNL     1      -0.811  49.763 -15.536  1.00  0.00    -0.271 OA
HETATM   30  N2  UNL     1      -3.063  50.064 -15.244  1.00  0.00    -0.354 N 
HETATM   31  H16 UNL     1      -3.985  49.937 -15.664  1.00  0.00     0.162 HD
BRANCH  30  32
HETATM   32  C15 UNL     1      -2.996  50.410 -13.825  1.00  0.00     0.098 C 
BRANCH  32  33
HETATM   33  C16 UNL     1      -2.102  49.413 -13.064  1.00  0.00     0.135 C 
BRANCH  33  34
HETATM   34  C17 UNL     1      -2.892  48.304 -12.423  1.00  0.00     0.141 C 
HETATM   35  O4  UNL     1      -2.510  47.507 -11.583  1.00  0.00    -0.650 OA
BRANCH  34  36
HETATM   36  O5  UNL     1      -4.161  48.259 -12.876  1.00  0.00    -0.776 OA
HETATM   37  H20 UNL     1      -4.573  47.535 -12.363  1.00  0.00     0.167 HD
ENDBRANCH  34  36
ENDBRANCH  33  34
ENDBRANCH  32  33
BRANCH  32  38
HETATM   38  C18 UNL     1      -2.615  51.913 -13.609  1.00  0.00     0.014 C 
HETATM   39  C19 UNL     1      -1.167  52.081 -13.114  1.00  0.00     0.033 C 
HETATM   40  C20 UNL     1      -1.036  52.110 -11.591  1.00  0.00     0.169 C 
HETATM   41  O6  UNL     1      -2.226  51.659 -10.940  1.00  0.00    -0.381 OA
HETATM   42  C21 UNL     1      -3.390  52.468 -11.198  1.00  0.00     0.054 C 
HETATM   43  C22 UNL     1      -3.313  53.776 -10.395  1.00  0.00     0.045 C 
HETATM   44  C23 UNL     1      -4.596  51.674 -10.670  1.00  0.00     0.045 C 
HETATM   45  C24 UNL     1      -3.546  52.747 -12.708  1.00  0.00     0.044 C 
ENDBRANCH  32  38
ENDBRANCH  30  32
ENDBRANCH  27  28
ENDBRANCH  26  27
ENDBRANCH  13  26
TORSDOF 9
ENDMDL
MODEL 9
REMARK minimizedAffinity -8.21837044
REMARK CNNscore 0.195970923
REMARK CNNaffinity 5.95318842
REMARK  9 active torsions:
REMARK  status: ('A' for Active; 'I' for Inactive)
REMARK    1  A    between atoms: C3_3  and  O1_4 
REMARK    2  A    between atoms: N1_14  and  O2_16 
REMARK    3  A    between atoms: O2_16  and  C13_17 
REMARK    4  A    between atoms: C13_17  and  C14_18 
REMARK       I    between atoms: C14_18  and  N2_20 
REMARK    5  A    between atoms: N2_20  and  C15_21 
REMARK    6  A    between atoms: C15_21  and  C16_22 
REMARK    7  A    between atoms: C15_21  and  C18_26 
REMARK    8  A    between atoms: C16_22  and  C17_23 
REMARK    9  A    between atoms: C17_23  and  O5_25 
ROOT
HETATM    1  C1  UNL     1      -4.327  51.796 -21.555  1.00  0.00     0.015 C 
HETATM    2  C2  UNL     1      -3.874  50.707 -21.327  1.00  0.00    -0.078 C 
HETATM    3  C3  UNL     1      -3.330  49.357 -21.061  1.00  0.00     0.128 C 
HETATM    4  C4  UNL     1      -4.377  48.512 -20.332  1.00  0.00     0.052 C 
HETATM    5  C5  UNL     1      -4.258  48.971 -18.886  1.00  0.00     0.010 C 
HETATM    6  C6  UNL     1      -2.754  49.230 -18.647  1.00  0.00     0.002 C 
HETATM    7  C7  UNL     1      -2.482  50.478 -17.776  1.00  0.00    -0.004 C 
HETATM    8  C8  UNL     1      -3.201  50.457 -16.406  1.00  0.00     0.010 C 
HETATM    9  C9  UNL     1      -2.407  49.818 -15.273  1.00  0.00     0.035 C 
HETATM   10  C10 UNL     1      -1.055  50.480 -15.219  1.00  0.00    -0.069 C 
HETATM   11  C11 UNL     1      -0.751  51.304 -14.202  1.00  0.00     0.030 C 
HETATM   12  C12 UNL     1       0.450  52.187 -14.259  1.00  0.00     0.032 C 
HETATM   13  N1  UNL     1       0.899  52.925 -13.292  1.00  0.00    -0.271 N 
ATOM     14  H1  UNL     1       1.716  53.532 -13.364  1.00  0.00     0.194 HD
HETATM   15  C25 UNL     1       1.149  52.292 -15.599  1.00  0.00     0.060 C 
HETATM   16  C26 UNL     1       1.213  50.925 -16.261  1.00  0.00     0.020 C 
HETATM   17  C27 UNL     1      -0.180  50.251 -16.450  1.00  0.00    -0.016 C 
HETATM   18  C28 UNL     1       0.117  48.736 -16.595  1.00  0.00     0.020 C 
HETATM   19  C29 UNL     1      -0.960  50.853 -17.679  1.00  0.00     0.002 C 
HETATM   20  C30 UNL     1      -0.218  50.674 -19.023  1.00  0.00     0.007 C 
HETATM   21  C31 UNL     1      -1.160  50.536 -20.216  1.00  0.00     0.014 C 
HETATM   22  C32 UNL     1      -2.111  49.321 -20.074  1.00  0.00     0.003 C 
HETATM   23  C33 UNL     1      -1.275  48.030 -20.317  1.00  0.00     0.020 C 
ENDROOT
BRANCH   3  24
HETATM   24  O1  UNL     1      -3.025  48.758 -22.312  1.00  0.00    -0.377 OA
HETATM   25  H2  UNL     1      -2.452  49.381 -22.788  1.00  0.00     0.211 HD
ENDBRANCH   3  24
BRANCH  13  26
HETATM   26  O2  UNL     1       0.118  52.781 -12.132  1.00  0.00    -0.271 OA
BRANCH  26  27
HETATM   27  C13 UNL     1       0.953  52.884 -10.989  1.00  0.00     0.303 C 
BRANCH  27  28
HETATM   28  C14 UNL     1       0.774  54.242 -10.314  1.00  0.00     0.244 C 
HETATM   29  O3  UNL     1      -0.130  55.032 -10.574  1.00  0.00    -0.271 OA
HETATM   30  N2  UNL     1       1.754  54.516  -9.376  1.00  0.00    -0.354 N 
HETATM   31  H16 UNL     1       2.504  53.837  -9.251  1.00  0.00     0.162 HD
BRANCH  30  32
HETATM   32  C15 UNL     1       1.885  55.815  -8.718  1.00  0.00     0.098 C 
BRANCH  32  33
HETATM   33  C16 UNL     1       1.534  55.707  -7.223  1.00  0.00     0.135 C 
BRANCH  33  34
HETATM   34  C17 UNL     1       1.442  54.280  -6.755  1.00  0.00     0.141 C 
HETATM   35  O4  UNL     1       0.606  53.447  -7.065  1.00  0.00    -0.650 OA
BRANCH  34  36
HETATM   36  O5  UNL     1       2.439  53.960  -5.908  1.00  0.00    -0.776 OA
HETATM   37  H20 UNL     1       2.293  53.012  -5.711  1.00  0.00     0.167 HD
ENDBRANCH  34  36
ENDBRANCH  33  34
ENDBRANCH  32  33
BRANCH  32  38
HETATM   38  C18 UNL     1       3.274  56.478  -9.009  1.00  0.00     0.014 C 
HETATM   39  C19 UNL     1       3.532  56.648 -10.518  1.00  0.00     0.033 C 
HETATM   40  C20 UNL     1       4.265  55.468 -11.155  1.00  0.00     0.169 C 
HETATM   41  O6  UNL     1       4.278  54.319 -10.303  1.00  0.00    -0.381 OA
HETATM   42  C21 UNL     1       4.965  54.513  -9.052  1.00  0.00     0.054 C 
HETATM   43  C22 UNL     1       6.485  54.502  -9.276  1.00  0.00     0.045 C 
HETATM   44  C23 UNL     1       4.620  53.298  -8.175  1.00  0.00     0.045 C 
HETATM   45  C24 UNL     1       4.510  55.820  -8.368  1.00  0.00     0.044 C 
ENDBRANCH  32  38
ENDBRANCH  30  32
ENDBRANCH  27  28
ENDBRANCH  26  27
ENDBRANCH  13  26
TORSDOF 9
ENDMDL
