MODEL 1
REMARK minimizedAffinity -6.89320946
REMARK CNNscore 0.853449583
REMARK CNNaffinity 6.89342117
REMARK  6 active torsions:
REMARK  status: ('A' for Active; 'I' for Inactive)
REMARK    1  A    between atoms: O1_2  and  C2_3 
REMARK    2  A    between atoms: C17_20  and  C18_21 
REMARK    3  A    between atoms: C22_27  and  O6_28 
REMARK    4  A    between atoms: O6_28  and  C23_29 
REMARK    5  A    between atoms: C26_33  and  O8_34 
REMARK    6  A    between atoms: C31_40  and  O10_41 
ROOT
HETATM    1  C2  UNL     1      -2.948  18.504  14.042  1.00  0.00     0.190 C 
HETATM    2  C3  UNL     1      -4.304  19.160  13.744  1.00  0.00     0.064 C 
HETATM    3  C4  UNL     1      -5.303  18.921  14.874  1.00  0.00     0.174 C 
HETATM    4  O2  UNL     1      -5.442  17.529  15.179  1.00  0.00    -0.356 OA
HETATM    5  C5  UNL     1      -4.193  16.972  15.601  1.00  0.00     0.325 C 
HETATM    6  O3  UNL     1      -4.402  15.605  16.018  1.00  0.00    -0.344 OA
HETATM    7  C6  UNL     1      -3.136  15.069  16.425  1.00  0.00     0.177 C 
HETATM    8  C7  UNL     1      -3.311  13.709  17.014  1.00  0.00     0.011 C 
HETATM    9  C8  UNL     1      -2.422  12.705  16.851  1.00  0.00    -0.072 C 
HETATM   10  C9  UNL     1      -2.677  11.372  17.506  1.00  0.00     0.035 C 
HETATM   11  C10 UNL     1      -1.437  10.765  18.161  1.00  0.00     0.012 C 
HETATM   12  C11 UNL     1      -0.265  11.753  18.275  1.00  0.00     0.026 C 
HETATM   13  C12 UNL     1       0.124  12.247  16.841  1.00  0.00     0.005 C 
HETATM   14  C13 UNL     1       1.414  13.115  16.843  1.00  0.00     0.007 C 
HETATM   15  C14 UNL     1       2.583  12.517  17.647  1.00  0.00     0.013 C 
HETATM   16  C15 UNL     1       2.142  12.137  19.073  1.00  0.00    -0.003 C 
HETATM   17  C16 UNL     1       1.796  13.432  19.863  1.00  0.00     0.019 C 
HETATM   18  C17 UNL     1       3.160  11.273  19.873  1.00  0.00     0.058 C 
HETATM   19  C22 UNL     1       2.256  10.603  20.958  1.00  0.00     0.143 C 
HETATM   20  C25 UNL     1       0.808  10.615  20.398  1.00  0.00     0.072 C 
HETATM   21  C26 UNL     1       0.964  11.129  18.967  1.00  0.00     0.072 C 
HETATM   22  C27 UNL     1      -1.113  12.858  16.049  1.00  0.00    -0.014 C 
HETATM   23  C28 UNL     1      -1.275  12.033  14.742  1.00  0.00     0.020 C 
HETATM   24  C29 UNL     1      -0.890  14.349  15.636  1.00  0.00     0.049 C 
HETATM   25  C30 UNL     1      -2.190  15.032  15.214  1.00  0.00     0.159 C 
HETATM   26  O9  UNL     1      -1.932  16.371  14.755  1.00  0.00    -0.341 OA
HETATM   27  C31 UNL     1      -3.172  17.016  14.411  1.00  0.00     0.240 C 
ENDROOT
BRANCH  18  28
HETATM   28  C18 UNL     1       4.390  11.979  20.376  1.00  0.00    -0.043 A 
HETATM   29  C19 UNL     1       4.670  12.247  21.653  1.00  0.00     0.087 A 
HETATM   30  C20 UNL     1       5.960  12.934  21.676  1.00  0.00     0.283 A 
HETATM   31  O4  UNL     1       6.532  13.292  22.688  1.00  0.00    -0.260 OA
HETATM   32  O5  UNL     1       6.409  13.090  20.401  1.00  0.00    -0.314 OA
HETATM   33  C21 UNL     1       5.459  12.520  19.501  1.00  0.00     0.214 A 
ENDBRANCH  18  28
BRANCH  19  34
HETATM   34  O6  UNL     1       2.701   9.254  21.177  1.00  0.00    -0.316 OA
BRANCH  34  35
HETATM   35  C23 UNL     1       2.315   8.695  22.354  1.00  0.00     0.255 C 
HETATM   36  C24 UNL     1       2.978   9.400  23.499  1.00  0.00     0.126 C 
HETATM   37  O7  UNL     1       1.555   7.744  22.474  1.00  0.00    -0.266 OA
ENDBRANCH  34  35
ENDBRANCH  19  34
BRANCH  21  38
HETATM   38  O8  UNL     1       1.396  10.004  18.173  1.00  0.00    -0.389 OA
HETATM   39  H35 UNL     1       0.767   9.271  18.298  1.00  0.00     0.210 HD
ENDBRANCH  21  38
BRANCH  27  40
HETATM   40  O10 UNL     1      -3.724  16.358  13.257  1.00  0.00    -0.360 OA
HETATM   41  H42 UNL     1      -4.502  15.869  13.590  1.00  0.00     0.213 HD
ENDBRANCH  27  40
BRANCH   1  42
HETATM   42  O1  UNL     1      -2.353  19.254  15.117  1.00  0.00    -0.385 OA
HETATM   43  C1  UNL     1      -1.115  19.854  14.751  1.00  0.00     0.202 C 
ENDBRANCH   1  42
TORSDOF 6
ENDMDL
MODEL 2
REMARK minimizedAffinity -6.88697481
REMARK CNNscore 0.826236367
REMARK CNNaffinity 6.66416597
REMARK  6 active torsions:
REMARK  status: ('A' for Active; 'I' for Inactive)
REMARK    1  A    between atoms: O1_2  and  C2_3 
REMARK    2  A    between atoms: C17_20  and  C18_21 
REMARK    3  A    between atoms: C22_27  and  O6_28 
REMARK    4  A    between atoms: O6_28  and  C23_29 
REMARK    5  A    between atoms: C26_33  and  O8_34 
REMARK    6  A    between atoms: C31_40  and  O10_41 
ROOT
HETATM    1  C2  UNL     1      -5.825  17.158  14.628  1.00  0.00     0.190 C 
HETATM    2  C3  UNL     1      -7.280  17.644  14.707  1.00  0.00     0.064 C 
HETATM    3  C4  UNL     1      -7.844  17.498  16.118  1.00  0.00     0.174 C 
HETATM    4  O2  UNL     1      -7.705  16.163  16.613  1.00  0.00    -0.356 OA
HETATM    5  C5  UNL     1      -6.326  15.783  16.674  1.00  0.00     0.325 C 
HETATM    6  O3  UNL     1      -6.221  14.484  17.295  1.00  0.00    -0.344 OA
HETATM    7  C6  UNL     1      -4.834  14.124  17.334  1.00  0.00     0.177 C 
HETATM    8  C7  UNL     1      -4.645  12.860  18.105  1.00  0.00     0.011 C 
HETATM    9  C8  UNL     1      -3.727  11.921  17.785  1.00  0.00    -0.072 C 
HETATM   10  C9  UNL     1      -3.597  10.686  18.640  1.00  0.00     0.035 C 
HETATM   11  C10 UNL     1      -2.149  10.292  18.929  1.00  0.00     0.012 C 
HETATM   12  C11 UNL     1      -1.134  11.381  18.542  1.00  0.00     0.026 C 
HETATM   13  C12 UNL     1      -1.271  11.681  17.011  1.00  0.00     0.005 C 
HETATM   14  C13 UNL     1      -0.165  12.644  16.496  1.00  0.00     0.007 C 
HETATM   15  C14 UNL     1       1.261  12.275  16.945  1.00  0.00     0.013 C 
HETATM   16  C15 UNL     1       1.331  12.082  18.472  1.00  0.00    -0.003 C 
HETATM   17  C16 UNL     1       1.082  13.449  19.172  1.00  0.00     0.019 C 
HETATM   18  C17 UNL     1       2.647  11.438  18.998  1.00  0.00     0.058 C 
HETATM   19  C22 UNL     1       2.213  10.869  20.388  1.00  0.00     0.143 C 
HETATM   20  C25 UNL     1       0.674  10.674  20.326  1.00  0.00     0.072 C 
HETATM   21  C26 UNL     1       0.316  10.975  18.871  1.00  0.00     0.072 C 
HETATM   22  C27 UNL     1      -2.759  12.058  16.593  1.00  0.00    -0.014 C 
HETATM   23  C28 UNL     1      -3.207  11.032  15.515  1.00  0.00     0.020 C 
HETATM   24  C29 UNL     1      -2.866  13.482  15.956  1.00  0.00     0.049 C 
HETATM   25  C30 UNL     1      -4.308  13.981  15.897  1.00  0.00     0.159 C 
HETATM   26  O9  UNL     1      -4.376  15.251  15.224  1.00  0.00    -0.341 OA
HETATM   27  C31 UNL     1      -5.734  15.730  15.223  1.00  0.00     0.240 C 
ENDROOT
BRANCH  18  28
HETATM   28  C18 UNL     1       3.871  12.314  18.992  1.00  0.00    -0.043 A 
HETATM   29  C19 UNL     1       5.110  11.926  19.300  1.00  0.00     0.087 A 
HETATM   30  C20 UNL     1       5.977  13.095  19.153  1.00  0.00     0.283 A 
HETATM   31  O4  UNL     1       7.180  13.085  19.323  1.00  0.00    -0.260 OA
HETATM   32  O5  UNL     1       5.224  14.168  18.788  1.00  0.00    -0.314 OA
HETATM   33  C21 UNL     1       3.860  13.763  18.674  1.00  0.00     0.214 A 
ENDBRANCH  18  28
BRANCH  19  34
HETATM   34  O6  UNL     1       2.872   9.611  20.611  1.00  0.00    -0.316 OA
BRANCH  34  35
HETATM   35  C23 UNL     1       2.695   9.069  21.843  1.00  0.00     0.255 C 
HETATM   36  C24 UNL     1       3.509   9.816  22.856  1.00  0.00     0.126 C 
HETATM   37  O7  UNL     1       1.991   8.101  22.100  1.00  0.00    -0.266 OA
ENDBRANCH  34  35
ENDBRANCH  19  34
BRANCH  21  38
HETATM   38  O8  UNL     1       0.623   9.781  18.119  1.00  0.00    -0.389 OA
HETATM   39  H35 UNL     1       0.162   9.027  18.526  1.00  0.00     0.210 HD
ENDBRANCH  21  38
BRANCH  27  40
HETATM   40  O10 UNL     1      -6.525  14.859  14.394  1.00  0.00    -0.360 OA
HETATM   41  H42 UNL     1      -7.094  14.364  15.015  1.00  0.00     0.213 HD
ENDBRANCH  27  40
BRANCH   1  42
HETATM   42  O1  UNL     1      -5.031  18.110  15.358  1.00  0.00    -0.385 OA
HETATM   43  C1  UNL     1      -3.998  18.687  14.565  1.00  0.00     0.202 C 
ENDBRANCH   1  42
TORSDOF 6
ENDMDL
MODEL 3
REMARK minimizedAffinity -8.69869137
REMARK CNNscore 0.760894775
REMARK CNNaffinity 6.58473778
REMARK  6 active torsions:
REMARK  status: ('A' for Active; 'I' for Inactive)
REMARK    1  A    between atoms: O1_2  and  C2_3 
REMARK    2  A    between atoms: C17_20  and  C18_21 
REMARK    3  A    between atoms: C22_27  and  O6_28 
REMARK    4  A    between atoms: O6_28  and  C23_29 
REMARK    5  A    between atoms: C26_33  and  O8_34 
REMARK    6  A    between atoms: C31_40  and  O10_41 
ROOT
HETATM    1  C2  UNL     1       3.049   7.084   9.836  1.00  0.00     0.190 C 
HETATM    2  C3  UNL     1       3.040   6.787   8.329  1.00  0.00     0.064 C 
HETATM    3  C4  UNL     1       2.092   7.720   7.579  1.00  0.00     0.174 C 
HETATM    4  O2  UNL     1       0.773   7.698   8.132  1.00  0.00    -0.356 OA
HETATM    5  C5  UNL     1       0.785   8.125   9.498  1.00  0.00     0.325 C 
HETATM    6  O3  UNL     1      -0.575   8.209   9.978  1.00  0.00    -0.344 OA
HETATM    7  C6  UNL     1      -0.533   8.629  11.349  1.00  0.00     0.177 C 
HETATM    8  C7  UNL     1      -1.913   8.885  11.857  1.00  0.00     0.011 C 
HETATM    9  C8  UNL     1      -2.306   8.609  13.120  1.00  0.00    -0.072 C 
HETATM   10  C9  UNL     1      -3.717   8.926  13.546  1.00  0.00     0.035 C 
HETATM   11  C10 UNL     1      -3.808   9.568  14.930  1.00  0.00     0.012 C 
HETATM   12  C11 UNL     1      -2.446  10.023  15.479  1.00  0.00     0.026 C 
HETATM   13  C12 UNL     1      -1.495   8.783  15.570  1.00  0.00     0.005 C 
HETATM   14  C13 UNL     1      -0.152   9.117  16.279  1.00  0.00     0.007 C 
HETATM   15  C14 UNL     1      -0.305   9.897  17.599  1.00  0.00     0.013 C 
HETATM   16  C15 UNL     1      -1.183  11.148  17.407  1.00  0.00    -0.003 C 
HETATM   17  C16 UNL     1      -0.440  12.157  16.484  1.00  0.00     0.019 C 
HETATM   18  C17 UNL     1      -1.632  11.849  18.722  1.00  0.00     0.058 C 
HETATM   19  C22 UNL     1      -2.891  12.656  18.262  1.00  0.00     0.143 C 
HETATM   20  C25 UNL     1      -3.425  11.954  16.985  1.00  0.00     0.072 C 
HETATM   21  C26 UNL     1      -2.567  10.696  16.861  1.00  0.00     0.072 C 
HETATM   22  C27 UNL     1      -1.366   8.010  14.186  1.00  0.00    -0.014 C 
HETATM   23  C28 UNL     1      -1.823   6.545  14.432  1.00  0.00     0.020 C 
HETATM   24  C29 UNL     1       0.105   7.957  13.657  1.00  0.00     0.049 C 
HETATM   25  C30 UNL     1       0.175   7.552  12.186  1.00  0.00     0.159 C 
HETATM   26  O9  UNL     1       1.544   7.426  11.761  1.00  0.00    -0.341 OA
HETATM   27  C31 UNL     1       1.592   7.094  10.361  1.00  0.00     0.240 C 
ENDROOT
BRANCH  18  28
HETATM   28  C18 UNL     1      -0.577  12.627  19.461  1.00  0.00    -0.043 A 
HETATM   29  C19 UNL     1       0.540  12.123  19.989  1.00  0.00     0.087 A 
HETATM   30  C20 UNL     1       1.267  13.234  20.601  1.00  0.00     0.283 A 
HETATM   31  O4  UNL     1       2.350  13.131  21.144  1.00  0.00    -0.260 OA
HETATM   32  O5  UNL     1       0.547  14.378  20.451  1.00  0.00    -0.314 OA
HETATM   33  C21 UNL     1      -0.657  14.082  19.744  1.00  0.00     0.214 A 
ENDBRANCH  18  28
BRANCH  19  34
HETATM   34  O6  UNL     1      -3.879  12.626  19.306  1.00  0.00    -0.316 OA
BRANCH  34  35
HETATM   35  C23 UNL     1      -4.390  13.832  19.662  1.00  0.00     0.255 C 
HETATM   36  C24 UNL     1      -5.374  13.665  20.780  1.00  0.00     0.126 C 
HETATM   37  O7  UNL     1      -4.111  14.905  19.141  1.00  0.00    -0.266 OA
ENDBRANCH  34  35
ENDBRANCH  19  34
BRANCH  21  38
HETATM   38  O8  UNL     1      -3.124   9.729  17.777  1.00  0.00    -0.389 OA
HETATM   39  H35 UNL     1      -4.071   9.622  17.582  1.00  0.00     0.210 HD
ENDBRANCH  21  38
BRANCH  27  40
HETATM   40  O10 UNL     1       1.055   5.770  10.187  1.00  0.00    -0.360 OA
HETATM   41  H42 UNL     1       0.194   5.901   9.745  1.00  0.00     0.213 HD
ENDBRANCH  27  40
BRANCH   1  42
HETATM   42  O1  UNL     1       3.703   8.356  10.002  1.00  0.00    -0.385 OA
HETATM   43  C1  UNL     1       5.029   8.231  10.506  1.00  0.00     0.202 C 
ENDBRANCH   1  42
TORSDOF 6
ENDMDL
MODEL 4
REMARK minimizedAffinity -9.24525166
REMARK CNNscore 0.61457628
REMARK CNNaffinity 7.13738871
REMARK  6 active torsions:
REMARK  status: ('A' for Active; 'I' for Inactive)
REMARK    1  A    between atoms: O1_2  and  C2_3 
REMARK    2  A    between atoms: C17_20  and  C18_21 
REMARK    3  A    between atoms: C22_27  and  O6_28 
REMARK    4  A    between atoms: O6_28  and  C23_29 
REMARK    5  A    between atoms: C26_33  and  O8_34 
REMARK    6  A    between atoms: C31_40  and  O10_41 
ROOT
HETATM    1  C2  UNL     1      -2.402  10.426  16.210  1.00  0.00     0.190 C 
HETATM    2  C3  UNL     1      -0.940  10.331  15.750  1.00  0.00     0.064 C 
HETATM    3  C4  UNL     1      -0.840  10.072  14.248  1.00  0.00     0.174 C 
HETATM    4  O2  UNL     1      -1.597   8.924  13.853  1.00  0.00    -0.356 OA
HETATM    5  C5  UNL     1      -2.985   9.098  14.155  1.00  0.00     0.325 C 
HETATM    6  O3  UNL     1      -3.728   7.977  13.628  1.00  0.00    -0.344 OA
HETATM    7  C6  UNL     1      -5.111   8.173  13.953  1.00  0.00     0.177 C 
HETATM    8  C7  UNL     1      -5.952   7.126  13.301  1.00  0.00     0.011 C 
HETATM    9  C8  UNL     1      -7.049   6.586  13.875  1.00  0.00    -0.072 C 
HETATM   10  C9  UNL     1      -7.847   5.550  13.126  1.00  0.00     0.035 C 
HETATM   11  C10 UNL     1      -9.359   5.752  13.226  1.00  0.00     0.012 C 
HETATM   12  C11 UNL     1      -9.751   7.117  13.816  1.00  0.00     0.026 C 
HETATM   13  C12 UNL     1      -9.138   7.244  15.251  1.00  0.00     0.005 C 
HETATM   14  C13 UNL     1      -9.629   8.520  15.993  1.00  0.00     0.007 C 
HETATM   15  C14 UNL     1     -11.150   8.748  15.931  1.00  0.00     0.013 C 
HETATM   16  C15 UNL     1     -11.662   8.693  14.479  1.00  0.00    -0.003 C 
HETATM   17  C16 UNL     1     -11.091   9.906  13.689  1.00  0.00     0.019 C 
HETATM   18  C17 UNL     1     -13.210   8.630  14.325  1.00  0.00     0.058 C 
HETATM   19  C22 UNL     1     -13.383   8.028  12.892  1.00  0.00     0.143 C 
HETATM   20  C25 UNL     1     -12.071   7.262  12.572  1.00  0.00     0.072 C 
HETATM   21  C26 UNL     1     -11.279   7.311  13.878  1.00  0.00     0.072 C 
HETATM   22  C27 UNL     1      -7.566   7.003  15.268  1.00  0.00    -0.014 C 
HETATM   23  C28 UNL     1      -7.293   5.818  16.235  1.00  0.00     0.020 C 
HETATM   24  C29 UNL     1      -6.769   8.237  15.805  1.00  0.00     0.049 C 
HETATM   25  C30 UNL     1      -5.280   8.148  15.480  1.00  0.00     0.159 C 
HETATM   26  O9  UNL     1      -4.568   9.252  16.068  1.00  0.00    -0.341 OA
HETATM   27  C31 UNL     1      -3.175   9.181  15.710  1.00  0.00     0.240 C 
ENDROOT
BRANCH  18  28
HETATM   28  C18 UNL     1     -13.964   9.901  14.607  1.00  0.00    -0.043 A 
HETATM   29  C19 UNL     1     -14.421  10.758  13.693  1.00  0.00     0.087 A 
HETATM   30  C20 UNL     1     -15.093  11.840  14.412  1.00  0.00     0.283 A 
HETATM   31  O4  UNL     1     -15.656  12.776  13.879  1.00  0.00    -0.260 OA
HETATM   32  O5  UNL     1     -14.993  11.617  15.751  1.00  0.00    -0.314 OA
HETATM   33  C21 UNL     1     -14.273  10.404  15.969  1.00  0.00     0.214 A 
ENDBRANCH  18  28
BRANCH  19  34
HETATM   34  O6  UNL     1     -14.505   7.131  12.888  1.00  0.00    -0.316 OA
BRANCH  34  35
HETATM   35  C23 UNL     1     -15.604   7.572  12.223  1.00  0.00     0.255 C 
HETATM   36  C24 UNL     1     -16.726   7.814  13.187  1.00  0.00     0.126 C 
HETATM   37  O7  UNL     1     -15.685   7.734  11.013  1.00  0.00    -0.266 OA
ENDBRANCH  34  35
ENDBRANCH  19  34
BRANCH  21  38
HETATM   38  O8  UNL     1     -11.824   6.278  14.726  1.00  0.00    -0.389 OA
HETATM   39  H35 UNL     1     -11.802   5.433  14.244  1.00  0.00     0.210 HD
ENDBRANCH  21  38
BRANCH  27  40
HETATM   40  O10 UNL     1      -2.599   8.024  16.344  1.00  0.00    -0.360 OA
HETATM   41  H42 UNL     1      -2.435   7.391  15.618  1.00  0.00     0.213 HD
ENDBRANCH  27  40
BRANCH   1  42
HETATM   42  O1  UNL     1      -2.926  11.654  15.669  1.00  0.00    -0.385 OA
HETATM   43  C1  UNL     1      -2.486  12.802  16.386  1.00  0.00     0.202 C 
ENDBRANCH   1  42
TORSDOF 6
ENDMDL
MODEL 5
REMARK minimizedAffinity -8.30562592
REMARK CNNscore 0.570854843
REMARK CNNaffinity 6.52846289
REMARK  6 active torsions:
REMARK  status: ('A' for Active; 'I' for Inactive)
REMARK    1  A    between atoms: O1_2  and  C2_3 
REMARK    2  A    between atoms: C17_20  and  C18_21 
REMARK    3  A    between atoms: C22_27  and  O6_28 
REMARK    4  A    between atoms: O6_28  and  C23_29 
REMARK    5  A    between atoms: C26_33  and  O8_34 
REMARK    6  A    between atoms: C31_40  and  O10_41 
ROOT
HETATM    1  C2  UNL     1      -3.508  14.566  17.062  1.00  0.00     0.190 C 
HETATM    2  C3  UNL     1      -3.934  15.102  18.437  1.00  0.00     0.064 C 
HETATM    3  C4  UNL     1      -3.389  14.235  19.570  1.00  0.00     0.174 C 
HETATM    4  O2  UNL     1      -3.740  12.857  19.405  1.00  0.00    -0.356 OA
HETATM    5  C5  UNL     1      -3.204  12.336  18.185  1.00  0.00     0.325 C 
HETATM    6  O3  UNL     1      -3.472  10.919  18.118  1.00  0.00    -0.344 OA
HETATM    7  C6  UNL     1      -2.934  10.425  16.884  1.00  0.00     0.177 C 
HETATM    8  C7  UNL     1      -3.042   8.938  16.826  1.00  0.00     0.011 C 
HETATM    9  C8  UNL     1      -3.302   8.252  15.692  1.00  0.00    -0.072 C 
HETATM   10  C9  UNL     1      -3.369   6.746  15.731  1.00  0.00     0.035 C 
HETATM   11  C10 UNL     1      -2.656   6.072  14.560  1.00  0.00     0.012 C 
HETATM   12  C11 UNL     1      -1.777   7.037  13.747  1.00  0.00     0.026 C 
HETATM   13  C12 UNL     1      -2.675   8.188  13.183  1.00  0.00     0.005 C 
HETATM   14  C13 UNL     1      -1.902   9.116  12.203  1.00  0.00     0.007 C 
HETATM   15  C14 UNL     1      -1.082   8.370  11.134  1.00  0.00     0.013 C 
HETATM   16  C15 UNL     1      -0.161   7.314  11.775  1.00  0.00    -0.003 C 
HETATM   17  C16 UNL     1       0.930   8.033  12.620  1.00  0.00     0.019 C 
HETATM   18  C17 UNL     1       0.498   6.318  10.777  1.00  0.00     0.058 C 
HETATM   19  C22 UNL     1       0.861   5.107  11.698  1.00  0.00     0.143 C 
HETATM   20  C25 UNL     1      -0.081   5.190  12.929  1.00  0.00     0.072 C 
HETATM   21  C26 UNL     1      -1.043   6.328  12.590  1.00  0.00     0.072 C 
HETATM   22  C27 UNL     1      -3.502   8.931  14.321  1.00  0.00    -0.014 C 
HETATM   23  C28 UNL     1      -5.007   8.798  13.957  1.00  0.00     0.020 C 
HETATM   24  C29 UNL     1      -3.175  10.458  14.409  1.00  0.00     0.049 C 
HETATM   25  C30 UNL     1      -3.677  11.081  15.710  1.00  0.00     0.159 C 
HETATM   26  O9  UNL     1      -3.440  12.500  15.714  1.00  0.00    -0.341 OA
HETATM   27  C31 UNL     1      -3.872  13.064  16.966  1.00  0.00     0.240 C 
ENDROOT
BRANCH  18  28
HETATM   28  C18 UNL     1       1.613   6.862   9.925  1.00  0.00    -0.043 A 
HETATM   29  C19 UNL     1       1.493   7.806   8.989  1.00  0.00     0.087 A 
HETATM   30  C20 UNL     1       2.823   8.024   8.423  1.00  0.00     0.283 A 
HETATM   31  O4  UNL     1       3.080   8.847   7.565  1.00  0.00    -0.260 OA
HETATM   32  O5  UNL     1       3.708   7.178   9.017  1.00  0.00    -0.314 OA
HETATM   33  C21 UNL     1       3.017   6.385   9.983  1.00  0.00     0.214 A 
ENDBRANCH  18  28
BRANCH  19  34
HETATM   34  O6  UNL     1       0.642   3.883  10.977  1.00  0.00    -0.316 OA
BRANCH  34  35
HETATM   35  C23 UNL     1      -0.337   3.082  11.471  1.00  0.00     0.255 C 
HETATM   36  C24 UNL     1      -1.525   3.099  10.557  1.00  0.00     0.126 C 
HETATM   37  O7  UNL     1      -0.278   2.448  12.516  1.00  0.00    -0.266 OA
ENDBRANCH  34  35
ENDBRANCH  19  34
BRANCH  21  38
HETATM   38  O8  UNL     1      -2.041   5.771  11.708  1.00  0.00    -0.389 OA
HETATM   39  H35 UNL     1      -2.435   4.990  12.134  1.00  0.00     0.210 HD
ENDBRANCH  21  38
BRANCH  27  40
HETATM   40  O10 UNL     1      -5.305  12.954  17.047  1.00  0.00    -0.360 OA
HETATM   41  H42 UNL     1      -5.471  12.270  17.724  1.00  0.00     0.213 HD
ENDBRANCH  27  40
BRANCH   1  42
HETATM   42  O1  UNL     1      -2.092  14.798  16.949  1.00  0.00    -0.385 OA
HETATM   43  C1  UNL     1      -1.658  14.895  15.596  1.00  0.00     0.202 C 
ENDBRANCH   1  42
TORSDOF 6
ENDMDL
MODEL 6
REMARK minimizedAffinity -7.34324694
REMARK CNNscore 0.486401975
REMARK CNNaffinity 5.9140811
REMARK  6 active torsions:
REMARK  status: ('A' for Active; 'I' for Inactive)
REMARK    1  A    between atoms: O1_2  and  C2_3 
REMARK    2  A    between atoms: C17_20  and  C18_21 
REMARK    3  A    between atoms: C22_27  and  O6_28 
REMARK    4  A    between atoms: O6_28  and  C23_29 
REMARK    5  A    between atoms: C26_33  and  O8_34 
REMARK    6  A    between atoms: C31_40  and  O10_41 
ROOT
HETATM    1  C2  UNL     1       8.301  19.231  27.529  1.00  0.00     0.190 C 
HETATM    2  C3  UNL     1       8.475  20.732  27.806  1.00  0.00     0.064 C 
HETATM    3  C4  UNL     1       7.531  21.574  26.951  1.00  0.00     0.174 C 
HETATM    4  O2  UNL     1       7.663  21.273  25.558  1.00  0.00    -0.356 OA
HETATM    5  C5  UNL     1       7.348  19.901  25.300  1.00  0.00     0.325 C 
HETATM    6  O3  UNL     1       7.369  19.672  23.874  1.00  0.00    -0.344 OA
HETATM    7  C6  UNL     1       7.061  18.291  23.644  1.00  0.00     0.177 C 
HETATM    8  C7  UNL     1       6.915  18.025  22.183  1.00  0.00     0.011 C 
HETATM    9  C8  UNL     1       7.311  16.879  21.589  1.00  0.00    -0.072 C 
HETATM   10  C9  UNL     1       7.099  16.695  20.108  1.00  0.00     0.035 C 
HETATM   11  C10 UNL     1       6.577  15.309  19.732  1.00  0.00     0.012 C 
HETATM   12  C11 UNL     1       6.102  14.490  20.943  1.00  0.00     0.026 C 
HETATM   13  C12 UNL     1       7.298  14.316  21.938  1.00  0.00     0.005 C 
HETATM   14  C13 UNL     1       6.957  13.351  23.109  1.00  0.00     0.007 C 
HETATM   15  C14 UNL     1       6.296  12.030  22.675  1.00  0.00     0.013 C 
HETATM   16  C15 UNL     1       5.078  12.289  21.769  1.00  0.00    -0.003 C 
HETATM   17  C16 UNL     1       3.962  12.986  22.600  1.00  0.00     0.019 C 
HETATM   18  C17 UNL     1       4.508  11.032  21.050  1.00  0.00     0.058 C 
HETATM   19  C22 UNL     1       3.729  11.654  19.846  1.00  0.00     0.143 C 
HETATM   20  C25 UNL     1       4.350  13.054  19.593  1.00  0.00     0.072 C 
HETATM   21  C26 UNL     1       5.551  13.108  20.536  1.00  0.00     0.072 C 
HETATM   22  C27 UNL     1       7.949  15.705  22.360  1.00  0.00    -0.014 C 
HETATM   23  C28 UNL     1       9.449  15.650  21.959  1.00  0.00     0.020 C 
HETATM   24  C29 UNL     1       7.886  15.959  23.902  1.00  0.00     0.049 C 
HETATM   25  C30 UNL     1       8.167  17.417  24.258  1.00  0.00     0.159 C 
HETATM   26  O9  UNL     1       8.191  17.593  25.686  1.00  0.00    -0.341 OA
HETATM   27  C31 UNL     1       8.405  18.981  26.003  1.00  0.00     0.240 C 
ENDROOT
BRANCH  18  28
HETATM   28  C18 UNL     1       3.742  10.059  21.906  1.00  0.00    -0.043 A 
HETATM   29  C19 UNL     1       2.700   9.324  21.512  1.00  0.00     0.087 A 
HETATM   30  C20 UNL     1       2.279   8.524  22.661  1.00  0.00     0.283 A 
HETATM   31  O4  UNL     1       1.373   7.713  22.640  1.00  0.00    -0.260 OA
HETATM   32  O5  UNL     1       3.064   8.825  23.730  1.00  0.00    -0.314 OA
HETATM   33  C21 UNL     1       4.022   9.810  23.342  1.00  0.00     0.214 A 
ENDBRANCH  18  28
BRANCH  19  34
HETATM   34  O6  UNL     1       3.893  10.813  18.692  1.00  0.00    -0.316 OA
BRANCH  34  35
HETATM   35  C23 UNL     1       4.097  11.466  17.519  1.00  0.00     0.255 C 
HETATM   36  C24 UNL     1       2.788  11.715  16.833  1.00  0.00     0.126 C 
HETATM   37  O7  UNL     1       5.187  11.791  17.066  1.00  0.00    -0.266 OA
ENDBRANCH  34  35
ENDBRANCH  19  34
BRANCH  21  38
HETATM   38  O8  UNL     1       6.615  12.381  19.886  1.00  0.00    -0.389 OA
HETATM   39  H35 UNL     1       6.752  12.753  18.997  1.00  0.00     0.210 HD
ENDBRANCH  21  38
BRANCH  27  40
HETATM   40  O10 UNL     1       9.735  19.344  25.590  1.00  0.00    -0.360 OA
HETATM   41  H42 UNL     1       9.611  19.925  24.815  1.00  0.00     0.213 HD
ENDBRANCH  27  40
BRANCH   1  42
HETATM   42  O1  UNL     1       7.016  18.859  28.061  1.00  0.00    -0.385 OA
HETATM   43  C1  UNL     1       7.097  18.361  29.393  1.00  0.00     0.202 C 
ENDBRANCH   1  42
TORSDOF 6
ENDMDL
MODEL 7
REMARK minimizedAffinity -6.32457829
REMARK CNNscore 0.440813005
REMARK CNNaffinity 5.64408731
REMARK  6 active torsions:
REMARK  status: ('A' for Active; 'I' for Inactive)
REMARK    1  A    between atoms: O1_2  and  C2_3 
REMARK    2  A    between atoms: C17_20  and  C18_21 
REMARK    3  A    between atoms: C22_27  and  O6_28 
REMARK    4  A    between atoms: O6_28  and  C23_29 
REMARK    5  A    between atoms: C26_33  and  O8_34 
REMARK    6  A    between atoms: C31_40  and  O10_41 
ROOT
HETATM    1  C2  UNL     1      19.311   1.489   3.862  1.00  0.00     0.190 C 
HETATM    2  C3  UNL     1      19.315   2.961   4.298  1.00  0.00     0.064 C 
HETATM    3  C4  UNL     1      18.353   3.205   5.459  1.00  0.00     0.174 C 
HETATM    4  O2  UNL     1      17.032   2.743   5.164  1.00  0.00    -0.356 OA
HETATM    5  C5  UNL     1      17.029   1.335   4.908  1.00  0.00     0.325 C 
HETATM    6  O3  UNL     1      15.666   0.888   4.740  1.00  0.00    -0.344 OA
HETATM    7  C6  UNL     1      15.693  -0.521   4.476  1.00  0.00     0.177 C 
HETATM    8  C7  UNL     1      14.306  -1.072   4.447  1.00  0.00     0.011 C 
HETATM    9  C8  UNL     1      13.911  -2.057   3.611  1.00  0.00    -0.072 C 
HETATM   10  C9  UNL     1      12.493  -2.563   3.673  1.00  0.00     0.035 C 
HETATM   11  C10 UNL     1      12.382  -4.086   3.598  1.00  0.00     0.012 C 
HETATM   12  C11 UNL     1      13.733  -4.801   3.766  1.00  0.00     0.026 C 
HETATM   13  C12 UNL     1      14.707  -4.319   2.639  1.00  0.00     0.005 C 
HETATM   14  C13 UNL     1      16.039  -5.120   2.625  1.00  0.00     0.007 C 
HETATM   15  C14 UNL     1      15.865  -6.648   2.701  1.00  0.00     0.013 C 
HETATM   16  C15 UNL     1      14.964  -7.047   3.886  1.00  0.00    -0.003 C 
HETATM   17  C16 UNL     1      15.693  -6.708   5.218  1.00  0.00     0.019 C 
HETATM   18  C17 UNL     1      14.496  -8.531   3.890  1.00  0.00     0.058 C 
HETATM   19  C22 UNL     1      13.225  -8.482   4.799  1.00  0.00     0.143 C 
HETATM   20  C25 UNL     1      12.710  -7.018   4.763  1.00  0.00     0.072 C 
HETATM   21  C26 UNL     1      13.593  -6.336   3.718  1.00  0.00     0.072 C 
HETATM   22  C27 UNL     1      14.858  -2.735   2.599  1.00  0.00    -0.014 C 
HETATM   23  C28 UNL     1      14.427  -2.268   1.181  1.00  0.00     0.020 C 
HETATM   24  C29 UNL     1      16.332  -2.262   2.819  1.00  0.00     0.049 C 
HETATM   25  C30 UNL     1      16.417  -0.772   3.144  1.00  0.00     0.159 C 
HETATM   26  O9  UNL     1      17.790  -0.356   3.249  1.00  0.00    -0.341 OA
HETATM   27  C31 UNL     1      17.851   1.038   3.606  1.00  0.00     0.240 C 
ENDROOT
BRANCH  18  28
HETATM   28  C18 UNL     1      15.532  -9.561   4.251  1.00  0.00    -0.043 A 
HETATM   29  C19 UNL     1      16.085 -10.440   3.413  1.00  0.00     0.087 A 
HETATM   30  C20 UNL     1      17.037 -11.235   4.188  1.00  0.00     0.283 A 
HETATM   31  O4  UNL     1      17.744 -12.108   3.724  1.00  0.00    -0.260 OA
HETATM   32  O5  UNL     1      17.007 -10.829   5.486  1.00  0.00    -0.314 OA
HETATM   33  C21 UNL     1      16.060  -9.769   5.622  1.00  0.00     0.214 A 
ENDBRANCH  18  28
BRANCH  19  34
HETATM   34  O6  UNL     1      12.232  -9.379   4.274  1.00  0.00    -0.316 OA
BRANCH  34  35
HETATM   35  C23 UNL     1      12.321 -10.664   4.703  1.00  0.00     0.255 C 
HETATM   36  C24 UNL     1      11.798 -11.595   3.650  1.00  0.00     0.126 C 
HETATM   37  O7  UNL     1      12.745 -11.023   5.793  1.00  0.00    -0.266 OA
ENDBRANCH  34  35
ENDBRANCH  19  34
BRANCH  21  38
HETATM   38  O8  UNL     1      13.049  -6.691   2.429  1.00  0.00    -0.389 OA
HETATM   39  H35 UNL     1      12.105  -6.456   2.411  1.00  0.00     0.210 HD
ENDBRANCH  21  38
BRANCH  27  40
HETATM   40  O10 UNL     1      17.340   1.814   2.507  1.00  0.00    -0.360 OA
HETATM   41  H42 UNL     1      16.479   2.156   2.815  1.00  0.00     0.213 HD
ENDBRANCH  27  40
BRANCH   1  42
HETATM   42  O1  UNL     1      19.940   0.743   4.921  1.00  0.00    -0.385 OA
HETATM   43  C1  UNL     1      21.169   0.148   4.519  1.00  0.00     0.202 C 
ENDBRANCH   1  42
TORSDOF 6
ENDMDL
MODEL 8
REMARK minimizedAffinity -6.57337999
REMARK CNNscore 0.431808889
REMARK CNNaffinity 6.07563066
REMARK  6 active torsions:
REMARK  status: ('A' for Active; 'I' for Inactive)
REMARK    1  A    between atoms: O1_2  and  C2_3 
REMARK    2  A    between atoms: C17_20  and  C18_21 
REMARK    3  A    between atoms: C22_27  and  O6_28 
REMARK    4  A    between atoms: O6_28  and  C23_29 
REMARK    5  A    between atoms: C26_33  and  O8_34 
REMARK    6  A    between atoms: C31_40  and  O10_41 
ROOT
HETATM    1  C2  UNL     1     -15.676   3.208  34.113  1.00  0.00     0.190 C 
HETATM    2  C3  UNL     1     -14.941   2.765  35.387  1.00  0.00     0.064 C 
HETATM    3  C4  UNL     1     -13.436   2.996  35.276  1.00  0.00     0.174 C 
HETATM    4  O2  UNL     1     -12.887   2.380  34.106  1.00  0.00    -0.356 OA
HETATM    5  C5  UNL     1     -13.481   2.918  32.920  1.00  0.00     0.325 C 
HETATM    6  O3  UNL     1     -12.813   2.365  31.765  1.00  0.00    -0.344 OA
HETATM    7  C6  UNL     1     -13.433   2.912  30.593  1.00  0.00     0.177 C 
HETATM    8  C7  UNL     1     -12.686   2.499  29.368  1.00  0.00     0.011 C 
HETATM    9  C8  UNL     1     -13.284   2.219  28.190  1.00  0.00    -0.072 C 
HETATM   10  C9  UNL     1     -12.440   1.833  27.001  1.00  0.00     0.035 C 
HETATM   11  C10 UNL     1     -12.874   2.505  25.699  1.00  0.00     0.012 C 
HETATM   12  C11 UNL     1     -13.882   3.646  25.911  1.00  0.00     0.026 C 
HETATM   13  C12 UNL     1     -15.155   3.074  26.621  1.00  0.00     0.005 C 
HETATM   14  C13 UNL     1     -16.300   4.122  26.719  1.00  0.00     0.007 C 
HETATM   15  C14 UNL     1     -16.590   4.872  25.406  1.00  0.00     0.013 C 
HETATM   16  C15 UNL     1     -15.302   5.478  24.815  1.00  0.00    -0.003 C 
HETATM   17  C16 UNL     1     -14.788   6.603  25.759  1.00  0.00     0.019 C 
HETATM   18  C17 UNL     1     -15.430   6.013  23.359  1.00  0.00     0.058 C 
HETATM   19  C22 UNL     1     -13.946   6.014  22.867  1.00  0.00     0.143 C 
HETATM   20  C25 UNL     1     -13.185   4.989  23.752  1.00  0.00     0.072 C 
HETATM   21  C26 UNL     1     -14.281   4.329  24.588  1.00  0.00     0.072 C 
HETATM   22  C27 UNL     1     -14.808   2.309  27.972  1.00  0.00    -0.014 C 
HETATM   23  C28 UNL     1     -15.339   0.856  27.827  1.00  0.00     0.020 C 
HETATM   24  C29 UNL     1     -15.507   2.939  29.221  1.00  0.00     0.049 C 
HETATM   25  C30 UNL     1     -14.897   2.449  30.533  1.00  0.00     0.159 C 
HETATM   26  O9  UNL     1     -15.623   2.978  31.657  1.00  0.00    -0.341 OA
HETATM   27  C31 UNL     1     -15.004   2.547  32.883  1.00  0.00     0.240 C 
ENDROOT
BRANCH  18  28
HETATM   28  C18 UNL     1     -16.191   7.299  23.181  1.00  0.00    -0.043 A 
HETATM   29  C19 UNL     1     -15.727   8.523  23.440  1.00  0.00     0.087 A 
HETATM   30  C20 UNL     1     -16.797   9.467  23.118  1.00  0.00     0.283 A 
HETATM   31  O4  UNL     1     -16.698  10.675  23.205  1.00  0.00    -0.260 OA
HETATM   32  O5  UNL     1     -17.892   8.777  22.700  1.00  0.00    -0.314 OA
HETATM   33  C21 UNL     1     -17.599   7.380  22.722  1.00  0.00     0.214 A 
ENDBRANCH  18  28
BRANCH  19  34
HETATM   34  O6  UNL     1     -13.904   5.618  21.486  1.00  0.00    -0.316 OA
BRANCH  34  35
HETATM   35  C23 UNL     1     -14.242   6.582  20.592  1.00  0.00     0.255 C 
HETATM   36  C24 UNL     1     -13.334   7.766  20.744  1.00  0.00     0.126 C 
HETATM   37  O7  UNL     1     -15.162   6.516  19.788  1.00  0.00    -0.266 OA
ENDBRANCH  34  35
ENDBRANCH  19  34
BRANCH  21  38
HETATM   38  O8  UNL     1     -14.896   3.333  23.742  1.00  0.00    -0.389 OA
HETATM   39  H35 UNL     1     -14.203   2.741  23.401  1.00  0.00     0.210 HD
ENDBRANCH  21  38
BRANCH  27  40
HETATM   40  O10 UNL     1     -15.173   1.124  33.005  1.00  0.00    -0.360 OA
HETATM   41  H42 UNL     1     -14.283   0.748  32.860  1.00  0.00     0.213 HD
ENDBRANCH  27  40
BRANCH   1  42
HETATM   42  O1  UNL     1     -15.605   4.645  34.074  1.00  0.00    -0.385 OA
HETATM   43  C1  UNL     1     -16.245   5.258  35.189  1.00  0.00     0.202 C 
ENDBRANCH   1  42
TORSDOF 6
ENDMDL
MODEL 9
REMARK minimizedAffinity -8.83644104
REMARK CNNscore 0.377435118
REMARK CNNaffinity 6.53361464
REMARK  6 active torsions:
REMARK  status: ('A' for Active; 'I' for Inactive)
REMARK    1  A    between atoms: O1_2  and  C2_3 
REMARK    2  A    between atoms: C17_20  and  C18_21 
REMARK    3  A    between atoms: C22_27  and  O6_28 
REMARK    4  A    between atoms: O6_28  and  C23_29 
REMARK    5  A    between atoms: C26_33  and  O8_34 
REMARK    6  A    between atoms: C31_40  and  O10_41 
ROOT
HETATM    1  C2  UNL     1      -6.183  15.134  16.825  1.00  0.00     0.190 C 
HETATM    2  C3  UNL     1      -5.887  16.640  16.782  1.00  0.00     0.064 C 
HETATM    3  C4  UNL     1      -5.034  17.010  15.571  1.00  0.00     0.174 C 
HETATM    4  O2  UNL     1      -3.835  16.231  15.505  1.00  0.00    -0.356 OA
HETATM    5  C5  UNL     1      -4.138  14.837  15.392  1.00  0.00     0.325 C 
HETATM    6  O3  UNL     1      -2.910  14.101  15.202  1.00  0.00    -0.344 OA
HETATM    7  C6  UNL     1      -3.241  12.709  15.102  1.00  0.00     0.177 C 
HETATM    8  C7  UNL     1      -2.031  11.909  14.749  1.00  0.00     0.011 C 
HETATM    9  C8  UNL     1      -1.789  10.670  15.227  1.00  0.00    -0.072 C 
HETATM   10  C9  UNL     1      -0.548   9.933  14.792  1.00  0.00     0.035 C 
HETATM   11  C10 UNL     1      -0.795   8.461  14.461  1.00  0.00     0.012 C 
HETATM   12  C11 UNL     1      -2.287   8.104  14.356  1.00  0.00     0.026 C 
HETATM   13  C12 UNL     1      -2.983   8.429  15.720  1.00  0.00     0.005 C 
HETATM   14  C13 UNL     1      -4.458   7.936  15.765  1.00  0.00     0.007 C 
HETATM   15  C14 UNL     1      -4.661   6.490  15.277  1.00  0.00     0.013 C 
HETATM   16  C15 UNL     1      -4.023   6.275  13.891  1.00  0.00    -0.003 C 
HETATM   17  C16 UNL     1      -4.797   7.117  12.836  1.00  0.00     0.019 C 
HETATM   18  C17 UNL     1      -3.924   4.792  13.431  1.00  0.00     0.058 C 
HETATM   19  C22 UNL     1      -2.790   4.846  12.356  1.00  0.00     0.143 C 
HETATM   20  C25 UNL     1      -1.942   6.107  12.670  1.00  0.00     0.072 C 
HETATM   21  C26 UNL     1      -2.512   6.624  13.991  1.00  0.00     0.072 C 
HETATM   22  C27 UNL     1      -2.748   9.932  16.184  1.00  0.00    -0.014 C 
HETATM   23  C28 UNL     1      -2.060   9.881  17.577  1.00  0.00     0.020 C 
HETATM   24  C29 UNL     1      -4.082  10.730  16.352  1.00  0.00     0.049 C 
HETATM   25  C30 UNL     1      -3.847  12.237  16.433  1.00  0.00     0.159 C 
HETATM   26  O9  UNL     1      -5.085  12.929  16.678  1.00  0.00    -0.341 OA
HETATM   27  C31 UNL     1      -4.853  14.350  16.701  1.00  0.00     0.240 C 
ENDROOT
BRANCH  18  28
HETATM   28  C18 UNL     1      -5.210   4.133  13.009  1.00  0.00    -0.043 A 
HETATM   29  C19 UNL     1      -6.423   4.405  13.494  1.00  0.00     0.087 A 
HETATM   30  C20 UNL     1      -7.371   3.537  12.796  1.00  0.00     0.283 A 
HETATM   31  O4  UNL     1      -8.574   3.550  12.971  1.00  0.00    -0.260 OA
HETATM   32  O5  UNL     1      -6.693   2.741  11.926  1.00  0.00    -0.314 OA
HETATM   33  C21 UNL     1      -5.300   3.044  12.006  1.00  0.00     0.214 A 
ENDBRANCH  18  28
BRANCH  19  34
HETATM   34  O6  UNL     1      -1.986   3.659  12.457  1.00  0.00    -0.316 OA
BRANCH  34  35
HETATM   35  C23 UNL     1      -1.606   3.109  11.275  1.00  0.00     0.255 C 
HETATM   36  C24 UNL     1      -2.484   3.610  10.168  1.00  0.00     0.126 C 
HETATM   37  O7  UNL     1      -0.694   2.307  11.124  1.00  0.00    -0.266 OA
ENDBRANCH  34  35
ENDBRANCH  19  34
BRANCH  21  38
HETATM   38  O8  UNL     1      -1.925   5.816  15.033  1.00  0.00    -0.389 OA
HETATM   39  H35 UNL     1      -0.956   5.845  14.944  1.00  0.00     0.210 HD
ENDBRANCH  21  38
BRANCH  27  40
HETATM   40  O10 UNL     1      -4.051  14.664  17.853  1.00  0.00    -0.360 OA
HETATM   41  H42 UNL     1      -3.173  14.902  17.496  1.00  0.00     0.213 HD
ENDBRANCH  27  40
BRANCH   1  42
HETATM   42  O1  UNL     1      -7.088  14.860  15.740  1.00  0.00    -0.385 OA
HETATM   43  C1  UNL     1      -8.425  14.644  16.179  1.00  0.00     0.202 C 
ENDBRANCH   1  42
TORSDOF 6
ENDMDL
