MODEL 1
REMARK minimizedAffinity -9.68911457
REMARK  5 active torsions:
REMARK  status: ('A' for Active; 'I' for Inactive)
REMARK    1  A    between atoms: C2_2  and  C4_4 
REMARK    2  A    between atoms: C4_4  and  C6_6 
REMARK    3  A    between atoms: C7_7  and  C8_8 
REMARK    4  A    between atoms: C8_8  and  C10_10 
REMARK    5  A    between atoms: C19_20  and  O2_21 
ROOT
HETATM    1  C10 UNL     1      -1.097   5.475  12.991  1.00  0.00     0.001 C 
HETATM    2  C11 UNL     1      -1.286   4.245  12.048  1.00  0.00     0.006 C 
HETATM    3  C12 UNL     1      -2.731   3.787  12.211  1.00  0.00     0.006 C 
HETATM    4  C13 UNL     1      -3.433   5.124  12.374  1.00  0.00     0.001 C 
HETATM    5  C14 UNL     1      -4.947   5.148  12.583  1.00  0.00     0.033 C 
HETATM    6  C15 UNL     1      -5.606   3.954  13.281  1.00  0.00     0.089 C 
HETATM    7  C16 UNL     1      -7.081   4.313  13.473  1.00  0.00     0.162 C 
HETATM    8  O1  UNL     1      -7.955   3.446  13.384  1.00  0.00    -0.295 OA
HETATM    9  C17 UNL     1      -7.268   5.878  13.813  1.00  0.00     0.131 C 
HETATM   10  C18 UNL     1      -8.669   6.299  14.240  1.00  0.00     0.078 C 
HETATM   11  C19 UNL     1      -8.716   6.338  15.763  1.00  0.00     0.121 C 
HETATM   12  C20 UNL     1      -7.733   7.362  16.359  1.00  0.00     0.036 C 
HETATM   13  C21 UNL     1      -6.530   7.703  15.448  1.00  0.00    -0.006 C 
HETATM   14  C22 UNL     1      -5.384   8.262  16.285  1.00  0.00     0.010 C 
HETATM   15  C23 UNL     1      -6.097   6.446  14.686  1.00  0.00     0.067 C 
HETATM   16  C24 UNL     1      -5.398   6.490  13.250  1.00  0.00     0.074 C 
HETATM   17  C25 UNL     1      -4.459   7.640  12.903  1.00  0.00     0.040 C 
HETATM   18  C26 UNL     1      -2.994   7.385  13.338  1.00  0.00     0.013 C 
HETATM   19  C27 UNL     1      -2.574   5.892  13.403  1.00  0.00    -0.036 C 
HETATM   20  C28 UNL     1      -2.753   5.398  14.863  1.00  0.00     0.016 C 
HETATM   21  O3  UNL     1      -6.765   6.752  12.711  1.00  0.00    -0.360 OA
ENDROOT
BRANCH   1  22
HETATM   22  C8  UNL     1      -0.162   6.545  12.359  1.00  0.00     0.008 C 
HETATM   23  C9  UNL     1      -0.908   7.860  12.068  1.00  0.00     0.014 C 
BRANCH  22  24
HETATM   24  C7  UNL     1       0.545   6.149  11.076  1.00  0.00    -0.026 C 
HETATM   25  C6  UNL     1       1.229   6.947  10.236  1.00  0.00    -0.026 C 
BRANCH  25  26
HETATM   26  C4  UNL     1       1.913   6.527   8.946  1.00  0.00     0.007 C 
HETATM   27  C5  UNL     1       3.346   6.021   9.187  1.00  0.00     0.014 C 
BRANCH  26  28
HETATM   28  C2  UNL     1       1.858   7.663   7.882  1.00  0.00    -0.015 C 
HETATM   29  C1  UNL     1       1.790   7.116   6.448  1.00  0.00     0.010 C 
HETATM   30  C3  UNL     1       3.056   8.617   7.983  1.00  0.00     0.010 C 
ENDBRANCH  26  28
ENDBRANCH  25  26
ENDBRANCH  22  24
ENDBRANCH   1  22
BRANCH  11  31
HETATM   31  O2  UNL     1      -8.361   5.050  16.263  1.00  0.00    -0.395 OA
HETATM   32  H30 UNL     1      -9.181   4.588  16.531  1.00  0.00     0.210 HD
ENDBRANCH  11  31
TORSDOF 5
ENDMDL
MODEL 2
REMARK minimizedAffinity -9.11198711
REMARK  5 active torsions:
REMARK  status: ('A' for Active; 'I' for Inactive)
REMARK    1  A    between atoms: C2_2  and  C4_4 
REMARK    2  A    between atoms: C4_4  and  C6_6 
REMARK    3  A    between atoms: C7_7  and  C8_8 
REMARK    4  A    between atoms: C8_8  and  C10_10 
REMARK    5  A    between atoms: C19_20  and  O2_21 
ROOT
HETATM    1  C10 UNL     1      -1.824   6.610  13.860  1.00  0.00     0.001 C 
HETATM    2  C11 UNL     1      -1.836   7.202  15.304  1.00  0.00     0.006 C 
HETATM    3  C12 UNL     1      -0.383   7.479  15.675  1.00  0.00     0.006 C 
HETATM    4  C13 UNL     1       0.166   7.942  14.336  1.00  0.00     0.001 C 
HETATM    5  C14 UNL     1       1.642   8.327  14.231  1.00  0.00     0.033 C 
HETATM    6  C15 UNL     1       2.643   7.643  15.168  1.00  0.00     0.089 C 
HETATM    7  C16 UNL     1       4.036   8.116  14.747  1.00  0.00     0.162 C 
HETATM    8  O1  UNL     1       4.919   8.297  15.590  1.00  0.00    -0.295 OA
HETATM    9  C17 UNL     1       4.143   8.288  13.147  1.00  0.00     0.131 C 
HETATM   10  C18 UNL     1       5.543   8.539  12.601  1.00  0.00     0.078 C 
HETATM   11  C19 UNL     1       6.121   7.210  12.130  1.00  0.00     0.121 C 
HETATM   12  C20 UNL     1       5.298   6.577  10.994  1.00  0.00     0.036 C 
HETATM   13  C21 UNL     1       3.819   7.027  10.944  1.00  0.00    -0.006 C 
HETATM   14  C22 UNL     1       2.986   5.998  10.187  1.00  0.00     0.010 C 
HETATM   15  C23 UNL     1       3.298   7.219  12.372  1.00  0.00     0.067 C 
HETATM   16  C24 UNL     1       2.136   8.248  12.749  1.00  0.00     0.074 C 
HETATM   17  C25 UNL     1       1.004   8.503  11.759  1.00  0.00     0.040 C 
HETATM   18  C26 UNL     1      -0.170   7.503  11.901  1.00  0.00     0.013 C 
HETATM   19  C27 UNL     1      -0.358   6.903  13.320  1.00  0.00    -0.036 C 
HETATM   20  C28 UNL     1       0.385   5.541  13.376  1.00  0.00     0.016 C 
HETATM   21  O3  UNL     1       3.181   9.307  12.631  1.00  0.00    -0.360 OA
ENDROOT
BRANCH   1  22
HETATM   22  C8  UNL     1      -3.043   7.100  13.027  1.00  0.00     0.008 C 
HETATM   23  C9  UNL     1      -3.436   8.545  13.379  1.00  0.00     0.014 C 
BRANCH  22  24
HETATM   24  C7  UNL     1      -4.306   6.265  13.127  1.00  0.00    -0.026 C 
HETATM   25  C6  UNL     1      -4.432   4.941  12.924  1.00  0.00    -0.026 C 
BRANCH  25  26
HETATM   26  C4  UNL     1      -5.715   4.132  13.014  1.00  0.00     0.007 C 
HETATM   27  C5  UNL     1      -5.967   3.302  11.743  1.00  0.00     0.014 C 
BRANCH  26  28
HETATM   28  C2  UNL     1      -6.929   5.036  13.380  1.00  0.00    -0.015 C 
HETATM   29  C1  UNL     1      -7.368   4.860  14.841  1.00  0.00     0.010 C 
HETATM   30  C3  UNL     1      -8.142   4.781  12.474  1.00  0.00     0.010 C 
ENDBRANCH  26  28
ENDBRANCH  25  26
ENDBRANCH  22  24
ENDBRANCH   1  22
BRANCH  11  31
HETATM   31  O2  UNL     1       6.123   6.299  13.227  1.00  0.00    -0.395 OA
HETATM   32  H30 UNL     1       7.033   6.247  13.582  1.00  0.00     0.210 HD
ENDBRANCH  11  31
TORSDOF 5
ENDMDL
MODEL 3
REMARK minimizedAffinity -8.85817814
REMARK  5 active torsions:
REMARK  status: ('A' for Active; 'I' for Inactive)
REMARK    1  A    between atoms: C2_2  and  C4_4 
REMARK    2  A    between atoms: C4_4  and  C6_6 
REMARK    3  A    between atoms: C7_7  and  C8_8 
REMARK    4  A    between atoms: C8_8  and  C10_10 
REMARK    5  A    between atoms: C19_20  and  O2_21 
ROOT
HETATM    1  C10 UNL     1      -6.495   6.139  14.270  1.00  0.00     0.001 C 
HETATM    2  C11 UNL     1      -7.490   7.248  14.734  1.00  0.00     0.006 C 
HETATM    3  C12 UNL     1      -6.650   8.358  15.356  1.00  0.00     0.006 C 
HETATM    4  C13 UNL     1      -5.431   8.329  14.450  1.00  0.00     0.001 C 
HETATM    5  C14 UNL     1      -4.282   9.301  14.719  1.00  0.00     0.033 C 
HETATM    6  C15 UNL     1      -4.038   9.762  16.160  1.00  0.00     0.089 C 
HETATM    7  C16 UNL     1      -2.761  10.605  16.144  1.00  0.00     0.162 C 
HETATM    8  O1  UNL     1      -2.645  11.584  16.887  1.00  0.00    -0.295 OA
HETATM    9  C17 UNL     1      -1.679  10.019  15.101  1.00  0.00     0.131 C 
HETATM   10  C18 UNL     1      -0.292  10.646  15.164  1.00  0.00     0.078 C 
HETATM   11  C19 UNL     1       0.599   9.757  16.024  1.00  0.00     0.121 C 
HETATM   12  C20 UNL     1       0.766   8.344  15.437  1.00  0.00     0.036 C 
HETATM   13  C21 UNL     1      -0.381   7.897  14.500  1.00  0.00    -0.006 C 
HETATM   14  C22 UNL     1      -0.418   6.375  14.411  1.00  0.00     0.010 C 
HETATM   15  C23 UNL     1      -1.709   8.453  15.023  1.00  0.00     0.067 C 
HETATM   16  C24 UNL     1      -2.952   8.787  14.075  1.00  0.00     0.074 C 
HETATM   17  C25 UNL     1      -3.213   7.927  12.844  1.00  0.00     0.040 C 
HETATM   18  C26 UNL     1      -4.087   6.682  13.141  1.00  0.00     0.013 C 
HETATM   19  C27 UNL     1      -5.066   6.833  14.336  1.00  0.00    -0.036 C 
HETATM   20  C28 UNL     1      -4.381   6.255  15.604  1.00  0.00     0.016 C 
HETATM   21  O3  UNL     1      -2.199  10.019  13.701  1.00  0.00    -0.360 OA
ENDROOT
BRANCH   1  22
HETATM   22  C8  UNL     1      -6.949   5.479  12.937  1.00  0.00     0.008 C 
HETATM   23  C9  UNL     1      -8.477   5.310  12.871  1.00  0.00     0.014 C 
BRANCH  22  24
HETATM   24  C7  UNL     1      -6.344   4.123  12.618  1.00  0.00    -0.026 C 
HETATM   25  C6  UNL     1      -5.572   3.798  11.566  1.00  0.00    -0.026 C 
BRANCH  25  26
HETATM   26  C4  UNL     1      -4.995   2.426  11.259  1.00  0.00     0.007 C 
HETATM   27  C5  UNL     1      -6.019   1.301  11.487  1.00  0.00     0.014 C 
BRANCH  26  28
HETATM   28  C2  UNL     1      -3.669   2.185  12.040  1.00  0.00    -0.015 C 
HETATM   29  C1  UNL     1      -2.749   3.415  12.022  1.00  0.00     0.010 C 
HETATM   30  C3  UNL     1      -2.882   0.982  11.499  1.00  0.00     0.010 C 
ENDBRANCH  26  28
ENDBRANCH  25  26
ENDBRANCH  22  24
ENDBRANCH   1  22
BRANCH  11  31
HETATM   31  O2  UNL     1       0.004   9.627  17.313  1.00  0.00    -0.395 OA
HETATM   32  H30 UNL     1       0.478  10.219  17.932  1.00  0.00     0.210 HD
ENDBRANCH  11  31
TORSDOF 5
ENDMDL
MODEL 4
REMARK minimizedAffinity -8.75886536
REMARK  5 active torsions:
REMARK  status: ('A' for Active; 'I' for Inactive)
REMARK    1  A    between atoms: C2_2  and  C4_4 
REMARK    2  A    between atoms: C4_4  and  C6_6 
REMARK    3  A    between atoms: C7_7  and  C8_8 
REMARK    4  A    between atoms: C8_8  and  C10_10 
REMARK    5  A    between atoms: C19_20  and  O2_21 
ROOT
HETATM    1  C10 UNL     1      -5.818   4.976  13.135  1.00  0.00     0.001 C 
HETATM    2  C11 UNL     1      -5.118   3.940  12.200  1.00  0.00     0.006 C 
HETATM    3  C12 UNL     1      -3.686   4.425  12.004  1.00  0.00     0.006 C 
HETATM    4  C13 UNL     1      -3.389   4.991  13.382  1.00  0.00     0.001 C 
HETATM    5  C14 UNL     1      -2.020   5.617  13.649  1.00  0.00     0.033 C 
HETATM    6  C15 UNL     1      -1.276   6.271  12.481  1.00  0.00     0.089 C 
HETATM    7  C16 UNL     1      -0.022   6.924  13.065  1.00  0.00     0.162 C 
HETATM    8  O1  UNL     1       1.032   6.946  12.422  1.00  0.00    -0.295 OA
HETATM    9  C17 UNL     1      -0.306   7.549  14.524  1.00  0.00     0.131 C 
HETATM   10  C18 UNL     1       0.807   8.413  15.102  1.00  0.00     0.078 C 
HETATM   11  C19 UNL     1       0.480   9.874  14.815  1.00  0.00     0.121 C 
HETATM   12  C20 UNL     1      -0.834  10.326  15.476  1.00  0.00     0.036 C 
HETATM   13  C21 UNL     1      -1.832   9.181  15.771  1.00  0.00    -0.006 C 
HETATM   14  C22 UNL     1      -3.245   9.742  15.903  1.00  0.00     0.010 C 
HETATM   15  C23 UNL     1      -1.753   8.138  14.652  1.00  0.00     0.067 C 
HETATM   16  C24 UNL     1      -2.080   6.590  14.874  1.00  0.00     0.074 C 
HETATM   17  C25 UNL     1      -3.161   6.183  15.870  1.00  0.00     0.040 C 
HETATM   18  C26 UNL     1      -4.580   6.142  15.250  1.00  0.00     0.013 C 
HETATM   19  C27 UNL     1      -4.628   5.847  13.727  1.00  0.00    -0.036 C 
HETATM   20  C28 UNL     1      -4.686   7.200  12.969  1.00  0.00     0.016 C 
HETATM   21  O3  UNL     1      -0.731   6.505  15.504  1.00  0.00    -0.360 OA
ENDROOT
BRANCH   1  22
HETATM   22  C8  UNL     1      -6.807   4.288  14.118  1.00  0.00     0.008 C 
HETATM   23  C9  UNL     1      -7.563   3.124  13.452  1.00  0.00     0.014 C 
BRANCH  22  24
HETATM   24  C7  UNL     1      -7.854   5.183  14.755  1.00  0.00    -0.026 C 
HETATM   25  C6  UNL     1      -8.391   6.307  14.248  1.00  0.00    -0.026 C 
BRANCH  25  26
HETATM   26  C4  UNL     1      -9.427   7.196  14.916  1.00  0.00     0.007 C 
HETATM   27  C5  UNL     1     -10.577   7.564  13.963  1.00  0.00     0.014 C 
BRANCH  26  28
HETATM   28  C2  UNL     1      -8.764   8.452  15.556  1.00  0.00    -0.015 C 
HETATM   29  C1  UNL     1      -9.550   9.739  15.262  1.00  0.00     0.010 C 
HETATM   30  C3  UNL     1      -7.315   8.650  15.089  1.00  0.00     0.010 C 
ENDBRANCH  26  28
ENDBRANCH  25  26
ENDBRANCH  22  24
ENDBRANCH   1  22
BRANCH  11  31
HETATM   31  O2  UNL     1       0.340  10.041  13.406  1.00  0.00    -0.395 OA
HETATM   32  H30 UNL     1       1.160  10.450  13.062  1.00  0.00     0.210 HD
ENDBRANCH  11  31
TORSDOF 5
ENDMDL
MODEL 5
REMARK minimizedAffinity -8.75033092
REMARK  5 active torsions:
REMARK  status: ('A' for Active; 'I' for Inactive)
REMARK    1  A    between atoms: C2_2  and  C4_4 
REMARK    2  A    between atoms: C4_4  and  C6_6 
REMARK    3  A    between atoms: C7_7  and  C8_8 
REMARK    4  A    between atoms: C8_8  and  C10_10 
REMARK    5  A    between atoms: C19_20  and  O2_21 
ROOT
HETATM    1  C10 UNL     1      -1.867   5.245  12.158  1.00  0.00     0.001 C 
HETATM    2  C11 UNL     1      -0.334   4.989  12.301  1.00  0.00     0.006 C 
HETATM    3  C12 UNL     1       0.212   6.091  13.202  1.00  0.00     0.006 C 
HETATM    4  C13 UNL     1      -0.940   6.251  14.180  1.00  0.00     0.001 C 
HETATM    5  C14 UNL     1      -0.830   7.294  15.292  1.00  0.00     0.033 C 
HETATM    6  C15 UNL     1       0.013   8.547  15.038  1.00  0.00     0.089 C 
HETATM    7  C16 UNL     1      -0.172   9.459  16.252  1.00  0.00     0.162 C 
HETATM    8  O1  UNL     1       0.762  10.151  16.667  1.00  0.00    -0.295 OA
HETATM    9  C17 UNL     1      -1.680   9.385  16.822  1.00  0.00     0.131 C 
HETATM   10  C18 UNL     1      -2.035  10.414  17.887  1.00  0.00     0.078 C 
HETATM   11  C19 UNL     1      -2.738  11.585  17.210  1.00  0.00     0.121 C 
HETATM   12  C20 UNL     1      -4.052  11.169  16.525  1.00  0.00     0.036 C 
HETATM   13  C21 UNL     1      -4.127   9.675  16.131  1.00  0.00    -0.006 C 
HETATM   14  C22 UNL     1      -5.161   9.477  15.028  1.00  0.00     0.010 C 
HETATM   15  C23 UNL     1      -2.742   9.198  15.684  1.00  0.00     0.067 C 
HETATM   16  C24 UNL     1      -2.246   7.685  15.832  1.00  0.00     0.074 C 
HETATM   17  C25 UNL     1      -3.247   6.546  15.679  1.00  0.00     0.040 C 
HETATM   18  C26 UNL     1      -3.430   6.085  14.211  1.00  0.00     0.013 C 
HETATM   19  C27 UNL     1      -2.201   6.309  13.291  1.00  0.00    -0.036 C 
HETATM   20  C28 UNL     1      -2.386   7.660  12.550  1.00  0.00     0.016 C 
HETATM   21  O3  UNL     1      -2.037   8.007  17.274  1.00  0.00    -0.360 OA
ENDROOT
BRANCH   1  22
HETATM   22  C8  UNL     1      -2.671   3.914  12.116  1.00  0.00     0.008 C 
HETATM   23  C9  UNL     1      -3.000   3.487  10.674  1.00  0.00     0.014 C 
BRANCH  22  24
HETATM   24  C7  UNL     1      -3.978   3.893  12.888  1.00  0.00    -0.026 C 
HETATM   25  C6  UNL     1      -5.217   3.719  12.396  1.00  0.00    -0.026 C 
BRANCH  25  26
HETATM   26  C4  UNL     1      -6.513   3.720  13.191  1.00  0.00     0.007 C 
HETATM   27  C5  UNL     1      -7.493   2.639  12.704  1.00  0.00     0.014 C 
BRANCH  26  28
HETATM   28  C2  UNL     1      -7.159   5.136  13.215  1.00  0.00    -0.015 C 
HETATM   29  C1  UNL     1      -7.420   5.635  14.644  1.00  0.00     0.010 C 
HETATM   30  C3  UNL     1      -8.479   5.190  12.433  1.00  0.00     0.010 C 
ENDBRANCH  26  28
ENDBRANCH  25  26
ENDBRANCH  22  24
ENDBRANCH   1  22
BRANCH  11  31
HETATM   31  O2  UNL     1      -1.874  12.118  16.209  1.00  0.00    -0.395 OA
HETATM   32  H30 UNL     1      -1.463  12.934  16.560  1.00  0.00     0.210 HD
ENDBRANCH  11  31
TORSDOF 5
ENDMDL
MODEL 6
REMARK minimizedAffinity -8.72118473
REMARK  5 active torsions:
REMARK  status: ('A' for Active; 'I' for Inactive)
REMARK    1  A    between atoms: C2_2  and  C4_4 
REMARK    2  A    between atoms: C4_4  and  C6_6 
REMARK    3  A    between atoms: C7_7  and  C8_8 
REMARK    4  A    between atoms: C8_8  and  C10_10 
REMARK    5  A    between atoms: C19_20  and  O2_21 
ROOT
HETATM    1  C10 UNL     1      -6.685   6.432  14.010  1.00  0.00     0.001 C 
HETATM    2  C11 UNL     1      -6.926   5.047  13.334  1.00  0.00     0.006 C 
HETATM    3  C12 UNL     1      -5.611   4.646  12.675  1.00  0.00     0.006 C 
HETATM    4  C13 UNL     1      -4.615   5.179  13.691  1.00  0.00     0.001 C 
HETATM    5  C14 UNL     1      -3.119   5.005  13.426  1.00  0.00     0.033 C 
HETATM    6  C15 UNL     1      -2.635   4.956  11.974  1.00  0.00     0.089 C 
HETATM    7  C16 UNL     1      -1.107   4.916  12.018  1.00  0.00     0.162 C 
HETATM    8  O1  UNL     1      -0.470   4.264  11.185  1.00  0.00    -0.295 OA
HETATM    9  C17 UNL     1      -0.527   5.824  13.218  1.00  0.00     0.131 C 
HETATM   10  C18 UNL     1       0.982   6.035  13.218  1.00  0.00     0.078 C 
HETATM   11  C19 UNL     1       1.281   7.372  12.552  1.00  0.00     0.121 C 
HETATM   12  C20 UNL     1       0.657   8.561  13.305  1.00  0.00     0.036 C 
HETATM   13  C21 UNL     1      -0.572   8.198  14.172  1.00  0.00    -0.006 C 
HETATM   14  C22 UNL     1      -1.416   9.443  14.425  1.00  0.00     0.010 C 
HETATM   15  C23 UNL     1      -1.387   7.110  13.466  1.00  0.00     0.067 C 
HETATM   16  C24 UNL     1      -2.282   6.041  14.248  1.00  0.00     0.074 C 
HETATM   17  C25 UNL     1      -2.988   6.447  15.537  1.00  0.00     0.040 C 
HETATM   18  C26 UNL     1      -4.384   7.076  15.297  1.00  0.00     0.013 C 
HETATM   19  C27 UNL     1      -5.106   6.610  14.005  1.00  0.00    -0.036 C 
HETATM   20  C28 UNL     1      -4.807   7.637  12.881  1.00  0.00     0.016 C 
HETATM   21  O3  UNL     1      -0.997   5.348  14.553  1.00  0.00    -0.360 OA
ENDROOT
BRANCH   1  22
HETATM   22  C8  UNL     1      -7.451   6.555  15.359  1.00  0.00     0.008 C 
HETATM   23  C9  UNL     1      -7.657   5.185  16.029  1.00  0.00     0.014 C 
BRANCH  22  24
HETATM   24  C7  UNL     1      -8.812   7.224  15.302  1.00  0.00    -0.026 C 
HETATM   25  C6  UNL     1      -9.884   6.841  14.586  1.00  0.00    -0.026 C 
BRANCH  25  26
HETATM   26  C4  UNL     1     -11.232   7.541  14.533  1.00  0.00     0.007 C 
HETATM   27  C5  UNL     1     -12.389   6.555  14.295  1.00  0.00     0.014 C 
BRANCH  26  28
HETATM   28  C2  UNL     1     -11.224   8.704  13.497  1.00  0.00    -0.015 C 
HETATM   29  C1  UNL     1     -10.926  10.063  14.148  1.00  0.00     0.010 C 
HETATM   30  C3  UNL     1     -12.549   8.813  12.729  1.00  0.00     0.010 C 
ENDBRANCH  26  28
ENDBRANCH  25  26
ENDBRANCH  22  24
ENDBRANCH   1  22
BRANCH  11  31
HETATM   31  O2  UNL     1       0.737   7.356  11.234  1.00  0.00    -0.395 OA
HETATM   32  H30 UNL     1       1.467   7.198  10.602  1.00  0.00     0.210 HD
ENDBRANCH  11  31
TORSDOF 5
ENDMDL
MODEL 7
REMARK minimizedAffinity -8.63314819
REMARK  5 active torsions:
REMARK  status: ('A' for Active; 'I' for Inactive)
REMARK    1  A    between atoms: C2_2  and  C4_4 
REMARK    2  A    between atoms: C4_4  and  C6_6 
REMARK    3  A    between atoms: C7_7  and  C8_8 
REMARK    4  A    between atoms: C8_8  and  C10_10 
REMARK    5  A    between atoms: C19_20  and  O2_21 
ROOT
HETATM    1  C10 UNL     1      -0.873   9.565  13.513  1.00  0.00     0.001 C 
HETATM    2  C11 UNL     1      -1.332  10.756  14.412  1.00  0.00     0.006 C 
HETATM    3  C12 UNL     1      -2.791  10.495  14.772  1.00  0.00     0.006 C 
HETATM    4  C13 UNL     1      -2.777   8.984  14.926  1.00  0.00     0.001 C 
HETATM    5  C14 UNL     1      -4.076   8.262  15.285  1.00  0.00     0.033 C 
HETATM    6  C15 UNL     1      -5.403   8.878  14.832  1.00  0.00     0.089 C 
HETATM    7  C16 UNL     1      -6.503   7.883  15.206  1.00  0.00     0.162 C 
HETATM    8  O1  UNL     1      -7.612   8.281  15.575  1.00  0.00    -0.295 OA
HETATM    9  C17 UNL     1      -6.010   6.359  15.016  1.00  0.00     0.131 C 
HETATM   10  C18 UNL     1      -7.091   5.294  15.146  1.00  0.00     0.078 C 
HETATM   11  C19 UNL     1      -7.574   4.925  13.748  1.00  0.00     0.121 C 
HETATM   12  C20 UNL     1      -6.454   4.332  12.873  1.00  0.00     0.036 C 
HETATM   13  C21 UNL     1      -5.024   4.744  13.294  1.00  0.00    -0.006 C 
HETATM   14  C22 UNL     1      -4.067   4.580  12.118  1.00  0.00     0.010 C 
HETATM   15  C23 UNL     1      -5.039   6.191  13.797  1.00  0.00     0.067 C 
HETATM   16  C24 UNL     1      -4.006   6.752  14.880  1.00  0.00     0.074 C 
HETATM   17  C25 UNL     1      -2.576   6.224  14.902  1.00  0.00     0.040 C 
HETATM   18  C26 UNL     1      -1.624   6.995  13.954  1.00  0.00     0.013 C 
HETATM   19  C27 UNL     1      -2.014   8.472  13.684  1.00  0.00    -0.036 C 
HETATM   20  C28 UNL     1      -2.842   8.527  12.373  1.00  0.00     0.016 C 
HETATM   21  O3  UNL     1      -4.842   6.040  15.890  1.00  0.00    -0.360 OA
ENDROOT
BRANCH   1  22
HETATM   22  C8  UNL     1       0.602   9.163  13.799  1.00  0.00     0.008 C 
HETATM   23  C9  UNL     1       1.402  10.319  14.424  1.00  0.00     0.014 C 
BRANCH  22  24
HETATM   24  C7  UNL     1       1.406   8.665  12.612  1.00  0.00    -0.026 C 
HETATM   25  C6  UNL     1       0.944   8.313  11.399  1.00  0.00    -0.026 C 
BRANCH  25  26
HETATM   26  C4  UNL     1       1.771   7.799  10.231  1.00  0.00     0.007 C 
HETATM   27  C5  UNL     1       3.281   7.971  10.471  1.00  0.00     0.014 C 
BRANCH  26  28
HETATM   28  C2  UNL     1       1.309   8.436   8.888  1.00  0.00    -0.015 C 
HETATM   29  C1  UNL     1      -0.215   8.365   8.703  1.00  0.00     0.010 C 
HETATM   30  C3  UNL     1       1.978   7.784   7.670  1.00  0.00     0.010 C 
ENDBRANCH  26  28
ENDBRANCH  25  26
ENDBRANCH  22  24
ENDBRANCH   1  22
BRANCH  11  31
HETATM   31  O2  UNL     1      -8.050   6.106  13.105  1.00  0.00    -0.395 OA
HETATM   32  H30 UNL     1      -9.029   6.100  13.138  1.00  0.00     0.210 HD
ENDBRANCH  11  31
TORSDOF 5
ENDMDL
MODEL 8
REMARK minimizedAffinity -8.47800922
REMARK  5 active torsions:
REMARK  status: ('A' for Active; 'I' for Inactive)
REMARK    1  A    between atoms: C2_2  and  C4_4 
REMARK    2  A    between atoms: C4_4  and  C6_6 
REMARK    3  A    between atoms: C7_7  and  C8_8 
REMARK    4  A    between atoms: C8_8  and  C10_10 
REMARK    5  A    between atoms: C19_20  and  O2_21 
ROOT
HETATM    1  C10 UNL     1      -1.847   9.627  14.625  1.00  0.00     0.001 C 
HETATM    2  C11 UNL     1      -2.644  10.715  15.409  1.00  0.00     0.006 C 
HETATM    3  C12 UNL     1      -4.111  10.305  15.359  1.00  0.00     0.006 C 
HETATM    4  C13 UNL     1      -3.985   8.795  15.461  1.00  0.00     0.001 C 
HETATM    5  C14 UNL     1      -5.252   7.939  15.437  1.00  0.00     0.033 C 
HETATM    6  C15 UNL     1      -6.470   8.461  14.669  1.00  0.00     0.089 C 
HETATM    7  C16 UNL     1      -7.522   7.351  14.702  1.00  0.00     0.162 C 
HETATM    8  O1  UNL     1      -8.724   7.626  14.776  1.00  0.00    -0.295 OA
HETATM    9  C17 UNL     1      -6.844   5.891  14.600  1.00  0.00     0.131 C 
HETATM   10  C18 UNL     1      -7.807   4.727  14.402  1.00  0.00     0.078 C 
HETATM   11  C19 UNL     1      -7.867   4.401  12.914  1.00  0.00     0.121 C 
HETATM   12  C20 UNL     1      -6.504   3.963  12.349  1.00  0.00     0.036 C 
HETATM   13  C21 UNL     1      -5.283   4.475  13.149  1.00  0.00    -0.006 C 
HETATM   14  C22 UNL     1      -4.040   4.467  12.265  1.00  0.00     0.010 C 
HETATM   15  C23 UNL     1      -5.576   5.882  13.678  1.00  0.00     0.067 C 
HETATM   16  C24 UNL     1      -4.925   6.469  15.015  1.00  0.00     0.074 C 
HETATM   17  C25 UNL     1      -3.504   6.070  15.399  1.00  0.00     0.040 C 
HETATM   18  C26 UNL     1      -2.421   6.977  14.764  1.00  0.00     0.013 C 
HETATM   19  C27 UNL     1      -2.876   8.428  14.450  1.00  0.00    -0.036 C 
HETATM   20  C28 UNL     1      -3.334   8.486  12.968  1.00  0.00     0.016 C 
HETATM   21  O3  UNL     1      -5.919   5.625  15.742  1.00  0.00    -0.360 OA
ENDROOT
BRANCH   1  22
HETATM   22  C8  UNL     1      -0.465   9.341  15.279  1.00  0.00     0.008 C 
HETATM   23  C9  UNL     1      -0.395   7.927  15.882  1.00  0.00     0.014 C 
BRANCH  22  24
HETATM   24  C7  UNL     1      -0.024  10.304  16.367  1.00  0.00    -0.026 C 
HETATM   25  C6  UNL     1       1.146  10.310  17.031  1.00  0.00    -0.026 C 
BRANCH  25  26
HETATM   26  C4  UNL     1       1.555  11.276  18.131  1.00  0.00     0.007 C 
HETATM   27  C5  UNL     1       3.029  11.101  18.537  1.00  0.00     0.014 C 
BRANCH  26  28
HETATM   28  C2  UNL     1       0.591  11.184  19.350  1.00  0.00    -0.015 C 
HETATM   29  C1  UNL     1      -0.154  12.503  19.606  1.00  0.00     0.010 C 
HETATM   30  C3  UNL     1       1.316  10.778  20.641  1.00  0.00     0.010 C 
ENDBRANCH  26  28
ENDBRANCH  25  26
ENDBRANCH  22  24
ENDBRANCH   1  22
BRANCH  11  31
HETATM   31  O2  UNL     1      -8.277   5.570  12.208  1.00  0.00    -0.395 OA
HETATM   32  H30 UNL     1      -9.224   5.474  11.979  1.00  0.00     0.210 HD
ENDBRANCH  11  31
TORSDOF 5
ENDMDL
MODEL 9
REMARK minimizedAffinity -8.392169
REMARK  5 active torsions:
REMARK  status: ('A' for Active; 'I' for Inactive)
REMARK    1  A    between atoms: C2_2  and  C4_4 
REMARK    2  A    between atoms: C4_4  and  C6_6 
REMARK    3  A    between atoms: C7_7  and  C8_8 
REMARK    4  A    between atoms: C8_8  and  C10_10 
REMARK    5  A    between atoms: C19_20  and  O2_21 
ROOT
HETATM    1  C10 UNL     1      -2.882   4.781  12.003  1.00  0.00     0.001 C 
HETATM    2  C11 UNL     1      -1.760   4.349  11.007  1.00  0.00     0.006 C 
HETATM    3  C12 UNL     1      -0.613   5.338  11.185  1.00  0.00     0.006 C 
HETATM    4  C13 UNL     1      -0.676   5.574  12.684  1.00  0.00     0.001 C 
HETATM    5  C14 UNL     1       0.319   6.541  13.326  1.00  0.00     0.033 C 
HETATM    6  C15 UNL     1       0.853   7.704  12.485  1.00  0.00     0.089 C 
HETATM    7  C16 UNL     1       1.706   8.568  13.416  1.00  0.00     0.162 C 
HETATM    8  O1  UNL     1       2.722   9.131  12.997  1.00  0.00    -0.295 OA
HETATM    9  C17 UNL     1       1.079   8.634  14.901  1.00  0.00     0.131 C 
HETATM   10  C18 UNL     1       1.721   9.641  15.846  1.00  0.00     0.078 C 
HETATM   11  C19 UNL     1       0.884  10.915  15.833  1.00  0.00     0.121 C 
HETATM   12  C20 UNL     1      -0.555  10.682  16.327  1.00  0.00     0.036 C 
HETATM   13  C21 UNL     1      -1.058   9.227  16.177  1.00  0.00    -0.006 C 
HETATM   14  C22 UNL     1      -2.583   9.202  16.170  1.00  0.00     0.010 C 
HETATM   15  C23 UNL     1      -0.489   8.623  14.890  1.00  0.00     0.067 C 
HETATM   16  C24 UNL     1      -0.215   7.059  14.703  1.00  0.00     0.074 C 
HETATM   17  C25 UNL     1      -1.138   6.047  15.372  1.00  0.00     0.040 C 
HETATM   18  C26 UNL     1      -2.374   5.684  14.511  1.00  0.00     0.013 C 
HETATM   19  C27 UNL     1      -2.173   5.816  12.978  1.00  0.00    -0.036 C 
HETATM   20  C28 UNL     1      -2.680   7.216  12.538  1.00  0.00     0.016 C 
HETATM   21  O3  UNL     1       1.004   7.283  15.534  1.00  0.00    -0.360 OA
ENDROOT
BRANCH   1  22
HETATM   22  C8  UNL     1      -3.612   3.551  12.614  1.00  0.00     0.008 C 
HETATM   23  C9  UNL     1      -3.300   2.256  11.845  1.00  0.00     0.014 C 
BRANCH  22  24
HETATM   24  C7  UNL     1      -5.124   3.648  12.715  1.00  0.00    -0.026 C 
HETATM   25  C6  UNL     1      -5.842   4.439  13.532  1.00  0.00    -0.026 C 
BRANCH  25  26
HETATM   26  C4  UNL     1      -7.358   4.503  13.625  1.00  0.00     0.007 C 
HETATM   27  C5  UNL     1      -8.031   3.292  12.957  1.00  0.00     0.014 C 
BRANCH  26  28
HETATM   28  C2  UNL     1      -7.900   5.857  13.079  1.00  0.00    -0.015 C 
HETATM   29  C1  UNL     1      -8.772   6.593  14.108  1.00  0.00     0.010 C 
HETATM   30  C3  UNL     1      -8.713   5.683  11.788  1.00  0.00     0.010 C 
ENDBRANCH  26  28
ENDBRANCH  25  26
ENDBRANCH  22  24
ENDBRANCH   1  22
BRANCH  11  31
HETATM   31  O2  UNL     1       0.813  11.398  14.493  1.00  0.00    -0.395 OA
HETATM   32  H30 UNL     1       1.439  12.145  14.402  1.00  0.00     0.210 HD
ENDBRANCH  11  31
TORSDOF 5
ENDMDL
