MODEL 1
REMARK minimizedAffinity -9.67136002
REMARK  9 active torsions:
REMARK  status: ('A' for Active; 'I' for Inactive)
REMARK    1  A    between atoms: C2_2  and  C3_3 
REMARK    2  A    between atoms: C2_2  and  C9_11 
REMARK    3  A    between atoms: C3_3  and  C4_4 
REMARK    4  A    between atoms: C4_4  and  C5_5 
REMARK    5  A    between atoms: C6_6  and  C7_7 
REMARK    6  A    between atoms: C6_6  and  C8_9 
REMARK    7  A    between atoms: C7_7  and  O1_8 
REMARK    8  A    between atoms: C8_9  and  O2_10 
REMARK    9  A    between atoms: C11_13  and  O3_14 
ROOT
HETATM    1  C9  UNL     1      -4.131  50.243 -24.615  1.00  0.00     0.001 C 
HETATM    2  C10 UNL     1      -5.593  49.993 -24.159  1.00  0.00     0.038 C 
HETATM    3  C11 UNL     1      -5.587  49.986 -22.608  1.00  0.00     0.131 C 
HETATM    4  C12 UNL     1      -4.183  50.539 -22.211  1.00  0.00     0.014 C 
HETATM    5  C13 UNL     1      -4.320  52.100 -22.248  1.00  0.00     0.023 C 
HETATM    6  C14 UNL     1      -3.543  50.258 -20.850  1.00  0.00    -0.058 C 
HETATM    7  C15 UNL     1      -2.193  50.306 -20.683  1.00  0.00    -0.000 C 
HETATM    8  C16 UNL     1      -1.309  50.550 -21.906  1.00  0.00     0.157 C 
HETATM    9  O4  UNL     1      -0.095  50.717 -21.786  1.00  0.00    -0.293 OA
HETATM   10  C17 UNL     1      -1.921  50.613 -23.300  1.00  0.00     0.094 C 
HETATM   11  C18 UNL     1      -3.286  49.926 -23.345  1.00  0.00    -0.019 C 
HETATM   12  C19 UNL     1      -3.032  48.396 -23.205  1.00  0.00     0.017 C 
HETATM   13  C20 UNL     1      -1.497  50.120 -19.308  1.00  0.00    -0.008 C 
HETATM   14  C21 UNL     1      -0.822  48.727 -19.352  1.00  0.00     0.021 C 
HETATM   15  C22 UNL     1      -0.400  51.204 -19.052  1.00  0.00     0.022 C 
HETATM   16  C23 UNL     1      -0.147  51.573 -17.592  1.00  0.00     0.080 C 
HETATM   17  C24 UNL     1      -0.524  50.462 -16.642  1.00  0.00     0.135 C 
HETATM   18  O5  UNL     1       0.282  50.037 -15.814  1.00  0.00    -0.297 OA
HETATM   19  C25 UNL     1      -1.976  49.977 -16.701  1.00  0.00     0.018 C 
HETATM   20  C26 UNL     1      -2.758  50.812 -15.664  1.00  0.00     0.023 C 
HETATM   21  C27 UNL     1      -2.054  48.504 -16.259  1.00  0.00     0.023 C 
HETATM   22  C28 UNL     1      -2.544  50.252 -18.137  1.00  0.00     0.014 C 
HETATM   23  C29 UNL     1      -3.822  49.469 -18.445  1.00  0.00     0.011 C 
HETATM   24  C30 UNL     1      -4.493  50.017 -19.699  1.00  0.00     0.036 C 
ENDROOT
BRANCH   1  25
HETATM   25  C2  UNL     1      -3.706  49.627 -25.985  1.00  0.00    -0.013 C 
HETATM   26  C1  UNL     1      -4.466  48.302 -26.184  1.00  0.00     0.010 C 
BRANCH  25  27
HETATM   27  C3  UNL     1      -2.186  49.394 -26.171  1.00  0.00     0.008 C 
BRANCH  27  28
HETATM   28  C4  UNL     1      -1.423  50.566 -26.820  1.00  0.00     0.028 C 
BRANCH  28  29
HETATM   29  C5  UNL     1       0.020  50.647 -26.403  1.00  0.00    -0.020 C 
HETATM   30  C6  UNL     1       1.010  51.413 -26.913  1.00  0.00    -0.037 C 
BRANCH  30  31
HETATM   31  C7  UNL     1       0.843  52.370 -28.062  1.00  0.00     0.200 C 
BRANCH  31  32
HETATM   32  O1  UNL     1      -0.376  52.079 -28.733  1.00  0.00    -0.397 OA
HETATM   33  H12 UNL     1      -0.431  52.691 -29.487  1.00  0.00     0.209 HD
ENDBRANCH  31  32
ENDBRANCH  30  31
BRANCH  30  34
HETATM   34  C8  UNL     1       2.426  51.369 -26.375  1.00  0.00     0.200 C 
BRANCH  34  35
HETATM   35  O2  UNL     1       3.391  51.519 -27.410  1.00  0.00    -0.397 OA
HETATM   36  H15 UNL     1       4.257  51.366 -26.997  1.00  0.00     0.209 HD
ENDBRANCH  34  35
ENDBRANCH  30  34
ENDBRANCH  28  29
ENDBRANCH  27  28
ENDBRANCH  25  27
ENDBRANCH   1  25
BRANCH   3  37
HETATM   37  O3  UNL     1      -5.806  48.654 -22.157  1.00  0.00    -0.394 OA
HETATM   38  H20 UNL     1      -6.696  48.388 -22.445  1.00  0.00     0.210 HD
ENDBRANCH   3  37
TORSDOF 9
ENDMDL
MODEL 2
REMARK minimizedAffinity -9.61577225
REMARK  9 active torsions:
REMARK  status: ('A' for Active; 'I' for Inactive)
REMARK    1  A    between atoms: C2_2  and  C3_3 
REMARK    2  A    between atoms: C2_2  and  C9_11 
REMARK    3  A    between atoms: C3_3  and  C4_4 
REMARK    4  A    between atoms: C4_4  and  C5_5 
REMARK    5  A    between atoms: C6_6  and  C7_7 
REMARK    6  A    between atoms: C6_6  and  C8_9 
REMARK    7  A    between atoms: C7_7  and  O1_8 
REMARK    8  A    between atoms: C8_9  and  O2_10 
REMARK    9  A    between atoms: C11_13  and  O3_14 
ROOT
HETATM    1  C9  UNL     1      -0.103  51.052 -21.082  1.00  0.00     0.001 C 
HETATM    2  C10 UNL     1      -0.167  51.477 -19.591  1.00  0.00     0.038 C 
HETATM    3  C11 UNL     1      -1.453  50.846 -18.997  1.00  0.00     0.131 C 
HETATM    4  C12 UNL     1      -1.931  49.823 -20.075  1.00  0.00     0.014 C 
HETATM    5  C13 UNL     1      -1.112  48.515 -19.806  1.00  0.00     0.023 C 
HETATM    6  C14 UNL     1      -3.379  49.339 -20.163  1.00  0.00    -0.058 C 
HETATM    7  C15 UNL     1      -3.894  48.865 -21.331  1.00  0.00    -0.000 C 
HETATM    8  C16 UNL     1      -3.028  48.916 -22.590  1.00  0.00     0.157 C 
HETATM    9  O4  UNL     1      -3.406  48.394 -23.639  1.00  0.00    -0.293 OA
HETATM   10  C17 UNL     1      -1.665  49.597 -22.562  1.00  0.00     0.094 C 
HETATM   11  C18 UNL     1      -1.554  50.581 -21.398  1.00  0.00    -0.019 C 
HETATM   12  C19 UNL     1      -2.478  51.789 -21.731  1.00  0.00     0.017 C 
HETATM   13  C20 UNL     1      -5.325  48.276 -21.456  1.00  0.00    -0.008 C 
HETATM   14  C21 UNL     1      -6.156  49.326 -22.233  1.00  0.00     0.021 C 
HETATM   15  C22 UNL     1      -5.340  46.931 -22.253  1.00  0.00     0.022 C 
HETATM   16  C23 UNL     1      -6.444  45.943 -21.883  1.00  0.00     0.080 C 
HETATM   17  C24 UNL     1      -7.650  46.623 -21.282  1.00  0.00     0.135 C 
HETATM   18  O5  UNL     1      -8.777  46.437 -21.743  1.00  0.00    -0.297 OA
HETATM   19  C25 UNL     1      -7.405  47.461 -20.023  1.00  0.00     0.018 C 
HETATM   20  C26 UNL     1      -7.630  46.519 -18.820  1.00  0.00     0.023 C 
HETATM   21  C27 UNL     1      -8.454  48.584 -19.929  1.00  0.00     0.023 C 
HETATM   22  C28 UNL     1      -5.919  47.962 -20.030  1.00  0.00     0.014 C 
HETATM   23  C29 UNL     1      -5.662  49.116 -19.057  1.00  0.00     0.011 C 
HETATM   24  C30 UNL     1      -4.165  49.332 -18.872  1.00  0.00     0.036 C 
ENDROOT
BRANCH   1  25
HETATM   25  C2  UNL     1       0.608  52.037 -22.064  1.00  0.00    -0.013 C 
HETATM   26  C1  UNL     1       0.734  53.410 -21.377  1.00  0.00     0.010 C 
BRANCH  25  27
HETATM   27  C3  UNL     1      -0.066  52.201 -23.450  1.00  0.00     0.008 C 
BRANCH  27  28
HETATM   28  C4  UNL     1       0.670  53.144 -24.423  1.00  0.00     0.028 C 
BRANCH  28  29
HETATM   29  C5  UNL     1       0.412  52.832 -25.871  1.00  0.00    -0.020 C 
HETATM   30  C6  UNL     1       1.138  52.069 -26.718  1.00  0.00    -0.037 C 
BRANCH  30  31
HETATM   31  C7  UNL     1       2.414  51.363 -26.350  1.00  0.00     0.200 C 
BRANCH  31  32
HETATM   32  O1  UNL     1       3.344  51.504 -27.415  1.00  0.00    -0.397 OA
HETATM   33  H12 UNL     1       4.140  51.007 -27.157  1.00  0.00     0.209 HD
ENDBRANCH  31  32
ENDBRANCH  30  31
BRANCH  30  34
HETATM   34  C8  UNL     1       0.737  51.860 -28.164  1.00  0.00     0.200 C 
BRANCH  34  35
HETATM   35  O2  UNL     1      -0.306  52.745 -28.559  1.00  0.00    -0.397 OA
HETATM   36  H15 UNL     1      -0.573  52.468 -29.451  1.00  0.00     0.209 HD
ENDBRANCH  34  35
ENDBRANCH  30  34
ENDBRANCH  28  29
ENDBRANCH  27  28
ENDBRANCH  25  27
ENDBRANCH   1  25
BRANCH   3  37
HETATM   37  O3  UNL     1      -2.400  51.881 -18.757  1.00  0.00    -0.394 OA
HETATM   38  H20 UNL     1      -2.026  52.470 -18.079  1.00  0.00     0.210 HD
ENDBRANCH   3  37
TORSDOF 9
ENDMDL
MODEL 3
REMARK minimizedAffinity -9.48442459
REMARK  9 active torsions:
REMARK  status: ('A' for Active; 'I' for Inactive)
REMARK    1  A    between atoms: C2_2  and  C3_3 
REMARK    2  A    between atoms: C2_2  and  C9_11 
REMARK    3  A    between atoms: C3_3  and  C4_4 
REMARK    4  A    between atoms: C4_4  and  C5_5 
REMARK    5  A    between atoms: C6_6  and  C7_7 
REMARK    6  A    between atoms: C6_6  and  C8_9 
REMARK    7  A    between atoms: C7_7  and  O1_8 
REMARK    8  A    between atoms: C8_9  and  O2_10 
REMARK    9  A    between atoms: C11_13  and  O3_14 
ROOT
HETATM    1  C9  UNL     1      -0.562  50.375 -21.711  1.00  0.00     0.001 C 
HETATM    2  C10 UNL     1      -0.434  49.968 -20.219  1.00  0.00     0.038 C 
HETATM    3  C11 UNL     1      -1.722  49.186 -19.853  1.00  0.00     0.131 C 
HETATM    4  C12 UNL     1      -2.415  48.894 -21.220  1.00  0.00     0.014 C 
HETATM    5  C13 UNL     1      -1.730  47.597 -21.771  1.00  0.00     0.023 C 
HETATM    6  C14 UNL     1      -3.911  48.598 -21.337  1.00  0.00    -0.058 C 
HETATM    7  C15 UNL     1      -4.586  48.824 -22.499  1.00  0.00    -0.000 C 
HETATM    8  C16 UNL     1      -3.844  49.476 -23.665  1.00  0.00     0.157 C 
HETATM    9  O4  UNL     1      -4.377  49.593 -24.768  1.00  0.00    -0.293 OA
HETATM   10  C17 UNL     1      -2.414  49.975 -23.488  1.00  0.00     0.094 C 
HETATM   11  C18 UNL     1      -2.081  50.208 -22.014  1.00  0.00    -0.019 C 
HETATM   12  C19 UNL     1      -2.887  51.458 -21.555  1.00  0.00     0.017 C 
HETATM   13  C20 UNL     1      -6.080  48.457 -22.701  1.00  0.00    -0.008 C 
HETATM   14  C21 UNL     1      -6.855  49.798 -22.712  1.00  0.00     0.021 C 
HETATM   15  C22 UNL     1      -6.326  47.721 -24.059  1.00  0.00     0.022 C 
HETATM   16  C23 UNL     1      -7.497  46.741 -24.089  1.00  0.00     0.080 C 
HETATM   17  C24 UNL     1      -8.554  47.071 -23.064  1.00  0.00     0.135 C 
HETATM   18  O5  UNL     1      -9.733  47.207 -23.392  1.00  0.00    -0.297 OA
HETATM   19  C25 UNL     1      -8.095  47.123 -21.603  1.00  0.00     0.018 C 
HETATM   20  C26 UNL     1      -8.312  45.707 -21.026  1.00  0.00     0.023 C 
HETATM   21  C27 UNL     1      -8.993  48.086 -20.806  1.00  0.00     0.023 C 
HETATM   22  C28 UNL     1      -6.568  47.480 -21.564  1.00  0.00     0.014 C 
HETATM   23  C29 UNL     1      -6.089  47.949 -20.188  1.00  0.00     0.011 C 
HETATM   24  C30 UNL     1      -4.566  47.964 -20.132  1.00  0.00     0.036 C 
ENDROOT
BRANCH   1  25
HETATM   25  C2  UNL     1       0.161  51.688 -22.147  1.00  0.00    -0.013 C 
HETATM   26  C1  UNL     1       0.148  52.672 -20.962  1.00  0.00     0.010 C 
BRANCH  25  27
HETATM   27  C3  UNL     1      -0.411  52.379 -23.411  1.00  0.00     0.008 C 
BRANCH  27  28
HETATM   28  C4  UNL     1       0.644  53.004 -24.344  1.00  0.00     0.028 C 
BRANCH  28  29
HETATM   29  C5  UNL     1       0.377  52.756 -25.804  1.00  0.00    -0.020 C 
HETATM   30  C6  UNL     1       1.064  51.982 -26.673  1.00  0.00    -0.037 C 
BRANCH  30  31
HETATM   31  C7  UNL     1       2.297  51.193 -26.324  1.00  0.00     0.200 C 
BRANCH  31  32
HETATM   32  O1  UNL     1       3.309  51.469 -27.282  1.00  0.00    -0.397 OA
HETATM   33  H12 UNL     1       4.075  50.917 -27.044  1.00  0.00     0.209 HD
ENDBRANCH  31  32
ENDBRANCH  30  31
BRANCH  30  34
HETATM   34  C8  UNL     1       0.660  51.844 -28.126  1.00  0.00     0.200 C 
BRANCH  34  35
HETATM   35  O2  UNL     1      -0.159  52.926 -28.555  1.00  0.00    -0.397 OA
HETATM   36  H15 UNL     1      -0.459  52.700 -29.451  1.00  0.00     0.209 HD
ENDBRANCH  34  35
ENDBRANCH  30  34
ENDBRANCH  28  29
ENDBRANCH  27  28
ENDBRANCH  25  27
ENDBRANCH   1  25
BRANCH   3  37
HETATM   37  O3  UNL     1      -2.516  49.993 -18.991  1.00  0.00    -0.394 OA
HETATM   38  H20 UNL     1      -2.014  50.127 -18.168  1.00  0.00     0.210 HD
ENDBRANCH   3  37
TORSDOF 9
ENDMDL
MODEL 4
REMARK minimizedAffinity -9.12093639
REMARK  9 active torsions:
REMARK  status: ('A' for Active; 'I' for Inactive)
REMARK    1  A    between atoms: C2_2  and  C3_3 
REMARK    2  A    between atoms: C2_2  and  C9_11 
REMARK    3  A    between atoms: C3_3  and  C4_4 
REMARK    4  A    between atoms: C4_4  and  C5_5 
REMARK    5  A    between atoms: C6_6  and  C7_7 
REMARK    6  A    between atoms: C6_6  and  C8_9 
REMARK    7  A    between atoms: C7_7  and  O1_8 
REMARK    8  A    between atoms: C8_9  and  O2_10 
REMARK    9  A    between atoms: C11_13  and  O3_14 
ROOT
HETATM    1  C9  UNL     1      -0.775  49.871 -20.564  1.00  0.00     0.001 C 
HETATM    2  C10 UNL     1      -1.076  48.933 -19.364  1.00  0.00     0.038 C 
HETATM    3  C11 UNL     1      -2.342  48.119 -19.736  1.00  0.00     0.131 C 
HETATM    4  C12 UNL     1      -2.556  48.383 -21.259  1.00  0.00     0.014 C 
HETATM    5  C13 UNL     1      -1.627  47.361 -21.998  1.00  0.00     0.023 C 
HETATM    6  C14 UNL     1      -3.913  48.207 -21.942  1.00  0.00    -0.058 C 
HETATM    7  C15 UNL     1      -4.216  48.874 -23.090  1.00  0.00    -0.000 C 
HETATM    8  C16 UNL     1      -3.211  49.886 -23.640  1.00  0.00     0.157 C 
HETATM    9  O4  UNL     1      -3.389  50.425 -24.732  1.00  0.00    -0.293 OA
HETATM   10  C17 UNL     1      -1.953  50.231 -22.851  1.00  0.00     0.094 C 
HETATM   11  C18 UNL     1      -2.108  49.885 -21.370  1.00  0.00    -0.019 C 
HETATM   12  C19 UNL     1      -3.120  50.903 -20.767  1.00  0.00     0.017 C 
HETATM   13  C20 UNL     1      -5.540  48.664 -23.874  1.00  0.00    -0.008 C 
HETATM   14  C21 UNL     1      -6.385  49.940 -23.639  1.00  0.00     0.021 C 
HETATM   15  C22 UNL     1      -5.294  48.497 -25.409  1.00  0.00     0.022 C 
HETATM   16  C23 UNL     1      -6.311  47.643 -26.163  1.00  0.00     0.080 C 
HETATM   17  C24 UNL     1      -7.655  47.605 -25.478  1.00  0.00     0.135 C 
HETATM   18  O5  UNL     1      -8.684  47.897 -26.088  1.00  0.00    -0.297 OA
HETATM   19  C25 UNL     1      -7.671  47.092 -24.035  1.00  0.00     0.018 C 
HETATM   20  C26 UNL     1      -7.933  45.572 -24.114  1.00  0.00     0.023 C 
HETATM   21  C27 UNL     1      -8.850  47.721 -23.269  1.00  0.00     0.023 C 
HETATM   22  C28 UNL     1      -6.267  47.353 -23.388  1.00  0.00     0.014 C 
HETATM   23  C29 UNL     1      -6.274  47.257 -21.860  1.00  0.00     0.011 C 
HETATM   24  C30 UNL     1      -4.849  47.194 -21.325  1.00  0.00     0.036 C 
ENDROOT
BRANCH   1  25
HETATM   25  C2  UNL     1      -0.069  51.225 -20.238  1.00  0.00    -0.013 C 
HETATM   26  C1  UNL     1      -0.340  51.578 -18.764  1.00  0.00     0.010 C 
BRANCH  25  27
HETATM   27  C3  UNL     1      -0.460  52.419 -21.146  1.00  0.00     0.008 C 
BRANCH  27  28
HETATM   28  C4  UNL     1       0.689  52.992 -21.998  1.00  0.00     0.028 C 
BRANCH  28  29
HETATM   29  C5  UNL     1       0.835  52.322 -23.337  1.00  0.00    -0.020 C 
HETATM   30  C6  UNL     1       0.685  52.851 -24.572  1.00  0.00    -0.037 C 
BRANCH  30  31
HETATM   31  C7  UNL     1       0.313  54.282 -24.849  1.00  0.00     0.200 C 
BRANCH  31  32
HETATM   32  O1  UNL     1       0.108  54.445 -26.245  1.00  0.00    -0.397 OA
HETATM   33  H12 UNL     1      -0.096  55.386 -26.388  1.00  0.00     0.209 HD
ENDBRANCH  31  32
ENDBRANCH  30  31
BRANCH  30  34
HETATM   34  C8  UNL     1       0.864  52.028 -25.831  1.00  0.00     0.200 C 
BRANCH  34  35
HETATM   35  O2  UNL     1       2.151  52.214 -26.409  1.00  0.00    -0.397 OA
HETATM   36  H15 UNL     1       2.137  51.744 -27.260  1.00  0.00     0.209 HD
ENDBRANCH  34  35
ENDBRANCH  30  34
ENDBRANCH  28  29
ENDBRANCH  27  28
ENDBRANCH  25  27
ENDBRANCH   1  25
BRANCH   3  37
HETATM   37  O3  UNL     1      -3.428  48.575 -18.937  1.00  0.00    -0.394 OA
HETATM   38  H20 UNL     1      -3.216  48.374 -18.009  1.00  0.00     0.210 HD
ENDBRANCH   3  37
TORSDOF 9
ENDMDL
MODEL 5
REMARK minimizedAffinity -8.91485023
REMARK  9 active torsions:
REMARK  status: ('A' for Active; 'I' for Inactive)
REMARK    1  A    between atoms: C2_2  and  C3_3 
REMARK    2  A    between atoms: C2_2  and  C9_11 
REMARK    3  A    between atoms: C3_3  and  C4_4 
REMARK    4  A    between atoms: C4_4  and  C5_5 
REMARK    5  A    between atoms: C6_6  and  C7_7 
REMARK    6  A    between atoms: C6_6  and  C8_9 
REMARK    7  A    between atoms: C7_7  and  O1_8 
REMARK    8  A    between atoms: C8_9  and  O2_10 
REMARK    9  A    between atoms: C11_13  and  O3_14 
ROOT
HETATM    1  C9  UNL     1      -2.515  51.169 -22.510  1.00  0.00     0.001 C 
HETATM    2  C10 UNL     1      -3.452  52.180 -23.223  1.00  0.00     0.038 C 
HETATM    3  C11 UNL     1      -4.900  51.652 -23.052  1.00  0.00     0.131 C 
HETATM    4  C12 UNL     1      -4.789  50.521 -21.982  1.00  0.00     0.014 C 
HETATM    5  C13 UNL     1      -4.842  51.247 -20.595  1.00  0.00     0.023 C 
HETATM    6  C14 UNL     1      -5.829  49.406 -21.854  1.00  0.00    -0.058 C 
HETATM    7  C15 UNL     1      -5.509  48.205 -21.296  1.00  0.00    -0.000 C 
HETATM    8  C16 UNL     1      -4.059  47.947 -20.887  1.00  0.00     0.157 C 
HETATM    9  O4  UNL     1      -3.747  46.926 -20.275  1.00  0.00    -0.293 OA
HETATM   10  C17 UNL     1      -2.973  48.966 -21.211  1.00  0.00     0.094 C 
HETATM   11  C18 UNL     1      -3.397  49.894 -22.349  1.00  0.00    -0.019 C 
HETATM   12  C19 UNL     1      -3.399  49.044 -23.654  1.00  0.00     0.017 C 
HETATM   13  C20 UNL     1      -6.545  47.074 -21.058  1.00  0.00    -0.008 C 
HETATM   14  C21 UNL     1      -6.230  45.975 -22.102  1.00  0.00     0.021 C 
HETATM   15  C22 UNL     1      -6.423  46.457 -19.626  1.00  0.00     0.022 C 
HETATM   16  C23 UNL     1      -7.709  45.890 -19.027  1.00  0.00     0.080 C 
HETATM   17  C24 UNL     1      -8.702  45.472 -20.083  1.00  0.00     0.135 C 
HETATM   18  O5  UNL     1      -9.182  44.338 -20.087  1.00  0.00    -0.297 OA
HETATM   19  C25 UNL     1      -9.148  46.557 -21.069  1.00  0.00     0.018 C 
HETATM   20  C26 UNL     1     -10.416  47.201 -20.466  1.00  0.00     0.023 C 
HETATM   21  C27 UNL     1      -9.553  45.913 -22.408  1.00  0.00     0.023 C 
HETATM   22  C28 UNL     1      -8.013  47.633 -21.185  1.00  0.00     0.014 C 
HETATM   23  C29 UNL     1      -8.157  48.538 -22.412  1.00  0.00     0.011 C 
HETATM   24  C30 UNL     1      -7.235  49.745 -22.293  1.00  0.00     0.036 C 
ENDROOT
BRANCH   1  25
HETATM   25  C2  UNL     1      -1.069  51.027 -23.079  1.00  0.00    -0.013 C 
HETATM   26  C1  UNL     1      -0.070  51.502 -22.006  1.00  0.00     0.010 C 
BRANCH  25  27
HETATM   27  C3  UNL     1      -0.799  51.768 -24.413  1.00  0.00     0.008 C 
BRANCH  27  28
HETATM   28  C4  UNL     1      -0.844  50.879 -25.671  1.00  0.00     0.028 C 
BRANCH  28  29
HETATM   29  C5  UNL     1       0.426  50.915 -26.477  1.00  0.00    -0.020 C 
HETATM   30  C6  UNL     1       0.850  51.854 -27.352  1.00  0.00    -0.037 C 
BRANCH  30  31
HETATM   31  C7  UNL     1       0.082  53.097 -27.710  1.00  0.00     0.200 C 
BRANCH  31  32
HETATM   32  O1  UNL     1       0.365  54.108 -26.753  1.00  0.00    -0.397 OA
HETATM   33  H12 UNL     1      -0.174  54.880 -26.996  1.00  0.00     0.209 HD
ENDBRANCH  31  32
ENDBRANCH  30  31
BRANCH  30  34
HETATM   34  C8  UNL     1       2.167  51.733 -28.092  1.00  0.00     0.200 C 
BRANCH  34  35
HETATM   35  O2  UNL     1       3.249  51.460 -27.210  1.00  0.00    -0.397 OA
HETATM   36  H15 UNL     1       4.057  51.512 -27.747  1.00  0.00     0.209 HD
ENDBRANCH  34  35
ENDBRANCH  30  34
ENDBRANCH  28  29
ENDBRANCH  27  28
ENDBRANCH  25  27
ENDBRANCH   1  25
BRANCH   3  37
HETATM   37  O3  UNL     1      -5.365  51.180 -24.311  1.00  0.00    -0.394 OA
HETATM   38  H20 UNL     1      -5.404  51.942 -24.915  1.00  0.00     0.210 HD
ENDBRANCH   3  37
TORSDOF 9
ENDMDL
MODEL 6
REMARK minimizedAffinity -8.87723637
REMARK  9 active torsions:
REMARK  status: ('A' for Active; 'I' for Inactive)
REMARK    1  A    between atoms: C2_2  and  C3_3 
REMARK    2  A    between atoms: C2_2  and  C9_11 
REMARK    3  A    between atoms: C3_3  and  C4_4 
REMARK    4  A    between atoms: C4_4  and  C5_5 
REMARK    5  A    between atoms: C6_6  and  C7_7 
REMARK    6  A    between atoms: C6_6  and  C8_9 
REMARK    7  A    between atoms: C7_7  and  O1_8 
REMARK    8  A    between atoms: C8_9  and  O2_10 
REMARK    9  A    between atoms: C11_13  and  O3_14 
ROOT
HETATM    1  C9  UNL     1      -4.750  48.037 -20.058  1.00  0.00     0.001 C 
HETATM    2  C10 UNL     1      -5.349  47.069 -21.113  1.00  0.00     0.038 C 
HETATM    3  C11 UNL     1      -4.712  47.440 -22.477  1.00  0.00     0.131 C 
HETATM    4  C12 UNL     1      -3.536  48.402 -22.122  1.00  0.00     0.014 C 
HETATM    5  C13 UNL     1      -2.327  47.474 -21.760  1.00  0.00     0.023 C 
HETATM    6  C14 UNL     1      -2.951  49.393 -23.131  1.00  0.00    -0.058 C 
HETATM    7  C15 UNL     1      -2.305  50.519 -22.719  1.00  0.00    -0.000 C 
HETATM    8  C16 UNL     1      -2.258  50.835 -21.224  1.00  0.00     0.157 C 
HETATM    9  O4  UNL     1      -1.589  51.775 -20.797  1.00  0.00    -0.293 OA
HETATM   10  C17 UNL     1      -3.025  49.972 -20.229  1.00  0.00     0.094 C 
HETATM   11  C18 UNL     1      -4.150  49.194 -20.912  1.00  0.00    -0.019 C 
HETATM   12  C19 UNL     1      -5.244  50.227 -21.309  1.00  0.00     0.017 C 
HETATM   13  C20 UNL     1      -1.613  51.509 -23.694  1.00  0.00    -0.008 C 
HETATM   14  C21 UNL     1      -2.504  52.775 -23.725  1.00  0.00     0.021 C 
HETATM   15  C22 UNL     1      -0.183  51.911 -23.207  1.00  0.00     0.022 C 
HETATM   16  C23 UNL     1       0.822  52.270 -24.300  1.00  0.00     0.080 C 
HETATM   17  C24 UNL     1       0.155  52.756 -25.562  1.00  0.00     0.135 C 
HETATM   18  O5  UNL     1       0.469  53.833 -26.070  1.00  0.00    -0.297 OA
HETATM   19  C25 UNL     1      -0.846  51.798 -26.218  1.00  0.00     0.018 C 
HETATM   20  C26 UNL     1      -0.045  50.965 -27.243  1.00  0.00     0.023 C 
HETATM   21  C27 UNL     1      -1.901  52.599 -27.002  1.00  0.00     0.023 C 
HETATM   22  C28 UNL     1      -1.438  50.852 -25.116  1.00  0.00     0.014 C 
HETATM   23  C29 UNL     1      -2.716  50.133 -25.556  1.00  0.00     0.011 C 
HETATM   24  C30 UNL     1      -3.051  49.005 -24.588  1.00  0.00     0.036 C 
ENDROOT
BRANCH   1  25
HETATM   25  C2  UNL     1      -5.651  48.385 -18.832  1.00  0.00    -0.013 C 
HETATM   26  C1  UNL     1      -5.120  47.626 -17.601  1.00  0.00     0.010 C 
BRANCH  25  27
HETATM   27  C3  UNL     1      -7.164  48.104 -19.012  1.00  0.00     0.008 C 
BRANCH  27  28
HETATM   28  C4  UNL     1      -8.084  48.828 -18.010  1.00  0.00     0.028 C 
BRANCH  28  29
HETATM   29  C5  UNL     1      -9.541  48.492 -18.181  1.00  0.00    -0.020 C 
HETATM   30  C6  UNL     1     -10.301  47.627 -17.475  1.00  0.00    -0.037 C 
BRANCH  30  31
HETATM   31  C7  UNL     1      -9.800  46.785 -16.332  1.00  0.00     0.200 C 
BRANCH  31  32
HETATM   32  O1  UNL     1     -10.083  47.451 -15.109  1.00  0.00    -0.397 OA
HETATM   33  H12 UNL     1      -9.715  46.896 -14.399  1.00  0.00     0.209 HD
ENDBRANCH  31  32
ENDBRANCH  30  31
BRANCH  30  34
HETATM   34  C8  UNL     1     -11.767  47.399 -17.784  1.00  0.00     0.200 C 
BRANCH  34  35
HETATM   35  O2  UNL     1     -12.580  47.529 -16.624  1.00  0.00    -0.397 OA
HETATM   36  H15 UNL     1     -13.475  47.259 -16.889  1.00  0.00     0.209 HD
ENDBRANCH  34  35
ENDBRANCH  30  34
ENDBRANCH  28  29
ENDBRANCH  27  28
ENDBRANCH  25  27
ENDBRANCH   1  25
BRANCH   3  37
HETATM   37  O3  UNL     1      -5.705  48.055 -23.291  1.00  0.00    -0.394 OA
HETATM   38  H20 UNL     1      -6.396  47.392 -23.464  1.00  0.00     0.210 HD
ENDBRANCH   3  37
TORSDOF 9
ENDMDL
MODEL 7
REMARK minimizedAffinity -8.84140873
REMARK  9 active torsions:
REMARK  status: ('A' for Active; 'I' for Inactive)
REMARK    1  A    between atoms: C2_2  and  C3_3 
REMARK    2  A    between atoms: C2_2  and  C9_11 
REMARK    3  A    between atoms: C3_3  and  C4_4 
REMARK    4  A    between atoms: C4_4  and  C5_5 
REMARK    5  A    between atoms: C6_6  and  C7_7 
REMARK    6  A    between atoms: C6_6  and  C8_9 
REMARK    7  A    between atoms: C7_7  and  O1_8 
REMARK    8  A    between atoms: C8_9  and  O2_10 
REMARK    9  A    between atoms: C11_13  and  O3_14 
ROOT
HETATM    1  C9  UNL     1      -1.944  50.916 -23.201  1.00  0.00     0.001 C 
HETATM    2  C10 UNL     1      -2.032  50.594 -24.717  1.00  0.00     0.038 C 
HETATM    3  C11 UNL     1      -3.348  49.803 -24.934  1.00  0.00     0.131 C 
HETATM    4  C12 UNL     1      -4.133  49.958 -23.595  1.00  0.00     0.014 C 
HETATM    5  C13 UNL     1      -4.887  51.327 -23.705  1.00  0.00     0.023 C 
HETATM    6  C14 UNL     1      -5.221  48.974 -23.161  1.00  0.00    -0.058 C 
HETATM    7  C15 UNL     1      -5.546  48.816 -21.848  1.00  0.00    -0.000 C 
HETATM    8  C16 UNL     1      -4.735  49.569 -20.794  1.00  0.00     0.157 C 
HETATM    9  O4  UNL     1      -5.064  49.550 -19.608  1.00  0.00    -0.293 OA
HETATM   10  C17 UNL     1      -3.510  50.381 -21.198  1.00  0.00     0.094 C 
HETATM   11  C18 UNL     1      -2.960  49.929 -22.551  1.00  0.00    -0.019 C 
HETATM   12  C19 UNL     1      -2.324  48.524 -22.339  1.00  0.00     0.017 C 
HETATM   13  C20 UNL     1      -6.702  47.902 -21.359  1.00  0.00    -0.008 C 
HETATM   14  C21 UNL     1      -6.029  46.672 -20.702  1.00  0.00     0.021 C 
HETATM   15  C22 UNL     1      -7.604  48.610 -20.297  1.00  0.00     0.022 C 
HETATM   16  C23 UNL     1      -9.064  48.166 -20.252  1.00  0.00     0.080 C 
HETATM   17  C24 UNL     1      -9.258  46.764 -20.775  1.00  0.00     0.135 C 
HETATM   18  O5  UNL     1      -9.839  45.912 -20.102  1.00  0.00    -0.297 OA
HETATM   19  C25 UNL     1      -8.789  46.501 -22.210  1.00  0.00     0.018 C 
HETATM   20  C26 UNL     1     -10.008  46.758 -23.123  1.00  0.00     0.023 C 
HETATM   21  C27 UNL     1      -8.401  45.019 -22.369  1.00  0.00     0.023 C 
HETATM   22  C28 UNL     1      -7.643  47.511 -22.562  1.00  0.00     0.014 C 
HETATM   23  C29 UNL     1      -6.829  47.103 -23.793  1.00  0.00     0.011 C 
HETATM   24  C30 UNL     1      -5.966  48.265 -24.269  1.00  0.00     0.036 C 
ENDROOT
BRANCH   1  25
HETATM   25  C2  UNL     1      -0.512  51.044 -22.591  1.00  0.00    -0.013 C 
HETATM   26  C1  UNL     1      -0.627  51.004 -21.055  1.00  0.00     0.010 C 
BRANCH  25  27
HETATM   27  C3  UNL     1       0.290  52.296 -23.026  1.00  0.00     0.008 C 
BRANCH  27  28
HETATM   28  C4  UNL     1      -0.024  52.811 -24.444  1.00  0.00     0.028 C 
BRANCH  28  29
HETATM   29  C5  UNL     1       0.979  52.376 -25.478  1.00  0.00    -0.020 C 
HETATM   30  C6  UNL     1       0.826  52.264 -26.816  1.00  0.00    -0.037 C 
BRANCH  30  31
HETATM   31  C7  UNL     1      -0.450  52.559 -27.557  1.00  0.00     0.200 C 
BRANCH  31  32
HETATM   32  O1  UNL     1      -0.129  53.090 -28.835  1.00  0.00    -0.397 OA
HETATM   33  H12 UNL     1      -0.975  53.301 -29.269  1.00  0.00     0.209 HD
ENDBRANCH  31  32
ENDBRANCH  30  31
BRANCH  30  34
HETATM   34  C8  UNL     1       1.948  51.800 -27.722  1.00  0.00     0.200 C 
BRANCH  34  35
HETATM   35  O2  UNL     1       3.224  51.969 -27.115  1.00  0.00    -0.397 OA
HETATM   36  H15 UNL     1       3.880  51.755 -27.800  1.00  0.00     0.209 HD
ENDBRANCH  34  35
ENDBRANCH  30  34
ENDBRANCH  28  29
ENDBRANCH  27  28
ENDBRANCH  25  27
ENDBRANCH   1  25
BRANCH   3  37
HETATM   37  O3  UNL     1      -3.022  48.450 -25.232  1.00  0.00    -0.394 OA
HETATM   38  H20 UNL     1      -2.537  48.442 -26.075  1.00  0.00     0.210 HD
ENDBRANCH   3  37
TORSDOF 9
ENDMDL
MODEL 8
REMARK minimizedAffinity -8.80352879
REMARK  9 active torsions:
REMARK  status: ('A' for Active; 'I' for Inactive)
REMARK    1  A    between atoms: C2_2  and  C3_3 
REMARK    2  A    between atoms: C2_2  and  C9_11 
REMARK    3  A    between atoms: C3_3  and  C4_4 
REMARK    4  A    between atoms: C4_4  and  C5_5 
REMARK    5  A    between atoms: C6_6  and  C7_7 
REMARK    6  A    between atoms: C6_6  and  C8_9 
REMARK    7  A    between atoms: C7_7  and  O1_8 
REMARK    8  A    between atoms: C8_9  and  O2_10 
REMARK    9  A    between atoms: C11_13  and  O3_14 
ROOT
HETATM    1  C9  UNL     1      -6.121  48.000 -20.616  1.00  0.00     0.001 C 
HETATM    2  C10 UNL     1      -6.421  47.008 -21.772  1.00  0.00     0.038 C 
HETATM    3  C11 UNL     1      -5.436  47.345 -22.921  1.00  0.00     0.131 C 
HETATM    4  C12 UNL     1      -4.391  48.312 -22.283  1.00  0.00     0.014 C 
HETATM    5  C13 UNL     1      -3.334  47.389 -21.587  1.00  0.00     0.023 C 
HETATM    6  C14 UNL     1      -3.546  49.276 -23.117  1.00  0.00    -0.058 C 
HETATM    7  C15 UNL     1      -3.025  50.409 -22.571  1.00  0.00    -0.000 C 
HETATM    8  C16 UNL     1      -3.380  50.761 -21.127  1.00  0.00     0.157 C 
HETATM    9  O4  UNL     1      -2.843  51.709 -20.555  1.00  0.00    -0.293 OA
HETATM   10  C17 UNL     1      -4.396  49.925 -20.357  1.00  0.00     0.094 C 
HETATM   11  C18 UNL     1      -5.301  49.134 -21.301  1.00  0.00    -0.019 C 
HETATM   12  C19 UNL     1      -6.238  50.161 -22.003  1.00  0.00     0.017 C 
HETATM   13  C20 UNL     1      -2.086  51.374 -23.345  1.00  0.00    -0.008 C 
HETATM   14  C21 UNL     1      -2.923  52.642 -23.643  1.00  0.00     0.021 C 
HETATM   15  C22 UNL     1      -0.836  51.783 -22.498  1.00  0.00     0.022 C 
HETATM   16  C23 UNL     1       0.430  52.112 -23.286  1.00  0.00     0.080 C 
HETATM   17  C24 UNL     1       0.133  52.571 -24.693  1.00  0.00     0.135 C 
HETATM   18  O5  UNL     1       0.583  53.634 -25.120  1.00  0.00    -0.297 OA
HETATM   19  C25 UNL     1      -0.662  51.600 -25.573  1.00  0.00     0.018 C 
HETATM   20  C26 UNL     1       0.378  50.740 -26.324  1.00  0.00     0.023 C 
HETATM   21  C27 UNL     1      -1.458  52.386 -26.631  1.00  0.00     0.023 C 
HETATM   22  C28 UNL     1      -1.539  50.683 -24.652  1.00  0.00     0.014 C 
HETATM   23  C29 UNL     1      -2.658  49.958 -25.404  1.00  0.00     0.011 C 
HETATM   24  C30 UNL     1      -3.252  48.854 -24.538  1.00  0.00     0.036 C 
ENDROOT
BRANCH   1  25
HETATM   25  C2  UNL     1      -7.316  48.380 -19.687  1.00  0.00    -0.013 C 
HETATM   26  C1  UNL     1      -6.851  48.279 -18.221  1.00  0.00     0.010 C 
BRANCH  25  27
HETATM   27  C3  UNL     1      -8.610  47.550 -19.887  1.00  0.00     0.008 C 
BRANCH  27  28
HETATM   28  C4  UNL     1      -9.758  47.890 -18.917  1.00  0.00     0.028 C 
BRANCH  28  29
HETATM   29  C5  UNL     1     -11.078  48.112 -19.603  1.00  0.00    -0.020 C 
HETATM   30  C6  UNL     1     -12.327  47.938 -19.118  1.00  0.00    -0.037 C 
BRANCH  30  31
HETATM   31  C7  UNL     1     -12.644  47.452 -17.730  1.00  0.00     0.200 C 
BRANCH  31  32
HETATM   32  O1  UNL     1     -13.886  48.007 -17.318  1.00  0.00    -0.397 OA
HETATM   33  H12 UNL     1     -14.039  47.700 -16.407  1.00  0.00     0.209 HD
ENDBRANCH  31  32
ENDBRANCH  30  31
BRANCH  30  34
HETATM   34  C8  UNL     1     -13.563  48.205 -19.953  1.00  0.00     0.200 C 
BRANCH  34  35
HETATM   35  O2  UNL     1     -13.871  49.593 -20.017  1.00  0.00    -0.397 OA
HETATM   36  H15 UNL     1     -14.729  49.659 -20.470  1.00  0.00     0.209 HD
ENDBRANCH  34  35
ENDBRANCH  30  34
ENDBRANCH  28  29
ENDBRANCH  27  28
ENDBRANCH  25  27
ENDBRANCH   1  25
BRANCH   3  37
HETATM   37  O3  UNL     1      -6.166  47.943 -23.987  1.00  0.00    -0.394 OA
HETATM   38  H20 UNL     1      -6.791  47.279 -24.325  1.00  0.00     0.210 HD
ENDBRANCH   3  37
TORSDOF 9
ENDMDL
MODEL 9
REMARK minimizedAffinity -8.79351234
REMARK  9 active torsions:
REMARK  status: ('A' for Active; 'I' for Inactive)
REMARK    1  A    between atoms: C2_2  and  C3_3 
REMARK    2  A    between atoms: C2_2  and  C9_11 
REMARK    3  A    between atoms: C3_3  and  C4_4 
REMARK    4  A    between atoms: C4_4  and  C5_5 
REMARK    5  A    between atoms: C6_6  and  C7_7 
REMARK    6  A    between atoms: C6_6  and  C8_9 
REMARK    7  A    between atoms: C7_7  and  O1_8 
REMARK    8  A    between atoms: C8_9  and  O2_10 
REMARK    9  A    between atoms: C11_13  and  O3_14 
ROOT
HETATM    1  C9  UNL     1      -3.010  49.949 -22.854  1.00  0.00     0.001 C 
HETATM    2  C10 UNL     1      -3.397  48.466 -23.100  1.00  0.00     0.038 C 
HETATM    3  C11 UNL     1      -3.477  47.785 -21.709  1.00  0.00     0.131 C 
HETATM    4  C12 UNL     1      -3.439  48.961 -20.684  1.00  0.00     0.014 C 
HETATM    5  C13 UNL     1      -4.917  49.468 -20.570  1.00  0.00     0.023 C 
HETATM    6  C14 UNL     1      -3.002  48.772 -19.231  1.00  0.00    -0.058 C 
HETATM    7  C15 UNL     1      -2.511  49.812 -18.501  1.00  0.00    -0.000 C 
HETATM    8  C16 UNL     1      -2.307  51.162 -19.189  1.00  0.00     0.157 C 
HETATM    9  O4  UNL     1      -1.978  52.157 -18.545  1.00  0.00    -0.293 OA
HETATM   10  C17 UNL     1      -2.532  51.304 -20.690  1.00  0.00     0.094 C 
HETATM   11  C18 UNL     1      -2.452  49.952 -21.399  1.00  0.00    -0.019 C 
HETATM   12  C19 UNL     1      -0.960  49.507 -21.367  1.00  0.00     0.017 C 
HETATM   13  C20 UNL     1      -2.139  49.699 -16.998  1.00  0.00    -0.008 C 
HETATM   14  C21 UNL     1      -0.593  49.729 -16.934  1.00  0.00     0.021 C 
HETATM   15  C22 UNL     1      -2.702  50.893 -16.161  1.00  0.00     0.022 C 
HETATM   16  C23 UNL     1      -3.020  50.597 -14.697  1.00  0.00     0.080 C 
HETATM   17  C24 UNL     1      -2.212  49.445 -14.152  1.00  0.00     0.135 C 
HETATM   18  O5  UNL     1      -1.547  49.570 -13.123  1.00  0.00    -0.297 OA
HETATM   19  C25 UNL     1      -2.351  48.107 -14.885  1.00  0.00     0.018 C 
HETATM   20  C26 UNL     1      -3.488  47.337 -14.178  1.00  0.00     0.023 C 
HETATM   21  C27 UNL     1      -1.063  47.281 -14.715  1.00  0.00     0.023 C 
HETATM   22  C28 UNL     1      -2.749  48.385 -16.376  1.00  0.00     0.014 C 
HETATM   23  C29 UNL     1      -2.531  47.182 -17.298  1.00  0.00     0.011 C 
HETATM   24  C30 UNL     1      -3.230  47.403 -18.634  1.00  0.00     0.036 C 
ENDROOT
BRANCH   1  25
HETATM   25  C2  UNL     1      -2.198  50.660 -23.982  1.00  0.00    -0.013 C 
HETATM   26  C1  UNL     1      -2.723  52.100 -24.133  1.00  0.00     0.010 C 
BRANCH  25  27
HETATM   27  C3  UNL     1      -2.204  49.950 -25.360  1.00  0.00     0.008 C 
BRANCH  27  28
HETATM   28  C4  UNL     1      -1.396  50.662 -26.462  1.00  0.00     0.028 C 
BRANCH  28  29
HETATM   29  C5  UNL     1       0.075  50.757 -26.162  1.00  0.00    -0.020 C 
HETATM   30  C6  UNL     1       1.049  51.367 -26.873  1.00  0.00    -0.037 C 
BRANCH  30  31
HETATM   31  C7  UNL     1       0.831  52.094 -28.172  1.00  0.00     0.200 C 
BRANCH  31  32
HETATM   32  O1  UNL     1      -0.509  51.886 -28.598  1.00  0.00    -0.397 OA
HETATM   33  H12 UNL     1      -0.601  52.340 -29.454  1.00  0.00     0.209 HD
ENDBRANCH  31  32
ENDBRANCH  30  31
BRANCH  30  34
HETATM   34  C8  UNL     1       2.498  51.363 -26.428  1.00  0.00     0.200 C 
BRANCH  34  35
HETATM   35  O2  UNL     1       3.340  52.036 -27.358  1.00  0.00    -0.397 OA
HETATM   36  H15 UNL     1       4.251  51.888 -27.055  1.00  0.00     0.209 HD
ENDBRANCH  34  35
ENDBRANCH  30  34
ENDBRANCH  28  29
ENDBRANCH  27  28
ENDBRANCH  25  27
ENDBRANCH   1  25
BRANCH   3  37
HETATM   37  O3  UNL     1      -2.374  46.896 -21.572  1.00  0.00    -0.394 OA
HETATM   38  H20 UNL     1      -2.474  46.198 -22.243  1.00  0.00     0.210 HD
ENDBRANCH   3  37
TORSDOF 9
ENDMDL
