MODEL 1
REMARK minimizedAffinity -8.78520489
REMARK CNNscore 0.692804456
REMARK CNNaffinity 6.17020941
REMARK  11 active torsions:
REMARK  status: ('A' for Active; 'I' for Inactive)
REMARK    1  A    between atoms: C3_3  and  O1_4 
REMARK    2  A    between atoms: N1_14  and  O2_16 
REMARK    3  A    between atoms: O2_16  and  C13_17 
REMARK    4  A    between atoms: C13_17  and  C14_18 
REMARK       I    between atoms: C14_18  and  N2_20 
REMARK    5  A    between atoms: N2_20  and  C15_21 
REMARK    6  A    between atoms: C15_21  and  C16_22 
REMARK    7  A    between atoms: C15_21  and  C17_25 
REMARK    8  A    between atoms: C16_22  and  O5_24 
REMARK    9  A    between atoms: C17_25  and  O6_26 
REMARK   10  A    between atoms: C17_25  and  C18_27 
REMARK   11  A    between atoms: C22_31  and  N3_32 
ROOT
HETATM    1  C1  UNL     1     -10.883  41.706 -33.996  1.00  0.00     0.015 C 
HETATM    2  C2  UNL     1     -10.113  42.604 -34.190  1.00  0.00    -0.078 C 
HETATM    3  C3  UNL     1      -9.127  43.678 -34.437  1.00  0.00     0.128 C 
HETATM    4  C4  UNL     1      -7.719  43.216 -33.980  1.00  0.00     0.052 C 
HETATM    5  C5  UNL     1      -7.484  43.826 -32.581  1.00  0.00     0.010 C 
HETATM    6  C6  UNL     1      -8.803  44.514 -32.225  1.00  0.00     0.002 C 
HETATM    7  C7  UNL     1      -8.778  45.651 -31.191  1.00  0.00    -0.004 C 
HETATM    8  C8  UNL     1      -8.186  45.183 -29.850  1.00  0.00     0.010 C 
HETATM    9  C9  UNL     1      -8.203  46.293 -28.798  1.00  0.00     0.035 C 
HETATM   10  C10 UNL     1      -9.603  46.837 -28.642  1.00  0.00    -0.069 C 
HETATM   11  C11 UNL     1     -10.221  46.761 -27.449  1.00  0.00     0.030 C 
HETATM   12  C12 UNL     1     -11.660  47.093 -27.327  1.00  0.00     0.032 C 
HETATM   13  N1  UNL     1     -12.131  47.393 -26.147  1.00  0.00    -0.271 N 
ATOM     14  H1  UNL     1     -11.567  47.449 -25.299  1.00  0.00     0.194 HD
HETATM   15  C24 UNL     1     -12.455  47.043 -28.615  1.00  0.00     0.060 C 
HETATM   16  C25 UNL     1     -11.706  47.889 -29.634  1.00  0.00     0.020 C 
HETATM   17  C26 UNL     1     -10.260  47.376 -29.926  1.00  0.00    -0.016 C 
HETATM   18  C27 UNL     1      -9.474  48.617 -30.423  1.00  0.00     0.020 C 
HETATM   19  C28 UNL     1     -10.232  46.211 -30.989  1.00  0.00     0.002 C 
HETATM   20  C29 UNL     1     -10.902  46.559 -32.348  1.00  0.00     0.007 C 
HETATM   21  C30 UNL     1     -10.813  45.421 -33.383  1.00  0.00     0.014 C 
HETATM   22  C31 UNL     1      -9.356  44.967 -33.595  1.00  0.00     0.003 C 
HETATM   23  C32 UNL     1      -8.561  46.146 -34.238  1.00  0.00     0.020 C 
ENDROOT
BRANCH   3  24
HETATM   24  O1  UNL     1      -9.120  43.961 -35.828  1.00  0.00    -0.377 OA
HETATM   25  H2  UNL     1      -9.050  43.108 -36.290  1.00  0.00     0.211 HD
ENDBRANCH   3  24
BRANCH  13  26
HETATM   26  O2  UNL     1     -13.515  47.630 -26.196  1.00  0.00    -0.271 OA
BRANCH  26  27
HETATM   27  C13 UNL     1     -14.215  46.575 -25.547  1.00  0.00     0.303 C 
BRANCH  27  28
HETATM   28  C14 UNL     1     -15.421  47.037 -24.738  1.00  0.00     0.244 C 
HETATM   29  O3  UNL     1     -15.414  48.068 -24.067  1.00  0.00    -0.271 OA
HETATM   30  N2  UNL     1     -16.485  46.168 -24.755  1.00  0.00    -0.342 N 
HETATM   31  H16 UNL     1     -16.492  45.488 -25.520  1.00  0.00     0.163 HD
BRANCH  30  32
HETATM   32  C15 UNL     1     -17.765  46.503 -24.129  1.00  0.00     0.216 C 
BRANCH  32  33
HETATM   33  C16 UNL     1     -18.894  46.334 -25.140  1.00  0.00     0.166 C 
HETATM   34  O4  UNL     1     -20.058  46.691 -25.029  1.00  0.00    -0.648 OA
BRANCH  33  35
HETATM   35  O5  UNL     1     -18.491  45.733 -26.281  1.00  0.00    -0.775 OA
HETATM   36  H18 UNL     1     -19.320  45.654 -26.803  1.00  0.00     0.167 HD
ENDBRANCH  33  35
ENDBRANCH  32  33
BRANCH  32  37
HETATM   37  C17 UNL     1     -18.061  45.631 -22.886  1.00  0.00     0.184 C 
BRANCH  37  38
HETATM   38  O6  UNL     1     -17.331  44.397 -22.988  1.00  0.00    -0.388 OA
HETATM   39  H20 UNL     1     -17.975  43.702 -23.217  1.00  0.00     0.210 HD
ENDBRANCH  37  38
BRANCH  37  40
HETATM   40  C18 UNL     1     -17.727  46.299 -21.554  1.00  0.00    -0.025 A 
HETATM   41  C19 UNL     1     -18.742  46.678 -20.656  1.00  0.00     0.010 A 
HETATM   42  C20 UNL     1     -18.444  47.275 -19.427  1.00  0.00     0.003 A 
HETATM   43  C21 UNL     1     -17.122  47.500 -19.057  1.00  0.00     0.036 A 
HETATM   44  C22 UNL     1     -16.099  47.096 -19.920  1.00  0.00     0.103 A 
HETATM   45  C23 UNL     1     -16.391  46.500 -21.155  1.00  0.00     0.045 A 
BRANCH  44  46
HETATM   46  N3  UNL     1     -14.703  47.296 -19.529  1.00  0.00    -0.116 N 
HETATM   47  O7  UNL     1     -14.098  48.258 -20.028  1.00  0.00    -0.532 OA
HETATM   48  O8  UNL     1     -14.207  46.483 -18.733  1.00  0.00    -0.532 OA
ENDBRANCH  44  46
ENDBRANCH  37  40
ENDBRANCH  32  37
ENDBRANCH  30  32
ENDBRANCH  27  28
ENDBRANCH  26  27
ENDBRANCH  13  26
TORSDOF 11
ENDMDL
MODEL 2
REMARK minimizedAffinity -10.159358
REMARK CNNscore 0.303173035
REMARK CNNaffinity 6.42610502
REMARK  11 active torsions:
REMARK  status: ('A' for Active; 'I' for Inactive)
REMARK    1  A    between atoms: C3_3  and  O1_4 
REMARK    2  A    between atoms: N1_14  and  O2_16 
REMARK    3  A    between atoms: O2_16  and  C13_17 
REMARK    4  A    between atoms: C13_17  and  C14_18 
REMARK       I    between atoms: C14_18  and  N2_20 
REMARK    5  A    between atoms: N2_20  and  C15_21 
REMARK    6  A    between atoms: C15_21  and  C16_22 
REMARK    7  A    between atoms: C15_21  and  C17_25 
REMARK    8  A    between atoms: C16_22  and  O5_24 
REMARK    9  A    between atoms: C17_25  and  O6_26 
REMARK   10  A    between atoms: C17_25  and  C18_27 
REMARK   11  A    between atoms: C22_31  and  N3_32 
ROOT
HETATM    1  C1  UNL     1      -8.055  40.523 -32.554  1.00  0.00     0.015 C 
HETATM    2  C2  UNL     1      -8.891  41.320 -32.877  1.00  0.00    -0.078 C 
HETATM    3  C3  UNL     1      -9.915  42.288 -33.322  1.00  0.00     0.128 C 
HETATM    4  C4  UNL     1      -9.596  42.771 -34.761  1.00  0.00     0.052 C 
HETATM    5  C5  UNL     1      -8.892  44.138 -34.624  1.00  0.00     0.010 C 
HETATM    6  C6  UNL     1      -8.719  44.344 -33.118  1.00  0.00     0.002 C 
HETATM    7  C7  UNL     1      -8.559  45.778 -32.591  1.00  0.00    -0.004 C 
HETATM    8  C8  UNL     1      -7.361  46.491 -33.240  1.00  0.00     0.010 C 
HETATM    9  C9  UNL     1      -7.163  47.901 -32.684  1.00  0.00     0.035 C 
HETATM   10  C10 UNL     1      -7.047  47.853 -31.180  1.00  0.00    -0.069 C 
HETATM   11  C11 UNL     1      -5.927  48.297 -30.581  1.00  0.00     0.030 C 
HETATM   12  C12 UNL     1      -5.709  48.066 -29.133  1.00  0.00     0.032 C 
HETATM   13  N1  UNL     1      -4.847  48.820 -28.506  1.00  0.00    -0.271 N 
ATOM     14  H1  UNL     1      -4.331  49.587 -28.938  1.00  0.00     0.194 HD
HETATM   15  C24 UNL     1      -6.525  46.948 -28.518  1.00  0.00     0.060 C 
HETATM   16  C25 UNL     1      -7.978  47.197 -28.895  1.00  0.00     0.020 C 
HETATM   17  C26 UNL     1      -8.228  47.202 -30.437  1.00  0.00    -0.016 C 
HETATM   18  C27 UNL     1      -9.503  48.058 -30.646  1.00  0.00     0.020 C 
HETATM   19  C28 UNL     1      -8.406  45.749 -31.027  1.00  0.00     0.002 C 
HETATM   20  C29 UNL     1      -9.533  44.913 -30.359  1.00  0.00     0.007 C 
HETATM   21  C30 UNL     1      -9.717  43.519 -30.990  1.00  0.00     0.014 C 
HETATM   22  C31 UNL     1      -9.941  43.618 -32.512  1.00  0.00     0.003 C 
HETATM   23  C32 UNL     1     -11.297  44.346 -32.764  1.00  0.00     0.020 C 
ENDROOT
BRANCH   3  24
HETATM   24  O1  UNL     1     -11.179  41.640 -33.294  1.00  0.00    -0.377 OA
HETATM   25  H2  UNL     1     -11.069  40.788 -33.751  1.00  0.00     0.211 HD
ENDBRANCH   3  24
BRANCH  13  26
HETATM   26  O2  UNL     1      -4.721  48.438 -27.160  1.00  0.00    -0.271 OA
BRANCH  26  27
HETATM   27  C13 UNL     1      -3.390  48.664 -26.710  1.00  0.00     0.303 C 
BRANCH  27  28
HETATM   28  C14 UNL     1      -2.721  49.879 -27.342  1.00  0.00     0.244 C 
HETATM   29  O3  UNL     1      -3.001  50.279 -28.472  1.00  0.00    -0.271 OA
HETATM   30  N2  UNL     1      -1.723  50.439 -26.582  1.00  0.00    -0.342 N 
HETATM   31  H16 UNL     1      -1.738  50.204 -25.586  1.00  0.00     0.163 HD
BRANCH  30  32
HETATM   32  C15 UNL     1      -1.052  51.678 -26.980  1.00  0.00     0.216 C 
BRANCH  32  33
HETATM   33  C16 UNL     1      -2.030  52.845 -26.899  1.00  0.00     0.166 C 
HETATM   34  O4  UNL     1      -2.987  52.969 -26.148  1.00  0.00    -0.648 OA
BRANCH  33  35
HETATM   35  O5  UNL     1      -1.737  53.837 -27.767  1.00  0.00    -0.775 OA
HETATM   36  H18 UNL     1      -2.466  54.482 -27.632  1.00  0.00     0.167 HD
ENDBRANCH  33  35
ENDBRANCH  32  33
BRANCH  32  37
HETATM   37  C17 UNL     1       0.183  51.989 -26.101  1.00  0.00     0.184 C 
BRANCH  37  38
HETATM   38  O6  UNL     1       0.694  53.289 -26.444  1.00  0.00    -0.388 OA
HETATM   39  H20 UNL     1       1.509  53.149 -26.959  1.00  0.00     0.210 HD
ENDBRANCH  37  38
BRANCH  37  40
HETATM   40  C18 UNL     1      -0.084  51.940 -24.599  1.00  0.00    -0.025 A 
HETATM   41  C19 UNL     1      -1.032  51.052 -24.057  1.00  0.00     0.010 A 
HETATM   42  C20 UNL     1      -1.271  50.989 -22.681  1.00  0.00     0.003 A 
HETATM   43  C21 UNL     1      -0.561  51.805 -21.807  1.00  0.00     0.036 A 
HETATM   44  C22 UNL     1       0.410  52.668 -22.323  1.00  0.00     0.103 A 
HETATM   45  C23 UNL     1       0.653  52.737 -23.702  1.00  0.00     0.045 A 
BRANCH  44  46
HETATM   46  N3  UNL     1       1.188  53.508 -21.411  1.00  0.00    -0.116 N 
HETATM   47  O7  UNL     1       1.804  54.469 -21.898  1.00  0.00    -0.532 OA
HETATM   48  O8  UNL     1       1.193  53.199 -20.208  1.00  0.00    -0.532 OA
ENDBRANCH  44  46
ENDBRANCH  37  40
ENDBRANCH  32  37
ENDBRANCH  30  32
ENDBRANCH  27  28
ENDBRANCH  26  27
ENDBRANCH  13  26
TORSDOF 11
ENDMDL
MODEL 3
REMARK minimizedAffinity -8.34426022
REMARK CNNscore 0.275206655
REMARK CNNaffinity 6.6269927
REMARK  11 active torsions:
REMARK  status: ('A' for Active; 'I' for Inactive)
REMARK    1  A    between atoms: C3_3  and  O1_4 
REMARK    2  A    between atoms: N1_14  and  O2_16 
REMARK    3  A    between atoms: O2_16  and  C13_17 
REMARK    4  A    between atoms: C13_17  and  C14_18 
REMARK       I    between atoms: C14_18  and  N2_20 
REMARK    5  A    between atoms: N2_20  and  C15_21 
REMARK    6  A    between atoms: C15_21  and  C16_22 
REMARK    7  A    between atoms: C15_21  and  C17_25 
REMARK    8  A    between atoms: C16_22  and  O5_24 
REMARK    9  A    between atoms: C17_25  and  O6_26 
REMARK   10  A    between atoms: C17_25  and  C18_27 
REMARK   11  A    between atoms: C22_31  and  N3_32 
ROOT
HETATM    1  C1  UNL     1      -3.509  45.530 -18.576  1.00  0.00     0.015 C 
HETATM    2  C2  UNL     1      -3.021  46.555 -18.188  1.00  0.00    -0.078 C 
HETATM    3  C3  UNL     1      -2.453  47.818 -17.671  1.00  0.00     0.128 C 
HETATM    4  C4  UNL     1      -3.555  48.637 -16.950  1.00  0.00     0.052 C 
HETATM    5  C5  UNL     1      -4.047  49.699 -17.956  1.00  0.00     0.010 C 
HETATM    6  C6  UNL     1      -3.306  49.384 -19.257  1.00  0.00     0.002 C 
HETATM    7  C7  UNL     1      -3.128  50.510 -20.288  1.00  0.00    -0.004 C 
HETATM    8  C8  UNL     1      -4.481  51.100 -20.721  1.00  0.00     0.010 C 
HETATM    9  C9  UNL     1      -4.318  52.186 -21.785  1.00  0.00     0.035 C 
HETATM   10  C10 UNL     1      -3.531  51.650 -22.956  1.00  0.00    -0.069 C 
HETATM   11  C11 UNL     1      -4.089  51.623 -24.180  1.00  0.00     0.030 C 
HETATM   12  C12 UNL     1      -3.418  50.912 -25.295  1.00  0.00     0.032 C 
HETATM   13  N1  UNL     1      -3.751  51.220 -26.519  1.00  0.00    -0.271 N 
ATOM     14  H1  UNL     1      -4.423  51.947 -26.767  1.00  0.00     0.194 HD
HETATM   15  C24 UNL     1      -2.395  49.872 -24.886  1.00  0.00     0.060 C 
HETATM   16  C25 UNL     1      -1.438  50.546 -23.914  1.00  0.00     0.020 C 
HETATM   17  C26 UNL     1      -2.138  51.084 -22.625  1.00  0.00    -0.016 C 
HETATM   18  C27 UNL     1      -1.228  52.227 -22.107  1.00  0.00     0.020 C 
HETATM   19  C28 UNL     1      -2.337  49.964 -21.531  1.00  0.00     0.002 C 
HETATM   20  C29 UNL     1      -1.032  49.239 -21.102  1.00  0.00     0.007 C 
HETATM   21  C30 UNL     1      -1.250  48.188 -19.996  1.00  0.00     0.014 C 
HETATM   22  C31 UNL     1      -1.960  48.800 -18.773  1.00  0.00     0.003 C 
HETATM   23  C32 UNL     1      -1.008  49.856 -18.129  1.00  0.00     0.020 C 
ENDROOT
BRANCH   3  24
HETATM   24  O1  UNL     1      -1.412  47.494 -16.761  1.00  0.00    -0.377 OA
HETATM   25  H2  UNL     1      -1.767  46.824 -16.152  1.00  0.00     0.211 HD
ENDBRANCH   3  24
BRANCH  13  26
HETATM   26  O2  UNL     1      -3.065  50.422 -27.449  1.00  0.00    -0.271 OA
BRANCH  26  27
HETATM   27  C13 UNL     1      -3.094  49.060 -27.040  1.00  0.00     0.303 C 
BRANCH  27  28
HETATM   28  C14 UNL     1      -4.125  48.213 -27.779  1.00  0.00     0.244 C 
HETATM   29  O3  UNL     1      -3.863  47.603 -28.815  1.00  0.00    -0.271 OA
HETATM   30  N2  UNL     1      -5.387  48.256 -27.239  1.00  0.00    -0.342 N 
HETATM   31  H16 UNL     1      -5.446  48.572 -26.268  1.00  0.00     0.163 HD
BRANCH  30  32
HETATM   32  C15 UNL     1      -6.473  47.416 -27.749  1.00  0.00     0.216 C 
BRANCH  32  33
HETATM   33  C16 UNL     1      -7.570  47.295 -26.697  1.00  0.00     0.166 C 
HETATM   34  O4  UNL     1      -8.348  48.161 -26.324  1.00  0.00    -0.648 OA
BRANCH  33  35
HETATM   35  O5  UNL     1      -7.658  46.054 -26.171  1.00  0.00    -0.775 OA
HETATM   36  H18 UNL     1      -8.362  46.143 -25.491  1.00  0.00     0.167 HD
ENDBRANCH  33  35
ENDBRANCH  32  33
BRANCH  32  37
HETATM   37  C17 UNL     1      -7.084  47.971 -29.058  1.00  0.00     0.184 C 
BRANCH  37  38
HETATM   38  O6  UNL     1      -6.157  48.889 -29.662  1.00  0.00    -0.388 OA
HETATM   39  H20 UNL     1      -6.504  49.786 -29.511  1.00  0.00     0.210 HD
ENDBRANCH  37  38
BRANCH  37  40
HETATM   40  C18 UNL     1      -7.461  46.901 -30.080  1.00  0.00    -0.025 A 
HETATM   41  C19 UNL     1      -7.067  45.560 -29.908  1.00  0.00     0.010 A 
HETATM   42  C20 UNL     1      -7.422  44.571 -30.830  1.00  0.00     0.003 A 
HETATM   43  C21 UNL     1      -8.189  44.892 -31.945  1.00  0.00     0.036 A 
HETATM   44  C22 UNL     1      -8.621  46.211 -32.113  1.00  0.00     0.103 A 
HETATM   45  C23 UNL     1      -8.266  47.209 -31.193  1.00  0.00     0.045 A 
BRANCH  44  46
HETATM   46  N3  UNL     1      -9.457  46.557 -33.264  1.00  0.00    -0.116 N 
HETATM   47  O7  UNL     1     -10.664  46.273 -33.203  1.00  0.00    -0.532 OA
HETATM   48  O8  UNL     1      -8.904  47.100 -34.233  1.00  0.00    -0.532 OA
ENDBRANCH  44  46
ENDBRANCH  37  40
ENDBRANCH  32  37
ENDBRANCH  30  32
ENDBRANCH  27  28
ENDBRANCH  26  27
ENDBRANCH  13  26
TORSDOF 11
ENDMDL
MODEL 4
REMARK minimizedAffinity -8.55276585
REMARK CNNscore 0.267307758
REMARK CNNaffinity 6.56257582
REMARK  11 active torsions:
REMARK  status: ('A' for Active; 'I' for Inactive)
REMARK    1  A    between atoms: C3_3  and  O1_4 
REMARK    2  A    between atoms: N1_14  and  O2_16 
REMARK    3  A    between atoms: O2_16  and  C13_17 
REMARK    4  A    between atoms: C13_17  and  C14_18 
REMARK       I    between atoms: C14_18  and  N2_20 
REMARK    5  A    between atoms: N2_20  and  C15_21 
REMARK    6  A    between atoms: C15_21  and  C16_22 
REMARK    7  A    between atoms: C15_21  and  C17_25 
REMARK    8  A    between atoms: C16_22  and  O5_24 
REMARK    9  A    between atoms: C17_25  and  O6_26 
REMARK   10  A    between atoms: C17_25  and  C18_27 
REMARK   11  A    between atoms: C22_31  and  N3_32 
ROOT
HETATM    1  C1  UNL     1      -2.858  47.597 -16.359  1.00  0.00     0.015 C 
HETATM    2  C2  UNL     1      -2.113  48.369 -16.894  1.00  0.00    -0.078 C 
HETATM    3  C3  UNL     1      -1.198  49.351 -17.514  1.00  0.00     0.128 C 
HETATM    4  C4  UNL     1      -1.566  50.783 -17.046  1.00  0.00     0.052 C 
HETATM    5  C5  UNL     1      -2.414  51.414 -18.173  1.00  0.00     0.010 C 
HETATM    6  C6  UNL     1      -2.610  50.291 -19.193  1.00  0.00     0.002 C 
HETATM    7  C7  UNL     1      -2.925  50.674 -20.648  1.00  0.00    -0.004 C 
HETATM    8  C8  UNL     1      -4.192  51.540 -20.744  1.00  0.00     0.010 C 
HETATM    9  C9  UNL     1      -4.542  51.884 -22.193  1.00  0.00     0.035 C 
HETATM   10  C10 UNL     1      -4.655  50.621 -23.012  1.00  0.00    -0.069 C 
HETATM   11  C11 UNL     1      -5.817  50.318 -23.618  1.00  0.00     0.030 C 
HETATM   12  C12 UNL     1      -6.011  48.989 -24.247  1.00  0.00     0.032 C 
HETATM   13  N1  UNL     1      -6.951  48.858 -25.144  1.00  0.00    -0.271 N 
ATOM     14  H1  UNL     1      -7.545  49.619 -25.471  1.00  0.00     0.194 HD
HETATM   15  C24 UNL     1      -5.080  47.895 -23.767  1.00  0.00     0.060 C 
HETATM   16  C25 UNL     1      -3.662  48.435 -23.881  1.00  0.00     0.020 C 
HETATM   17  C26 UNL     1      -3.411  49.712 -23.017  1.00  0.00    -0.016 C 
HETATM   18  C27 UNL     1      -2.236  50.452 -23.705  1.00  0.00     0.020 C 
HETATM   19  C28 UNL     1      -3.077  49.370 -21.513  1.00  0.00     0.002 C 
HETATM   20  C29 UNL     1      -1.867  48.415 -21.321  1.00  0.00     0.007 C 
HETATM   21  C30 UNL     1      -1.532  48.141 -19.841  1.00  0.00     0.014 C 
HETATM   22  C31 UNL     1      -1.318  49.454 -19.063  1.00  0.00     0.003 C 
HETATM   23  C32 UNL     1      -0.048  50.160 -19.629  1.00  0.00     0.020 C 
ENDROOT
BRANCH   3  24
HETATM   24  O1  UNL     1       0.128  49.033 -17.116  1.00  0.00    -0.377 OA
HETATM   25  H2  UNL     1       0.111  48.911 -16.151  1.00  0.00     0.211 HD
ENDBRANCH   3  24
BRANCH  13  26
HETATM   26  O2  UNL     1      -7.037  47.532 -25.599  1.00  0.00    -0.271 OA
BRANCH  26  27
HETATM   27  C13 UNL     1      -7.243  47.511 -27.007  1.00  0.00     0.303 C 
BRANCH  27  28
HETATM   28  C14 UNL     1      -8.574  46.899 -27.429  1.00  0.00     0.244 C 
HETATM   29  O3  UNL     1      -8.735  45.687 -27.564  1.00  0.00    -0.271 OA
HETATM   30  N2  UNL     1      -9.553  47.817 -27.725  1.00  0.00    -0.342 N 
HETATM   31  H16 UNL     1      -9.410  48.757 -27.348  1.00  0.00     0.163 HD
BRANCH  30  32
HETATM   32  C15 UNL     1     -10.925  47.409 -28.035  1.00  0.00     0.216 C 
BRANCH  32  33
HETATM   33  C16 UNL     1     -11.909  48.247 -27.227  1.00  0.00     0.166 C 
HETATM   34  O4  UNL     1     -13.112  48.074 -27.101  1.00  0.00    -0.648 OA
BRANCH  33  35
HETATM   35  O5  UNL     1     -11.315  49.273 -26.578  1.00  0.00    -0.775 OA
HETATM   36  H18 UNL     1     -12.067  49.738 -26.149  1.00  0.00     0.167 HD
ENDBRANCH  33  35
ENDBRANCH  32  33
BRANCH  32  37
HETATM   37  C17 UNL     1     -11.256  47.547 -29.540  1.00  0.00     0.184 C 
BRANCH  37  38
HETATM   38  O6  UNL     1     -10.380  48.522 -30.131  1.00  0.00    -0.388 OA
HETATM   39  H20 UNL     1     -10.908  49.327 -30.281  1.00  0.00     0.210 HD
ENDBRANCH  37  38
BRANCH  37  40
HETATM   40  C18 UNL     1     -11.153  46.244 -30.330  1.00  0.00    -0.025 A 
HETATM   41  C19 UNL     1     -11.292  44.996 -29.695  1.00  0.00     0.010 A 
HETATM   42  C20 UNL     1     -11.216  43.798 -30.412  1.00  0.00     0.003 A 
HETATM   43  C21 UNL     1     -11.009  43.816 -31.788  1.00  0.00     0.036 A 
HETATM   44  C22 UNL     1     -10.905  45.047 -32.442  1.00  0.00     0.103 A 
HETATM   45  C23 UNL     1     -10.977  46.251 -31.727  1.00  0.00     0.045 A 
BRANCH  44  46
HETATM   46  N3  UNL     1     -10.720  45.081 -33.894  1.00  0.00    -0.116 N 
HETATM   47  O7  UNL     1     -10.646  46.194 -34.438  1.00  0.00    -0.532 OA
HETATM   48  O8  UNL     1     -10.661  43.994 -34.490  1.00  0.00    -0.532 OA
ENDBRANCH  44  46
ENDBRANCH  37  40
ENDBRANCH  32  37
ENDBRANCH  30  32
ENDBRANCH  27  28
ENDBRANCH  26  27
ENDBRANCH  13  26
TORSDOF 11
ENDMDL
MODEL 5
REMARK minimizedAffinity -8.30075455
REMARK CNNscore 0.23270449
REMARK CNNaffinity 5.74446487
REMARK  11 active torsions:
REMARK  status: ('A' for Active; 'I' for Inactive)
REMARK    1  A    between atoms: C3_3  and  O1_4 
REMARK    2  A    between atoms: N1_14  and  O2_16 
REMARK    3  A    between atoms: O2_16  and  C13_17 
REMARK    4  A    between atoms: C13_17  and  C14_18 
REMARK       I    between atoms: C14_18  and  N2_20 
REMARK    5  A    between atoms: N2_20  and  C15_21 
REMARK    6  A    between atoms: C15_21  and  C16_22 
REMARK    7  A    between atoms: C15_21  and  C17_25 
REMARK    8  A    between atoms: C16_22  and  O5_24 
REMARK    9  A    between atoms: C17_25  and  O6_26 
REMARK   10  A    between atoms: C17_25  and  C18_27 
REMARK   11  A    between atoms: C22_31  and  N3_32 
ROOT
HETATM    1  C1  UNL     1      -1.081  50.861 -27.008  1.00  0.00     0.015 C 
HETATM    2  C2  UNL     1      -1.303  51.347 -25.935  1.00  0.00    -0.078 C 
HETATM    3  C3  UNL     1      -1.529  51.941 -24.600  1.00  0.00     0.128 C 
HETATM    4  C4  UNL     1      -0.520  51.350 -23.581  1.00  0.00     0.052 C 
HETATM    5  C5  UNL     1      -1.267  50.241 -22.808  1.00  0.00     0.010 C 
HETATM    6  C6  UNL     1      -2.636  50.144 -23.483  1.00  0.00     0.002 C 
HETATM    7  C7  UNL     1      -3.807  49.559 -22.679  1.00  0.00    -0.004 C 
HETATM    8  C8  UNL     1      -3.496  48.137 -22.180  1.00  0.00     0.010 C 
HETATM    9  C9  UNL     1      -4.675  47.526 -21.422  1.00  0.00     0.035 C 
HETATM   10  C10 UNL     1      -5.919  47.568 -22.276  1.00  0.00    -0.069 C 
HETATM   11  C11 UNL     1      -6.541  46.422 -22.609  1.00  0.00     0.030 C 
HETATM   12  C12 UNL     1      -7.631  46.425 -23.613  1.00  0.00     0.032 C 
HETATM   13  N1  UNL     1      -8.462  45.419 -23.630  1.00  0.00    -0.271 N 
ATOM     14  H1  UNL     1      -8.437  44.638 -22.974  1.00  0.00     0.194 HD
HETATM   15  C24 UNL     1      -7.664  47.622 -24.541  1.00  0.00     0.060 C 
HETATM   16  C25 UNL     1      -7.622  48.865 -23.666  1.00  0.00     0.020 C 
HETATM   17  C26 UNL     1      -6.338  48.961 -22.781  1.00  0.00    -0.016 C 
HETATM   18  C27 UNL     1      -6.733  49.848 -21.573  1.00  0.00     0.020 C 
HETATM   19  C28 UNL     1      -5.107  49.565 -23.562  1.00  0.00     0.002 C 
HETATM   20  C29 UNL     1      -5.362  50.962 -24.191  1.00  0.00     0.007 C 
HETATM   21  C30 UNL     1      -4.127  51.548 -24.902  1.00  0.00     0.014 C 
HETATM   22  C31 UNL     1      -2.906  51.589 -23.963  1.00  0.00     0.003 C 
HETATM   23  C32 UNL     1      -3.207  52.592 -22.807  1.00  0.00     0.020 C 
ENDROOT
BRANCH   3  24
HETATM   24  O1  UNL     1      -1.350  53.346 -24.705  1.00  0.00    -0.377 OA
HETATM   25  H2  UNL     1      -0.512  53.489 -25.176  1.00  0.00     0.211 HD
ENDBRANCH   3  24
BRANCH  13  26
HETATM   26  O2  UNL     1      -9.398  45.550 -24.670  1.00  0.00    -0.271 OA
BRANCH  26  27
HETATM   27  C13 UNL     1     -10.721  45.505 -24.146  1.00  0.00     0.303 C 
BRANCH  27  28
HETATM   28  C14 UNL     1     -11.807  45.757 -25.185  1.00  0.00     0.244 C 
HETATM   29  O3  UNL     1     -11.731  45.338 -26.340  1.00  0.00    -0.271 OA
HETATM   30  N2  UNL     1     -12.836  46.557 -24.751  1.00  0.00    -0.342 N 
HETATM   31  H16 UNL     1     -12.936  46.641 -23.736  1.00  0.00     0.163 HD
BRANCH  30  32
HETATM   32  C15 UNL     1     -14.019  46.809 -25.576  1.00  0.00     0.216 C 
BRANCH  32  33
HETATM   33  C16 UNL     1     -13.593  47.310 -26.952  1.00  0.00     0.166 C 
HETATM   34  O4  UNL     1     -12.958  48.319 -27.217  1.00  0.00    -0.648 OA
BRANCH  33  35
HETATM   35  O5  UNL     1     -13.971  46.483 -27.951  1.00  0.00    -0.775 OA
HETATM   36  H18 UNL     1     -13.673  46.952 -28.761  1.00  0.00     0.167 HD
ENDBRANCH  33  35
ENDBRANCH  32  33
BRANCH  32  37
HETATM   37  C17 UNL     1     -14.900  45.548 -25.744  1.00  0.00     0.184 C 
BRANCH  37  38
HETATM   38  O6  UNL     1     -14.298  44.450 -25.037  1.00  0.00    -0.388 OA
HETATM   39  H20 UNL     1     -13.906  43.860 -25.706  1.00  0.00     0.210 HD
ENDBRANCH  37  38
BRANCH  37  40
HETATM   40  C18 UNL     1     -16.341  45.717 -25.266  1.00  0.00    -0.025 A 
HETATM   41  C19 UNL     1     -16.811  46.961 -24.803  1.00  0.00     0.010 A 
HETATM   42  C20 UNL     1     -18.133  47.129 -24.378  1.00  0.00     0.003 A 
HETATM   43  C21 UNL     1     -19.024  46.061 -24.414  1.00  0.00     0.036 A 
HETATM   44  C22 UNL     1     -18.584  44.828 -24.905  1.00  0.00     0.103 A 
HETATM   45  C23 UNL     1     -17.259  44.652 -25.330  1.00  0.00     0.045 A 
BRANCH  44  46
HETATM   46  N3  UNL     1     -19.520  43.705 -24.979  1.00  0.00    -0.116 N 
HETATM   47  O7  UNL     1     -20.326  43.566 -24.046  1.00  0.00    -0.532 OA
HETATM   48  O8  UNL     1     -19.439  42.955 -25.965  1.00  0.00    -0.532 OA
ENDBRANCH  44  46
ENDBRANCH  37  40
ENDBRANCH  32  37
ENDBRANCH  30  32
ENDBRANCH  27  28
ENDBRANCH  26  27
ENDBRANCH  13  26
TORSDOF 11
ENDMDL
MODEL 6
REMARK minimizedAffinity -8.45165157
REMARK CNNscore 0.228530377
REMARK CNNaffinity 5.64756823
REMARK  11 active torsions:
REMARK  status: ('A' for Active; 'I' for Inactive)
REMARK    1  A    between atoms: C3_3  and  O1_4 
REMARK    2  A    between atoms: N1_14  and  O2_16 
REMARK    3  A    between atoms: O2_16  and  C13_17 
REMARK    4  A    between atoms: C13_17  and  C14_18 
REMARK       I    between atoms: C14_18  and  N2_20 
REMARK    5  A    between atoms: N2_20  and  C15_21 
REMARK    6  A    between atoms: C15_21  and  C16_22 
REMARK    7  A    between atoms: C15_21  and  C17_25 
REMARK    8  A    between atoms: C16_22  and  O5_24 
REMARK    9  A    between atoms: C17_25  and  O6_26 
REMARK   10  A    between atoms: C17_25  and  C18_27 
REMARK   11  A    between atoms: C22_31  and  N3_32 
ROOT
HETATM    1  C1  UNL     1      -0.785  50.460 -26.475  1.00  0.00     0.015 C 
HETATM    2  C2  UNL     1      -1.098  50.916 -25.411  1.00  0.00    -0.078 C 
HETATM    3  C3  UNL     1      -1.438  51.468 -24.082  1.00  0.00     0.128 C 
HETATM    4  C4  UNL     1      -0.648  50.717 -22.980  1.00  0.00     0.052 C 
HETATM    5  C5  UNL     1      -1.609  49.667 -22.382  1.00  0.00     0.010 C 
HETATM    6  C6  UNL     1      -2.876  49.762 -23.235  1.00  0.00     0.002 C 
HETATM    7  C7  UNL     1      -4.202  49.278 -22.628  1.00  0.00    -0.004 C 
HETATM    8  C8  UNL     1      -4.119  47.808 -22.183  1.00  0.00     0.010 C 
HETATM    9  C9  UNL     1      -5.450  47.302 -21.625  1.00  0.00     0.035 C 
HETATM   10  C10 UNL     1      -6.553  47.529 -22.630  1.00  0.00    -0.069 C 
HETATM   11  C11 UNL     1      -7.244  46.480 -23.113  1.00  0.00     0.030 C 
HETATM   12  C12 UNL     1      -8.181  46.658 -24.248  1.00  0.00     0.032 C 
HETATM   13  N1  UNL     1      -9.106  45.757 -24.437  1.00  0.00    -0.271 N 
ATOM     14  H1  UNL     1      -9.255  44.948 -23.832  1.00  0.00     0.194 HD
HETATM   15  C24 UNL     1      -7.956  47.893 -25.096  1.00  0.00     0.060 C 
HETATM   16  C25 UNL     1      -7.899  49.080 -24.146  1.00  0.00     0.020 C 
HETATM   17  C26 UNL     1      -6.745  48.984 -23.097  1.00  0.00    -0.016 C 
HETATM   18  C27 UNL     1      -7.203  49.852 -21.898  1.00  0.00     0.020 C 
HETATM   19  C28 UNL     1      -5.361  49.477 -23.672  1.00  0.00     0.002 C 
HETATM   20  C29 UNL     1      -5.374  50.923 -24.240  1.00  0.00     0.007 C 
HETATM   21  C30 UNL     1      -3.997  51.395 -24.745  1.00  0.00     0.014 C 
HETATM   22  C31 UNL     1      -2.919  51.249 -23.654  1.00  0.00     0.003 C 
HETATM   23  C32 UNL     1      -3.264  52.224 -22.486  1.00  0.00     0.020 C 
ENDROOT
BRANCH   3  24
HETATM   24  O1  UNL     1      -1.095  52.846 -24.075  1.00  0.00    -0.377 OA
HETATM   25  H2  UNL     1      -0.189  52.914 -24.423  1.00  0.00     0.211 HD
ENDBRANCH   3  24
BRANCH  13  26
HETATM   26  O2  UNL     1      -9.871  46.045 -25.579  1.00  0.00    -0.271 OA
BRANCH  26  27
HETATM   27  C13 UNL     1     -10.845  47.038 -25.278  1.00  0.00     0.303 C 
BRANCH  27  28
HETATM   28  C14 UNL     1     -11.850  46.616 -24.213  1.00  0.00     0.244 C 
HETATM   29  O3  UNL     1     -11.572  46.579 -23.015  1.00  0.00    -0.271 OA
HETATM   30  N2  UNL     1     -13.064  46.203 -24.707  1.00  0.00    -0.342 N 
HETATM   31  H16 UNL     1     -13.280  46.503 -25.661  1.00  0.00     0.163 HD
BRANCH  30  32
HETATM   32  C15 UNL     1     -14.185  45.873 -23.825  1.00  0.00     0.216 C 
BRANCH  32  33
HETATM   33  C16 UNL     1     -14.836  47.154 -23.316  1.00  0.00     0.166 C 
HETATM   34  O4  UNL     1     -15.343  48.049 -23.976  1.00  0.00    -0.648 OA
BRANCH  33  35
HETATM   35  O5  UNL     1     -14.845  47.238 -21.968  1.00  0.00    -0.775 OA
HETATM   36  H18 UNL     1     -15.246  48.119 -21.796  1.00  0.00     0.167 HD
ENDBRANCH  33  35
ENDBRANCH  32  33
BRANCH  32  37
HETATM   37  C17 UNL     1     -15.254  45.005 -24.529  1.00  0.00     0.184 C 
BRANCH  37  38
HETATM   38  O6  UNL     1     -15.085  43.632 -24.135  1.00  0.00    -0.388 OA
HETATM   39  H20 UNL     1     -14.686  43.165 -24.891  1.00  0.00     0.210 HD
ENDBRANCH  37  38
BRANCH  37  40
HETATM   40  C18 UNL     1     -16.694  45.429 -24.250  1.00  0.00    -0.025 A 
HETATM   41  C19 UNL     1     -17.504  45.966 -25.268  1.00  0.00     0.010 A 
HETATM   42  C20 UNL     1     -18.829  46.342 -25.025  1.00  0.00     0.003 A 
HETATM   43  C21 UNL     1     -19.384  46.181 -23.760  1.00  0.00     0.036 A 
HETATM   44  C22 UNL     1     -18.606  45.615 -22.745  1.00  0.00     0.103 A 
HETATM   45  C23 UNL     1     -17.276  45.239 -22.982  1.00  0.00     0.045 A 
BRANCH  44  46
HETATM   46  N3  UNL     1     -19.188  45.409 -21.418  1.00  0.00    -0.116 N 
HETATM   47  O7  UNL     1     -19.850  44.375 -21.235  1.00  0.00    -0.532 OA
HETATM   48  O8  UNL     1     -18.994  46.288 -20.563  1.00  0.00    -0.532 OA
ENDBRANCH  44  46
ENDBRANCH  37  40
ENDBRANCH  32  37
ENDBRANCH  30  32
ENDBRANCH  27  28
ENDBRANCH  26  27
ENDBRANCH  13  26
TORSDOF 11
ENDMDL
MODEL 7
REMARK minimizedAffinity -8.74362183
REMARK CNNscore 0.225716203
REMARK CNNaffinity 5.66813231
REMARK  11 active torsions:
REMARK  status: ('A' for Active; 'I' for Inactive)
REMARK    1  A    between atoms: C3_3  and  O1_4 
REMARK    2  A    between atoms: N1_14  and  O2_16 
REMARK    3  A    between atoms: O2_16  and  C13_17 
REMARK    4  A    between atoms: C13_17  and  C14_18 
REMARK       I    between atoms: C14_18  and  N2_20 
REMARK    5  A    between atoms: N2_20  and  C15_21 
REMARK    6  A    between atoms: C15_21  and  C16_22 
REMARK    7  A    between atoms: C15_21  and  C17_25 
REMARK    8  A    between atoms: C16_22  and  O5_24 
REMARK    9  A    between atoms: C17_25  and  O6_26 
REMARK   10  A    between atoms: C17_25  and  C18_27 
REMARK   11  A    between atoms: C22_31  and  N3_32 
ROOT
HETATM    1  C1  UNL     1      -0.680  51.903 -24.154  1.00  0.00     0.015 C 
HETATM    2  C2  UNL     1      -0.809  51.712 -22.977  1.00  0.00    -0.078 C 
HETATM    3  C3  UNL     1      -0.921  51.459 -21.525  1.00  0.00     0.128 C 
HETATM    4  C4  UNL     1      -0.046  50.241 -21.132  1.00  0.00     0.052 C 
HETATM    5  C5  UNL     1      -0.992  49.024 -21.045  1.00  0.00     0.010 C 
HETATM    6  C6  UNL     1      -2.353  49.549 -21.506  1.00  0.00     0.002 C 
HETATM    7  C7  UNL     1      -3.617  48.801 -21.052  1.00  0.00    -0.004 C 
HETATM    8  C8  UNL     1      -3.583  47.323 -21.478  1.00  0.00     0.010 C 
HETATM    9  C9  UNL     1      -4.859  46.582 -21.076  1.00  0.00     0.035 C 
HETATM   10  C10 UNL     1      -6.069  47.303 -21.620  1.00  0.00    -0.069 C 
HETATM   11  C11 UNL     1      -6.897  46.671 -22.472  1.00  0.00     0.030 C 
HETATM   12  C12 UNL     1      -7.965  47.421 -23.176  1.00  0.00     0.032 C 
HETATM   13  N1  UNL     1      -8.972  46.753 -23.668  1.00  0.00    -0.271 N 
ATOM     14  H1  UNL     1      -9.097  45.745 -23.573  1.00  0.00     0.194 HD
HETATM   15  C24 UNL     1      -7.766  48.921 -23.257  1.00  0.00     0.060 C 
HETATM   16  C25 UNL     1      -7.491  49.411 -21.844  1.00  0.00     0.020 C 
HETATM   17  C26 UNL     1      -6.215  48.778 -21.202  1.00  0.00    -0.016 C 
HETATM   18  C27 UNL     1      -6.438  48.860 -19.671  1.00  0.00     0.020 C 
HETATM   19  C28 UNL     1      -4.889  49.517 -21.633  1.00  0.00     0.002 C 
HETATM   20  C29 UNL     1      -4.872  51.042 -21.333  1.00  0.00     0.007 C 
HETATM   21  C30 UNL     1      -3.545  51.726 -21.716  1.00  0.00     0.014 C 
HETATM   22  C31 UNL     1      -2.342  51.027 -21.055  1.00  0.00     0.003 C 
HETATM   23  C32 UNL     1      -2.450  51.217 -19.510  1.00  0.00     0.020 C 
ENDROOT
BRANCH   3  24
HETATM   24  O1  UNL     1      -0.478  52.620 -20.837  1.00  0.00    -0.377 OA
HETATM   25  H2  UNL     1       0.374  52.874 -21.232  1.00  0.00     0.211 HD
ENDBRANCH   3  24
BRANCH  13  26
HETATM   26  O2  UNL     1      -9.863  47.603 -24.345  1.00  0.00    -0.271 OA
BRANCH  26  27
HETATM   27  C13 UNL     1     -10.498  46.900 -25.407  1.00  0.00     0.303 C 
BRANCH  27  28
HETATM   28  C14 UNL     1     -10.931  47.789 -26.567  1.00  0.00     0.244 C 
HETATM   29  O3  UNL     1     -11.370  48.926 -26.403  1.00  0.00    -0.271 OA
HETATM   30  N2  UNL     1     -10.869  47.186 -27.800  1.00  0.00    -0.342 N 
HETATM   31  H16 UNL     1     -10.270  46.358 -27.861  1.00  0.00     0.163 HD
BRANCH  30  32
HETATM   32  C15 UNL     1     -11.137  47.926 -29.035  1.00  0.00     0.216 C 
BRANCH  32  33
HETATM   33  C16 UNL     1      -9.872  47.990 -29.884  1.00  0.00     0.166 C 
HETATM   34  O4  UNL     1      -9.253  47.058 -30.376  1.00  0.00    -0.648 OA
BRANCH  33  35
HETATM   35  O5  UNL     1      -9.450  49.254 -30.102  1.00  0.00    -0.775 OA
HETATM   36  H18 UNL     1      -8.619  49.134 -30.613  1.00  0.00     0.167 HD
ENDBRANCH  33  35
ENDBRANCH  32  33
BRANCH  32  37
HETATM   37  C17 UNL     1     -12.276  47.291 -29.868  1.00  0.00     0.184 C 
BRANCH  37  38
HETATM   38  O6  UNL     1     -11.780  46.962 -31.177  1.00  0.00    -0.388 OA
HETATM   39  H20 UNL     1     -12.144  47.621 -31.795  1.00  0.00     0.210 HD
ENDBRANCH  37  38
BRANCH  37  40
HETATM   40  C18 UNL     1     -12.894  46.042 -29.243  1.00  0.00    -0.025 A 
HETATM   41  C19 UNL     1     -12.222  44.806 -29.274  1.00  0.00     0.010 A 
HETATM   42  C20 UNL     1     -12.773  43.661 -28.689  1.00  0.00     0.003 A 
HETATM   43  C21 UNL     1     -14.006  43.723 -28.049  1.00  0.00     0.036 A 
HETATM   44  C22 UNL     1     -14.671  44.951 -27.976  1.00  0.00     0.103 A 
HETATM   45  C23 UNL     1     -14.125  46.102 -28.562  1.00  0.00     0.045 A 
BRANCH  44  46
HETATM   46  N3  UNL     1     -15.953  45.038 -27.276  1.00  0.00    -0.116 N 
HETATM   47  O7  UNL     1     -15.935  45.390 -26.085  1.00  0.00    -0.532 OA
HETATM   48  O8  UNL     1     -16.976  44.741 -27.912  1.00  0.00    -0.532 OA
ENDBRANCH  44  46
ENDBRANCH  37  40
ENDBRANCH  32  37
ENDBRANCH  30  32
ENDBRANCH  27  28
ENDBRANCH  26  27
ENDBRANCH  13  26
TORSDOF 11
ENDMDL
MODEL 8
REMARK minimizedAffinity -9.97164726
REMARK CNNscore 0.208919108
REMARK CNNaffinity 6.93340254
REMARK  11 active torsions:
REMARK  status: ('A' for Active; 'I' for Inactive)
REMARK    1  A    between atoms: C3_3  and  O1_4 
REMARK    2  A    between atoms: N1_14  and  O2_16 
REMARK    3  A    between atoms: O2_16  and  C13_17 
REMARK    4  A    between atoms: C13_17  and  C14_18 
REMARK       I    between atoms: C14_18  and  N2_20 
REMARK    5  A    between atoms: N2_20  and  C15_21 
REMARK    6  A    between atoms: C15_21  and  C16_22 
REMARK    7  A    between atoms: C15_21  and  C17_25 
REMARK    8  A    between atoms: C16_22  and  O5_24 
REMARK    9  A    between atoms: C17_25  and  O6_26 
REMARK   10  A    between atoms: C17_25  and  C18_27 
REMARK   11  A    between atoms: C22_31  and  N3_32 
ROOT
HETATM    1  C1  UNL     1       2.100  51.095 -26.179  1.00  0.00     0.015 C 
HETATM    2  C2  UNL     1       1.054  51.359 -26.702  1.00  0.00    -0.078 C 
HETATM    3  C3  UNL     1      -0.218  51.731 -27.358  1.00  0.00     0.128 C 
HETATM    4  C4  UNL     1      -0.479  53.249 -27.179  1.00  0.00     0.052 C 
HETATM    5  C5  UNL     1      -1.469  53.394 -26.003  1.00  0.00     0.010 C 
HETATM    6  C6  UNL     1      -1.651  51.974 -25.464  1.00  0.00     0.002 C 
HETATM    7  C7  UNL     1      -2.930  51.651 -24.676  1.00  0.00    -0.004 C 
HETATM    8  C8  UNL     1      -3.092  52.574 -23.456  1.00  0.00     0.010 C 
HETATM    9  C9  UNL     1      -4.336  52.227 -22.636  1.00  0.00     0.035 C 
HETATM   10  C10 UNL     1      -4.307  50.770 -22.245  1.00  0.00    -0.069 C 
HETATM   11  C11 UNL     1      -4.303  50.427 -20.944  1.00  0.00     0.030 C 
HETATM   12  C12 UNL     1      -4.064  49.021 -20.539  1.00  0.00     0.032 C 
HETATM   13  N1  UNL     1      -4.447  48.643 -19.350  1.00  0.00    -0.271 N 
ATOM     14  H1  UNL     1      -4.935  49.243 -18.684  1.00  0.00     0.194 HD
HETATM   15  C24 UNL     1      -3.378  48.150 -21.571  1.00  0.00     0.060 C 
HETATM   16  C25 UNL     1      -4.158  48.299 -22.869  1.00  0.00     0.020 C 
HETATM   17  C26 UNL     1      -4.198  49.765 -23.407  1.00  0.00    -0.016 C 
HETATM   18  C27 UNL     1      -5.474  49.850 -24.282  1.00  0.00     0.020 C 
HETATM   19  C28 UNL     1      -2.906  50.144 -24.231  1.00  0.00     0.002 C 
HETATM   20  C29 UNL     1      -2.603  49.201 -25.428  1.00  0.00     0.007 C 
HETATM   21  C30 UNL     1      -1.367  49.626 -26.244  1.00  0.00     0.014 C 
HETATM   22  C31 UNL     1      -1.483  51.087 -26.718  1.00  0.00     0.003 C 
HETATM   23  C32 UNL     1      -2.672  51.186 -27.725  1.00  0.00     0.020 C 
ENDROOT
BRANCH   3  24
HETATM   24  O1  UNL     1      -0.114  51.412 -28.737  1.00  0.00    -0.377 OA
HETATM   25  H2  UNL     1       0.730  51.780 -29.050  1.00  0.00     0.211 HD
ENDBRANCH   3  24
BRANCH  13  26
HETATM   26  O2  UNL     1      -4.101  47.304 -19.106  1.00  0.00    -0.271 OA
BRANCH  26  27
HETATM   27  C13 UNL     1      -2.745  47.218 -18.683  1.00  0.00     0.303 C 
BRANCH  27  28
HETATM   28  C14 UNL     1      -2.314  48.348 -17.755  1.00  0.00     0.244 C 
HETATM   29  O3  UNL     1      -1.913  48.149 -16.608  1.00  0.00    -0.271 OA
HETATM   30  N2  UNL     1      -2.488  49.608 -18.273  1.00  0.00    -0.342 N 
HETATM   31  H16 UNL     1      -2.582  49.661 -19.291  1.00  0.00     0.163 HD
BRANCH  30  32
HETATM   32  C15 UNL     1      -2.022  50.804 -17.569  1.00  0.00     0.216 C 
BRANCH  32  33
HETATM   33  C16 UNL     1      -2.160  50.604 -16.063  1.00  0.00     0.166 C 
HETATM   34  O4  UNL     1      -1.271  50.605 -15.224  1.00  0.00    -0.648 OA
BRANCH  33  35
HETATM   35  O5  UNL     1      -3.441  50.434 -15.672  1.00  0.00    -0.775 OA
HETATM   36  H18 UNL     1      -3.366  50.274 -14.705  1.00  0.00     0.167 HD
ENDBRANCH  33  35
ENDBRANCH  32  33
BRANCH  32  37
HETATM   37  C17 UNL     1      -0.551  51.151 -17.903  1.00  0.00     0.184 C 
BRANCH  37  38
HETATM   38  O6  UNL     1       0.308  50.119 -17.389  1.00  0.00    -0.388 OA
HETATM   39  H20 UNL     1       0.749  50.481 -16.600  1.00  0.00     0.210 HD
ENDBRANCH  37  38
BRANCH  37  40
HETATM   40  C18 UNL     1      -0.270  51.337 -19.392  1.00  0.00    -0.025 A 
HETATM   41  C19 UNL     1      -0.685  50.378 -20.335  1.00  0.00     0.010 A 
HETATM   42  C20 UNL     1      -0.447  50.547 -21.702  1.00  0.00     0.003 A 
HETATM   43  C21 UNL     1       0.205  51.686 -22.166  1.00  0.00     0.036 A 
HETATM   44  C22 UNL     1       0.592  52.666 -21.247  1.00  0.00     0.103 A 
HETATM   45  C23 UNL     1       0.358  52.501 -19.875  1.00  0.00     0.045 A 
BRANCH  44  46
HETATM   46  N3  UNL     1       1.249  53.884 -21.725  1.00  0.00    -0.116 N 
HETATM   47  O7  UNL     1       1.865  54.569 -20.893  1.00  0.00    -0.532 OA
HETATM   48  O8  UNL     1       1.137  54.163 -22.929  1.00  0.00    -0.532 OA
ENDBRANCH  44  46
ENDBRANCH  37  40
ENDBRANCH  32  37
ENDBRANCH  30  32
ENDBRANCH  27  28
ENDBRANCH  26  27
ENDBRANCH  13  26
TORSDOF 11
ENDMDL
MODEL 9
REMARK minimizedAffinity -10.350934
REMARK CNNscore 0.17828387
REMARK CNNaffinity 6.74257469
REMARK  11 active torsions:
REMARK  status: ('A' for Active; 'I' for Inactive)
REMARK    1  A    between atoms: C3_3  and  O1_4 
REMARK    2  A    between atoms: N1_14  and  O2_16 
REMARK    3  A    between atoms: O2_16  and  C13_17 
REMARK    4  A    between atoms: C13_17  and  C14_18 
REMARK       I    between atoms: C14_18  and  N2_20 
REMARK    5  A    between atoms: N2_20  and  C15_21 
REMARK    6  A    between atoms: C15_21  and  C16_22 
REMARK    7  A    between atoms: C15_21  and  C17_25 
REMARK    8  A    between atoms: C16_22  and  O5_24 
REMARK    9  A    between atoms: C17_25  and  O6_26 
REMARK   10  A    between atoms: C17_25  and  C18_27 
REMARK   11  A    between atoms: C22_31  and  N3_32 
ROOT
HETATM    1  C1  UNL     1      -3.969  53.712 -11.430  1.00  0.00     0.015 C 
HETATM    2  C2  UNL     1      -3.364  52.687 -11.278  1.00  0.00    -0.078 C 
HETATM    3  C3  UNL     1      -2.599  51.443 -11.049  1.00  0.00     0.128 C 
HETATM    4  C4  UNL     1      -1.287  51.763 -10.287  1.00  0.00     0.052 C 
HETATM    5  C5  UNL     1      -0.163  51.824 -11.344  1.00  0.00     0.010 C 
HETATM    6  C6  UNL     1      -0.877  51.660 -12.688  1.00  0.00     0.002 C 
HETATM    7  C7  UNL     1      -0.067  51.141 -13.886  1.00  0.00    -0.004 C 
HETATM    8  C8  UNL     1       1.150  52.036 -14.177  1.00  0.00     0.010 C 
HETATM    9  C9  UNL     1       1.934  51.557 -15.399  1.00  0.00     0.035 C 
HETATM   10  C10 UNL     1       1.016  51.444 -16.592  1.00  0.00    -0.069 C 
HETATM   11  C11 UNL     1       1.255  52.180 -17.693  1.00  0.00     0.030 C 
HETATM   12  C12 UNL     1       0.255  52.242 -18.786  1.00  0.00     0.032 C 
HETATM   13  N1  UNL     1       0.653  52.616 -19.971  1.00  0.00    -0.271 N 
ATOM     14  H1  UNL     1       1.619  52.839 -20.211  1.00  0.00     0.194 HD
HETATM   15  C24 UNL     1      -1.160  51.861 -18.401  1.00  0.00     0.060 C 
HETATM   16  C25 UNL     1      -1.084  50.511 -17.704  1.00  0.00     0.020 C 
HETATM   17  C26 UNL     1      -0.207  50.526 -16.411  1.00  0.00    -0.016 C 
HETATM   18  C27 UNL     1       0.271  49.064 -16.219  1.00  0.00     0.020 C 
HETATM   19  C28 UNL     1      -0.998  51.045 -15.148  1.00  0.00     0.002 C 
HETATM   20  C29 UNL     1      -2.303  50.262 -14.835  1.00  0.00     0.007 C 
HETATM   21  C30 UNL     1      -3.025  50.758 -13.567  1.00  0.00     0.014 C 
HETATM   22  C31 UNL     1      -2.084  50.756 -12.348  1.00  0.00     0.003 C 
HETATM   23  C32 UNL     1      -1.696  49.279 -12.027  1.00  0.00     0.020 C 
ENDROOT
BRANCH   3  24
HETATM   24  O1  UNL     1      -3.407  50.562 -10.282  1.00  0.00    -0.377 OA
HETATM   25  H2  UNL     1      -3.753  51.077  -9.533  1.00  0.00     0.211 HD
ENDBRANCH   3  24
BRANCH  13  26
HETATM   26  O2  UNL     1      -0.422  52.672 -20.874  1.00  0.00    -0.271 OA
BRANCH  26  27
HETATM   27  C13 UNL     1      -0.174  51.816 -21.983  1.00  0.00     0.303 C 
BRANCH  27  28
HETATM   28  C14 UNL     1      -0.997  52.152 -23.221  1.00  0.00     0.244 C 
HETATM   29  O3  UNL     1      -2.149  52.580 -23.156  1.00  0.00    -0.271 OA
HETATM   30  N2  UNL     1      -0.378  51.862 -24.413  1.00  0.00    -0.342 N 
HETATM   31  H16 UNL     1       0.638  51.754 -24.371  1.00  0.00     0.163 HD
BRANCH  30  32
HETATM   32  C15 UNL     1      -0.974  52.224 -25.701  1.00  0.00     0.216 C 
BRANCH  32  33
HETATM   33  C16 UNL     1      -0.171  53.351 -26.342  1.00  0.00     0.166 C 
HETATM   34  O4  UNL     1      -0.584  54.248 -27.062  1.00  0.00    -0.648 OA
BRANCH  33  35
HETATM   35  O5  UNL     1       1.140  53.312 -26.017  1.00  0.00    -0.775 OA
HETATM   36  H18 UNL     1       1.525  54.056 -26.531  1.00  0.00     0.167 HD
ENDBRANCH  33  35
ENDBRANCH  32  33
BRANCH  32  37
HETATM   37  C17 UNL     1      -1.040  51.027 -26.679  1.00  0.00     0.184 C 
BRANCH  37  38
HETATM   38  O6  UNL     1       0.206  50.309 -26.634  1.00  0.00    -0.388 OA
HETATM   39  H20 UNL     1       0.689  50.524 -27.452  1.00  0.00     0.210 HD
ENDBRANCH  37  38
BRANCH  37  40
HETATM   40  C18 UNL     1      -2.185  50.054 -26.408  1.00  0.00    -0.025 A 
HETATM   41  C19 UNL     1      -2.457  49.598 -25.104  1.00  0.00     0.010 A 
HETATM   42  C20 UNL     1      -3.514  48.719 -24.844  1.00  0.00     0.003 A 
HETATM   43  C21 UNL     1      -4.334  48.281 -25.879  1.00  0.00     0.036 A 
HETATM   44  C22 UNL     1      -4.101  48.753 -27.174  1.00  0.00     0.103 A 
HETATM   45  C23 UNL     1      -3.041  49.631 -27.442  1.00  0.00     0.045 A 
BRANCH  44  46
HETATM   46  N3  UNL     1      -4.976  48.326 -28.267  1.00  0.00    -0.116 N 
HETATM   47  O7  UNL     1      -6.115  47.929 -27.970  1.00  0.00    -0.532 OA
HETATM   48  O8  UNL     1      -4.521  48.375 -29.420  1.00  0.00    -0.532 OA
ENDBRANCH  44  46
ENDBRANCH  37  40
ENDBRANCH  32  37
ENDBRANCH  30  32
ENDBRANCH  27  28
ENDBRANCH  26  27
ENDBRANCH  13  26
TORSDOF 11
ENDMDL
