MODEL 1
REMARK minimizedAffinity -7.77375364
REMARK CNNscore 0.398055136
REMARK CNNaffinity 7.01922083
REMARK  12 active torsions:
REMARK  status: ('A' for Active; 'I' for Inactive)
REMARK    1  A    between atoms: C2_2  and  C3_3 
REMARK    2  A    between atoms: C3_3  and  C5_5 
REMARK    3  A    between atoms: C3_3  and  C20_20 
REMARK    4  A    between atoms: C6_6  and  C7_7 
REMARK    5  A    between atoms: C7_7  and  C9_9 
REMARK    6  A    between atoms: C9_9  and  C10_10 
REMARK    7  A    between atoms: C10_10  and  C11_11 
REMARK    8  A    between atoms: C12_12  and  C14_14 
REMARK    9  A    between atoms: C14_14  and  C15_15 
REMARK   10  A    between atoms: C15_15  and  C16_16 
REMARK   11  A    between atoms: C20_20  and  C21_21 
REMARK   12  A    between atoms: C21_21  and  C22_22 
ROOT
HETATM    1  C3  UNL     1      -3.208   3.766  11.566  1.00  0.00    -0.010 C 
HETATM    2  C4  UNL     1      -3.303   3.600  10.028  1.00  0.00     0.024 C 
ENDROOT
BRANCH   1   3
HETATM    3  C2  UNL     1      -3.263   2.344  12.124  1.00  0.00    -0.024 C 
HETATM    4  C1  UNL     1      -3.957   1.286  11.684  1.00  0.00     0.008 C 
ENDBRANCH   1   3
BRANCH   1   5
HETATM    5  C5  UNL     1      -1.864   4.440  11.859  1.00  0.00    -0.017 C 
HETATM    6  C6  UNL     1      -1.609   5.757  11.953  1.00  0.00    -0.025 C 
BRANCH   6   7
HETATM    7  C7  UNL     1      -0.240   6.328  12.256  1.00  0.00     0.004 C 
HETATM    8  C8  UNL     1       0.829   5.366  11.733  1.00  0.00     0.014 C 
BRANCH   7   9
HETATM    9  C9  UNL     1      -0.124   7.731  11.628  1.00  0.00     0.012 C 
BRANCH   9  10
HETATM   10  C10 UNL     1       1.296   8.311  11.596  1.00  0.00     0.028 C 
BRANCH  10  11
HETATM   11  C11 UNL     1       1.962   8.129  10.257  1.00  0.00    -0.024 C 
HETATM   12  C12 UNL     1       1.414   8.195   9.026  1.00  0.00    -0.087 C 
HETATM   13  C13 UNL     1      -0.045   8.475   8.763  1.00  0.00     0.043 C 
BRANCH  12  14
HETATM   14  C14 UNL     1       2.207   7.989   7.737  1.00  0.00     0.037 C 
BRANCH  14  15
HETATM   15  C15 UNL     1       2.273   6.569   7.157  1.00  0.00     0.031 C 
BRANCH  15  16
HETATM   16  C16 UNL     1       2.913   5.604   8.122  1.00  0.00    -0.024 C 
HETATM   17  C17 UNL     1       3.535   4.445   7.829  1.00  0.00    -0.091 C 
HETATM   18  C18 UNL     1       3.653   3.854   6.451  1.00  0.00     0.042 C 
HETATM   19  C19 UNL     1       4.173   3.620   8.917  1.00  0.00     0.042 C 
ENDBRANCH  15  16
ENDBRANCH  14  15
ENDBRANCH  12  14
ENDBRANCH  10  11
ENDBRANCH   9  10
ENDBRANCH   7   9
ENDBRANCH   6   7
ENDBRANCH   1   5
BRANCH   1  20
HETATM   20  C20 UNL     1      -4.362   4.734  12.001  1.00  0.00     0.018 C 
BRANCH  20  21
HETATM   21  C21 UNL     1      -4.831   4.601  13.459  1.00  0.00     0.011 C 
BRANCH  21  22
HETATM   22  C22 UNL     1      -5.516   5.799  14.183  1.00  0.00     0.022 C 
HETATM   23  C23 UNL     1      -6.997   6.041  13.913  1.00  0.00    -0.084 C 
HETATM   24  C24 UNL     1      -7.680   5.752  12.793  1.00  0.00     0.014 C 
HETATM   25  C25 UNL     1      -7.710   6.722  15.066  1.00  0.00     0.034 C 
HETATM   26  C26 UNL     1      -6.770   7.604  15.894  1.00  0.00     0.009 C 
HETATM   27  C27 UNL     1      -5.697   8.261  15.012  1.00  0.00    -0.010 C 
HETATM   28  C28 UNL     1      -4.952   9.336  15.813  1.00  0.00     0.011 C 
HETATM   29  C29 UNL     1      -4.759   7.190  14.295  1.00  0.00    -0.037 C 
HETATM   30  C30 UNL     1      -4.388   7.797  12.924  1.00  0.00     0.016 C 
HETATM   31  C31 UNL     1      -3.444   6.965  15.077  1.00  0.00     0.016 C 
ENDBRANCH  21  22
ENDBRANCH  20  21
ENDBRANCH   1  20
TORSDOF 12
ENDMDL
MODEL 2
REMARK minimizedAffinity -8.10887051
REMARK CNNscore 0.379370421
REMARK CNNaffinity 7.04322004
REMARK  12 active torsions:
REMARK  status: ('A' for Active; 'I' for Inactive)
REMARK    1  A    between atoms: C2_2  and  C3_3 
REMARK    2  A    between atoms: C3_3  and  C5_5 
REMARK    3  A    between atoms: C3_3  and  C20_20 
REMARK    4  A    between atoms: C6_6  and  C7_7 
REMARK    5  A    between atoms: C7_7  and  C9_9 
REMARK    6  A    between atoms: C9_9  and  C10_10 
REMARK    7  A    between atoms: C10_10  and  C11_11 
REMARK    8  A    between atoms: C12_12  and  C14_14 
REMARK    9  A    between atoms: C14_14  and  C15_15 
REMARK   10  A    between atoms: C15_15  and  C16_16 
REMARK   11  A    between atoms: C20_20  and  C21_21 
REMARK   12  A    between atoms: C21_21  and  C22_22 
ROOT
HETATM    1  C3  UNL     1      -5.096   3.164  11.845  1.00  0.00    -0.010 C 
HETATM    2  C4  UNL     1      -5.636   3.838  10.558  1.00  0.00     0.024 C 
ENDROOT
BRANCH   1   3
HETATM    3  C2  UNL     1      -5.183   1.663  11.574  1.00  0.00    -0.024 C 
HETATM    4  C1  UNL     1      -6.199   0.947  11.073  1.00  0.00     0.008 C 
ENDBRANCH   1   3
BRANCH   1   5
HETATM    5  C5  UNL     1      -3.647   3.627  12.017  1.00  0.00    -0.017 C 
HETATM    6  C6  UNL     1      -3.209   4.871  12.287  1.00  0.00    -0.025 C 
BRANCH   6   7
HETATM    7  C7  UNL     1      -1.747   5.229  12.446  1.00  0.00     0.004 C 
HETATM    8  C8  UNL     1      -1.489   5.645  13.896  1.00  0.00     0.014 C 
BRANCH   7   9
HETATM    9  C9  UNL     1      -0.880   4.028  12.018  1.00  0.00     0.012 C 
BRANCH   9  10
HETATM   10  C10 UNL     1       0.533   4.388  11.540  1.00  0.00     0.028 C 
BRANCH  10  11
HETATM   11  C11 UNL     1       0.603   5.767  10.938  1.00  0.00    -0.024 C 
HETATM   12  C12 UNL     1       1.245   6.859  11.402  1.00  0.00    -0.087 C 
HETATM   13  C13 UNL     1       2.046   6.890  12.679  1.00  0.00     0.043 C 
BRANCH  12  14
HETATM   14  C14 UNL     1       1.236   8.210  10.690  1.00  0.00     0.037 C 
BRANCH  14  15
HETATM   15  C15 UNL     1       0.135   8.463   9.649  1.00  0.00     0.031 C 
BRANCH  15  16
HETATM   16  C16 UNL     1       0.466   7.824   8.325  1.00  0.00    -0.024 C 
HETATM   17  C17 UNL     1       1.657   7.813   7.695  1.00  0.00    -0.091 C 
HETATM   18  C18 UNL     1       2.896   8.511   8.184  1.00  0.00     0.042 C 
HETATM   19  C19 UNL     1       1.831   7.076   6.392  1.00  0.00     0.042 C 
ENDBRANCH  15  16
ENDBRANCH  14  15
ENDBRANCH  12  14
ENDBRANCH  10  11
ENDBRANCH   9  10
ENDBRANCH   7   9
ENDBRANCH   6   7
ENDBRANCH   1   5
BRANCH   1  20
HETATM   20  C20 UNL     1      -5.945   3.709  13.045  1.00  0.00     0.018 C 
BRANCH  20  21
HETATM   21  C21 UNL     1      -7.442   3.917  12.763  1.00  0.00     0.011 C 
BRANCH  21  22
HETATM   22  C22 UNL     1      -8.194   5.152  13.346  1.00  0.00     0.022 C 
HETATM   23  C23 UNL     1      -9.125   5.922  12.414  1.00  0.00    -0.084 C 
HETATM   24  C24 UNL     1      -9.018   6.056  11.082  1.00  0.00     0.014 C 
HETATM   25  C25 UNL     1     -10.255   6.622  13.146  1.00  0.00     0.034 C 
HETATM   26  C26 UNL     1      -9.877   6.996  14.583  1.00  0.00     0.009 C 
HETATM   27  C27 UNL     1      -8.391   7.373  14.691  1.00  0.00    -0.010 C 
HETATM   28  C28 UNL     1      -8.112   7.996  16.065  1.00  0.00     0.011 C 
HETATM   29  C29 UNL     1      -7.426   6.169  14.293  1.00  0.00    -0.037 C 
HETATM   30  C30 UNL     1      -6.191   6.814  13.626  1.00  0.00     0.016 C 
HETATM   31  C31 UNL     1      -6.933   5.393  15.536  1.00  0.00     0.016 C 
ENDBRANCH  21  22
ENDBRANCH  20  21
ENDBRANCH   1  20
TORSDOF 12
ENDMDL
MODEL 3
REMARK minimizedAffinity -7.73257065
REMARK CNNscore 0.351061642
REMARK CNNaffinity 6.9240737
REMARK  12 active torsions:
REMARK  status: ('A' for Active; 'I' for Inactive)
REMARK    1  A    between atoms: C2_2  and  C3_3 
REMARK    2  A    between atoms: C3_3  and  C5_5 
REMARK    3  A    between atoms: C3_3  and  C20_20 
REMARK    4  A    between atoms: C6_6  and  C7_7 
REMARK    5  A    between atoms: C7_7  and  C9_9 
REMARK    6  A    between atoms: C9_9  and  C10_10 
REMARK    7  A    between atoms: C10_10  and  C11_11 
REMARK    8  A    between atoms: C12_12  and  C14_14 
REMARK    9  A    between atoms: C14_14  and  C15_15 
REMARK   10  A    between atoms: C15_15  and  C16_16 
REMARK   11  A    between atoms: C20_20  and  C21_21 
REMARK   12  A    between atoms: C21_21  and  C22_22 
ROOT
HETATM    1  C3  UNL     1      -3.241   3.717  11.491  1.00  0.00    -0.010 C 
HETATM    2  C4  UNL     1      -3.268   3.487   9.958  1.00  0.00     0.024 C 
ENDROOT
BRANCH   1   3
HETATM    3  C2  UNL     1      -3.309   2.319  12.104  1.00  0.00    -0.024 C 
HETATM    4  C1  UNL     1      -3.951   1.229  11.663  1.00  0.00     0.008 C 
ENDBRANCH   1   3
BRANCH   1   5
HETATM    5  C5  UNL     1      -1.916   4.415  11.813  1.00  0.00    -0.017 C 
HETATM    6  C6  UNL     1      -1.688   5.737  11.916  1.00  0.00    -0.025 C 
BRANCH   6   7
HETATM    7  C7  UNL     1      -0.337   6.331  12.248  1.00  0.00     0.004 C 
HETATM    8  C8  UNL     1       0.760   5.362  11.801  1.00  0.00     0.014 C 
BRANCH   7   9
HETATM    9  C9  UNL     1      -0.209   7.712  11.573  1.00  0.00     0.012 C 
BRANCH   9  10
HETATM   10  C10 UNL     1       1.207   8.301  11.568  1.00  0.00     0.028 C 
BRANCH  10  11
HETATM   11  C11 UNL     1       1.906   8.107  10.248  1.00  0.00    -0.024 C 
HETATM   12  C12 UNL     1       1.400   8.205   9.002  1.00  0.00    -0.087 C 
HETATM   13  C13 UNL     1      -0.039   8.541   8.698  1.00  0.00     0.043 C 
BRANCH  12  14
HETATM   14  C14 UNL     1       2.223   7.980   7.735  1.00  0.00     0.037 C 
BRANCH  14  15
HETATM   15  C15 UNL     1       2.282   6.557   7.163  1.00  0.00     0.031 C 
BRANCH  15  16
HETATM   16  C16 UNL     1       2.935   5.598   8.124  1.00  0.00    -0.024 C 
HETATM   17  C17 UNL     1       3.558   4.440   7.830  1.00  0.00    -0.091 C 
HETATM   18  C18 UNL     1       3.663   3.844   6.454  1.00  0.00     0.042 C 
HETATM   19  C19 UNL     1       4.210   3.621   8.915  1.00  0.00     0.042 C 
ENDBRANCH  15  16
ENDBRANCH  14  15
ENDBRANCH  12  14
ENDBRANCH  10  11
ENDBRANCH   9  10
ENDBRANCH   7   9
ENDBRANCH   6   7
ENDBRANCH   1   5
BRANCH   1  20
HETATM   20  C20 UNL     1      -4.420   4.691  11.835  1.00  0.00     0.018 C 
BRANCH  20  21
HETATM   21  C21 UNL     1      -4.869   4.702  13.305  1.00  0.00     0.011 C 
BRANCH  21  22
HETATM   22  C22 UNL     1      -5.294   6.034  13.994  1.00  0.00     0.022 C 
HETATM   23  C23 UNL     1      -4.311   6.679  14.966  1.00  0.00    -0.084 C 
HETATM   24  C24 UNL     1      -3.394   6.060  15.727  1.00  0.00     0.014 C 
HETATM   25  C25 UNL     1      -4.469   8.184  15.063  1.00  0.00     0.034 C 
HETATM   26  C26 UNL     1      -5.901   8.642  14.765  1.00  0.00     0.009 C 
HETATM   27  C27 UNL     1      -6.932   7.615  15.260  1.00  0.00    -0.010 C 
HETATM   28  C28 UNL     1      -8.340   8.219  15.194  1.00  0.00     0.011 C 
HETATM   29  C29 UNL     1      -6.775   6.200  14.543  1.00  0.00    -0.037 C 
HETATM   30  C30 UNL     1      -7.158   5.141  15.600  1.00  0.00     0.016 C 
HETATM   31  C31 UNL     1      -7.752   6.048  13.354  1.00  0.00     0.016 C 
ENDBRANCH  21  22
ENDBRANCH  20  21
ENDBRANCH   1  20
TORSDOF 12
ENDMDL
MODEL 4
REMARK minimizedAffinity -7.65615463
REMARK CNNscore 0.338465005
REMARK CNNaffinity 6.79329538
REMARK  12 active torsions:
REMARK  status: ('A' for Active; 'I' for Inactive)
REMARK    1  A    between atoms: C2_2  and  C3_3 
REMARK    2  A    between atoms: C3_3  and  C5_5 
REMARK    3  A    between atoms: C3_3  and  C20_20 
REMARK    4  A    between atoms: C6_6  and  C7_7 
REMARK    5  A    between atoms: C7_7  and  C9_9 
REMARK    6  A    between atoms: C9_9  and  C10_10 
REMARK    7  A    between atoms: C10_10  and  C11_11 
REMARK    8  A    between atoms: C12_12  and  C14_14 
REMARK    9  A    between atoms: C14_14  and  C15_15 
REMARK   10  A    between atoms: C15_15  and  C16_16 
REMARK   11  A    between atoms: C20_20  and  C21_21 
REMARK   12  A    between atoms: C21_21  and  C22_22 
ROOT
HETATM    1  C3  UNL     1      -1.686   7.783  13.130  1.00  0.00    -0.010 C 
HETATM    2  C4  UNL     1      -2.272   8.875  14.061  1.00  0.00     0.024 C 
ENDROOT
BRANCH   1   3
HETATM    3  C2  UNL     1      -0.604   7.092  13.958  1.00  0.00    -0.024 C 
HETATM    4  C1  UNL     1      -0.154   7.389  15.185  1.00  0.00     0.008 C 
ENDBRANCH   1   3
BRANCH   1   5
HETATM    5  C5  UNL     1      -2.834   6.829  12.786  1.00  0.00    -0.017 C 
HETATM    6  C6  UNL     1      -2.797   5.485  12.734  1.00  0.00    -0.025 C 
BRANCH   6   7
HETATM    7  C7  UNL     1      -3.994   4.626  12.389  1.00  0.00     0.004 C 
HETATM    8  C8  UNL     1      -3.566   3.156  12.366  1.00  0.00     0.014 C 
BRANCH   7   9
HETATM    9  C9  UNL     1      -5.121   4.892  13.406  1.00  0.00     0.012 C 
BRANCH   9  10
HETATM   10  C10 UNL     1      -6.519   4.449  12.955  1.00  0.00     0.028 C 
BRANCH  10  11
HETATM   11  C11 UNL     1      -7.613   5.277  13.577  1.00  0.00    -0.024 C 
HETATM   12  C12 UNL     1      -8.662   5.877  12.978  1.00  0.00    -0.087 C 
HETATM   13  C13 UNL     1      -8.933   5.822  11.495  1.00  0.00     0.043 C 
BRANCH  12  14
HETATM   14  C14 UNL     1      -9.709   6.696  13.729  1.00  0.00     0.037 C 
BRANCH  14  15
HETATM   15  C15 UNL     1      -9.421   7.053  15.195  1.00  0.00     0.031 C 
BRANCH  15  16
HETATM   16  C16 UNL     1      -9.122   8.521  15.360  1.00  0.00    -0.024 C 
HETATM   17  C17 UNL     1      -9.955   9.556  15.138  1.00  0.00    -0.091 C 
HETATM   18  C18 UNL     1     -11.358   9.436  14.609  1.00  0.00     0.042 C 
HETATM   19  C19 UNL     1      -9.511  10.971  15.407  1.00  0.00     0.042 C 
ENDBRANCH  15  16
ENDBRANCH  14  15
ENDBRANCH  12  14
ENDBRANCH  10  11
ENDBRANCH   9  10
ENDBRANCH   7   9
ENDBRANCH   6   7
ENDBRANCH   1   5
BRANCH   1  20
HETATM   20  C20 UNL     1      -1.214   8.497  11.817  1.00  0.00     0.018 C 
BRANCH  20  21
HETATM   21  C21 UNL     1       0.299   8.746  11.700  1.00  0.00     0.011 C 
BRANCH  21  22
HETATM   22  C22 UNL     1       1.124   8.088  10.553  1.00  0.00     0.022 C 
HETATM   23  C23 UNL     1       0.694   8.368   9.116  1.00  0.00    -0.084 C 
HETATM   24  C24 UNL     1      -0.545   8.635   8.674  1.00  0.00     0.014 C 
HETATM   25  C25 UNL     1       1.838   8.281   8.125  1.00  0.00     0.034 C 
HETATM   26  C26 UNL     1       2.938   7.318   8.584  1.00  0.00     0.009 C 
HETATM   27  C27 UNL     1       2.351   6.127   9.358  1.00  0.00    -0.010 C 
HETATM   28  C28 UNL     1       3.432   5.058   9.564  1.00  0.00     0.011 C 
HETATM   29  C29 UNL     1       1.592   6.577  10.686  1.00  0.00    -0.037 C 
HETATM   30  C30 UNL     1       0.421   5.586  10.865  1.00  0.00     0.016 C 
HETATM   31  C31 UNL     1       2.499   6.459  11.933  1.00  0.00     0.016 C 
ENDBRANCH  21  22
ENDBRANCH  20  21
ENDBRANCH   1  20
TORSDOF 12
ENDMDL
MODEL 5
REMARK minimizedAffinity -6.78260183
REMARK CNNscore 0.276370406
REMARK CNNaffinity 6.53481674
REMARK  12 active torsions:
REMARK  status: ('A' for Active; 'I' for Inactive)
REMARK    1  A    between atoms: C2_2  and  C3_3 
REMARK    2  A    between atoms: C3_3  and  C5_5 
REMARK    3  A    between atoms: C3_3  and  C20_20 
REMARK    4  A    between atoms: C6_6  and  C7_7 
REMARK    5  A    between atoms: C7_7  and  C9_9 
REMARK    6  A    between atoms: C9_9  and  C10_10 
REMARK    7  A    between atoms: C10_10  and  C11_11 
REMARK    8  A    between atoms: C12_12  and  C14_14 
REMARK    9  A    between atoms: C14_14  and  C15_15 
REMARK   10  A    between atoms: C15_15  and  C16_16 
REMARK   11  A    between atoms: C20_20  and  C21_21 
REMARK   12  A    between atoms: C21_21  and  C22_22 
ROOT
HETATM    1  C3  UNL     1      -7.171   5.652  14.277  1.00  0.00    -0.010 C 
HETATM    2  C4  UNL     1      -6.916   5.555  15.802  1.00  0.00     0.024 C 
ENDROOT
BRANCH   1   3
HETATM    3  C2  UNL     1      -7.144   4.209  13.776  1.00  0.00    -0.024 C 
HETATM    4  C1  UNL     1      -8.039   3.555  13.023  1.00  0.00     0.008 C 
ENDBRANCH   1   3
BRANCH   1   5
HETATM    5  C5  UNL     1      -8.551   6.291  14.095  1.00  0.00    -0.017 C 
HETATM    6  C6  UNL     1      -9.226   7.050  14.977  1.00  0.00    -0.025 C 
BRANCH   6   7
HETATM    7  C7  UNL     1     -10.590   7.646  14.700  1.00  0.00     0.004 C 
HETATM    8  C8  UNL     1     -10.462   9.168  14.609  1.00  0.00     0.014 C 
BRANCH   7   9
HETATM    9  C9  UNL     1     -11.161   7.027  13.408  1.00  0.00     0.012 C 
BRANCH   9  10
HETATM   10  C10 UNL     1     -12.623   7.385  13.111  1.00  0.00     0.028 C 
BRANCH  10  11
HETATM   11  C11 UNL     1     -13.593   6.463  13.802  1.00  0.00    -0.024 C 
HETATM   12  C12 UNL     1     -14.425   6.729  14.830  1.00  0.00    -0.087 C 
HETATM   13  C13 UNL     1     -14.531   8.074  15.506  1.00  0.00     0.043 C 
BRANCH  12  14
HETATM   14  C14 UNL     1     -15.366   5.695  15.444  1.00  0.00     0.037 C 
BRANCH  14  15
HETATM   15  C15 UNL     1     -15.979   4.641  14.510  1.00  0.00     0.031 C 
BRANCH  15  16
HETATM   16  C16 UNL     1     -15.334   3.292  14.698  1.00  0.00    -0.024 C 
HETATM   17  C17 UNL     1     -15.756   2.284  15.485  1.00  0.00    -0.091 C 
HETATM   18  C18 UNL     1     -16.950   2.346  16.398  1.00  0.00     0.042 C 
HETATM   19  C19 UNL     1     -15.018   0.970  15.515  1.00  0.00     0.042 C 
ENDBRANCH  15  16
ENDBRANCH  14  15
ENDBRANCH  12  14
ENDBRANCH  10  11
ENDBRANCH   9  10
ENDBRANCH   7   9
ENDBRANCH   6   7
ENDBRANCH   1   5
BRANCH   1  20
HETATM   20  C20 UNL     1      -6.086   6.618  13.687  1.00  0.00     0.018 C 
BRANCH  20  21
HETATM   21  C21 UNL     1      -4.628   6.278  14.035  1.00  0.00     0.011 C 
BRANCH  21  22
HETATM   22  C22 UNL     1      -3.470   7.238  13.626  1.00  0.00     0.022 C 
HETATM   23  C23 UNL     1      -2.197   6.616  13.061  1.00  0.00    -0.084 C 
HETATM   24  C24 UNL     1      -1.690   5.403  13.336  1.00  0.00     0.014 C 
HETATM   25  C25 UNL     1      -1.449   7.541  12.120  1.00  0.00     0.034 C 
HETATM   26  C26 UNL     1      -1.684   9.020  12.445  1.00  0.00     0.009 C 
HETATM   27  C27 UNL     1      -1.842   9.243  13.957  1.00  0.00    -0.010 C 
HETATM   28  C28 UNL     1      -1.803  10.744  14.268  1.00  0.00     0.011 C 
HETATM   29  C29 UNL     1      -3.097   8.465  14.560  1.00  0.00    -0.037 C 
HETATM   30  C30 UNL     1      -2.692   8.046  15.990  1.00  0.00     0.016 C 
HETATM   31  C31 UNL     1      -4.337   9.382  14.676  1.00  0.00     0.016 C 
ENDBRANCH  21  22
ENDBRANCH  20  21
ENDBRANCH   1  20
TORSDOF 12
ENDMDL
MODEL 6
REMARK minimizedAffinity -7.5316
REMARK CNNscore 0.268243492
REMARK CNNaffinity 6.26027822
REMARK  12 active torsions:
REMARK  status: ('A' for Active; 'I' for Inactive)
REMARK    1  A    between atoms: C2_2  and  C3_3 
REMARK    2  A    between atoms: C3_3  and  C5_5 
REMARK    3  A    between atoms: C3_3  and  C20_20 
REMARK    4  A    between atoms: C6_6  and  C7_7 
REMARK    5  A    between atoms: C7_7  and  C9_9 
REMARK    6  A    between atoms: C9_9  and  C10_10 
REMARK    7  A    between atoms: C10_10  and  C11_11 
REMARK    8  A    between atoms: C12_12  and  C14_14 
REMARK    9  A    between atoms: C14_14  and  C15_15 
REMARK   10  A    between atoms: C15_15  and  C16_16 
REMARK   11  A    between atoms: C20_20  and  C21_21 
REMARK   12  A    between atoms: C21_21  and  C22_22 
ROOT
HETATM    1  C3  UNL     1       2.639   7.082   9.029  1.00  0.00    -0.010 C 
HETATM    2  C4  UNL     1       2.991   5.607   8.708  1.00  0.00     0.024 C 
ENDROOT
BRANCH   1   3
HETATM    3  C2  UNL     1       2.320   7.718   7.677  1.00  0.00    -0.024 C 
HETATM    4  C1  UNL     1       1.579   7.241   6.667  1.00  0.00     0.008 C 
ENDBRANCH   1   3
BRANCH   1   5
HETATM    5  C5  UNL     1       1.414   7.058   9.949  1.00  0.00    -0.017 C 
HETATM    6  C6  UNL     1       1.109   6.141  10.885  1.00  0.00    -0.025 C 
BRANCH   6   7
HETATM    7  C7  UNL     1      -0.129   6.210  11.753  1.00  0.00     0.004 C 
HETATM    8  C8  UNL     1      -0.713   7.622  11.681  1.00  0.00     0.014 C 
BRANCH   7   9
HETATM    9  C9  UNL     1      -1.135   5.136  11.292  1.00  0.00     0.012 C 
BRANCH   9  10
HETATM   10  C10 UNL     1      -1.960   4.497  12.416  1.00  0.00     0.028 C 
BRANCH  10  11
HETATM   11  C11 UNL     1      -3.413   4.343  12.046  1.00  0.00    -0.024 C 
HETATM   12  C12 UNL     1      -4.092   3.218  11.740  1.00  0.00    -0.087 C 
HETATM   13  C13 UNL     1      -3.477   1.841  11.709  1.00  0.00     0.043 C 
BRANCH  12  14
HETATM   14  C14 UNL     1      -5.576   3.200  11.380  1.00  0.00     0.037 C 
BRANCH  14  15
HETATM   15  C15 UNL     1      -6.584   2.950  12.511  1.00  0.00     0.031 C 
BRANCH  15  16
HETATM   16  C16 UNL     1      -7.662   4.003  12.536  1.00  0.00    -0.024 C 
HETATM   17  C17 UNL     1      -7.748   5.068  13.357  1.00  0.00    -0.091 C 
HETATM   18  C18 UNL     1      -6.788   5.375  14.473  1.00  0.00     0.042 C 
HETATM   19  C19 UNL     1      -8.872   6.062  13.210  1.00  0.00     0.042 C 
ENDBRANCH  15  16
ENDBRANCH  14  15
ENDBRANCH  12  14
ENDBRANCH  10  11
ENDBRANCH   9  10
ENDBRANCH   7   9
ENDBRANCH   6   7
ENDBRANCH   1   5
BRANCH   1  20
HETATM   20  C20 UNL     1       3.850   7.686   9.819  1.00  0.00     0.018 C 
BRANCH  20  21
HETATM   21  C21 UNL     1       4.514   6.750  10.842  1.00  0.00     0.011 C 
BRANCH  21  22
HETATM   22  C22 UNL     1       5.077   7.312  12.182  1.00  0.00     0.022 C 
HETATM   23  C23 UNL     1       4.131   8.111  13.073  1.00  0.00    -0.084 C 
HETATM   24  C24 UNL     1       3.082   8.855  12.687  1.00  0.00     0.014 C 
HETATM   25  C25 UNL     1       4.498   8.044  14.543  1.00  0.00     0.034 C 
HETATM   26  C26 UNL     1       5.998   7.822  14.762  1.00  0.00     0.009 C 
HETATM   27  C27 UNL     1       6.832   8.524  13.677  1.00  0.00    -0.010 C 
HETATM   28  C28 UNL     1       8.313   8.513  14.073  1.00  0.00     0.011 C 
HETATM   29  C29 UNL     1       6.523   7.967  12.216  1.00  0.00    -0.037 C 
HETATM   30  C30 UNL     1       6.673   9.171  11.260  1.00  0.00     0.016 C 
HETATM   31  C31 UNL     1       7.551   6.896  11.782  1.00  0.00     0.016 C 
ENDBRANCH  21  22
ENDBRANCH  20  21
ENDBRANCH   1  20
TORSDOF 12
ENDMDL
MODEL 7
REMARK minimizedAffinity -6.73973322
REMARK CNNscore 0.260295421
REMARK CNNaffinity 5.73044729
REMARK  12 active torsions:
REMARK  status: ('A' for Active; 'I' for Inactive)
REMARK    1  A    between atoms: C2_2  and  C3_3 
REMARK    2  A    between atoms: C3_3  and  C5_5 
REMARK    3  A    between atoms: C3_3  and  C20_20 
REMARK    4  A    between atoms: C6_6  and  C7_7 
REMARK    5  A    between atoms: C7_7  and  C9_9 
REMARK    6  A    between atoms: C9_9  and  C10_10 
REMARK    7  A    between atoms: C10_10  and  C11_11 
REMARK    8  A    between atoms: C12_12  and  C14_14 
REMARK    9  A    between atoms: C14_14  and  C15_15 
REMARK   10  A    between atoms: C15_15  and  C16_16 
REMARK   11  A    between atoms: C20_20  and  C21_21 
REMARK   12  A    between atoms: C21_21  and  C22_22 
ROOT
HETATM    1  C3  UNL     1       0.533  11.856  19.138  1.00  0.00    -0.010 C 
HETATM    2  C4  UNL     1       1.162  12.264  17.781  1.00  0.00     0.024 C 
ENDROOT
BRANCH   1   3
HETATM    3  C2  UNL     1       0.155  13.172  19.814  1.00  0.00    -0.024 C 
HETATM    4  C1  UNL     1      -0.084  14.371  19.264  1.00  0.00     0.008 C 
ENDBRANCH   1   3
BRANCH   1   5
HETATM    5  C5  UNL     1      -0.701  11.006  18.819  1.00  0.00    -0.017 C 
HETATM    6  C6  UNL     1      -1.392  10.962  17.666  1.00  0.00    -0.025 C 
BRANCH   6   7
HETATM    7  C7  UNL     1      -2.601  10.079  17.445  1.00  0.00     0.004 C 
HETATM    8  C8  UNL     1      -3.548  10.764  16.457  1.00  0.00     0.014 C 
BRANCH   7   9
HETATM    9  C9  UNL     1      -2.135   8.695  16.947  1.00  0.00     0.012 C 
BRANCH   9  10
HETATM   10  C10 UNL     1      -2.072   8.543  15.423  1.00  0.00     0.028 C 
BRANCH  10  11
HETATM   11  C11 UNL     1      -2.486   7.169  14.964  1.00  0.00    -0.024 C 
HETATM   12  C12 UNL     1      -3.556   6.813  14.224  1.00  0.00    -0.087 C 
HETATM   13  C13 UNL     1      -4.585   7.785  13.702  1.00  0.00     0.043 C 
BRANCH  12  14
HETATM   14  C14 UNL     1      -3.864   5.371  13.825  1.00  0.00     0.037 C 
BRANCH  14  15
HETATM   15  C15 UNL     1      -5.222   5.085  13.167  1.00  0.00     0.031 C 
BRANCH  15  16
HETATM   16  C16 UNL     1      -5.177   3.841  12.318  1.00  0.00    -0.024 C 
HETATM   17  C17 UNL     1      -6.132   2.900  12.192  1.00  0.00    -0.091 C 
HETATM   18  C18 UNL     1      -7.432   2.886  12.948  1.00  0.00     0.042 C 
HETATM   19  C19 UNL     1      -5.947   1.737  11.251  1.00  0.00     0.042 C 
ENDBRANCH  15  16
ENDBRANCH  14  15
ENDBRANCH  12  14
ENDBRANCH  10  11
ENDBRANCH   9  10
ENDBRANCH   7   9
ENDBRANCH   6   7
ENDBRANCH   1   5
BRANCH   1  20
HETATM   20  C20 UNL     1       1.582  10.961  19.884  1.00  0.00     0.018 C 
BRANCH  20  21
HETATM   21  C21 UNL     1       1.758  11.250  21.384  1.00  0.00     0.011 C 
BRANCH  21  22
HETATM   22  C22 UNL     1       3.177  11.489  21.984  1.00  0.00     0.022 C 
HETATM   23  C23 UNL     1       3.676  10.510  23.043  1.00  0.00    -0.084 C 
HETATM   24  C24 UNL     1       2.937   9.809  23.918  1.00  0.00     0.014 C 
HETATM   25  C25 UNL     1       5.187  10.392  23.080  1.00  0.00     0.034 C 
HETATM   26  C26 UNL     1       5.885  11.674  22.611  1.00  0.00     0.009 C 
HETATM   27  C27 UNL     1       5.089  12.925  23.016  1.00  0.00    -0.010 C 
HETATM   28  C28 UNL     1       5.936  14.180  22.776  1.00  0.00     0.011 C 
HETATM   29  C29 UNL     1       3.636  12.961  22.359  1.00  0.00    -0.037 C 
HETATM   30  C30 UNL     1       2.717  13.645  23.395  1.00  0.00     0.016 C 
HETATM   31  C31 UNL     1       3.610  13.819  21.073  1.00  0.00     0.016 C 
ENDBRANCH  21  22
ENDBRANCH  20  21
ENDBRANCH   1  20
TORSDOF 12
ENDMDL
MODEL 8
REMARK minimizedAffinity -7.66938639
REMARK CNNscore 0.250522673
REMARK CNNaffinity 6.70251846
REMARK  12 active torsions:
REMARK  status: ('A' for Active; 'I' for Inactive)
REMARK    1  A    between atoms: C2_2  and  C3_3 
REMARK    2  A    between atoms: C3_3  and  C5_5 
REMARK    3  A    between atoms: C3_3  and  C20_20 
REMARK    4  A    between atoms: C6_6  and  C7_7 
REMARK    5  A    between atoms: C7_7  and  C9_9 
REMARK    6  A    between atoms: C9_9  and  C10_10 
REMARK    7  A    between atoms: C10_10  and  C11_11 
REMARK    8  A    between atoms: C12_12  and  C14_14 
REMARK    9  A    between atoms: C14_14  and  C15_15 
REMARK   10  A    between atoms: C15_15  and  C16_16 
REMARK   11  A    between atoms: C20_20  and  C21_21 
REMARK   12  A    between atoms: C21_21  and  C22_22 
ROOT
HETATM    1  C3  UNL     1      -6.296   6.217  13.640  1.00  0.00    -0.010 C 
HETATM    2  C4  UNL     1      -6.377   5.993  15.171  1.00  0.00     0.024 C 
ENDROOT
BRANCH   1   3
HETATM    3  C2  UNL     1      -5.644   7.588  13.472  1.00  0.00    -0.024 C 
HETATM    4  C1  UNL     1      -4.377   7.894  13.158  1.00  0.00     0.008 C 
ENDBRANCH   1   3
BRANCH   1   5
HETATM    5  C5  UNL     1      -5.418   5.097  13.072  1.00  0.00    -0.017 C 
HETATM    6  C6  UNL     1      -5.822   3.957  12.482  1.00  0.00    -0.025 C 
BRANCH   6   7
HETATM    7  C7  UNL     1      -4.871   2.909  11.944  1.00  0.00     0.004 C 
HETATM    8  C8  UNL     1      -5.682   1.784  11.296  1.00  0.00     0.014 C 
BRANCH   7   9
HETATM    9  C9  UNL     1      -3.893   3.572  10.953  1.00  0.00     0.012 C 
BRANCH   9  10
HETATM   10  C10 UNL     1      -2.431   3.134  11.096  1.00  0.00     0.028 C 
BRANCH  10  11
HETATM   11  C11 UNL     1      -1.475   4.298  11.062  1.00  0.00    -0.024 C 
HETATM   12  C12 UNL     1      -1.190   5.186  12.037  1.00  0.00    -0.087 C 
HETATM   13  C13 UNL     1      -1.820   5.166  13.408  1.00  0.00     0.043 C 
BRANCH  12  14
HETATM   14  C14 UNL     1      -0.194   6.331  11.872  1.00  0.00     0.037 C 
BRANCH  14  15
HETATM   15  C15 UNL     1       0.182   6.752  10.444  1.00  0.00     0.031 C 
BRANCH  15  16
HETATM   16  C16 UNL     1       1.641   7.114  10.337  1.00  0.00    -0.024 C 
HETATM   17  C17 UNL     1       2.255   7.753   9.323  1.00  0.00    -0.091 C 
HETATM   18  C18 UNL     1       1.588   8.180   8.045  1.00  0.00     0.042 C 
HETATM   19  C19 UNL     1       3.723   8.088   9.401  1.00  0.00     0.042 C 
ENDBRANCH  15  16
ENDBRANCH  14  15
ENDBRANCH  12  14
ENDBRANCH  10  11
ENDBRANCH   9  10
ENDBRANCH   7   9
ENDBRANCH   6   7
ENDBRANCH   1   5
BRANCH   1  20
HETATM   20  C20 UNL     1      -7.748   6.057  13.071  1.00  0.00     0.018 C 
BRANCH  20  21
HETATM   21  C21 UNL     1      -8.885   6.193  14.096  1.00  0.00     0.011 C 
BRANCH  21  22
HETATM   22  C22 UNL     1      -9.603   7.561  14.307  1.00  0.00     0.022 C 
HETATM   23  C23 UNL     1      -9.383   8.282  15.633  1.00  0.00    -0.084 C 
HETATM   24  C24 UNL     1      -9.123   7.729  16.829  1.00  0.00     0.014 C 
HETATM   25  C25 UNL     1      -9.526   9.788  15.523  1.00  0.00     0.034 C 
HETATM   26  C26 UNL     1     -10.479  10.204  14.396  1.00  0.00     0.009 C 
HETATM   27  C27 UNL     1     -11.628   9.196  14.235  1.00  0.00    -0.010 C 
HETATM   28  C28 UNL     1     -12.697   9.773  13.299  1.00  0.00     0.011 C 
HETATM   29  C29 UNL     1     -11.111   7.739  13.845  1.00  0.00    -0.037 C 
HETATM   30  C30 UNL     1     -12.081   6.746  14.522  1.00  0.00     0.016 C 
HETATM   31  C31 UNL     1     -11.182   7.495  12.320  1.00  0.00     0.016 C 
ENDBRANCH  21  22
ENDBRANCH  20  21
ENDBRANCH   1  20
TORSDOF 12
ENDMDL
MODEL 9
REMARK minimizedAffinity -7.70085096
REMARK CNNscore 0.238528267
REMARK CNNaffinity 6.66824198
REMARK  12 active torsions:
REMARK  status: ('A' for Active; 'I' for Inactive)
REMARK    1  A    between atoms: C2_2  and  C3_3 
REMARK    2  A    between atoms: C3_3  and  C5_5 
REMARK    3  A    between atoms: C3_3  and  C20_20 
REMARK    4  A    between atoms: C6_6  and  C7_7 
REMARK    5  A    between atoms: C7_7  and  C9_9 
REMARK    6  A    between atoms: C9_9  and  C10_10 
REMARK    7  A    between atoms: C10_10  and  C11_11 
REMARK    8  A    between atoms: C12_12  and  C14_14 
REMARK    9  A    between atoms: C14_14  and  C15_15 
REMARK   10  A    between atoms: C15_15  and  C16_16 
REMARK   11  A    between atoms: C20_20  and  C21_21 
REMARK   12  A    between atoms: C21_21  and  C22_22 
ROOT
HETATM    1  C3  UNL     1      -1.374   7.885  13.013  1.00  0.00    -0.010 C 
HETATM    2  C4  UNL     1      -2.693   8.631  12.685  1.00  0.00     0.024 C 
ENDROOT
BRANCH   1   3
HETATM    3  C2  UNL     1      -1.304   7.855  14.539  1.00  0.00    -0.024 C 
HETATM    4  C1  UNL     1      -0.455   7.192  15.336  1.00  0.00     0.008 C 
ENDBRANCH   1   3
BRANCH   1   5
HETATM    5  C5  UNL     1      -1.499   6.478  12.421  1.00  0.00    -0.017 C 
HETATM    6  C6  UNL     1      -2.533   5.626  12.542  1.00  0.00    -0.025 C 
BRANCH   6   7
HETATM    7  C7  UNL     1      -2.564   4.251  11.910  1.00  0.00     0.004 C 
HETATM    8  C8  UNL     1      -1.139   3.698  11.842  1.00  0.00     0.014 C 
BRANCH   7   9
HETATM    9  C9  UNL     1      -3.508   3.340  12.720  1.00  0.00     0.012 C 
BRANCH   9  10
HETATM   10  C10 UNL     1      -4.729   2.822  11.949  1.00  0.00     0.028 C 
BRANCH  10  11
HETATM   11  C11 UNL     1      -5.829   3.848  11.859  1.00  0.00    -0.024 C 
HETATM   12  C12 UNL     1      -7.052   3.827  12.428  1.00  0.00    -0.087 C 
HETATM   13  C13 UNL     1      -7.559   2.706  13.300  1.00  0.00     0.043 C 
BRANCH  12  14
HETATM   14  C14 UNL     1      -8.083   4.940  12.254  1.00  0.00     0.037 C 
BRANCH  14  15
HETATM   15  C15 UNL     1      -8.326   5.882  13.442  1.00  0.00     0.031 C 
BRANCH  15  16
HETATM   16  C16 UNL     1      -7.068   6.612  13.839  1.00  0.00    -0.024 C 
HETATM   17  C17 UNL     1      -6.467   6.613  15.045  1.00  0.00    -0.091 C 
HETATM   18  C18 UNL     1      -6.992   5.915  16.269  1.00  0.00     0.042 C 
HETATM   19  C19 UNL     1      -5.175   7.359  15.259  1.00  0.00     0.042 C 
ENDBRANCH  15  16
ENDBRANCH  14  15
ENDBRANCH  12  14
ENDBRANCH  10  11
ENDBRANCH   9  10
ENDBRANCH   7   9
ENDBRANCH   6   7
ENDBRANCH   1   5
BRANCH   1  20
HETATM   20  C20 UNL     1      -0.218   8.642  12.273  1.00  0.00     0.018 C 
BRANCH  20  21
HETATM   21  C21 UNL     1       0.056   8.193  10.828  1.00  0.00     0.011 C 
BRANCH  21  22
HETATM   22  C22 UNL     1       1.518   8.029  10.313  1.00  0.00     0.022 C 
HETATM   23  C23 UNL     1       1.758   8.122   8.809  1.00  0.00    -0.084 C 
HETATM   24  C24 UNL     1       0.903   7.799   7.826  1.00  0.00     0.014 C 
HETATM   25  C25 UNL     1       3.151   8.607   8.457  1.00  0.00     0.034 C 
HETATM   26  C26 UNL     1       4.183   8.249   9.532  1.00  0.00     0.009 C 
HETATM   27  C27 UNL     1       3.861   6.898  10.190  1.00  0.00    -0.010 C 
HETATM   28  C28 UNL     1       5.044   6.446  11.054  1.00  0.00     0.011 C 
HETATM   29  C29 UNL     1       2.451   6.904  10.933  1.00  0.00    -0.037 C 
HETATM   30  C30 UNL     1       1.879   5.477  10.774  1.00  0.00     0.016 C 
HETATM   31  C31 UNL     1       2.602   7.180  12.447  1.00  0.00     0.016 C 
ENDBRANCH  21  22
ENDBRANCH  20  21
ENDBRANCH   1  20
TORSDOF 12
ENDMDL
