MODEL 1
REMARK minimizedAffinity -8.34959316
REMARK CNNscore 0.738543391
REMARK CNNaffinity 6.75703001
REMARK  19 active torsions:
REMARK  status: ('A' for Active; 'I' for Inactive)
REMARK    1  A    between atoms: C14_15  and  O2_16 
REMARK    2  A    between atoms: C14_15  and  C15_17 
REMARK    3  A    between atoms: C15_17  and  C16_19 
REMARK    4  A    between atoms: C16_19  and  O4_20 
REMARK    5  A    between atoms: O4_20  and  C17_21 
REMARK    6  A    between atoms: C17_21  and  C18_23 
REMARK    7  A    between atoms: C18_23  and  C19_24 
REMARK    8  A    between atoms: C19_24  and  C20_25 
REMARK       I    between atoms: C20_25  and  N1_27 
REMARK    9  A    between atoms: N1_27  and  C21_28 
REMARK   10  A    between atoms: C21_28  and  C22_29 
REMARK   11  A    between atoms: C22_29  and  C23_30 
REMARK   12  A    between atoms: C23_30  and  C24_31 
REMARK   13  A    between atoms: C24_31  and  C25_32 
REMARK   14  A    between atoms: C25_32  and  C26_33 
REMARK       I    between atoms: C26_33  and  N2_35 
REMARK   15  A    between atoms: N2_35  and  C27_36 
REMARK   16  A    between atoms: C27_36  and  C28_37 
REMARK   17  A    between atoms: C27_36  and  C35_44 
REMARK   18  A    between atoms: C28_37  and  C29_38 
REMARK   19  A    between atoms: C35_44  and  O9_46 
ROOT
HETATM    1  C17 UNL     1      -9.333  47.411 -20.102  1.00  0.00     0.259 C 
HETATM    2  O5  UNL     1      -9.277  46.206 -20.324  1.00  0.00    -0.265 OA
ENDROOT
BRANCH   1   3
HETATM    3  O4  UNL     1      -8.341  48.304 -20.353  1.00  0.00    -0.314 OA
BRANCH   3   4
HETATM    4  C16 UNL     1      -7.075  47.955 -19.786  1.00  0.00     0.260 C 
BRANCH   4   5
HETATM    5  C15 UNL     1      -6.011  47.738 -20.862  1.00  0.00     0.185 C 
HETATM    6  O3  UNL     1      -6.200  46.956 -21.799  1.00  0.00    -0.292 OA
BRANCH   5   7
HETATM    7  C14 UNL     1      -4.677  48.515 -20.678  1.00  0.00     0.128 C 
HETATM    8  C13 UNL     1      -3.533  47.514 -20.914  1.00  0.00     0.047 C 
HETATM    9  C12 UNL     1      -3.057  47.726 -22.357  1.00  0.00     0.009 C 
HETATM   10  C11 UNL     1      -3.911  48.863 -22.950  1.00  0.00     0.002 C 
HETATM   11  C10 UNL     1      -3.225  49.725 -24.035  1.00  0.00    -0.004 C 
HETATM   12  C36 UNL     1      -4.392  49.653 -21.712  1.00  0.00    -0.002 C 
HETATM   13  C9  UNL     1      -2.695  48.850 -25.180  1.00  0.00     0.010 C 
HETATM   14  C40 UNL     1      -2.103  50.636 -23.477  1.00  0.00     0.002 C 
HETATM   15  C8  UNL     1      -2.116  49.701 -26.301  1.00  0.00     0.035 C 
HETATM   16  C7  UNL     1      -1.038  50.629 -25.795  1.00  0.00    -0.068 C 
HETATM   17  C2  UNL     1      -1.398  51.509 -24.592  1.00  0.00    -0.016 C 
HETATM   18  C6  UNL     1       0.152  50.669 -26.422  1.00  0.00     0.053 C 
HETATM   19  C1  UNL     1      -2.307  52.656 -25.094  1.00  0.00     0.020 C 
HETATM   20  C3  UNL     1      -0.102  52.121 -23.980  1.00  0.00     0.022 C 
HETATM   21  C4  UNL     1       0.859  52.689 -25.014  1.00  0.00     0.084 C 
HETATM   22  C5  UNL     1       1.198  51.648 -26.049  1.00  0.00     0.149 C 
HETATM   23  O1  UNL     1       2.277  51.634 -26.637  1.00  0.00    -0.293 OA
HETATM   24  C39 UNL     1      -2.645  51.470 -22.299  1.00  0.00     0.007 C 
HETATM   25  C38 UNL     1      -3.260  50.594 -21.206  1.00  0.00     0.013 C 
HETATM   26  C37 UNL     1      -5.640  50.506 -22.007  1.00  0.00     0.019 C 
BRANCH   7  27
HETATM   27  O2  UNL     1      -4.592  49.019 -19.348  1.00  0.00    -0.381 OA
HETATM   28  H19 UNL     1      -5.188  49.785 -19.270  1.00  0.00     0.211 HD
ENDBRANCH   7  27
ENDBRANCH   5   7
ENDBRANCH   4   5
ENDBRANCH   3   4
ENDBRANCH   1   3
BRANCH   1  29
HETATM   29  C18 UNL     1     -10.524  48.113 -19.500  1.00  0.00     0.120 C 
BRANCH  29  30
HETATM   30  C19 UNL     1     -10.795  47.620 -18.086  1.00  0.00     0.112 C 
BRANCH  30  31
HETATM   31  C20 UNL     1     -12.275  47.361 -17.914  1.00  0.00     0.217 C 
HETATM   32  O6  UNL     1     -12.880  47.700 -16.902  1.00  0.00    -0.274 OA
HETATM   33  N1  UNL     1     -12.845  46.660 -18.954  1.00  0.00    -0.361 N 
HETATM   34  H26 UNL     1     -12.218  46.204 -19.614  1.00  0.00     0.162 HD
BRANCH  33  35
HETATM   35  C21 UNL     1     -14.192  46.138 -18.856  1.00  0.00     0.122 C 
BRANCH  35  36
HETATM   36  C22 UNL     1     -15.169  47.021 -19.630  1.00  0.00     0.020 C 
BRANCH  36  37
HETATM   37  C23 UNL     1     -14.695  47.360 -21.043  1.00  0.00     0.002 C 
BRANCH  37  38
HETATM   38  C24 UNL     1     -15.668  46.993 -22.174  1.00  0.00     0.009 C 
BRANCH  38  39
HETATM   39  C25 UNL     1     -15.156  45.931 -23.147  1.00  0.00     0.103 C 
BRANCH  39  40
HETATM   40  C26 UNL     1     -15.934  45.891 -24.448  1.00  0.00     0.218 C 
HETATM   41  O7  UNL     1     -15.493  46.306 -25.515  1.00  0.00    -0.274 OA
HETATM   42  N2  UNL     1     -17.202  45.371 -24.313  1.00  0.00    -0.346 N 
HETATM   43  H37 UNL     1     -17.575  45.276 -23.376  1.00  0.00     0.163 HD
BRANCH  42  44
HETATM   44  C27 UNL     1     -18.162  45.395 -25.422  1.00  0.00     0.186 C 
BRANCH  44  45
HETATM   45  C28 UNL     1     -18.705  44.002 -25.798  1.00  0.00     0.074 C 
BRANCH  45  46
HETATM   46  C29 UNL     1     -18.601  43.712 -27.280  1.00  0.00    -0.056 A 
HETATM   47  C30 UNL     1     -19.756  43.546 -28.058  1.00  0.00     0.007 A 
HETATM   48  C31 UNL     1     -19.654  43.296 -29.427  1.00  0.00     0.001 A 
HETATM   49  C32 UNL     1     -18.401  43.208 -30.029  1.00  0.00     0.000 A 
HETATM   50  C33 UNL     1     -17.247  43.369 -29.265  1.00  0.00     0.001 A 
HETATM   51  C34 UNL     1     -17.346  43.619 -27.897  1.00  0.00     0.007 A 
ENDBRANCH  45  46
ENDBRANCH  44  45
BRANCH  44  52
HETATM   52  C35 UNL     1     -19.263  46.431 -25.146  1.00  0.00     0.163 C 
HETATM   53  O8  UNL     1     -20.471  46.229 -25.183  1.00  0.00    -0.648 OA
BRANCH  52  54
HETATM   54  O9  UNL     1     -18.810  47.642 -24.764  1.00  0.00    -0.775 OA
HETATM   55  H46 UNL     1     -19.622  48.189 -24.710  1.00  0.00     0.167 HD
ENDBRANCH  52  54
ENDBRANCH  44  52
ENDBRANCH  42  44
ENDBRANCH  39  40
ENDBRANCH  38  39
ENDBRANCH  37  38
ENDBRANCH  36  37
ENDBRANCH  35  36
ENDBRANCH  33  35
ENDBRANCH  30  31
ENDBRANCH  29  30
ENDBRANCH   1  29
TORSDOF 19
ENDMDL
MODEL 2
REMARK minimizedAffinity -8.23480988
REMARK CNNscore 0.659996212
REMARK CNNaffinity 6.96319056
REMARK  19 active torsions:
REMARK  status: ('A' for Active; 'I' for Inactive)
REMARK    1  A    between atoms: C14_15  and  O2_16 
REMARK    2  A    between atoms: C14_15  and  C15_17 
REMARK    3  A    between atoms: C15_17  and  C16_19 
REMARK    4  A    between atoms: C16_19  and  O4_20 
REMARK    5  A    between atoms: O4_20  and  C17_21 
REMARK    6  A    between atoms: C17_21  and  C18_23 
REMARK    7  A    between atoms: C18_23  and  C19_24 
REMARK    8  A    between atoms: C19_24  and  C20_25 
REMARK       I    between atoms: C20_25  and  N1_27 
REMARK    9  A    between atoms: N1_27  and  C21_28 
REMARK   10  A    between atoms: C21_28  and  C22_29 
REMARK   11  A    between atoms: C22_29  and  C23_30 
REMARK   12  A    between atoms: C23_30  and  C24_31 
REMARK   13  A    between atoms: C24_31  and  C25_32 
REMARK   14  A    between atoms: C25_32  and  C26_33 
REMARK       I    between atoms: C26_33  and  N2_35 
REMARK   15  A    between atoms: N2_35  and  C27_36 
REMARK   16  A    between atoms: C27_36  and  C28_37 
REMARK   17  A    between atoms: C27_36  and  C35_44 
REMARK   18  A    between atoms: C28_37  and  C29_38 
REMARK   19  A    between atoms: C35_44  and  O9_46 
ROOT
HETATM    1  C17 UNL     1      -9.309  47.413 -19.926  1.00  0.00     0.259 C 
HETATM    2  O5  UNL     1      -9.201  46.198 -20.056  1.00  0.00    -0.265 OA
ENDROOT
BRANCH   1   3
HETATM    3  O4  UNL     1      -8.361  48.327 -20.259  1.00  0.00    -0.314 OA
BRANCH   3   4
HETATM    4  C16 UNL     1      -7.055  48.033 -19.758  1.00  0.00     0.260 C 
BRANCH   4   5
HETATM    5  C15 UNL     1      -6.039  47.861 -20.887  1.00  0.00     0.185 C 
HETATM    6  O3  UNL     1      -6.277  47.132 -21.855  1.00  0.00    -0.292 OA
BRANCH   5   7
HETATM    7  C14 UNL     1      -4.687  48.610 -20.716  1.00  0.00     0.128 C 
HETATM    8  C13 UNL     1      -3.566  47.583 -20.953  1.00  0.00     0.047 C 
HETATM    9  C12 UNL     1      -3.095  47.775 -22.400  1.00  0.00     0.009 C 
HETATM   10  C11 UNL     1      -3.928  48.926 -22.996  1.00  0.00     0.002 C 
HETATM   11  C10 UNL     1      -3.231  49.766 -24.090  1.00  0.00    -0.004 C 
HETATM   12  C36 UNL     1      -4.384  49.735 -21.760  1.00  0.00    -0.002 C 
HETATM   13  C9  UNL     1      -2.728  48.872 -25.233  1.00  0.00     0.010 C 
HETATM   14  C40 UNL     1      -2.087  50.656 -23.546  1.00  0.00     0.002 C 
HETATM   15  C8  UNL     1      -2.138  49.703 -26.364  1.00  0.00     0.035 C 
HETATM   16  C7  UNL     1      -1.038  50.611 -25.871  1.00  0.00    -0.068 C 
HETATM   17  C2  UNL     1      -1.371  51.507 -24.672  1.00  0.00    -0.016 C 
HETATM   18  C6  UNL     1       0.149  50.621 -26.505  1.00  0.00     0.053 C 
HETATM   19  C1  UNL     1      -2.258  52.669 -25.175  1.00  0.00     0.020 C 
HETATM   20  C3  UNL     1      -0.058  52.095 -24.072  1.00  0.00     0.022 C 
HETATM   21  C4  UNL     1       0.909  52.635 -25.116  1.00  0.00     0.084 C 
HETATM   22  C5  UNL     1       1.218  51.580 -26.146  1.00  0.00     0.149 C 
HETATM   23  O1  UNL     1       2.293  51.539 -26.741  1.00  0.00    -0.293 OA
HETATM   24  C39 UNL     1      -2.603  51.509 -22.370  1.00  0.00     0.007 C 
HETATM   25  C38 UNL     1      -3.230  50.655 -21.267  1.00  0.00     0.013 C 
HETATM   26  C37 UNL     1      -5.616  50.613 -22.052  1.00  0.00     0.019 C 
BRANCH   7  27
HETATM   27  O2  UNL     1      -4.583  49.120 -19.390  1.00  0.00    -0.381 OA
HETATM   28  H19 UNL     1      -5.161  49.900 -19.314  1.00  0.00     0.211 HD
ENDBRANCH   7  27
ENDBRANCH   5   7
ENDBRANCH   4   5
ENDBRANCH   3   4
ENDBRANCH   1   3
BRANCH   1  29
HETATM   29  C18 UNL     1     -10.525  48.106 -19.363  1.00  0.00     0.120 C 
BRANCH  29  30
HETATM   30  C19 UNL     1     -10.709  47.777 -17.889  1.00  0.00     0.112 C 
BRANCH  30  31
HETATM   31  C20 UNL     1     -12.149  47.386 -17.633  1.00  0.00     0.217 C 
HETATM   32  O6  UNL     1     -12.670  47.519 -16.530  1.00  0.00    -0.274 OA
HETATM   33  N1  UNL     1     -12.775  46.816 -18.719  1.00  0.00    -0.361 N 
HETATM   34  H26 UNL     1     -12.189  46.514 -19.495  1.00  0.00     0.162 HD
BRANCH  33  35
HETATM   35  C21 UNL     1     -14.073  46.188 -18.589  1.00  0.00     0.122 C 
BRANCH  35  36
HETATM   36  C22 UNL     1     -15.149  47.032 -19.267  1.00  0.00     0.020 C 
BRANCH  36  37
HETATM   37  C23 UNL     1     -14.609  47.928 -20.381  1.00  0.00     0.002 C 
BRANCH  37  38
HETATM   38  C24 UNL     1     -14.886  47.447 -21.813  1.00  0.00     0.009 C 
BRANCH  38  39
HETATM   39  C25 UNL     1     -13.653  46.991 -22.593  1.00  0.00     0.103 C 
BRANCH  39  40
HETATM   40  C26 UNL     1     -13.971  46.554 -24.009  1.00  0.00     0.218 C 
HETATM   41  O7  UNL     1     -13.808  47.269 -24.992  1.00  0.00    -0.274 OA
HETATM   42  N2  UNL     1     -14.492  45.282 -24.085  1.00  0.00    -0.346 N 
HETATM   43  H37 UNL     1     -14.816  44.853 -23.227  1.00  0.00     0.163 HD
BRANCH  42  44
HETATM   44  C27 UNL     1     -15.008  44.740 -25.347  1.00  0.00     0.186 C 
BRANCH  44  45
HETATM   45  C28 UNL     1     -15.834  45.754 -26.162  1.00  0.00     0.074 C 
BRANCH  45  46
HETATM   46  C29 UNL     1     -17.271  45.855 -25.693  1.00  0.00    -0.056 A 
HETATM   47  C30 UNL     1     -17.649  46.822 -24.752  1.00  0.00     0.007 A 
HETATM   48  C31 UNL     1     -18.977  46.921 -24.336  1.00  0.00     0.001 A 
HETATM   49  C32 UNL     1     -19.937  46.054 -24.856  1.00  0.00     0.000 A 
HETATM   50  C33 UNL     1     -19.572  45.088 -25.790  1.00  0.00     0.001 A 
HETATM   51  C34 UNL     1     -18.245  44.988 -26.207  1.00  0.00     0.007 A 
ENDBRANCH  45  46
ENDBRANCH  44  45
BRANCH  44  52
HETATM   52  C35 UNL     1     -13.869  44.089 -26.148  1.00  0.00     0.163 C 
HETATM   53  O8  UNL     1     -13.055  44.675 -26.853  1.00  0.00    -0.648 OA
BRANCH  52  54
HETATM   54  O9  UNL     1     -13.751  42.758 -25.974  1.00  0.00    -0.775 OA
HETATM   55  H46 UNL     1     -13.045  42.502 -26.605  1.00  0.00     0.167 HD
ENDBRANCH  52  54
ENDBRANCH  44  52
ENDBRANCH  42  44
ENDBRANCH  39  40
ENDBRANCH  38  39
ENDBRANCH  37  38
ENDBRANCH  36  37
ENDBRANCH  35  36
ENDBRANCH  33  35
ENDBRANCH  30  31
ENDBRANCH  29  30
ENDBRANCH   1  29
TORSDOF 19
ENDMDL
MODEL 3
REMARK minimizedAffinity -8.42590046
REMARK CNNscore 0.594581366
REMARK CNNaffinity 7.40593863
REMARK  19 active torsions:
REMARK  status: ('A' for Active; 'I' for Inactive)
REMARK    1  A    between atoms: C14_15  and  O2_16 
REMARK    2  A    between atoms: C14_15  and  C15_17 
REMARK    3  A    between atoms: C15_17  and  C16_19 
REMARK    4  A    between atoms: C16_19  and  O4_20 
REMARK    5  A    between atoms: O4_20  and  C17_21 
REMARK    6  A    between atoms: C17_21  and  C18_23 
REMARK    7  A    between atoms: C18_23  and  C19_24 
REMARK    8  A    between atoms: C19_24  and  C20_25 
REMARK       I    between atoms: C20_25  and  N1_27 
REMARK    9  A    between atoms: N1_27  and  C21_28 
REMARK   10  A    between atoms: C21_28  and  C22_29 
REMARK   11  A    between atoms: C22_29  and  C23_30 
REMARK   12  A    between atoms: C23_30  and  C24_31 
REMARK   13  A    between atoms: C24_31  and  C25_32 
REMARK   14  A    between atoms: C25_32  and  C26_33 
REMARK       I    between atoms: C26_33  and  N2_35 
REMARK   15  A    between atoms: N2_35  and  C27_36 
REMARK   16  A    between atoms: C27_36  and  C28_37 
REMARK   17  A    between atoms: C27_36  and  C35_44 
REMARK   18  A    between atoms: C28_37  and  C29_38 
REMARK   19  A    between atoms: C35_44  and  O9_46 
ROOT
HETATM    1  C17 UNL     1      -0.013  51.243 -17.587  1.00  0.00     0.259 C 
HETATM    2  O5  UNL     1       0.176  52.222 -18.300  1.00  0.00    -0.265 OA
ENDROOT
BRANCH   1   3
HETATM    3  O4  UNL     1      -1.116  50.450 -17.618  1.00  0.00    -0.314 OA
BRANCH   3   4
HETATM    4  C16 UNL     1      -1.144  49.519 -18.703  1.00  0.00     0.260 C 
BRANCH   4   5
HETATM    5  C15 UNL     1      -2.546  48.953 -18.930  1.00  0.00     0.185 C 
HETATM    6  O3  UNL     1      -3.039  48.135 -18.146  1.00  0.00    -0.292 OA
BRANCH   5   7
HETATM    7  C14 UNL     1      -3.280  49.427 -20.216  1.00  0.00     0.128 C 
HETATM    8  C13 UNL     1      -3.538  50.936 -20.061  1.00  0.00     0.047 C 
HETATM    9  C12 UNL     1      -2.430  51.651 -20.845  1.00  0.00     0.009 C 
HETATM   10  C11 UNL     1      -1.543  50.557 -21.470  1.00  0.00     0.002 C 
HETATM   11  C10 UNL     1      -0.854  50.930 -22.803  1.00  0.00    -0.004 C 
HETATM   12  C36 UNL     1      -2.471  49.325 -21.551  1.00  0.00    -0.002 C 
HETATM   13  C9  UNL     1      -0.029  52.217 -22.656  1.00  0.00     0.010 C 
HETATM   14  C40 UNL     1      -1.838  51.042 -23.993  1.00  0.00     0.002 C 
HETATM   15  C8  UNL     1       0.738  52.529 -23.933  1.00  0.00     0.035 C 
HETATM   16  C7  UNL     1      -0.181  52.616 -25.127  1.00  0.00    -0.068 C 
HETATM   17  C2  UNL     1      -1.130  51.432 -25.353  1.00  0.00    -0.016 C 
HETATM   18  C6  UNL     1      -0.113  53.685 -25.941  1.00  0.00     0.053 C 
HETATM   19  C1  UNL     1      -0.303  50.262 -25.934  1.00  0.00     0.020 C 
HETATM   20  C3  UNL     1      -2.235  51.829 -26.378  1.00  0.00     0.022 C 
HETATM   21  C4  UNL     1      -1.705  52.560 -27.603  1.00  0.00     0.084 C 
HETATM   22  C5  UNL     1      -0.899  53.765 -27.193  1.00  0.00     0.149 C 
HETATM   23  O1  UNL     1      -0.818  54.770 -27.896  1.00  0.00    -0.293 OA
HETATM   24  C39 UNL     1      -2.687  49.759 -24.092  1.00  0.00     0.007 C 
HETATM   25  C38 UNL     1      -3.414  49.444 -22.783  1.00  0.00     0.013 C 
HETATM   26  C37 UNL     1      -1.686  48.003 -21.663  1.00  0.00     0.019 C 
BRANCH   7  27
HETATM   27  O2  UNL     1      -4.527  48.748 -20.337  1.00  0.00    -0.381 OA
HETATM   28  H19 UNL     1      -4.354  47.835 -20.629  1.00  0.00     0.211 HD
ENDBRANCH   7  27
ENDBRANCH   5   7
ENDBRANCH   4   5
ENDBRANCH   3   4
ENDBRANCH   1   3
BRANCH   1  29
HETATM   29  C18 UNL     1       0.953  50.749 -16.540  1.00  0.00     0.120 C 
BRANCH  29  30
HETATM   30  C19 UNL     1       1.447  51.893 -15.666  1.00  0.00     0.112 C 
BRANCH  30  31
HETATM   31  C20 UNL     1       2.121  51.335 -14.433  1.00  0.00     0.217 C 
HETATM   32  O6  UNL     1       2.242  50.127 -14.251  1.00  0.00    -0.274 OA
HETATM   33  N1  UNL     1       2.512  52.295 -13.526  1.00  0.00    -0.361 N 
HETATM   34  H26 UNL     1       2.140  53.234 -13.645  1.00  0.00     0.162 HD
BRANCH  33  35
HETATM   35  C21 UNL     1       2.972  51.930 -12.202  1.00  0.00     0.122 C 
BRANCH  35  36
HETATM   36  C22 UNL     1       2.299  52.798 -11.141  1.00  0.00     0.020 C 
BRANCH  36  37
HETATM   37  C23 UNL     1       0.773  52.806 -11.239  1.00  0.00     0.002 C 
BRANCH  37  38
HETATM   38  C24 UNL     1       0.107  54.182 -11.093  1.00  0.00     0.009 C 
BRANCH  38  39
HETATM   39  C25 UNL     1      -0.515  54.457  -9.724  1.00  0.00     0.103 C 
BRANCH  39  40
HETATM   40  C26 UNL     1       0.517  54.646  -8.628  1.00  0.00     0.218 C 
HETATM   41  O7  UNL     1       0.830  53.766  -7.834  1.00  0.00    -0.274 OA
HETATM   42  N2  UNL     1       1.048  55.916  -8.589  1.00  0.00    -0.346 N 
HETATM   43  H37 UNL     1       0.573  56.642  -9.111  1.00  0.00     0.163 HD
BRANCH  42  44
HETATM   44  C27 UNL     1       1.941  56.339  -7.505  1.00  0.00     0.186 C 
BRANCH  44  45
HETATM   45  C28 UNL     1       3.088  57.256  -7.973  1.00  0.00     0.074 C 
BRANCH  45  46
HETATM   46  C29 UNL     1       4.403  56.522  -8.127  1.00  0.00    -0.056 A 
HETATM   47  C30 UNL     1       5.418  56.666  -7.171  1.00  0.00     0.007 A 
HETATM   48  C31 UNL     1       6.621  55.973  -7.309  1.00  0.00     0.001 A 
HETATM   49  C32 UNL     1       6.820  55.132  -8.403  1.00  0.00     0.000 A 
HETATM   50  C33 UNL     1       5.819  54.983  -9.359  1.00  0.00     0.001 A 
HETATM   51  C34 UNL     1       4.616  55.675  -9.223  1.00  0.00     0.007 A 
ENDBRANCH  45  46
ENDBRANCH  44  45
BRANCH  44  52
HETATM   52  C35 UNL     1       1.122  56.922  -6.342  1.00  0.00     0.163 C 
HETATM   53  O8  UNL     1      -0.089  56.821  -6.190  1.00  0.00    -0.648 OA
BRANCH  52  54
HETATM   54  O9  UNL     1       1.856  57.531  -5.390  1.00  0.00    -0.775 OA
HETATM   55  H46 UNL     1       1.185  57.905  -4.781  1.00  0.00     0.167 HD
ENDBRANCH  52  54
ENDBRANCH  44  52
ENDBRANCH  42  44
ENDBRANCH  39  40
ENDBRANCH  38  39
ENDBRANCH  37  38
ENDBRANCH  36  37
ENDBRANCH  35  36
ENDBRANCH  33  35
ENDBRANCH  30  31
ENDBRANCH  29  30
ENDBRANCH   1  29
TORSDOF 19
ENDMDL
MODEL 4
REMARK minimizedAffinity -8.89447975
REMARK CNNscore 0.530448854
REMARK CNNaffinity 7.56814528
REMARK  19 active torsions:
REMARK  status: ('A' for Active; 'I' for Inactive)
REMARK    1  A    between atoms: C14_15  and  O2_16 
REMARK    2  A    between atoms: C14_15  and  C15_17 
REMARK    3  A    between atoms: C15_17  and  C16_19 
REMARK    4  A    between atoms: C16_19  and  O4_20 
REMARK    5  A    between atoms: O4_20  and  C17_21 
REMARK    6  A    between atoms: C17_21  and  C18_23 
REMARK    7  A    between atoms: C18_23  and  C19_24 
REMARK    8  A    between atoms: C19_24  and  C20_25 
REMARK       I    between atoms: C20_25  and  N1_27 
REMARK    9  A    between atoms: N1_27  and  C21_28 
REMARK   10  A    between atoms: C21_28  and  C22_29 
REMARK   11  A    between atoms: C22_29  and  C23_30 
REMARK   12  A    between atoms: C23_30  and  C24_31 
REMARK   13  A    between atoms: C24_31  and  C25_32 
REMARK   14  A    between atoms: C25_32  and  C26_33 
REMARK       I    between atoms: C26_33  and  N2_35 
REMARK   15  A    between atoms: N2_35  and  C27_36 
REMARK   16  A    between atoms: C27_36  and  C28_37 
REMARK   17  A    between atoms: C27_36  and  C35_44 
REMARK   18  A    between atoms: C28_37  and  C29_38 
REMARK   19  A    between atoms: C35_44  and  O9_46 
ROOT
HETATM    1  C17 UNL     1       1.127  53.764 -22.939  1.00  0.00     0.259 C 
HETATM    2  O5  UNL     1       1.427  54.952 -22.896  1.00  0.00    -0.265 OA
ENDROOT
BRANCH   1   3
HETATM    3  O4  UNL     1       1.011  53.022 -24.071  1.00  0.00    -0.314 OA
BRANCH   3   4
HETATM    4  C16 UNL     1      -0.166  53.293 -24.836  1.00  0.00     0.260 C 
BRANCH   4   5
HETATM    5  C15 UNL     1      -0.629  52.064 -25.620  1.00  0.00     0.185 C 
HETATM    6  O3  UNL     1       0.183  51.318 -26.177  1.00  0.00    -0.292 OA
BRANCH   5   7
HETATM    7  C14 UNL     1      -2.166  51.845 -25.712  1.00  0.00     0.128 C 
HETATM    8  C13 UNL     1      -2.392  50.528 -26.474  1.00  0.00     0.047 C 
HETATM    9  C12 UNL     1      -2.649  49.448 -25.415  1.00  0.00     0.009 C 
HETATM   10  C11 UNL     1      -2.592  50.143 -24.041  1.00  0.00     0.002 C 
HETATM   11  C10 UNL     1      -3.470  49.517 -22.933  1.00  0.00    -0.004 C 
HETATM   12  C36 UNL     1      -2.914  51.621 -24.356  1.00  0.00    -0.002 C 
HETATM   13  C9  UNL     1      -3.149  48.027 -22.751  1.00  0.00     0.010 C 
HETATM   14  C40 UNL     1      -4.987  49.727 -23.160  1.00  0.00     0.002 C 
HETATM   15  C8  UNL     1      -3.931  47.431 -21.590  1.00  0.00     0.035 C 
HETATM   16  C7  UNL     1      -5.417  47.642 -21.755  1.00  0.00    -0.068 C 
HETATM   17  C2  UNL     1      -5.882  49.077 -22.029  1.00  0.00    -0.016 C 
HETATM   18  C6  UNL     1      -6.254  46.596 -21.628  1.00  0.00     0.053 C 
HETATM   19  C1  UNL     1      -5.804  49.866 -20.701  1.00  0.00     0.020 C 
HETATM   20  C3  UNL     1      -7.359  49.067 -22.526  1.00  0.00     0.022 C 
HETATM   21  C4  UNL     1      -8.277  48.165 -21.714  1.00  0.00     0.084 C 
HETATM   22  C5  UNL     1      -7.724  46.765 -21.654  1.00  0.00     0.149 C 
HETATM   23  O1  UNL     1      -8.449  45.778 -21.553  1.00  0.00    -0.293 OA
HETATM   24  C39 UNL     1      -5.280  51.224 -23.387  1.00  0.00     0.007 C 
HETATM   25  C38 UNL     1      -4.449  51.808 -24.531  1.00  0.00     0.013 C 
HETATM   26  C37 UNL     1      -2.428  52.578 -23.251  1.00  0.00     0.019 C 
BRANCH   7  27
HETATM   27  O2  UNL     1      -2.763  52.916 -26.439  1.00  0.00    -0.381 OA
HETATM   28  H19 UNL     1      -2.789  53.701 -25.863  1.00  0.00     0.211 HD
ENDBRANCH   7  27
ENDBRANCH   5   7
ENDBRANCH   4   5
ENDBRANCH   3   4
ENDBRANCH   1   3
BRANCH   1  29
HETATM   29  C18 UNL     1       0.825  52.915 -21.729  1.00  0.00     0.120 C 
BRANCH  29  30
HETATM   30  C19 UNL     1       0.915  53.733 -20.449  1.00  0.00     0.112 C 
BRANCH  30  31
HETATM   31  C20 UNL     1       0.657  52.838 -19.257  1.00  0.00     0.217 C 
HETATM   32  O6  UNL     1      -0.302  52.073 -19.216  1.00  0.00    -0.274 OA
HETATM   33  N1  UNL     1       1.544  53.018 -18.220  1.00  0.00    -0.361 N 
HETATM   34  H26 UNL     1       2.136  53.846 -18.244  1.00  0.00     0.162 HD
BRANCH  33  35
HETATM   35  C21 UNL     1       1.318  52.407 -16.926  1.00  0.00     0.122 C 
BRANCH  35  36
HETATM   36  C22 UNL     1       2.635  52.235 -16.174  1.00  0.00     0.020 C 
BRANCH  36  37
HETATM   37  C23 UNL     1       2.452  51.892 -14.695  1.00  0.00     0.002 C 
BRANCH  37  38
HETATM   38  C24 UNL     1       1.441  50.776 -14.394  1.00  0.00     0.009 C 
BRANCH  38  39
HETATM   39  C25 UNL     1       1.121  50.577 -12.912  1.00  0.00     0.103 C 
BRANCH  39  40
HETATM   40  C26 UNL     1       0.480  51.793 -12.273  1.00  0.00     0.218 C 
HETATM   41  O7  UNL     1      -0.131  52.648 -12.904  1.00  0.00    -0.274 OA
HETATM   42  N2  UNL     1       0.678  51.865 -10.912  1.00  0.00    -0.346 N 
HETATM   43  H37 UNL     1       1.384  51.263 -10.506  1.00  0.00     0.163 HD
BRANCH  42  44
HETATM   44  C27 UNL     1       0.272  53.045 -10.140  1.00  0.00     0.186 C 
BRANCH  44  45
HETATM   45  C28 UNL     1       0.561  54.379 -10.855  1.00  0.00     0.074 C 
BRANCH  45  46
HETATM   46  C29 UNL     1       1.603  55.215 -10.142  1.00  0.00    -0.056 A 
HETATM   47  C30 UNL     1       1.458  55.530  -8.784  1.00  0.00     0.007 A 
HETATM   48  C31 UNL     1       2.430  56.286  -8.127  1.00  0.00     0.001 A 
HETATM   49  C32 UNL     1       3.553  56.733  -8.821  1.00  0.00     0.000 A 
HETATM   50  C33 UNL     1       3.705  56.427 -10.171  1.00  0.00     0.001 A 
HETATM   51  C34 UNL     1       2.735  55.672 -10.829  1.00  0.00     0.007 A 
ENDBRANCH  45  46
ENDBRANCH  44  45
BRANCH  44  52
HETATM   52  C35 UNL     1      -1.186  52.897  -9.678  1.00  0.00     0.163 C 
HETATM   53  O8  UNL     1      -2.091  52.356 -10.301  1.00  0.00    -0.648 OA
BRANCH  52  54
HETATM   54  O9  UNL     1      -1.429  53.360  -8.435  1.00  0.00    -0.775 OA
HETATM   55  H46 UNL     1      -2.400  53.264  -8.336  1.00  0.00     0.167 HD
ENDBRANCH  52  54
ENDBRANCH  44  52
ENDBRANCH  42  44
ENDBRANCH  39  40
ENDBRANCH  38  39
ENDBRANCH  37  38
ENDBRANCH  36  37
ENDBRANCH  35  36
ENDBRANCH  33  35
ENDBRANCH  30  31
ENDBRANCH  29  30
ENDBRANCH   1  29
TORSDOF 19
ENDMDL
MODEL 5
REMARK minimizedAffinity -9.03651237
REMARK CNNscore 0.47365728
REMARK CNNaffinity 6.84975433
REMARK  19 active torsions:
REMARK  status: ('A' for Active; 'I' for Inactive)
REMARK    1  A    between atoms: C14_15  and  O2_16 
REMARK    2  A    between atoms: C14_15  and  C15_17 
REMARK    3  A    between atoms: C15_17  and  C16_19 
REMARK    4  A    between atoms: C16_19  and  O4_20 
REMARK    5  A    between atoms: O4_20  and  C17_21 
REMARK    6  A    between atoms: C17_21  and  C18_23 
REMARK    7  A    between atoms: C18_23  and  C19_24 
REMARK    8  A    between atoms: C19_24  and  C20_25 
REMARK       I    between atoms: C20_25  and  N1_27 
REMARK    9  A    between atoms: N1_27  and  C21_28 
REMARK   10  A    between atoms: C21_28  and  C22_29 
REMARK   11  A    between atoms: C22_29  and  C23_30 
REMARK   12  A    between atoms: C23_30  and  C24_31 
REMARK   13  A    between atoms: C24_31  and  C25_32 
REMARK   14  A    between atoms: C25_32  and  C26_33 
REMARK       I    between atoms: C26_33  and  N2_35 
REMARK   15  A    between atoms: N2_35  and  C27_36 
REMARK   16  A    between atoms: C27_36  and  C28_37 
REMARK   17  A    between atoms: C27_36  and  C35_44 
REMARK   18  A    between atoms: C28_37  and  C29_38 
REMARK   19  A    between atoms: C35_44  and  O9_46 
ROOT
HETATM    1  C17 UNL     1      -2.938  50.695 -17.300  1.00  0.00     0.259 C 
HETATM    2  O5  UNL     1      -2.669  51.671 -17.991  1.00  0.00    -0.265 OA
ENDROOT
BRANCH   1   3
HETATM    3  O4  UNL     1      -3.301  49.474 -17.772  1.00  0.00    -0.314 OA
BRANCH   3   4
HETATM    4  C16 UNL     1      -2.784  49.164 -19.068  1.00  0.00     0.260 C 
BRANCH   4   5
HETATM    5  C15 UNL     1      -3.808  48.417 -19.924  1.00  0.00     0.185 C 
HETATM    6  O3  UNL     1      -4.257  47.322 -19.572  1.00  0.00    -0.292 OA
BRANCH   5   7
HETATM    7  C14 UNL     1      -4.203  49.090 -21.269  1.00  0.00     0.128 C 
HETATM    8  C13 UNL     1      -4.492  50.571 -20.967  1.00  0.00     0.047 C 
HETATM    9  C12 UNL     1      -3.225  51.350 -21.347  1.00  0.00     0.009 C 
HETATM   10  C11 UNL     1      -2.211  50.324 -21.886  1.00  0.00     0.002 C 
HETATM   11  C10 UNL     1      -1.215  50.854 -22.943  1.00  0.00    -0.004 C 
HETATM   12  C36 UNL     1      -3.089  49.147 -22.366  1.00  0.00    -0.002 C 
HETATM   13  C9  UNL     1      -0.453  52.079 -22.417  1.00  0.00     0.010 C 
HETATM   14  C40 UNL     1      -1.876  51.164 -24.309  1.00  0.00     0.002 C 
HETATM   15  C8  UNL     1       0.605  52.539 -23.410  1.00  0.00     0.035 C 
HETATM   16  C7  UNL     1       0.008  52.823 -24.767  1.00  0.00    -0.068 C 
HETATM   17  C2  UNL     1      -0.855  51.715 -25.384  1.00  0.00    -0.016 C 
HETATM   18  C6  UNL     1       0.274  53.992 -25.377  1.00  0.00     0.053 C 
HETATM   19  C1  UNL     1       0.091  50.609 -25.907  1.00  0.00     0.020 C 
HETATM   20  C3  UNL     1      -1.673  52.289 -26.580  1.00  0.00     0.022 C 
HETATM   21  C4  UNL     1      -0.858  53.164 -27.521  1.00  0.00     0.084 C 
HETATM   22  C5  UNL     1      -0.179  54.272 -26.759  1.00  0.00     0.149 C 
HETATM   23  O1  UNL     1       0.071  55.361 -27.269  1.00  0.00    -0.293 OA
HETATM   24  C39 UNL     1      -2.673  49.938 -24.795  1.00  0.00     0.007 C 
HETATM   25  C38 UNL     1      -3.699  49.469 -23.761  1.00  0.00     0.013 C 
HETATM   26  C37 UNL     1      -2.300  47.828 -22.472  1.00  0.00     0.019 C 
BRANCH   7  27
HETATM   27  O2  UNL     1      -5.381  48.478 -21.786  1.00  0.00    -0.381 OA
HETATM   28  H19 UNL     1      -5.140  47.609 -22.155  1.00  0.00     0.211 HD
ENDBRANCH   7  27
ENDBRANCH   5   7
ENDBRANCH   4   5
ENDBRANCH   3   4
ENDBRANCH   1   3
BRANCH   1  29
HETATM   29  C18 UNL     1      -2.918  50.685 -15.792  1.00  0.00     0.120 C 
BRANCH  29  30
HETATM   30  C19 UNL     1      -1.492  50.741 -15.263  1.00  0.00     0.112 C 
BRANCH  30  31
HETATM   31  C20 UNL     1      -1.456  51.558 -13.990  1.00  0.00     0.217 C 
HETATM   32  O6  UNL     1      -0.466  52.205 -13.663  1.00  0.00    -0.274 OA
HETATM   33  N1  UNL     1      -2.593  51.447 -13.221  1.00  0.00    -0.361 N 
HETATM   34  H26 UNL     1      -3.241  50.694 -13.445  1.00  0.00     0.162 HD
BRANCH  33  35
HETATM   35  C21 UNL     1      -2.643  51.982 -11.877  1.00  0.00     0.122 C 
BRANCH  35  36
HETATM   36  C22 UNL     1      -3.873  52.867 -11.695  1.00  0.00     0.020 C 
BRANCH  36  37
HETATM   37  C23 UNL     1      -3.704  53.930 -10.609  1.00  0.00     0.002 C 
BRANCH  37  38
HETATM   38  C24 UNL     1      -2.317  53.991  -9.952  1.00  0.00     0.009 C 
BRANCH  38  39
HETATM   39  C25 UNL     1      -1.553  55.296 -10.176  1.00  0.00     0.103 C 
BRANCH  39  40
HETATM   40  C26 UNL     1      -0.707  55.703  -8.985  1.00  0.00     0.218 C 
HETATM   41  O7  UNL     1      -0.829  56.776  -8.403  1.00  0.00    -0.274 OA
HETATM   42  N2  UNL     1       0.237  54.764  -8.637  1.00  0.00    -0.346 N 
HETATM   43  H37 UNL     1       0.435  54.026  -9.301  1.00  0.00     0.163 HD
BRANCH  42  44
HETATM   44  C27 UNL     1       1.252  55.041  -7.615  1.00  0.00     0.186 C 
BRANCH  44  45
HETATM   45  C28 UNL     1       2.134  56.264  -7.935  1.00  0.00     0.074 C 
BRANCH  45  46
HETATM   46  C29 UNL     1       3.447  55.887  -8.587  1.00  0.00    -0.056 A 
HETATM   47  C30 UNL     1       4.553  55.523  -7.807  1.00  0.00     0.007 A 
HETATM   48  C31 UNL     1       5.756  55.159  -8.414  1.00  0.00     0.001 A 
HETATM   49  C32 UNL     1       5.864  55.158  -9.804  1.00  0.00     0.000 A 
HETATM   50  C33 UNL     1       4.771  55.519 -10.588  1.00  0.00     0.001 A 
HETATM   51  C34 UNL     1       3.568  55.883  -9.983  1.00  0.00     0.007 A 
ENDBRANCH  45  46
ENDBRANCH  44  45
BRANCH  44  52
HETATM   52  C35 UNL     1       0.599  55.101  -6.224  1.00  0.00     0.163 C 
HETATM   53  O8  UNL     1      -0.388  54.472  -5.863  1.00  0.00    -0.648 OA
BRANCH  52  54
HETATM   54  O9  UNL     1       1.248  55.877  -5.333  1.00  0.00    -0.775 OA
HETATM   55  H46 UNL     1       0.664  55.865  -4.545  1.00  0.00     0.167 HD
ENDBRANCH  52  54
ENDBRANCH  44  52
ENDBRANCH  42  44
ENDBRANCH  39  40
ENDBRANCH  38  39
ENDBRANCH  37  38
ENDBRANCH  36  37
ENDBRANCH  35  36
ENDBRANCH  33  35
ENDBRANCH  30  31
ENDBRANCH  29  30
ENDBRANCH   1  29
TORSDOF 19
ENDMDL
MODEL 6
REMARK minimizedAffinity -8.69205189
REMARK CNNscore 0.45913583
REMARK CNNaffinity 6.96349144
REMARK  19 active torsions:
REMARK  status: ('A' for Active; 'I' for Inactive)
REMARK    1  A    between atoms: C14_15  and  O2_16 
REMARK    2  A    between atoms: C14_15  and  C15_17 
REMARK    3  A    between atoms: C15_17  and  C16_19 
REMARK    4  A    between atoms: C16_19  and  O4_20 
REMARK    5  A    between atoms: O4_20  and  C17_21 
REMARK    6  A    between atoms: C17_21  and  C18_23 
REMARK    7  A    between atoms: C18_23  and  C19_24 
REMARK    8  A    between atoms: C19_24  and  C20_25 
REMARK       I    between atoms: C20_25  and  N1_27 
REMARK    9  A    between atoms: N1_27  and  C21_28 
REMARK   10  A    between atoms: C21_28  and  C22_29 
REMARK   11  A    between atoms: C22_29  and  C23_30 
REMARK   12  A    between atoms: C23_30  and  C24_31 
REMARK   13  A    between atoms: C24_31  and  C25_32 
REMARK   14  A    between atoms: C25_32  and  C26_33 
REMARK       I    between atoms: C26_33  and  N2_35 
REMARK   15  A    between atoms: N2_35  and  C27_36 
REMARK   16  A    between atoms: C27_36  and  C28_37 
REMARK   17  A    between atoms: C27_36  and  C35_44 
REMARK   18  A    between atoms: C28_37  and  C29_38 
REMARK   19  A    between atoms: C35_44  and  O9_46 
ROOT
HETATM    1  C17 UNL     1      -0.070  49.313 -14.435  1.00  0.00     0.259 C 
HETATM    2  O5  UNL     1       0.963  48.652 -14.424  1.00  0.00    -0.265 OA
ENDROOT
BRANCH   1   3
HETATM    3  O4  UNL     1      -0.394  50.251 -15.363  1.00  0.00    -0.314 OA
BRANCH   3   4
HETATM    4  C16 UNL     1       0.034  49.940 -16.691  1.00  0.00     0.260 C 
BRANCH   4   5
HETATM    5  C15 UNL     1       0.256  51.201 -17.526  1.00  0.00     0.185 C 
HETATM    6  O3  UNL     1       1.315  51.833 -17.459  1.00  0.00    -0.292 OA
BRANCH   5   7
HETATM    7  C14 UNL     1      -0.935  51.658 -18.414  1.00  0.00     0.128 C 
HETATM    8  C13 UNL     1      -0.683  53.128 -18.792  1.00  0.00     0.047 C 
HETATM    9  C12 UNL     1      -0.082  53.120 -20.203  1.00  0.00     0.009 C 
HETATM   10  C11 UNL     1      -0.005  51.648 -20.652  1.00  0.00     0.002 C 
HETATM   11  C10 UNL     1      -0.128  51.401 -22.173  1.00  0.00    -0.004 C 
HETATM   12  C36 UNL     1      -1.080  50.941 -19.798  1.00  0.00    -0.002 C 
HETATM   13  C9  UNL     1       0.918  52.214 -22.950  1.00  0.00     0.010 C 
HETATM   14  C40 UNL     1      -1.550  51.666 -22.725  1.00  0.00     0.002 C 
HETATM   15  C8  UNL     1       0.873  51.892 -24.436  1.00  0.00     0.035 C 
HETATM   16  C7  UNL     1      -0.506  52.106 -25.011  1.00  0.00    -0.068 C 
HETATM   17  C2  UNL     1      -1.669  51.420 -24.283  1.00  0.00    -0.016 C 
HETATM   18  C6  UNL     1      -0.654  52.846 -26.125  1.00  0.00     0.053 C 
HETATM   19  C1  UNL     1      -1.633  49.916 -24.639  1.00  0.00     0.020 C 
HETATM   20  C3  UNL     1      -3.023  52.022 -24.766  1.00  0.00     0.022 C 
HETATM   21  C4  UNL     1      -3.123  52.180 -26.277  1.00  0.00     0.084 C 
HETATM   22  C5  UNL     1      -1.963  52.985 -26.803  1.00  0.00     0.149 C 
HETATM   23  O1  UNL     1      -2.053  53.686 -27.808  1.00  0.00    -0.293 OA
HETATM   24  C39 UNL     1      -2.587  50.877 -21.901  1.00  0.00     0.007 C 
HETATM   25  C38 UNL     1      -2.492  51.186 -20.405  1.00  0.00     0.013 C 
HETATM   26  C37 UNL     1      -0.849  49.421 -19.699  1.00  0.00     0.019 C 
BRANCH   7  27
HETATM   27  O2  UNL     1      -2.150  51.565 -17.676  1.00  0.00    -0.381 OA
HETATM   28  H19 UNL     1      -2.402  50.626 -17.614  1.00  0.00     0.211 HD
ENDBRANCH   7  27
ENDBRANCH   5   7
ENDBRANCH   4   5
ENDBRANCH   3   4
ENDBRANCH   1   3
BRANCH   1  29
HETATM   29  C18 UNL     1      -1.166  49.200 -13.405  1.00  0.00     0.120 C 
BRANCH  29  30
HETATM   30  C19 UNL     1      -2.421  49.932 -13.858  1.00  0.00     0.112 C 
BRANCH  30  31
HETATM   31  C20 UNL     1      -3.236  50.336 -12.649  1.00  0.00     0.217 C 
HETATM   32  O6  UNL     1      -3.966  49.541 -12.064  1.00  0.00    -0.274 OA
HETATM   33  N1  UNL     1      -3.132  51.670 -12.325  1.00  0.00    -0.361 N 
HETATM   34  H26 UNL     1      -2.715  52.291 -13.016  1.00  0.00     0.162 HD
BRANCH  33  35
HETATM   35  C21 UNL     1      -4.006  52.272 -11.340  1.00  0.00     0.122 C 
BRANCH  35  36
HETATM   36  C22 UNL     1      -3.626  53.731 -11.103  1.00  0.00     0.020 C 
BRANCH  36  37
HETATM   37  C23 UNL     1      -2.553  53.915 -10.029  1.00  0.00     0.002 C 
BRANCH  37  38
HETATM   38  C24 UNL     1      -1.644  55.141 -10.203  1.00  0.00     0.009 C 
BRANCH  38  39
HETATM   39  C25 UNL     1      -0.168  54.822 -10.441  1.00  0.00     0.103 C 
BRANCH  39  40
HETATM   40  C26 UNL     1       0.648  54.786  -9.164  1.00  0.00     0.218 C 
HETATM   41  O7  UNL     1       0.728  53.801  -8.438  1.00  0.00    -0.274 OA
HETATM   42  N2  UNL     1       1.269  55.981  -8.876  1.00  0.00    -0.346 N 
HETATM   43  H37 UNL     1       0.966  56.804  -9.383  1.00  0.00     0.163 HD
BRANCH  42  44
HETATM   44  C27 UNL     1       1.972  56.193  -7.606  1.00  0.00     0.186 C 
BRANCH  44  45
HETATM   45  C28 UNL     1       3.230  57.074  -7.737  1.00  0.00     0.074 C 
BRANCH  45  46
HETATM   46  C29 UNL     1       4.445  56.298  -8.200  1.00  0.00    -0.056 A 
HETATM   47  C30 UNL     1       4.420  55.586  -9.407  1.00  0.00     0.007 A 
HETATM   48  C31 UNL     1       5.548  54.887  -9.838  1.00  0.00     0.001 A 
HETATM   49  C32 UNL     1       6.710  54.894  -9.067  1.00  0.00     0.000 A 
HETATM   50  C33 UNL     1       6.744  55.598  -7.865  1.00  0.00     0.001 A 
HETATM   51  C34 UNL     1       5.618  56.297  -7.433  1.00  0.00     0.007 A 
ENDBRANCH  45  46
ENDBRANCH  44  45
BRANCH  44  52
HETATM   52  C35 UNL     1       0.987  56.681  -6.532  1.00  0.00     0.163 C 
HETATM   53  O8  UNL     1       1.245  57.445  -5.610  1.00  0.00    -0.648 OA
BRANCH  52  54
HETATM   54  O9  UNL     1      -0.281  56.258  -6.701  1.00  0.00    -0.775 OA
HETATM   55  H46 UNL     1      -0.746  56.588  -5.902  1.00  0.00     0.167 HD
ENDBRANCH  52  54
ENDBRANCH  44  52
ENDBRANCH  42  44
ENDBRANCH  39  40
ENDBRANCH  38  39
ENDBRANCH  37  38
ENDBRANCH  36  37
ENDBRANCH  35  36
ENDBRANCH  33  35
ENDBRANCH  30  31
ENDBRANCH  29  30
ENDBRANCH   1  29
TORSDOF 19
ENDMDL
MODEL 7
REMARK minimizedAffinity -8.22992611
REMARK CNNscore 0.445759803
REMARK CNNaffinity 6.31101942
REMARK  19 active torsions:
REMARK  status: ('A' for Active; 'I' for Inactive)
REMARK    1  A    between atoms: C14_15  and  O2_16 
REMARK    2  A    between atoms: C14_15  and  C15_17 
REMARK    3  A    between atoms: C15_17  and  C16_19 
REMARK    4  A    between atoms: C16_19  and  O4_20 
REMARK    5  A    between atoms: O4_20  and  C17_21 
REMARK    6  A    between atoms: C17_21  and  C18_23 
REMARK    7  A    between atoms: C18_23  and  C19_24 
REMARK    8  A    between atoms: C19_24  and  C20_25 
REMARK       I    between atoms: C20_25  and  N1_27 
REMARK    9  A    between atoms: N1_27  and  C21_28 
REMARK   10  A    between atoms: C21_28  and  C22_29 
REMARK   11  A    between atoms: C22_29  and  C23_30 
REMARK   12  A    between atoms: C23_30  and  C24_31 
REMARK   13  A    between atoms: C24_31  and  C25_32 
REMARK   14  A    between atoms: C25_32  and  C26_33 
REMARK       I    between atoms: C26_33  and  N2_35 
REMARK   15  A    between atoms: N2_35  and  C27_36 
REMARK   16  A    between atoms: C27_36  and  C28_37 
REMARK   17  A    between atoms: C27_36  and  C35_44 
REMARK   18  A    between atoms: C28_37  and  C29_38 
REMARK   19  A    between atoms: C35_44  and  O9_46 
ROOT
HETATM    1  C17 UNL     1      -9.931  46.670 -19.838  1.00  0.00     0.259 C 
HETATM    2  O5  UNL     1      -9.463  45.537 -19.794  1.00  0.00    -0.265 OA
ENDROOT
BRANCH   1   3
HETATM    3  O4  UNL     1      -9.206  47.818 -19.879  1.00  0.00    -0.314 OA
BRANCH   3   4
HETATM    4  C16 UNL     1      -8.570  48.070 -21.134  1.00  0.00     0.260 C 
BRANCH   4   5
HETATM    5  C15 UNL     1      -7.090  47.687 -21.108  1.00  0.00     0.185 C 
HETATM    6  O3  UNL     1      -6.671  46.807 -20.349  1.00  0.00    -0.292 OA
BRANCH   5   7
HETATM    7  C14 UNL     1      -6.152  48.497 -22.047  1.00  0.00     0.128 C 
HETATM    8  C13 UNL     1      -6.541  49.979 -21.908  1.00  0.00     0.047 C 
HETATM    9  C12 UNL     1      -5.536  50.605 -20.932  1.00  0.00     0.009 C 
HETATM   10  C11 UNL     1      -4.553  49.492 -20.521  1.00  0.00     0.002 C 
HETATM   11  C10 UNL     1      -3.122  49.955 -20.166  1.00  0.00    -0.004 C 
HETATM   12  C36 UNL     1      -4.630  48.479 -21.686  1.00  0.00    -0.002 C 
HETATM   13  C9  UNL     1      -3.146  51.028 -19.068  1.00  0.00     0.010 C 
HETATM   14  C40 UNL     1      -2.313  50.444 -21.392  1.00  0.00     0.002 C 
HETATM   15  C8  UNL     1      -1.737  51.409 -18.638  1.00  0.00     0.035 C 
HETATM   16  C7  UNL     1      -0.901  51.862 -19.810  1.00  0.00    -0.068 C 
HETATM   17  C2  UNL     1      -0.852  50.925 -21.023  1.00  0.00    -0.016 C 
HETATM   18  C6  UNL     1      -0.227  53.024 -19.735  1.00  0.00     0.053 C 
HETATM   19  C1  UNL     1       0.079  49.741 -20.673  1.00  0.00     0.020 C 
HETATM   20  C3  UNL     1      -0.266  51.683 -22.252  1.00  0.00     0.022 C 
HETATM   21  C4  UNL     1       0.976  52.504 -21.935  1.00  0.00     0.084 C 
HETATM   22  C5  UNL     1       0.706  53.456 -20.800  1.00  0.00     0.149 C 
HETATM   23  O1  UNL     1       1.286  54.535 -20.696  1.00  0.00    -0.293 OA
HETATM   24  C39 UNL     1      -2.341  49.371 -22.499  1.00  0.00     0.007 C 
HETATM   25  C38 UNL     1      -3.768  48.974 -22.883  1.00  0.00     0.013 C 
HETATM   26  C37 UNL     1      -4.139  47.076 -21.279  1.00  0.00     0.019 C 
BRANCH   7  27
HETATM   27  O2  UNL     1      -6.348  48.085 -23.397  1.00  0.00    -0.381 OA
HETATM   28  H19 UNL     1      -5.920  47.219 -23.520  1.00  0.00     0.211 HD
ENDBRANCH   7  27
ENDBRANCH   5   7
ENDBRANCH   4   5
ENDBRANCH   3   4
ENDBRANCH   1   3
BRANCH   1  29
HETATM   29  C18 UNL     1     -11.405  46.985 -19.848  1.00  0.00     0.120 C 
BRANCH  29  30
HETATM   30  C19 UNL     1     -11.749  48.034 -18.801  1.00  0.00     0.112 C 
BRANCH  30  31
HETATM   31  C20 UNL     1     -13.069  47.685 -18.149  1.00  0.00     0.217 C 
HETATM   32  O6  UNL     1     -13.185  47.590 -16.931  1.00  0.00    -0.274 OA
HETATM   33  N1  UNL     1     -14.083  47.424 -19.043  1.00  0.00    -0.361 N 
HETATM   34  H26 UNL     1     -13.826  47.275 -20.017  1.00  0.00     0.162 HD
BRANCH  33  35
HETATM   35  C21 UNL     1     -15.344  46.865 -18.602  1.00  0.00     0.122 C 
BRANCH  35  36
HETATM   36  C22 UNL     1     -16.471  47.881 -18.771  1.00  0.00     0.020 C 
BRANCH  36  37
HETATM   37  C23 UNL     1     -17.741  47.287 -19.383  1.00  0.00     0.002 C 
BRANCH  37  38
HETATM   38  C24 UNL     1     -17.518  46.243 -20.487  1.00  0.00     0.009 C 
BRANCH  38  39
HETATM   39  C25 UNL     1     -18.796  45.667 -21.098  1.00  0.00     0.103 C 
BRANCH  39  40
HETATM   40  C26 UNL     1     -18.663  45.360 -22.577  1.00  0.00     0.218 C 
HETATM   41  O7  UNL     1     -18.961  44.279 -23.074  1.00  0.00    -0.274 OA
HETATM   42  N2  UNL     1     -18.144  46.404 -23.309  1.00  0.00    -0.346 N 
HETATM   43  H37 UNL     1     -17.705  47.162 -22.802  1.00  0.00     0.163 HD
BRANCH  42  44
HETATM   44  C27 UNL     1     -17.793  46.247 -24.724  1.00  0.00     0.186 C 
BRANCH  44  45
HETATM   45  C28 UNL     1     -16.734  45.157 -24.981  1.00  0.00     0.074 C 
BRANCH  45  46
HETATM   46  C29 UNL     1     -15.682  45.583 -25.983  1.00  0.00    -0.056 A 
HETATM   47  C30 UNL     1     -15.580  44.944 -27.226  1.00  0.00     0.007 A 
HETATM   48  C31 UNL     1     -14.620  45.352 -28.153  1.00  0.00     0.001 A 
HETATM   49  C32 UNL     1     -13.756  46.401 -27.846  1.00  0.00     0.000 A 
HETATM   50  C33 UNL     1     -13.848  47.042 -26.613  1.00  0.00     0.001 A 
HETATM   51  C34 UNL     1     -14.806  46.636 -25.685  1.00  0.00     0.007 A 
ENDBRANCH  45  46
ENDBRANCH  44  45
BRANCH  44  52
HETATM   52  C35 UNL     1     -19.067  46.078 -25.569  1.00  0.00     0.163 C 
HETATM   53  O8  UNL     1     -19.152  45.483 -26.637  1.00  0.00    -0.648 OA
BRANCH  52  54
HETATM   54  O9  UNL     1     -20.182  46.587 -25.009  1.00  0.00    -0.775 OA
HETATM   55  H46 UNL     1     -20.866  46.467 -25.701  1.00  0.00     0.167 HD
ENDBRANCH  52  54
ENDBRANCH  44  52
ENDBRANCH  42  44
ENDBRANCH  39  40
ENDBRANCH  38  39
ENDBRANCH  37  38
ENDBRANCH  36  37
ENDBRANCH  35  36
ENDBRANCH  33  35
ENDBRANCH  30  31
ENDBRANCH  29  30
ENDBRANCH   1  29
TORSDOF 19
ENDMDL
MODEL 8
REMARK minimizedAffinity -8.5002079
REMARK CNNscore 0.430554152
REMARK CNNaffinity 6.95840216
REMARK  19 active torsions:
REMARK  status: ('A' for Active; 'I' for Inactive)
REMARK    1  A    between atoms: C14_15  and  O2_16 
REMARK    2  A    between atoms: C14_15  and  C15_17 
REMARK    3  A    between atoms: C15_17  and  C16_19 
REMARK    4  A    between atoms: C16_19  and  O4_20 
REMARK    5  A    between atoms: O4_20  and  C17_21 
REMARK    6  A    between atoms: C17_21  and  C18_23 
REMARK    7  A    between atoms: C18_23  and  C19_24 
REMARK    8  A    between atoms: C19_24  and  C20_25 
REMARK       I    between atoms: C20_25  and  N1_27 
REMARK    9  A    between atoms: N1_27  and  C21_28 
REMARK   10  A    between atoms: C21_28  and  C22_29 
REMARK   11  A    between atoms: C22_29  and  C23_30 
REMARK   12  A    between atoms: C23_30  and  C24_31 
REMARK   13  A    between atoms: C24_31  and  C25_32 
REMARK   14  A    between atoms: C25_32  and  C26_33 
REMARK       I    between atoms: C26_33  and  N2_35 
REMARK   15  A    between atoms: N2_35  and  C27_36 
REMARK   16  A    between atoms: C27_36  and  C28_37 
REMARK   17  A    between atoms: C27_36  and  C35_44 
REMARK   18  A    between atoms: C28_37  and  C29_38 
REMARK   19  A    between atoms: C35_44  and  O9_46 
ROOT
HETATM    1  C17 UNL     1      -7.026  47.098 -20.600  1.00  0.00     0.259 C 
HETATM    2  O5  UNL     1      -7.229  46.150 -19.851  1.00  0.00    -0.265 OA
ENDROOT
BRANCH   1   3
HETATM    3  O4  UNL     1      -5.806  47.517 -21.026  1.00  0.00    -0.314 OA
BRANCH   3   4
HETATM    4  C16 UNL     1      -4.710  47.036 -20.243  1.00  0.00     0.260 C 
BRANCH   4   5
HETATM    5  C15 UNL     1      -4.188  48.104 -19.281  1.00  0.00     0.185 C 
HETATM    6  O3  UNL     1      -4.854  48.467 -18.307  1.00  0.00    -0.292 OA
BRANCH   5   7
HETATM    7  C14 UNL     1      -2.807  48.729 -19.630  1.00  0.00     0.128 C 
HETATM    8  C13 UNL     1      -1.973  47.632 -20.315  1.00  0.00     0.047 C 
HETATM    9  C12 UNL     1      -2.080  47.880 -21.825  1.00  0.00     0.009 C 
HETATM   10  C11 UNL     1      -2.960  49.130 -22.015  1.00  0.00     0.002 C 
HETATM   11  C10 UNL     1      -2.659  49.980 -23.271  1.00  0.00    -0.004 C 
HETATM   12  C36 UNL     1      -2.820  49.891 -20.677  1.00  0.00    -0.002 C 
HETATM   13  C9  UNL     1      -2.728  49.125 -24.544  1.00  0.00     0.010 C 
HETATM   14  C40 UNL     1      -1.311  50.738 -23.191  1.00  0.00     0.002 C 
HETATM   15  C8  UNL     1      -2.540  49.976 -25.791  1.00  0.00     0.035 C 
HETATM   16  C7  UNL     1      -1.250  50.759 -25.742  1.00  0.00    -0.068 C 
HETATM   17  C2  UNL     1      -1.004  51.599 -24.482  1.00  0.00    -0.016 C 
HETATM   18  C6  UNL     1      -0.406  50.714 -26.788  1.00  0.00     0.053 C 
HETATM   19  C1  UNL     1      -1.896  52.859 -24.567  1.00  0.00     0.020 C 
HETATM   20  C3  UNL     1       0.491  52.039 -24.426  1.00  0.00     0.022 C 
HETATM   21  C4  UNL     1       1.028  52.566 -25.749  1.00  0.00     0.084 C 
HETATM   22  C5  UNL     1       0.809  51.558 -26.848  1.00  0.00     0.149 C 
HETATM   23  O1  UNL     1       1.561  51.470 -27.816  1.00  0.00    -0.293 OA
HETATM   24  C39 UNL     1      -1.245  51.552 -21.884  1.00  0.00     0.007 C 
HETATM   25  C38 UNL     1      -1.480  50.681 -20.648  1.00  0.00     0.013 C 
HETATM   26  C37 UNL     1      -3.976  50.882 -20.441  1.00  0.00     0.019 C 
BRANCH   7  27
HETATM   27  O2  UNL     1      -2.149  49.142 -18.436  1.00  0.00    -0.381 OA
HETATM   28  H19 UNL     1      -2.572  49.960 -18.118  1.00  0.00     0.211 HD
ENDBRANCH   7  27
ENDBRANCH   5   7
ENDBRANCH   4   5
ENDBRANCH   3   4
ENDBRANCH   1   3
BRANCH   1  29
HETATM   29  C18 UNL     1      -8.107  47.976 -21.179  1.00  0.00     0.120 C 
BRANCH  29  30
HETATM   30  C19 UNL     1      -8.763  47.316 -22.383  1.00  0.00     0.112 C 
BRANCH  30  31
HETATM   31  C20 UNL     1     -10.054  46.653 -21.956  1.00  0.00     0.217 C 
HETATM   32  O6  UNL     1     -10.514  45.684 -22.554  1.00  0.00    -0.274 OA
HETATM   33  N1  UNL     1     -10.681  47.275 -20.900  1.00  0.00    -0.361 N 
HETATM   34  H26 UNL     1     -10.361  48.207 -20.646  1.00  0.00     0.162 HD
BRANCH  33  35
HETATM   35  C21 UNL     1     -12.025  46.909 -20.505  1.00  0.00     0.122 C 
BRANCH  35  36
HETATM   36  C22 UNL     1     -12.537  47.841 -19.410  1.00  0.00     0.020 C 
BRANCH  36  37
HETATM   37  C23 UNL     1     -12.941  47.112 -18.128  1.00  0.00     0.002 C 
BRANCH  37  38
HETATM   38  C24 UNL     1     -14.323  47.476 -17.565  1.00  0.00     0.009 C 
BRANCH  38  39
HETATM   39  C25 UNL     1     -15.312  48.030 -18.590  1.00  0.00     0.103 C 
BRANCH  39  40
HETATM   40  C26 UNL     1     -16.339  47.008 -19.040  1.00  0.00     0.218 C 
HETATM   41  O7  UNL     1     -16.128  45.800 -19.062  1.00  0.00    -0.274 OA
HETATM   42  N2  UNL     1     -17.526  47.570 -19.454  1.00  0.00    -0.346 N 
HETATM   43  H37 UNL     1     -17.539  48.566 -19.632  1.00  0.00     0.163 HD
BRANCH  42  44
HETATM   44  C27 UNL     1     -18.582  46.760 -20.071  1.00  0.00     0.186 C 
BRANCH  44  45
HETATM   45  C28 UNL     1     -18.053  45.721 -21.079  1.00  0.00     0.074 C 
BRANCH  45  46
HETATM   46  C29 UNL     1     -18.758  45.788 -22.417  1.00  0.00    -0.056 A 
HETATM   47  C30 UNL     1     -18.468  46.814 -23.326  1.00  0.00     0.007 A 
HETATM   48  C31 UNL     1     -19.109  46.861 -24.565  1.00  0.00     0.001 A 
HETATM   49  C32 UNL     1     -20.043  45.885 -24.905  1.00  0.00     0.000 A 
HETATM   50  C33 UNL     1     -20.340  44.861 -24.008  1.00  0.00     0.001 A 
HETATM   51  C34 UNL     1     -19.701  44.812 -22.770  1.00  0.00     0.007 A 
ENDBRANCH  45  46
ENDBRANCH  44  45
BRANCH  44  52
HETATM   52  C35 UNL     1     -19.489  46.158 -18.986  1.00  0.00     0.163 C 
HETATM   53  O8  UNL     1     -19.315  45.093 -18.408  1.00  0.00    -0.648 OA
BRANCH  52  54
HETATM   54  O9  UNL     1     -20.522  46.944 -18.621  1.00  0.00    -0.775 OA
HETATM   55  H46 UNL     1     -21.030  46.385 -17.995  1.00  0.00     0.167 HD
ENDBRANCH  52  54
ENDBRANCH  44  52
ENDBRANCH  42  44
ENDBRANCH  39  40
ENDBRANCH  38  39
ENDBRANCH  37  38
ENDBRANCH  36  37
ENDBRANCH  35  36
ENDBRANCH  33  35
ENDBRANCH  30  31
ENDBRANCH  29  30
ENDBRANCH   1  29
TORSDOF 19
ENDMDL
MODEL 9
REMARK minimizedAffinity -8.43764496
REMARK CNNscore 0.389012754
REMARK CNNaffinity 6.78386545
REMARK  19 active torsions:
REMARK  status: ('A' for Active; 'I' for Inactive)
REMARK    1  A    between atoms: C14_15  and  O2_16 
REMARK    2  A    between atoms: C14_15  and  C15_17 
REMARK    3  A    between atoms: C15_17  and  C16_19 
REMARK    4  A    between atoms: C16_19  and  O4_20 
REMARK    5  A    between atoms: O4_20  and  C17_21 
REMARK    6  A    between atoms: C17_21  and  C18_23 
REMARK    7  A    between atoms: C18_23  and  C19_24 
REMARK    8  A    between atoms: C19_24  and  C20_25 
REMARK       I    between atoms: C20_25  and  N1_27 
REMARK    9  A    between atoms: N1_27  and  C21_28 
REMARK   10  A    between atoms: C21_28  and  C22_29 
REMARK   11  A    between atoms: C22_29  and  C23_30 
REMARK   12  A    between atoms: C23_30  and  C24_31 
REMARK   13  A    between atoms: C24_31  and  C25_32 
REMARK   14  A    between atoms: C25_32  and  C26_33 
REMARK       I    between atoms: C26_33  and  N2_35 
REMARK   15  A    between atoms: N2_35  and  C27_36 
REMARK   16  A    between atoms: C27_36  and  C28_37 
REMARK   17  A    between atoms: C27_36  and  C35_44 
REMARK   18  A    between atoms: C28_37  and  C29_38 
REMARK   19  A    between atoms: C35_44  and  O9_46 
ROOT
HETATM    1  C17 UNL     1      -7.043  47.717 -24.527  1.00  0.00     0.259 C 
HETATM    2  O5  UNL     1      -6.174  48.087 -25.309  1.00  0.00    -0.265 OA
ENDROOT
BRANCH   1   3
HETATM    3  O4  UNL     1      -6.819  47.116 -23.330  1.00  0.00    -0.314 OA
BRANCH   3   4
HETATM    4  C16 UNL     1      -6.769  48.014 -22.218  1.00  0.00     0.260 C 
BRANCH   4   5
HETATM    5  C15 UNL     1      -5.849  47.497 -21.111  1.00  0.00     0.185 C 
HETATM    6  O3  UNL     1      -6.152  46.505 -20.441  1.00  0.00    -0.292 OA
BRANCH   5   7
HETATM    7  C14 UNL     1      -4.553  48.316 -20.854  1.00  0.00     0.128 C 
HETATM    8  C13 UNL     1      -3.363  47.376 -21.111  1.00  0.00     0.047 C 
HETATM    9  C12 UNL     1      -2.862  47.680 -22.529  1.00  0.00     0.009 C 
HETATM   10  C11 UNL     1      -3.748  48.811 -23.086  1.00  0.00     0.002 C 
HETATM   11  C10 UNL     1      -3.073  49.753 -24.108  1.00  0.00    -0.004 C 
HETATM   12  C36 UNL     1      -4.291  49.517 -21.823  1.00  0.00    -0.002 C 
HETATM   13  C9  UNL     1      -2.481  48.960 -25.281  1.00  0.00     0.010 C 
HETATM   14  C40 UNL     1      -2.004  50.679 -23.477  1.00  0.00     0.002 C 
HETATM   15  C8  UNL     1      -1.911  49.889 -26.344  1.00  0.00     0.035 C 
HETATM   16  C7  UNL     1      -0.885  50.833 -25.764  1.00  0.00    -0.068 C 
HETATM   17  C2  UNL     1      -1.310  51.636 -24.528  1.00  0.00    -0.016 C 
HETATM   18  C6  UNL     1       0.317  50.952 -26.357  1.00  0.00     0.053 C 
HETATM   19  C1  UNL     1      -2.253  52.769 -24.995  1.00  0.00     0.020 C 
HETATM   20  C3  UNL     1      -0.055  52.267 -23.853  1.00  0.00     0.022 C 
HETATM   21  C4  UNL     1       0.906  52.925 -24.833  1.00  0.00     0.084 C 
HETATM   22  C5  UNL     1       1.312  51.953 -25.909  1.00  0.00     0.149 C 
HETATM   23  O1  UNL     1       2.405  52.012 -26.469  1.00  0.00    -0.293 OA
HETATM   24  C39 UNL     1      -2.608  51.429 -22.273  1.00  0.00     0.007 C 
HETATM   25  C38 UNL     1      -3.212  50.475 -21.241  1.00  0.00     0.013 C 
HETATM   26  C37 UNL     1      -5.567  50.333 -22.107  1.00  0.00     0.019 C 
BRANCH   7  27
HETATM   27  O2  UNL     1      -4.521  48.755 -19.499  1.00  0.00    -0.381 OA
HETATM   28  H19 UNL     1      -5.149  49.492 -19.398  1.00  0.00     0.211 HD
ENDBRANCH   7  27
ENDBRANCH   5   7
ENDBRANCH   4   5
ENDBRANCH   3   4
ENDBRANCH   1   3
BRANCH   1  29
HETATM   29  C18 UNL     1      -8.524  47.863 -24.767  1.00  0.00     0.120 C 
BRANCH  29  30
HETATM   30  C19 UNL     1      -8.993  46.943 -25.884  1.00  0.00     0.112 C 
BRANCH  30  31
HETATM   31  C20 UNL     1     -10.136  47.594 -26.632  1.00  0.00     0.217 C 
HETATM   32  O6  UNL     1     -11.017  48.219 -26.051  1.00  0.00    -0.274 OA
HETATM   33  N1  UNL     1     -10.123  47.358 -27.989  1.00  0.00    -0.361 N 
HETATM   34  H26 UNL     1      -9.508  46.624 -28.333  1.00  0.00     0.162 HD
BRANCH  33  35
HETATM   35  C21 UNL     1     -11.251  47.718 -28.822  1.00  0.00     0.122 C 
BRANCH  35  36
HETATM   36  C22 UNL     1     -12.085  46.485 -29.160  1.00  0.00     0.020 C 
BRANCH  36  37
HETATM   37  C23 UNL     1     -13.571  46.648 -28.841  1.00  0.00     0.002 C 
BRANCH  37  38
HETATM   38  C24 UNL     1     -14.191  45.533 -27.984  1.00  0.00     0.009 C 
BRANCH  38  39
HETATM   39  C25 UNL     1     -15.543  45.016 -28.476  1.00  0.00     0.103 C 
BRANCH  39  40
HETATM   40  C26 UNL     1     -16.422  44.490 -27.359  1.00  0.00     0.218 C 
HETATM   41  O7  UNL     1     -16.005  43.796 -26.438  1.00  0.00    -0.274 OA
HETATM   42  N2  UNL     1     -17.747  44.841 -27.493  1.00  0.00    -0.346 N 
HETATM   43  H37 UNL     1     -18.050  45.203 -28.388  1.00  0.00     0.163 HD
BRANCH  42  44
HETATM   44  C27 UNL     1     -18.777  44.297 -26.601  1.00  0.00     0.186 C 
BRANCH  44  45
HETATM   45  C28 UNL     1     -19.633  45.379 -25.914  1.00  0.00     0.074 C 
BRANCH  45  46
HETATM   46  C29 UNL     1     -19.474  45.386 -24.408  1.00  0.00    -0.056 A 
HETATM   47  C30 UNL     1     -20.043  44.373 -23.625  1.00  0.00     0.007 A 
HETATM   48  C31 UNL     1     -19.879  44.375 -22.240  1.00  0.00     0.001 A 
HETATM   49  C32 UNL     1     -19.146  45.389 -21.625  1.00  0.00     0.000 A 
HETATM   50  C33 UNL     1     -18.577  46.402 -22.394  1.00  0.00     0.001 A 
HETATM   51  C34 UNL     1     -18.740  46.401 -23.779  1.00  0.00     0.007 A 
ENDBRANCH  45  46
ENDBRANCH  44  45
BRANCH  44  52
HETATM   52  C35 UNL     1     -19.605  43.232 -27.338  1.00  0.00     0.163 C 
HETATM   53  O8  UNL     1     -19.735  43.131 -28.552  1.00  0.00    -0.648 OA
BRANCH  52  54
HETATM   54  O9  UNL     1     -20.166  42.305 -26.536  1.00  0.00    -0.775 OA
HETATM   55  H46 UNL     1     -20.711  41.766 -27.148  1.00  0.00     0.167 HD
ENDBRANCH  52  54
ENDBRANCH  44  52
ENDBRANCH  42  44
ENDBRANCH  39  40
ENDBRANCH  38  39
ENDBRANCH  37  38
ENDBRANCH  36  37
ENDBRANCH  35  36
ENDBRANCH  33  35
ENDBRANCH  30  31
ENDBRANCH  29  30
ENDBRANCH   1  29
TORSDOF 19
ENDMDL
