MODEL 1
REMARK minimizedAffinity -6.8015871
REMARK CNNscore 0.391664207
REMARK CNNaffinity 6.55315924
REMARK  12 active torsions:
REMARK  status: ('A' for Active; 'I' for Inactive)
REMARK    1  A    between atoms: C4_4  and  C5_5 
REMARK    2  A    between atoms: C5_5  and  O1_6 
REMARK    3  A    between atoms: C5_5  and  C6_7 
REMARK    4  A    between atoms: C6_7  and  C7_8 
REMARK    5  A    between atoms: C9_11  and  C10_12 
REMARK    6  A    between atoms: C18_20  and  O3_21 
REMARK    7  A    between atoms: O3_21  and  C19_22 
REMARK    8  A    between atoms: C20_24  and  C21_25 
REMARK    9  A    between atoms: C21_25  and  O5_26 
REMARK   10  A    between atoms: C22_27  and  O6_28 
REMARK   11  A    between atoms: C23_29  and  O7_30 
REMARK   12  A    between atoms: C24_31  and  O8_32 
ROOT
HETATM    1  C10 UNL     1     -16.694   6.662  19.619  1.00  0.00     0.029 C 
HETATM    2  C11 UNL     1     -15.867   7.017  18.340  1.00  0.00     0.009 C 
HETATM    3  C12 UNL     1     -16.465   6.495  17.019  1.00  0.00     0.007 C 
HETATM    4  C13 UNL     1     -17.316   5.246  17.270  1.00  0.00     0.003 C 
HETATM    5  C14 UNL     1     -17.485   4.215  16.081  1.00  0.00    -0.035 C 
HETATM    6  C15 UNL     1     -18.280   4.826  14.909  1.00  0.00     0.016 C 
HETATM    7  C16 UNL     1     -16.081   3.810  15.533  1.00  0.00     0.012 C 
HETATM    8  C17 UNL     1     -16.092   2.594  14.604  1.00  0.00     0.034 C 
HETATM    9  C18 UNL     1     -16.747   1.364  15.239  1.00  0.00     0.133 C 
HETATM   10  C25 UNL     1     -18.185   1.656  15.782  1.00  0.00    -0.017 C 
HETATM   11  C26 UNL     1     -18.628   0.408  16.599  1.00  0.00     0.018 C 
HETATM   12  C27 UNL     1     -19.204   1.790  14.631  1.00  0.00     0.018 C 
HETATM   13  C28 UNL     1     -18.117   2.915  16.719  1.00  0.00     0.004 C 
HETATM   14  C29 UNL     1     -19.407   3.218  17.508  1.00  0.00     0.007 C 
HETATM   15  C30 UNL     1     -19.194   4.282  18.604  1.00  0.00     0.011 C 
HETATM   16  C31 UNL     1     -18.616   5.629  18.082  1.00  0.00    -0.029 C 
HETATM   17  C32 UNL     1     -19.728   6.270  17.208  1.00  0.00     0.016 C 
HETATM   18  C33 UNL     1     -18.244   6.656  19.284  1.00  0.00     0.004 C 
HETATM   19  C34 UNL     1     -19.147   6.497  20.520  1.00  0.00     0.190 C 
HETATM   20  O9  UNL     1     -19.036   7.713  21.265  1.00  0.00    -0.321 OA
HETATM   21  C35 UNL     1     -18.755   8.721  20.392  1.00  0.00     0.259 C 
HETATM   22  O10 UNL     1     -18.670   9.898  20.695  1.00  0.00    -0.265 OA
HETATM   23  C36 UNL     1     -18.609   8.152  19.009  1.00  0.00     0.124 C 
ENDROOT
BRANCH   9  24
HETATM   24  O3  UNL     1     -16.823   0.276  14.311  1.00  0.00    -0.352 OA
BRANCH  24  25
HETATM   25  C19 UNL     1     -15.599  -0.420  14.095  1.00  0.00     0.292 C 
HETATM   26  O4  UNL     1     -15.388  -0.648  12.697  1.00  0.00    -0.348 OA
HETATM   27  C20 UNL     1     -16.250  -1.624  12.097  1.00  0.00     0.179 C 
HETATM   28  C22 UNL     1     -16.164  -2.980  12.825  1.00  0.00     0.180 C 
HETATM   29  C23 UNL     1     -16.420  -2.841  14.335  1.00  0.00     0.183 C 
HETATM   30  C24 UNL     1     -15.545  -1.723  14.926  1.00  0.00     0.204 C 
BRANCH  27  31
HETATM   31  C21 UNL     1     -17.684  -1.121  11.891  1.00  0.00     0.198 C 
BRANCH  31  32
HETATM   32  O5  UNL     1     -17.771  -0.377  10.674  1.00  0.00    -0.398 OA
HETATM   33  H34 UNL     1     -18.690  -0.058  10.615  1.00  0.00     0.209 HD
ENDBRANCH  31  32
ENDBRANCH  27  31
BRANCH  28  34
HETATM   34  O6  UNL     1     -14.834  -3.517  12.661  1.00  0.00    -0.390 OA
HETATM   35  H36 UNL     1     -14.688  -3.632  11.702  1.00  0.00     0.210 HD
ENDBRANCH  28  34
BRANCH  29  36
HETATM   36  O7  UNL     1     -17.802  -2.632  14.615  1.00  0.00    -0.390 OA
HETATM   37  H38 UNL     1     -18.280  -3.435  14.337  1.00  0.00     0.210 HD
ENDBRANCH  29  36
BRANCH  30  38
HETATM   38  O8  UNL     1     -14.178  -2.182  15.002  1.00  0.00    -0.388 OA
HETATM   39  H40 UNL     1     -13.983  -2.591  14.131  1.00  0.00     0.210 HD
ENDBRANCH  30  38
ENDBRANCH  24  25
ENDBRANCH   9  24
BRANCH   1  40
HETATM   40  C9  UNL     1     -16.104   5.416  20.263  1.00  0.00     0.162 A 
HETATM   41  C7  UNL     1     -15.303   5.471  21.570  1.00  0.00     0.087 A 
HETATM   42  C8  UNL     1     -15.224   6.706  22.424  1.00  0.00     0.049 C 
HETATM   43  O2  UNL     1     -16.644   4.960  21.499  1.00  0.00    -0.369 OA
BRANCH  41  44
HETATM   44  C6  UNL     1     -14.266   4.394  21.815  1.00  0.00     0.076 C 
BRANCH  44  45
HETATM   45  C5  UNL     1     -14.293   3.783  23.227  1.00  0.00     0.144 C 
BRANCH  45  46
HETATM   46  C4  UNL     1     -13.123   2.887  23.552  1.00  0.00     0.006 C 
HETATM   47  C2  UNL     1     -12.625   2.461  24.731  1.00  0.00    -0.089 C 
HETATM   48  C1  UNL     1     -11.392   1.590  24.764  1.00  0.00     0.042 C 
HETATM   49  C3  UNL     1     -13.217   2.728  26.087  1.00  0.00     0.042 C 
ENDBRANCH  45  46
BRANCH  45  50
HETATM   50  O1  UNL     1     -15.545   3.158  23.478  1.00  0.00    -0.392 OA
HETATM   51  H9  UNL     1     -15.475   2.760  24.363  1.00  0.00     0.210 HD
ENDBRANCH  45  50
ENDBRANCH  44  45
ENDBRANCH  41  44
ENDBRANCH   1  40
TORSDOF 12
ENDMDL
MODEL 2
REMARK minimizedAffinity -8.10901928
REMARK CNNscore 0.362606168
REMARK CNNaffinity 7.57146978
REMARK  12 active torsions:
REMARK  status: ('A' for Active; 'I' for Inactive)
REMARK    1  A    between atoms: C4_4  and  C5_5 
REMARK    2  A    between atoms: C5_5  and  O1_6 
REMARK    3  A    between atoms: C5_5  and  C6_7 
REMARK    4  A    between atoms: C6_7  and  C7_8 
REMARK    5  A    between atoms: C9_11  and  C10_12 
REMARK    6  A    between atoms: C18_20  and  O3_21 
REMARK    7  A    between atoms: O3_21  and  C19_22 
REMARK    8  A    between atoms: C20_24  and  C21_25 
REMARK    9  A    between atoms: C21_25  and  O5_26 
REMARK   10  A    between atoms: C22_27  and  O6_28 
REMARK   11  A    between atoms: C23_29  and  O7_30 
REMARK   12  A    between atoms: C24_31  and  O8_32 
ROOT
HETATM    1  C10 UNL     1      -6.828   5.234  13.996  1.00  0.00     0.029 C 
HETATM    2  C11 UNL     1      -6.008   4.722  15.224  1.00  0.00     0.009 C 
HETATM    3  C12 UNL     1      -4.965   5.719  15.765  1.00  0.00     0.007 C 
HETATM    4  C13 UNL     1      -4.499   6.666  14.655  1.00  0.00     0.003 C 
HETATM    5  C14 UNL     1      -3.056   7.303  14.783  1.00  0.00    -0.035 C 
HETATM    6  C15 UNL     1      -2.964   8.265  15.985  1.00  0.00     0.016 C 
HETATM    7  C16 UNL     1      -2.002   6.175  15.006  1.00  0.00     0.012 C 
HETATM    8  C17 UNL     1      -0.549   6.623  14.832  1.00  0.00     0.034 C 
HETATM    9  C18 UNL     1      -0.286   7.281  13.474  1.00  0.00     0.133 C 
HETATM   10  C25 UNL     1      -1.268   8.462  13.173  1.00  0.00    -0.017 C 
HETATM   11  C26 UNL     1      -1.047   8.874  11.690  1.00  0.00     0.018 C 
HETATM   12  C27 UNL     1      -0.921   9.709  14.013  1.00  0.00     0.018 C 
HETATM   13  C28 UNL     1      -2.739   7.950  13.377  1.00  0.00     0.004 C 
HETATM   14  C29 UNL     1      -3.844   8.924  12.918  1.00  0.00     0.007 C 
HETATM   15  C30 UNL     1      -5.237   8.264  12.884  1.00  0.00     0.011 C 
HETATM   16  C31 UNL     1      -5.677   7.631  14.235  1.00  0.00    -0.029 C 
HETATM   17  C32 UNL     1      -5.894   8.812  15.219  1.00  0.00     0.016 C 
HETATM   18  C33 UNL     1      -7.066   6.799  14.111  1.00  0.00     0.004 C 
HETATM   19  C34 UNL     1      -8.020   7.363  13.042  1.00  0.00     0.190 C 
HETATM   20  O9  UNL     1      -9.324   6.866  13.357  1.00  0.00    -0.321 OA
HETATM   21  C35 UNL     1      -9.387   6.662  14.702  1.00  0.00     0.259 C 
HETATM   22  O10 UNL     1     -10.386   6.312  15.306  1.00  0.00    -0.265 OA
HETATM   23  C36 UNL     1      -8.050   6.975  15.314  1.00  0.00     0.124 C 
ENDROOT
BRANCH   9  24
HETATM   24  O3  UNL     1       1.056   7.771  13.383  1.00  0.00    -0.352 OA
BRANCH  24  25
HETATM   25  C19 UNL     1       1.363   8.857  14.251  1.00  0.00     0.292 C 
HETATM   26  O4  UNL     1       2.465   9.616  13.741  1.00  0.00    -0.348 OA
HETATM   27  C20 UNL     1       3.743   8.969  13.815  1.00  0.00     0.179 C 
HETATM   28  C22 UNL     1       4.078   8.542  15.258  1.00  0.00     0.180 C 
HETATM   29  C23 UNL     1       2.965   7.683  15.879  1.00  0.00     0.183 C 
HETATM   30  C24 UNL     1       1.598   8.365  15.699  1.00  0.00     0.204 C 
BRANCH  27  31
HETATM   31  C21 UNL     1       3.917   7.850  12.781  1.00  0.00     0.198 C 
BRANCH  31  32
HETATM   32  O5  UNL     1       5.024   7.021  13.140  1.00  0.00    -0.398 OA
HETATM   33  H34 UNL     1       5.105   6.354  12.433  1.00  0.00     0.209 HD
ENDBRANCH  31  32
ENDBRANCH  27  31
BRANCH  28  34
HETATM   34  O6  UNL     1       4.219   9.724  16.076  1.00  0.00    -0.390 OA
HETATM   35  H36 UNL     1       4.947  10.250  15.695  1.00  0.00     0.210 HD
ENDBRANCH  28  34
BRANCH  29  36
HETATM   36  O7  UNL     1       2.967   6.359  15.349  1.00  0.00    -0.390 OA
HETATM   37  H38 UNL     1       3.806   5.940  15.616  1.00  0.00     0.210 HD
ENDBRANCH  29  36
BRANCH  30  38
HETATM   38  O8  UNL     1       1.506   9.487  16.603  1.00  0.00    -0.388 OA
HETATM   39  H40 UNL     1       2.350   9.978  16.508  1.00  0.00     0.210 HD
ENDBRANCH  30  38
ENDBRANCH  24  25
ENDBRANCH   9  24
BRANCH   1  40
HETATM   40  C9  UNL     1      -6.192   4.708  12.717  1.00  0.00     0.162 A 
HETATM   41  C7  UNL     1      -6.424   3.276  12.217  1.00  0.00     0.087 A 
HETATM   42  C8  UNL     1      -7.457   2.362  12.817  1.00  0.00     0.049 C 
HETATM   43  O2  UNL     1      -7.027   4.425  11.599  1.00  0.00    -0.369 OA
BRANCH  41  44
HETATM   44  C6  UNL     1      -5.347   2.638  11.364  1.00  0.00     0.076 C 
BRANCH  44  45
HETATM   45  C5  UNL     1      -4.056   2.278  12.121  1.00  0.00     0.144 C 
BRANCH  45  46
HETATM   46  C4  UNL     1      -2.951   3.300  12.010  1.00  0.00     0.006 C 
HETATM   47  C2  UNL     1      -1.672   3.191  11.592  1.00  0.00    -0.089 C 
HETATM   48  C1  UNL     1      -0.757   4.390  11.631  1.00  0.00     0.042 C 
HETATM   49  C3  UNL     1      -1.036   1.957  11.016  1.00  0.00     0.042 C 
ENDBRANCH  45  46
BRANCH  45  50
HETATM   50  O1  UNL     1      -3.624   0.968  11.778  1.00  0.00    -0.392 OA
HETATM   51  H9  UNL     1      -2.788   0.826  12.255  1.00  0.00     0.210 HD
ENDBRANCH  45  50
ENDBRANCH  44  45
ENDBRANCH  41  44
ENDBRANCH   1  40
TORSDOF 12
ENDMDL
MODEL 3
REMARK minimizedAffinity -9.87775993
REMARK CNNscore 0.355285943
REMARK CNNaffinity 7.3138032
REMARK  12 active torsions:
REMARK  status: ('A' for Active; 'I' for Inactive)
REMARK    1  A    between atoms: C4_4  and  C5_5 
REMARK    2  A    between atoms: C5_5  and  O1_6 
REMARK    3  A    between atoms: C5_5  and  C6_7 
REMARK    4  A    between atoms: C6_7  and  C7_8 
REMARK    5  A    between atoms: C9_11  and  C10_12 
REMARK    6  A    between atoms: C18_20  and  O3_21 
REMARK    7  A    between atoms: O3_21  and  C19_22 
REMARK    8  A    between atoms: C20_24  and  C21_25 
REMARK    9  A    between atoms: C21_25  and  O5_26 
REMARK   10  A    between atoms: C22_27  and  O6_28 
REMARK   11  A    between atoms: C23_29  and  O7_30 
REMARK   12  A    between atoms: C24_31  and  O8_32 
ROOT
HETATM    1  C10 UNL     1      -5.880   5.899  14.678  1.00  0.00     0.029 C 
HETATM    2  C11 UNL     1      -4.885   5.256  15.699  1.00  0.00     0.009 C 
HETATM    3  C12 UNL     1      -3.558   6.018  15.877  1.00  0.00     0.007 C 
HETATM    4  C13 UNL     1      -3.220   6.812  14.611  1.00  0.00     0.003 C 
HETATM    5  C14 UNL     1      -1.697   7.126  14.319  1.00  0.00    -0.035 C 
HETATM    6  C15 UNL     1      -1.101   8.078  15.376  1.00  0.00     0.016 C 
HETATM    7  C16 UNL     1      -0.870   5.803  14.363  1.00  0.00     0.012 C 
HETATM    8  C17 UNL     1       0.545   5.922  13.792  1.00  0.00     0.034 C 
HETATM    9  C18 UNL     1       0.568   6.472  12.362  1.00  0.00     0.133 C 
HETATM   10  C25 UNL     1      -0.200   7.828  12.222  1.00  0.00    -0.017 C 
HETATM   11  C26 UNL     1      -0.300   8.141  10.701  1.00  0.00     0.018 C 
HETATM   12  C27 UNL     1       0.599   8.993  12.842  1.00  0.00     0.018 C 
HETATM   13  C28 UNL     1      -1.638   7.650  12.830  1.00  0.00     0.004 C 
HETATM   14  C29 UNL     1      -2.605   8.828  12.585  1.00  0.00     0.007 C 
HETATM   15  C30 UNL     1      -4.061   8.483  12.956  1.00  0.00     0.011 C 
HETATM   16  C31 UNL     1      -4.249   7.996  14.423  1.00  0.00    -0.029 C 
HETATM   17  C32 UNL     1      -3.957   9.223  15.328  1.00  0.00     0.016 C 
HETATM   18  C33 UNL     1      -5.759   7.480  14.720  1.00  0.00     0.004 C 
HETATM   19  C34 UNL     1      -6.827   8.208  13.883  1.00  0.00     0.190 C 
HETATM   20  O9  UNL     1      -8.075   8.013  14.554  1.00  0.00    -0.321 OA
HETATM   21  C35 UNL     1      -7.821   7.864  15.885  1.00  0.00     0.259 C 
HETATM   22  O10 UNL     1      -8.675   7.754  16.747  1.00  0.00    -0.265 OA
HETATM   23  C36 UNL     1      -6.335   7.897  16.113  1.00  0.00     0.124 C 
ENDROOT
BRANCH   9  24
HETATM   24  O3  UNL     1       1.909   6.657  11.897  1.00  0.00    -0.352 OA
BRANCH  24  25
HETATM   25  C19 UNL     1       2.291   8.012  11.681  1.00  0.00     0.292 C 
HETATM   26  O4  UNL     1       2.428   8.282  10.282  1.00  0.00    -0.348 OA
HETATM   27  C20 UNL     1       3.564   7.679   9.648  1.00  0.00     0.179 C 
HETATM   28  C22 UNL     1       4.879   8.077  10.346  1.00  0.00     0.180 C 
HETATM   29  C23 UNL     1       4.843   7.784  11.854  1.00  0.00     0.183 C 
HETATM   30  C24 UNL     1       3.566   8.366  12.483  1.00  0.00     0.204 C 
BRANCH  27  31
HETATM   31  C21 UNL     1       3.407   6.168   9.434  1.00  0.00     0.198 C 
BRANCH  31  32
HETATM   32  O5  UNL     1       2.074   5.868   9.017  1.00  0.00    -0.398 OA
HETATM   33  H34 UNL     1       2.027   4.898   8.932  1.00  0.00     0.209 HD
ENDBRANCH  31  32
ENDBRANCH  27  31
BRANCH  28  34
HETATM   34  O6  UNL     1       5.083   9.497  10.186  1.00  0.00    -0.390 OA
HETATM   35  H36 UNL     1       5.136   9.672   9.227  1.00  0.00     0.210 HD
ENDBRANCH  28  34
BRANCH  29  36
HETATM   36  O7  UNL     1       4.973   6.389  12.121  1.00  0.00    -0.390 OA
HETATM   37  H38 UNL     1       5.859   6.116  11.818  1.00  0.00     0.210 HD
ENDBRANCH  29  36
BRANCH  30  38
HETATM   38  O8  UNL     1       3.692   9.802  12.566  1.00  0.00    -0.388 OA
HETATM   39  H40 UNL     1       4.021  10.094  11.688  1.00  0.00     0.210 HD
ENDBRANCH  30  38
ENDBRANCH  24  25
ENDBRANCH   9  24
BRANCH   1  40
HETATM   40  C9  UNL     1      -5.721   5.213  13.329  1.00  0.00     0.162 A 
HETATM   41  C7  UNL     1      -6.386   3.866  13.013  1.00  0.00     0.087 A 
HETATM   42  C8  UNL     1      -7.409   3.233  13.913  1.00  0.00     0.049 C 
HETATM   43  O2  UNL     1      -6.854   5.113  12.472  1.00  0.00    -0.369 OA
BRANCH  41  44
HETATM   44  C6  UNL     1      -5.729   2.976  11.977  1.00  0.00     0.076 C 
BRANCH  44  45
HETATM   45  C5  UNL     1      -4.329   3.433  11.530  1.00  0.00     0.144 C 
BRANCH  45  46
HETATM   46  C4  UNL     1      -3.327   2.319  11.351  1.00  0.00     0.006 C 
HETATM   47  C2  UNL     1      -1.990   2.341  11.169  1.00  0.00    -0.089 C 
HETATM   48  C1  UNL     1      -1.230   1.053  10.966  1.00  0.00     0.042 C 
HETATM   49  C3  UNL     1      -1.117   3.565  11.195  1.00  0.00     0.042 C 
ENDBRANCH  45  46
BRANCH  45  50
HETATM   50  O1  UNL     1      -3.847   4.468  12.377  1.00  0.00    -0.392 OA
HETATM   51  H9  UNL     1      -2.949   4.675  12.066  1.00  0.00     0.210 HD
ENDBRANCH  45  50
ENDBRANCH  44  45
ENDBRANCH  41  44
ENDBRANCH   1  40
TORSDOF 12
ENDMDL
MODEL 4
REMARK minimizedAffinity -7.11170673
REMARK CNNscore 0.209808215
REMARK CNNaffinity 6.42655706
REMARK  12 active torsions:
REMARK  status: ('A' for Active; 'I' for Inactive)
REMARK    1  A    between atoms: C4_4  and  C5_5 
REMARK    2  A    between atoms: C5_5  and  O1_6 
REMARK    3  A    between atoms: C5_5  and  C6_7 
REMARK    4  A    between atoms: C6_7  and  C7_8 
REMARK    5  A    between atoms: C9_11  and  C10_12 
REMARK    6  A    between atoms: C18_20  and  O3_21 
REMARK    7  A    between atoms: O3_21  and  C19_22 
REMARK    8  A    between atoms: C20_24  and  C21_25 
REMARK    9  A    between atoms: C21_25  and  O5_26 
REMARK   10  A    between atoms: C22_27  and  O6_28 
REMARK   11  A    between atoms: C23_29  and  O7_30 
REMARK   12  A    between atoms: C24_31  and  O8_32 
ROOT
HETATM    1  C10 UNL     1      -3.759  13.291  15.887  1.00  0.00     0.029 C 
HETATM    2  C11 UNL     1      -5.114  13.818  15.312  1.00  0.00     0.009 C 
HETATM    3  C12 UNL     1      -5.912  14.727  16.267  1.00  0.00     0.007 C 
HETATM    4  C13 UNL     1      -5.575  14.402  17.725  1.00  0.00     0.003 C 
HETATM    5  C14 UNL     1      -6.668  14.718  18.825  1.00  0.00    -0.035 C 
HETATM    6  C15 UNL     1      -6.917  16.234  18.959  1.00  0.00     0.016 C 
HETATM    7  C16 UNL     1      -8.023  14.056  18.424  1.00  0.00     0.012 C 
HETATM    8  C17 UNL     1      -9.066  14.020  19.544  1.00  0.00     0.034 C 
HETATM    9  C18 UNL     1      -8.547  13.349  20.820  1.00  0.00     0.133 C 
HETATM   10  C25 UNL     1      -7.208  13.975  21.333  1.00  0.00    -0.017 C 
HETATM   11  C26 UNL     1      -6.682  13.059  22.474  1.00  0.00     0.018 C 
HETATM   12  C27 UNL     1      -7.443  15.358  21.976  1.00  0.00     0.018 C 
HETATM   13  C28 UNL     1      -6.182  13.996  20.143  1.00  0.00     0.004 C 
HETATM   14  C29 UNL     1      -4.739  14.387  20.526  1.00  0.00     0.007 C 
HETATM   15  C30 UNL     1      -3.733  14.123  19.389  1.00  0.00     0.011 C 
HETATM   16  C31 UNL     1      -4.087  14.826  18.046  1.00  0.00    -0.029 C 
HETATM   17  C32 UNL     1      -3.914  16.349  18.295  1.00  0.00     0.016 C 
HETATM   18  C33 UNL     1      -3.104  14.384  16.832  1.00  0.00     0.004 C 
HETATM   19  C34 UNL     1      -1.681  14.030  17.300  1.00  0.00     0.190 C 
HETATM   20  O9  UNL     1      -0.837  14.125  16.148  1.00  0.00    -0.321 OA
HETATM   21  C35 UNL     1      -1.379  15.045  15.301  1.00  0.00     0.259 C 
HETATM   22  O10 UNL     1      -0.867  15.417  14.260  1.00  0.00    -0.265 OA
HETATM   23  C36 UNL     1      -2.675  15.545  15.876  1.00  0.00     0.124 C 
ENDROOT
BRANCH   9  24
HETATM   24  O3  UNL     1      -9.514  13.417  21.874  1.00  0.00    -0.352 OA
BRANCH  24  25
HETATM   25  C19 UNL     1      -9.387  12.413  22.876  1.00  0.00     0.292 C 
HETATM   26  O4  UNL     1     -10.099  11.229  22.498  1.00  0.00    -0.348 OA
HETATM   27  C20 UNL     1     -11.528  11.333  22.538  1.00  0.00     0.179 C 
HETATM   28  C22 UNL     1     -12.026  11.771  23.930  1.00  0.00     0.180 C 
HETATM   29  C23 UNL     1     -11.345  13.064  24.405  1.00  0.00     0.183 C 
HETATM   30  C24 UNL     1      -9.818  12.950  24.261  1.00  0.00     0.204 C 
BRANCH  27  31
HETATM   31  C21 UNL     1     -12.108  12.160  21.384  1.00  0.00     0.198 C 
BRANCH  31  32
HETATM   32  O5  UNL     1     -11.609  11.676  20.135  1.00  0.00    -0.398 OA
HETATM   33  H34 UNL     1     -11.982  12.258  19.449  1.00  0.00     0.209 HD
ENDBRANCH  31  32
ENDBRANCH  27  31
BRANCH  28  34
HETATM   34  O6  UNL     1     -11.708  10.738  24.887  1.00  0.00    -0.390 OA
HETATM   35  H36 UNL     1     -12.168   9.927  24.597  1.00  0.00     0.210 HD
ENDBRANCH  28  34
BRANCH  29  36
HETATM   36  O7  UNL     1     -11.854  14.207  23.721  1.00  0.00    -0.390 OA
HETATM   37  H38 UNL     1     -12.794  14.297  23.964  1.00  0.00     0.210 HD
ENDBRANCH  29  36
BRANCH  30  38
HETATM   38  O8  UNL     1      -9.310  12.073  25.290  1.00  0.00    -0.388 OA
HETATM   39  H40 UNL     1      -9.895  11.284  25.283  1.00  0.00     0.210 HD
ENDBRANCH  30  38
ENDBRANCH  24  25
ENDBRANCH   9  24
BRANCH   1  40
HETATM   40  C9  UNL     1      -3.970  11.896  16.460  1.00  0.00     0.162 A 
HETATM   41  C7  UNL     1      -3.339  10.648  15.829  1.00  0.00     0.087 A 
HETATM   42  C8  UNL     1      -2.299  10.722  14.745  1.00  0.00     0.049 C 
HETATM   43  O2  UNL     1      -2.866  11.225  17.058  1.00  0.00    -0.369 OA
BRANCH  41  44
HETATM   44  C6  UNL     1      -4.041   9.321  16.024  1.00  0.00     0.076 C 
BRANCH  44  45
HETATM   45  C5  UNL     1      -3.156   8.084  15.790  1.00  0.00     0.144 C 
BRANCH  45  46
HETATM   46  C4  UNL     1      -3.830   6.955  15.047  1.00  0.00     0.006 C 
HETATM   47  C2  UNL     1      -3.524   6.345  13.882  1.00  0.00    -0.089 C 
HETATM   48  C1  UNL     1      -4.415   5.255  13.341  1.00  0.00     0.042 C 
HETATM   49  C3  UNL     1      -2.305   6.607  13.044  1.00  0.00     0.042 C 
ENDBRANCH  45  46
BRANCH  45  50
HETATM   50  O1  UNL     1      -2.562   7.656  17.008  1.00  0.00    -0.392 OA
HETATM   51  H9  UNL     1      -2.057   6.853  16.794  1.00  0.00     0.210 HD
ENDBRANCH  45  50
ENDBRANCH  44  45
ENDBRANCH  41  44
ENDBRANCH   1  40
TORSDOF 12
ENDMDL
MODEL 5
REMARK minimizedAffinity -7.22678041
REMARK CNNscore 0.199991837
REMARK CNNaffinity 6.27957344
REMARK  12 active torsions:
REMARK  status: ('A' for Active; 'I' for Inactive)
REMARK    1  A    between atoms: C4_4  and  C5_5 
REMARK    2  A    between atoms: C5_5  and  O1_6 
REMARK    3  A    between atoms: C5_5  and  C6_7 
REMARK    4  A    between atoms: C6_7  and  C7_8 
REMARK    5  A    between atoms: C9_11  and  C10_12 
REMARK    6  A    between atoms: C18_20  and  O3_21 
REMARK    7  A    between atoms: O3_21  and  C19_22 
REMARK    8  A    between atoms: C20_24  and  C21_25 
REMARK    9  A    between atoms: C21_25  and  O5_26 
REMARK   10  A    between atoms: C22_27  and  O6_28 
REMARK   11  A    between atoms: C23_29  and  O7_30 
REMARK   12  A    between atoms: C24_31  and  O8_32 
ROOT
HETATM    1  C10 UNL     1     -13.240 -10.463  19.003  1.00  0.00     0.029 C 
HETATM    2  C11 UNL     1     -13.579  -9.019  18.510  1.00  0.00     0.009 C 
HETATM    3  C12 UNL     1     -13.790  -8.887  16.989  1.00  0.00     0.007 C 
HETATM    4  C13 UNL     1     -13.010  -9.974  16.243  1.00  0.00     0.003 C 
HETATM    5  C14 UNL     1     -12.564  -9.674  14.754  1.00  0.00    -0.035 C 
HETATM    6  C15 UNL     1     -13.778  -9.547  13.812  1.00  0.00     0.016 C 
HETATM    7  C16 UNL     1     -11.788  -8.321  14.701  1.00  0.00     0.012 C 
HETATM    8  C17 UNL     1     -11.037  -8.074  13.390  1.00  0.00     0.034 C 
HETATM    9  C18 UNL     1     -10.074  -9.209  13.031  1.00  0.00     0.133 C 
HETATM   10  C25 UNL     1     -10.769 -10.611  13.012  1.00  0.00    -0.017 C 
HETATM   11  C26 UNL     1      -9.646 -11.677  12.872  1.00  0.00     0.018 C 
HETATM   12  C27 UNL     1     -11.666 -10.777  11.768  1.00  0.00     0.018 C 
HETATM   13  C28 UNL     1     -11.530 -10.806  14.373  1.00  0.00     0.004 C 
HETATM   14  C29 UNL     1     -12.098 -12.221  14.611  1.00  0.00     0.007 C 
HETATM   15  C30 UNL     1     -12.581 -12.428  16.060  1.00  0.00     0.011 C 
HETATM   16  C31 UNL     1     -13.643 -11.392  16.533  1.00  0.00    -0.029 C 
HETATM   17  C32 UNL     1     -14.927 -11.680  15.710  1.00  0.00     0.016 C 
HETATM   18  C33 UNL     1     -13.995 -11.536  18.111  1.00  0.00     0.004 C 
HETATM   19  C34 UNL     1     -13.869 -12.979  18.633  1.00  0.00     0.190 C 
HETATM   20  O9  UNL     1     -14.632 -13.044  19.842  1.00  0.00    -0.321 OA
HETATM   21  C35 UNL     1     -15.637 -12.128  19.758  1.00  0.00     0.259 C 
HETATM   22  O10 UNL     1     -16.513 -11.979  20.592  1.00  0.00    -0.265 OA
HETATM   23  C36 UNL     1     -15.510 -11.369  18.466  1.00  0.00     0.124 C 
ENDROOT
BRANCH   9  24
HETATM   24  O3  UNL     1      -9.461  -8.988  11.756  1.00  0.00    -0.352 OA
BRANCH  24  25
HETATM   25  C19 UNL     1      -8.720 -10.090  11.242  1.00  0.00     0.292 C 
HETATM   26  O4  UNL     1      -7.364 -10.045  11.698  1.00  0.00    -0.348 OA
HETATM   27  C20 UNL     1      -6.556  -9.011  11.120  1.00  0.00     0.179 C 
HETATM   28  C22 UNL     1      -6.545  -9.095   9.581  1.00  0.00     0.180 C 
HETATM   29  C23 UNL     1      -7.965  -9.107   8.994  1.00  0.00     0.183 C 
HETATM   30  C24 UNL     1      -8.829 -10.165   9.701  1.00  0.00     0.204 C 
BRANCH  27  31
HETATM   31  C21 UNL     1      -6.882  -7.613  11.663  1.00  0.00     0.198 C 
BRANCH  31  32
HETATM   32  O5  UNL     1      -6.364  -7.470  12.987  1.00  0.00    -0.398 OA
HETATM   33  H34 UNL     1      -6.629  -6.582  13.288  1.00  0.00     0.209 HD
ENDBRANCH  31  32
ENDBRANCH  27  31
BRANCH  28  34
HETATM   34  O6  UNL     1      -5.902 -10.325   9.183  1.00  0.00    -0.390 OA
HETATM   35  H36 UNL     1      -4.991 -10.298   9.533  1.00  0.00     0.210 HD
ENDBRANCH  28  34
BRANCH  29  36
HETATM   36  O7  UNL     1      -8.567  -7.816   9.048  1.00  0.00    -0.390 OA
HETATM   37  H38 UNL     1      -8.045  -7.227   8.470  1.00  0.00     0.210 HD
ENDBRANCH  29  36
BRANCH  30  38
HETATM   38  O8  UNL     1      -8.423 -11.479   9.259  1.00  0.00    -0.388 OA
HETATM   39  H40 UNL     1      -7.443 -11.488   9.308  1.00  0.00     0.210 HD
ENDBRANCH  30  38
ENDBRANCH  24  25
ENDBRANCH   9  24
BRANCH   1  40
HETATM   40  C9  UNL     1     -11.731 -10.599  19.146  1.00  0.00     0.162 A 
HETATM   41  C7  UNL     1     -11.056 -10.846  20.502  1.00  0.00     0.087 A 
HETATM   42  C8  UNL     1     -11.830 -11.190  21.744  1.00  0.00     0.049 C 
HETATM   43  O2  UNL     1     -11.185 -11.866  19.498  1.00  0.00    -0.369 OA
BRANCH  41  44
HETATM   44  C6  UNL     1      -9.631 -10.366  20.685  1.00  0.00     0.076 C 
BRANCH  44  45
HETATM   45  C5  UNL     1      -8.745 -11.291  21.536  1.00  0.00     0.144 C 
BRANCH  45  46
HETATM   46  C4  UNL     1      -9.205 -11.473  22.962  1.00  0.00     0.006 C 
HETATM   47  C2  UNL     1      -8.805 -12.327  23.928  1.00  0.00    -0.089 C 
HETATM   48  C1  UNL     1      -9.485 -12.320  25.275  1.00  0.00     0.042 C 
HETATM   49  C3  UNL     1      -7.666 -13.302  23.826  1.00  0.00     0.042 C 
ENDBRANCH  45  46
BRANCH  45  50
HETATM   50  O1  UNL     1      -7.382 -10.897  21.450  1.00  0.00    -0.392 OA
HETATM   51  H9  UNL     1      -6.890 -11.492  22.041  1.00  0.00     0.210 HD
ENDBRANCH  45  50
ENDBRANCH  44  45
ENDBRANCH  41  44
ENDBRANCH   1  40
TORSDOF 12
ENDMDL
MODEL 6
REMARK minimizedAffinity -7.77067184
REMARK CNNscore 0.197550267
REMARK CNNaffinity 6.46373558
REMARK  12 active torsions:
REMARK  status: ('A' for Active; 'I' for Inactive)
REMARK    1  A    between atoms: C4_4  and  C5_5 
REMARK    2  A    between atoms: C5_5  and  O1_6 
REMARK    3  A    between atoms: C5_5  and  C6_7 
REMARK    4  A    between atoms: C6_7  and  C7_8 
REMARK    5  A    between atoms: C9_11  and  C10_12 
REMARK    6  A    between atoms: C18_20  and  O3_21 
REMARK    7  A    between atoms: O3_21  and  C19_22 
REMARK    8  A    between atoms: C20_24  and  C21_25 
REMARK    9  A    between atoms: C21_25  and  O5_26 
REMARK   10  A    between atoms: C22_27  and  O6_28 
REMARK   11  A    between atoms: C23_29  and  O7_30 
REMARK   12  A    between atoms: C24_31  and  O8_32 
ROOT
HETATM    1  C10 UNL     1     -13.968   7.313  14.300  1.00  0.00     0.029 C 
HETATM    2  C11 UNL     1     -14.670   6.174  15.109  1.00  0.00     0.009 C 
HETATM    3  C12 UNL     1     -15.504   6.655  16.312  1.00  0.00     0.007 C 
HETATM    4  C13 UNL     1     -14.964   7.986  16.843  1.00  0.00     0.003 C 
HETATM    5  C14 UNL     1     -15.215   8.331  18.366  1.00  0.00    -0.035 C 
HETATM    6  C15 UNL     1     -16.715   8.536  18.662  1.00  0.00     0.016 C 
HETATM    7  C16 UNL     1     -14.719   7.153  19.261  1.00  0.00     0.012 C 
HETATM    8  C17 UNL     1     -14.616   7.490  20.751  1.00  0.00     0.034 C 
HETATM    9  C18 UNL     1     -13.744   8.719  21.025  1.00  0.00     0.133 C 
HETATM   10  C25 UNL     1     -14.191   9.975  20.206  1.00  0.00    -0.017 C 
HETATM   11  C26 UNL     1     -13.094  11.060  20.397  1.00  0.00     0.018 C 
HETATM   12  C27 UNL     1     -15.490  10.583  20.773  1.00  0.00     0.018 C 
HETATM   13  C28 UNL     1     -14.290   9.570  18.691  1.00  0.00     0.004 C 
HETATM   14  C29 UNL     1     -14.513  10.741  17.711  1.00  0.00     0.007 C 
HETATM   15  C30 UNL     1     -14.325  10.324  16.239  1.00  0.00     0.011 C 
HETATM   16  C31 UNL     1     -15.225   9.135  15.791  1.00  0.00    -0.029 C 
HETATM   17  C32 UNL     1     -16.683   9.668  15.801  1.00  0.00     0.016 C 
HETATM   18  C33 UNL     1     -14.873   8.616  14.293  1.00  0.00     0.004 C 
HETATM   19  C34 UNL     1     -14.351   9.731  13.370  1.00  0.00     0.190 C 
HETATM   20  O9  UNL     1     -14.532   9.268  12.028  1.00  0.00    -0.321 OA
HETATM   21  C35 UNL     1     -15.594   8.416  12.015  1.00  0.00     0.259 C 
HETATM   22  O10 UNL     1     -16.060   7.902  11.012  1.00  0.00    -0.265 OA
HETATM   23  C36 UNL     1     -16.114   8.247  13.415  1.00  0.00     0.124 C 
ENDROOT
BRANCH   9  24
HETATM   24  O3  UNL     1     -13.746   9.059  22.417  1.00  0.00    -0.352 OA
BRANCH  24  25
HETATM   25  C19 UNL     1     -12.818   8.334  23.217  1.00  0.00     0.292 C 
HETATM   26  O4  UNL     1     -13.243   8.307  24.584  1.00  0.00    -0.348 OA
HETATM   27  C20 UNL     1     -13.137   9.554  25.284  1.00  0.00     0.179 C 
HETATM   28  C22 UNL     1     -11.700  10.110  25.236  1.00  0.00     0.180 C 
HETATM   29  C23 UNL     1     -11.170  10.215  23.797  1.00  0.00     0.183 C 
HETATM   30  C24 UNL     1     -11.384   8.889  23.049  1.00  0.00     0.204 C 
BRANCH  27  31
HETATM   31  C21 UNL     1     -14.210  10.571  24.875  1.00  0.00     0.198 C 
BRANCH  31  32
HETATM   32  O5  UNL     1     -13.804  11.888  25.253  1.00  0.00    -0.398 OA
HETATM   33  H34 UNL     1     -14.535  12.481  25.000  1.00  0.00     0.209 HD
ENDBRANCH  31  32
ENDBRANCH  27  31
BRANCH  28  34
HETATM   34  O6  UNL     1     -10.826   9.214  25.954  1.00  0.00    -0.390 OA
HETATM   35  H36 UNL     1     -11.150   9.174  26.875  1.00  0.00     0.210 HD
ENDBRANCH  28  34
BRANCH  29  36
HETATM   36  O7  UNL     1     -11.757  11.313  23.101  1.00  0.00    -0.390 OA
HETATM   37  H38 UNL     1     -11.470  12.129  23.550  1.00  0.00     0.210 HD
ENDBRANCH  29  36
BRANCH  30  38
HETATM   38  O8  UNL     1     -10.437   7.913  23.535  1.00  0.00    -0.388 OA
HETATM   39  H40 UNL     1     -10.471   7.971  24.514  1.00  0.00     0.210 HD
ENDBRANCH  30  38
ENDBRANCH  24  25
ENDBRANCH   9  24
BRANCH   1  40
HETATM   40  C9  UNL     1     -12.531   7.452  14.781  1.00  0.00     0.162 A 
HETATM   41  C7  UNL     1     -11.339   7.437  13.814  1.00  0.00     0.087 A 
HETATM   42  C8  UNL     1     -11.503   7.506  12.321  1.00  0.00     0.049 C 
HETATM   43  O2  UNL     1     -11.809   8.635  14.455  1.00  0.00    -0.369 OA
BRANCH  41  44
HETATM   44  C6  UNL     1     -10.001   6.963  14.343  1.00  0.00     0.076 C 
BRANCH  44  45
HETATM   45  C5  UNL     1      -9.282   7.965  15.263  1.00  0.00     0.144 C 
BRANCH  45  46
HETATM   46  C4  UNL     1      -7.780   7.994  15.115  1.00  0.00     0.006 C 
HETATM   47  C2  UNL     1      -6.823   7.149  15.553  1.00  0.00    -0.089 C 
HETATM   48  C1  UNL     1      -5.367   7.453  15.297  1.00  0.00     0.042 C 
HETATM   49  C3  UNL     1      -7.056   5.844  16.261  1.00  0.00     0.042 C 
ENDBRANCH  45  46
BRANCH  45  50
HETATM   50  O1  UNL     1      -9.693   7.790  16.612  1.00  0.00    -0.392 OA
HETATM   51  H9  UNL     1      -9.171   8.419  17.138  1.00  0.00     0.210 HD
ENDBRANCH  45  50
ENDBRANCH  44  45
ENDBRANCH  41  44
ENDBRANCH   1  40
TORSDOF 12
ENDMDL
MODEL 7
REMARK minimizedAffinity -7.39897394
REMARK CNNscore 0.18873547
REMARK CNNaffinity 5.54491663
REMARK  12 active torsions:
REMARK  status: ('A' for Active; 'I' for Inactive)
REMARK    1  A    between atoms: C4_4  and  C5_5 
REMARK    2  A    between atoms: C5_5  and  O1_6 
REMARK    3  A    between atoms: C5_5  and  C6_7 
REMARK    4  A    between atoms: C6_7  and  C7_8 
REMARK    5  A    between atoms: C9_11  and  C10_12 
REMARK    6  A    between atoms: C18_20  and  O3_21 
REMARK    7  A    between atoms: O3_21  and  C19_22 
REMARK    8  A    between atoms: C20_24  and  C21_25 
REMARK    9  A    between atoms: C21_25  and  O5_26 
REMARK   10  A    between atoms: C22_27  and  O6_28 
REMARK   11  A    between atoms: C23_29  and  O7_30 
REMARK   12  A    between atoms: C24_31  and  O8_32 
ROOT
HETATM    1  C10 UNL     1       7.536  14.028  20.806  1.00  0.00     0.029 C 
HETATM    2  C11 UNL     1       6.862  15.330  20.263  1.00  0.00     0.009 C 
HETATM    3  C12 UNL     1       5.324  15.351  20.361  1.00  0.00     0.007 C 
HETATM    4  C13 UNL     1       4.765  13.925  20.337  1.00  0.00     0.003 C 
HETATM    5  C14 UNL     1       3.291  13.717  19.798  1.00  0.00    -0.035 C 
HETATM    6  C15 UNL     1       2.250  14.378  20.725  1.00  0.00     0.016 C 
HETATM    7  C16 UNL     1       3.148  14.375  18.391  1.00  0.00     0.012 C 
HETATM    8  C17 UNL     1       1.880  13.978  17.632  1.00  0.00     0.034 C 
HETATM    9  C18 UNL     1       1.724  12.461  17.485  1.00  0.00     0.133 C 
HETATM   10  C25 UNL     1       1.807  11.708  18.854  1.00  0.00    -0.017 C 
HETATM   11  C26 UNL     1       1.872  10.186  18.536  1.00  0.00     0.018 C 
HETATM   12  C27 UNL     1       0.523  11.910  19.686  1.00  0.00     0.018 C 
HETATM   13  C28 UNL     1       3.118  12.161  19.592  1.00  0.00     0.004 C 
HETATM   14  C29 UNL     1       3.467  11.359  20.864  1.00  0.00     0.007 C 
HETATM   15  C30 UNL     1       4.888  11.659  21.380  1.00  0.00     0.011 C 
HETATM   16  C31 UNL     1       5.160  13.165  21.664  1.00  0.00    -0.029 C 
HETATM   17  C32 UNL     1       4.278  13.543  22.884  1.00  0.00     0.016 C 
HETATM   18  C33 UNL     1       6.713  13.459  22.037  1.00  0.00     0.004 C 
HETATM   19  C34 UNL     1       7.400  12.282  22.753  1.00  0.00     0.190 C 
HETATM   20  O9  UNL     1       8.545  12.822  23.419  1.00  0.00    -0.321 OA
HETATM   21  C35 UNL     1       8.283  14.124  23.724  1.00  0.00     0.259 C 
HETATM   22  O10 UNL     1       9.025  14.851  24.361  1.00  0.00    -0.265 OA
HETATM   23  C36 UNL     1       6.929  14.496  23.187  1.00  0.00     0.124 C 
ENDROOT
BRANCH   9  24
HETATM   24  O3  UNL     1       0.483  12.123  16.854  1.00  0.00    -0.352 OA
BRANCH  24  25
HETATM   25  C19 UNL     1       0.552  11.948  15.443  1.00  0.00     0.292 C 
HETATM   26  O4  UNL     1      -0.569  12.566  14.802  1.00  0.00    -0.348 OA
HETATM   27  C20 UNL     1      -1.828  11.907  14.997  1.00  0.00     0.179 C 
HETATM   28  C22 UNL     1      -1.771  10.433  14.551  1.00  0.00     0.180 C 
HETATM   29  C23 UNL     1      -0.617   9.672  15.223  1.00  0.00     0.183 C 
HETATM   30  C24 UNL     1       0.700  10.453  15.073  1.00  0.00     0.204 C 
BRANCH  27  31
HETATM   31  C21 UNL     1      -2.405  12.108  16.404  1.00  0.00     0.198 C 
BRANCH  31  32
HETATM   32  O5  UNL     1      -3.416  11.131  16.661  1.00  0.00    -0.398 OA
HETATM   33  H34 UNL     1      -3.766  11.329  17.549  1.00  0.00     0.209 HD
ENDBRANCH  31  32
ENDBRANCH  27  31
BRANCH  28  34
HETATM   34  O6  UNL     1      -1.549  10.382  13.126  1.00  0.00    -0.390 OA
HETATM   35  H36 UNL     1      -2.300  10.840  12.703  1.00  0.00     0.210 HD
ENDBRANCH  28  34
BRANCH  29  36
HETATM   36  O7  UNL     1      -0.904   9.383  16.590  1.00  0.00    -0.390 OA
HETATM   37  H38 UNL     1      -1.667   8.775  16.604  1.00  0.00     0.210 HD
ENDBRANCH  29  36
BRANCH  30  38
HETATM   38  O8  UNL     1       1.162  10.344  13.710  1.00  0.00    -0.388 OA
HETATM   39  H40 UNL     1       0.380  10.527  13.146  1.00  0.00     0.210 HD
ENDBRANCH  30  38
ENDBRANCH  24  25
ENDBRANCH   9  24
BRANCH   1  40
HETATM   40  C9  UNL     1       7.809  13.086  19.642  1.00  0.00     0.162 A 
HETATM   41  C7  UNL     1       9.197  12.486  19.384  1.00  0.00     0.087 A 
HETATM   42  C8  UNL     1      10.328  12.599  20.368  1.00  0.00     0.049 C 
HETATM   43  O2  UNL     1       8.104  11.721  19.917  1.00  0.00    -0.369 OA
BRANCH  41  44
HETATM   44  C6  UNL     1       9.553  12.105  17.961  1.00  0.00     0.076 C 
BRANCH  44  45
HETATM   45  C5  UNL     1       9.665  10.591  17.709  1.00  0.00     0.144 C 
BRANCH  45  46
HETATM   46  C4  UNL     1       9.996  10.209  16.287  1.00  0.00     0.006 C 
HETATM   47  C2  UNL     1       9.810   9.059  15.605  1.00  0.00    -0.089 C 
HETATM   48  C1  UNL     1      10.289   8.937  14.179  1.00  0.00     0.042 C 
HETATM   49  C3  UNL     1       9.100   7.837  16.115  1.00  0.00     0.042 C 
ENDBRANCH  45  46
BRANCH  45  50
HETATM   50  O1  UNL     1       8.515   9.916  18.201  1.00  0.00    -0.392 OA
HETATM   51  H9  UNL     1       8.633   8.979  17.971  1.00  0.00     0.210 HD
ENDBRANCH  45  50
ENDBRANCH  44  45
ENDBRANCH  41  44
ENDBRANCH   1  40
TORSDOF 12
ENDMDL
MODEL 8
REMARK minimizedAffinity -7.80810881
REMARK CNNscore 0.183827206
REMARK CNNaffinity 6.15727615
REMARK  12 active torsions:
REMARK  status: ('A' for Active; 'I' for Inactive)
REMARK    1  A    between atoms: C4_4  and  C5_5 
REMARK    2  A    between atoms: C5_5  and  O1_6 
REMARK    3  A    between atoms: C5_5  and  C6_7 
REMARK    4  A    between atoms: C6_7  and  C7_8 
REMARK    5  A    between atoms: C9_11  and  C10_12 
REMARK    6  A    between atoms: C18_20  and  O3_21 
REMARK    7  A    between atoms: O3_21  and  C19_22 
REMARK    8  A    between atoms: C20_24  and  C21_25 
REMARK    9  A    between atoms: C21_25  and  O5_26 
REMARK   10  A    between atoms: C22_27  and  O6_28 
REMARK   11  A    between atoms: C23_29  and  O7_30 
REMARK   12  A    between atoms: C24_31  and  O8_32 
ROOT
HETATM    1  C10 UNL     1       7.968  16.596  23.299  1.00  0.00     0.029 C 
HETATM    2  C11 UNL     1       6.634  17.079  22.642  1.00  0.00     0.009 C 
HETATM    3  C12 UNL     1       5.711  17.888  23.574  1.00  0.00     0.007 C 
HETATM    4  C13 UNL     1       5.949  17.500  25.036  1.00  0.00     0.003 C 
HETATM    5  C14 UNL     1       4.755  17.692  26.057  1.00  0.00    -0.035 C 
HETATM    6  C15 UNL     1       4.406  19.182  26.248  1.00  0.00     0.016 C 
HETATM    7  C16 UNL     1       3.478  16.980  25.512  1.00  0.00     0.012 C 
HETATM    8  C17 UNL     1       2.354  16.823  26.539  1.00  0.00     0.034 C 
HETATM    9  C18 UNL     1       2.809  16.111  27.817  1.00  0.00     0.133 C 
HETATM   10  C25 UNL     1       4.063  16.780  28.470  1.00  0.00    -0.017 C 
HETATM   11  C26 UNL     1       4.551  15.831  29.602  1.00  0.00     0.018 C 
HETATM   12  C27 UNL     1       3.696  18.109  29.162  1.00  0.00     0.018 C 
HETATM   13  C28 UNL     1       5.178  16.925  27.372  1.00  0.00     0.004 C 
HETATM   14  C29 UNL     1       6.560  17.373  27.892  1.00  0.00     0.007 C 
HETATM   15  C30 UNL     1       7.667  17.229  26.829  1.00  0.00     0.011 C 
HETATM   16  C31 UNL     1       7.379  17.987  25.500  1.00  0.00    -0.029 C 
HETATM   17  C32 UNL     1       7.440  19.500  25.841  1.00  0.00     0.016 C 
HETATM   18  C33 UNL     1       8.480  17.669  24.350  1.00  0.00     0.004 C 
HETATM   19  C34 UNL     1       9.880  17.368  24.915  1.00  0.00     0.190 C 
HETATM   20  O9  UNL     1      10.805  17.575  23.843  1.00  0.00    -0.321 OA
HETATM   21  C35 UNL     1      10.278  18.509  23.004  1.00  0.00     0.259 C 
HETATM   22  O10 UNL     1      10.848  18.967  22.029  1.00  0.00    -0.265 OA
HETATM   23  C36 UNL     1       8.913  18.905  23.494  1.00  0.00     0.124 C 
ENDROOT
BRANCH   9  24
HETATM   24  O3  UNL     1       1.759  16.066  28.789  1.00  0.00    -0.352 OA
BRANCH  24  25
HETATM   25  C19 UNL     1       1.723  14.885  29.584  1.00  0.00     0.292 C 
HETATM   26  O4  UNL     1       1.286  13.765  28.807  1.00  0.00    -0.348 OA
HETATM   27  C20 UNL     1      -0.102  13.772  28.445  1.00  0.00     0.179 C 
HETATM   28  C22 UNL     1      -1.009  13.880  29.686  1.00  0.00     0.180 C 
HETATM   29  C23 UNL     1      -0.641  15.085  30.566  1.00  0.00     0.183 C 
HETATM   30  C24 UNL     1       0.869  15.095  30.857  1.00  0.00     0.204 C 
BRANCH  27  31
HETATM   31  C21 UNL     1      -0.435  14.785  27.342  1.00  0.00     0.198 C 
BRANCH  31  32
HETATM   32  O5  UNL     1      -1.290  14.183  26.368  1.00  0.00    -0.398 OA
HETATM   33  H34 UNL     1      -1.438  14.858  25.681  1.00  0.00     0.209 HD
ENDBRANCH  31  32
ENDBRANCH  27  31
BRANCH  28  34
HETATM   34  O6  UNL     1      -0.848  12.692  30.490  1.00  0.00    -0.390 OA
HETATM   35  H36 UNL     1      -1.112  11.933  29.936  1.00  0.00     0.210 HD
ENDBRANCH  28  34
BRANCH  29  36
HETATM   36  O7  UNL     1      -1.073  16.312  29.984  1.00  0.00    -0.390 OA
HETATM   37  H38 UNL     1      -2.048  16.293  29.953  1.00  0.00     0.210 HD
ENDBRANCH  29  36
BRANCH  30  38
HETATM   38  O8  UNL     1       1.174  14.055  31.812  1.00  0.00    -0.388 OA
HETATM   39  H40 UNL     1       0.710  13.252  31.491  1.00  0.00     0.210 HD
ENDBRANCH  30  38
ENDBRANCH  24  25
ENDBRANCH   9  24
BRANCH   1  40
HETATM   40  C9  UNL     1       7.796  15.162  23.780  1.00  0.00     0.162 A 
HETATM   41  C7  UNL     1       8.303  13.962  22.970  1.00  0.00     0.087 A 
HETATM   42  C8  UNL     1       9.191  14.110  21.766  1.00  0.00     0.049 C 
HETATM   43  O2  UNL     1       8.950  14.424  24.167  1.00  0.00    -0.369 OA
BRANCH  41  44
HETATM   44  C6  UNL     1       7.596  12.634  23.149  1.00  0.00     0.076 C 
BRANCH  44  45
HETATM   45  C5  UNL     1       6.098  12.650  22.796  1.00  0.00     0.144 C 
BRANCH  45  46
HETATM   46  C4  UNL     1       5.403  11.316  22.924  1.00  0.00     0.006 C 
HETATM   47  C2  UNL     1       4.098  10.999  23.060  1.00  0.00    -0.089 C 
HETATM   48  C1  UNL     1       3.681   9.557  23.216  1.00  0.00     0.042 C 
HETATM   49  C3  UNL     1       2.947  11.964  23.022  1.00  0.00     0.042 C 
ENDBRANCH  45  46
BRANCH  45  50
HETATM   50  O1  UNL     1       5.890  13.253  21.526  1.00  0.00    -0.392 OA
HETATM   51  H9  UNL     1       4.936  13.190  21.350  1.00  0.00     0.210 HD
ENDBRANCH  45  50
ENDBRANCH  44  45
ENDBRANCH  41  44
ENDBRANCH   1  40
TORSDOF 12
ENDMDL
MODEL 9
REMARK minimizedAffinity -6.87212086
REMARK CNNscore 0.175868854
REMARK CNNaffinity 5.48610163
REMARK  12 active torsions:
REMARK  status: ('A' for Active; 'I' for Inactive)
REMARK    1  A    between atoms: C4_4  and  C5_5 
REMARK    2  A    between atoms: C5_5  and  O1_6 
REMARK    3  A    between atoms: C5_5  and  C6_7 
REMARK    4  A    between atoms: C6_7  and  C7_8 
REMARK    5  A    between atoms: C9_11  and  C10_12 
REMARK    6  A    between atoms: C18_20  and  O3_21 
REMARK    7  A    between atoms: O3_21  and  C19_22 
REMARK    8  A    between atoms: C20_24  and  C21_25 
REMARK    9  A    between atoms: C21_25  and  O5_26 
REMARK   10  A    between atoms: C22_27  and  O6_28 
REMARK   11  A    between atoms: C23_29  and  O7_30 
REMARK   12  A    between atoms: C24_31  and  O8_32 
ROOT
HETATM    1  C10 UNL     1       5.020  14.355  22.582  1.00  0.00     0.029 C 
HETATM    2  C11 UNL     1       4.075  13.330  23.289  1.00  0.00     0.009 C 
HETATM    3  C12 UNL     1       3.601  12.167  22.397  1.00  0.00     0.007 C 
HETATM    4  C13 UNL     1       3.595  12.586  20.924  1.00  0.00     0.003 C 
HETATM    5  C14 UNL     1       2.596  11.843  19.947  1.00  0.00    -0.035 C 
HETATM    6  C15 UNL     1       2.965  10.355  19.780  1.00  0.00     0.016 C 
HETATM    7  C16 UNL     1       1.150  11.904  20.530  1.00  0.00     0.012 C 
HETATM    8  C17 UNL     1       0.052  11.504  19.541  1.00  0.00     0.034 C 
HETATM    9  C18 UNL     1       0.094  12.315  18.242  1.00  0.00     0.133 C 
HETATM   10  C25 UNL     1       1.498  12.280  17.552  1.00  0.00    -0.017 C 
HETATM   11  C26 UNL     1       1.465  13.320  16.395  1.00  0.00     0.018 C 
HETATM   12  C27 UNL     1       1.762  10.914  16.884  1.00  0.00     0.018 C 
HETATM   13  C28 UNL     1       2.584  12.688  18.612  1.00  0.00     0.004 C 
HETATM   14  C29 UNL     1       4.002  12.911  18.047  1.00  0.00     0.007 C 
HETATM   15  C30 UNL     1       4.948  13.572  19.070  1.00  0.00     0.011 C 
HETATM   16  C31 UNL     1       5.076  12.798  20.414  1.00  0.00    -0.029 C 
HETATM   17  C32 UNL     1       5.815  11.474  20.085  1.00  0.00     0.016 C 
HETATM   18  C33 UNL     1       5.939  13.612  21.523  1.00  0.00     0.004 C 
HETATM   19  C34 UNL     1       7.029  14.508  20.907  1.00  0.00     0.190 C 
HETATM   20  O9  UNL     1       7.974  14.774  21.948  1.00  0.00    -0.321 OA
HETATM   21  C35 UNL     1       7.958  13.722  22.813  1.00  0.00     0.259 C 
HETATM   22  O10 UNL     1       8.701  13.599  23.772  1.00  0.00    -0.265 OA
HETATM   23  C36 UNL     1       6.914  12.734  22.374  1.00  0.00     0.124 C 
ENDROOT
BRANCH   9  24
HETATM   24  O3  UNL     1      -0.885  11.851  17.306  1.00  0.00    -0.352 OA
BRANCH  24  25
HETATM   25  C19 UNL     1      -1.614  10.699  17.717  1.00  0.00     0.292 C 
HETATM   26  O4  UNL     1      -1.423   9.623  16.791  1.00  0.00    -0.348 OA
HETATM   27  C20 UNL     1      -2.061   9.787  15.518  1.00  0.00     0.179 C 
HETATM   28  C22 UNL     1      -3.576  10.027  15.671  1.00  0.00     0.180 C 
HETATM   29  C23 UNL     1      -3.882  11.197  16.620  1.00  0.00     0.183 C 
HETATM   30  C24 UNL     1      -3.108  11.034  17.939  1.00  0.00     0.204 C 
BRANCH  27  31
HETATM   31  C21 UNL     1      -1.360  10.810  14.616  1.00  0.00     0.198 C 
BRANCH  31  32
HETATM   32  O5  UNL     1      -1.480  10.418  13.246  1.00  0.00    -0.398 OA
HETATM   33  H34 UNL     1      -0.990  11.083  12.729  1.00  0.00     0.209 HD
ENDBRANCH  31  32
ENDBRANCH  27  31
BRANCH  28  34
HETATM   34  O6  UNL     1      -4.184   8.844  16.234  1.00  0.00    -0.390 OA
HETATM   35  H36 UNL     1      -4.012   8.111  15.613  1.00  0.00     0.210 HD
ENDBRANCH  28  34
BRANCH  29  36
HETATM   36  O7  UNL     1      -3.615  12.455  16.005  1.00  0.00    -0.390 OA
HETATM   37  H38 UNL     1      -4.233  12.550  15.257  1.00  0.00     0.210 HD
ENDBRANCH  29  36
BRANCH  30  38
HETATM   38  O8  UNL     1      -3.720   9.984  18.720  1.00  0.00    -0.388 OA
HETATM   39  H40 UNL     1      -3.859   9.235  18.101  1.00  0.00     0.210 HD
ENDBRANCH  30  38
ENDBRANCH  24  25
ENDBRANCH   9  24
BRANCH   1  40
HETATM   40  C9  UNL     1       4.196  15.539  22.095  1.00  0.00     0.162 A 
HETATM   41  C7  UNL     1       4.281  16.921  22.756  1.00  0.00     0.087 A 
HETATM   42  C8  UNL     1       5.328  17.273  23.776  1.00  0.00     0.049 C 
HETATM   43  O2  UNL     1       4.864  16.633  21.475  1.00  0.00    -0.369 OA
BRANCH  41  44
HETATM   44  C6  UNL     1       3.068  17.826  22.669  1.00  0.00     0.076 C 
BRANCH  44  45
HETATM   45  C5  UNL     1       2.229  17.901  23.956  1.00  0.00     0.144 C 
BRANCH  45  46
HETATM   46  C4  UNL     1       1.790  16.565  24.505  1.00  0.00     0.006 C 
HETATM   47  C2  UNL     1       2.103  15.925  25.652  1.00  0.00    -0.089 C 
HETATM   48  C1  UNL     1       1.545  14.550  25.929  1.00  0.00     0.042 C 
HETATM   49  C3  UNL     1       2.949  16.474  26.766  1.00  0.00     0.042 C 
ENDBRANCH  45  46
BRANCH  45  50
HETATM   50  O1  UNL     1       1.144  18.806  23.794  1.00  0.00    -0.392 OA
HETATM   51  H9  UNL     1       0.636  18.770  24.622  1.00  0.00     0.210 HD
ENDBRANCH  45  50
ENDBRANCH  44  45
ENDBRANCH  41  44
ENDBRANCH   1  40
TORSDOF 12
ENDMDL
