MODEL 1
REMARK minimizedAffinity -10.5284472
REMARK  9 active torsions:
REMARK  status: ('A' for Active; 'I' for Inactive)
REMARK    1  A    between atoms: C2_2  and  C4_4 
REMARK    2  A    between atoms: C4_4  and  O1_5 
REMARK    3  A    between atoms: C4_4  and  C5_7 
REMARK    4  A    between atoms: O1_5  and  O2_6 
REMARK    5  A    between atoms: C5_7  and  O3_8 
REMARK    6  A    between atoms: C5_7  and  C6_9 
REMARK    7  A    between atoms: C6_9  and  C7_10 
REMARK    8  A    between atoms: C7_10  and  C9_12 
REMARK    9  A    between atoms: C20_23  and  O4_24 
ROOT
HETATM    1  C9  UNL     1       1.080   6.840  13.132  1.00  0.00    -0.002 C 
HETATM    2  C10 UNL     1       0.322   8.011  13.813  1.00  0.00     0.006 C 
HETATM    3  C11 UNL     1      -1.168   7.634  13.866  1.00  0.00     0.011 C 
HETATM    4  C12 UNL     1      -1.218   6.140  13.497  1.00  0.00    -0.032 C 
HETATM    5  C13 UNL     1      -0.944   5.347  14.814  1.00  0.00     0.016 C 
HETATM    6  C14 UNL     1      -2.557   5.682  12.861  1.00  0.00     0.004 C 
HETATM    7  C15 UNL     1      -3.738   5.637  13.842  1.00  0.00     0.006 C 
HETATM    8  C16 UNL     1      -5.020   5.244  13.115  1.00  0.00     0.006 C 
HETATM    9  C17 UNL     1      -4.945   3.782  12.660  1.00  0.00     0.001 C 
HETATM   10  C18 UNL     1      -6.151   3.344  11.786  1.00  0.00     0.015 C 
HETATM   11  C19 UNL     1      -7.483   3.501  12.536  1.00  0.00     0.013 C 
HETATM   12  C20 UNL     1      -5.994   1.881  11.294  1.00  0.00     0.122 C 
HETATM   13  C21 UNL     1      -4.794   1.157  11.907  1.00  0.00     0.033 C 
HETATM   14  C22 UNL     1      -3.482   1.929  11.717  1.00  0.00     0.013 C 
HETATM   15  C23 UNL     1      -3.649   3.433  11.924  1.00  0.00    -0.027 A 
HETATM   16  C24 UNL     1      -3.188   4.299  10.775  1.00  0.00     0.021 A 
HETATM   17  C25 UNL     1      -2.410   4.354  12.078  1.00  0.00    -0.027 A 
HETATM   18  C26 UNL     1      -1.042   3.672  12.107  1.00  0.00     0.011 C 
HETATM   19  C27 UNL     1       0.203   4.574  12.125  1.00  0.00     0.011 C 
HETATM   20  C28 UNL     1      -0.073   6.054  12.420  1.00  0.00    -0.032 C 
HETATM   21  C29 UNL     1      -0.415   6.756  11.072  1.00  0.00     0.016 C 
ENDROOT
BRANCH   1  22
HETATM   22  C7  UNL     1       2.321   7.314  12.316  1.00  0.00    -0.011 C 
HETATM   23  C8  UNL     1       2.045   8.605  11.550  1.00  0.00     0.010 C 
BRANCH  22  24
HETATM   24  C6  UNL     1       2.938   6.219  11.390  1.00  0.00     0.039 C 
BRANCH  24  25
HETATM   25  C5  UNL     1       3.502   6.592  10.003  1.00  0.00     0.154 C 
BRANCH  25  26
HETATM   26  C4  UNL     1       2.687   6.114   8.764  1.00  0.00     0.216 C 
BRANCH  26  27
HETATM   27  C2  UNL     1       2.459   7.190   7.708  1.00  0.00    -0.059 C 
HETATM   28  C1  UNL     1       1.781   6.963   6.567  1.00  0.00     0.016 C 
HETATM   29  C3  UNL     1       2.988   8.564   8.019  1.00  0.00     0.045 C 
ENDBRANCH  26  27
BRANCH  26  30
HETATM   30  O1  UNL     1       3.440   5.050   8.120  1.00  0.00    -0.231 OA
BRANCH  30  31
HETATM   31  O2  UNL     1       3.286   3.854   8.936  1.00  0.00    -0.250 OA
HETATM   32  H7  UNL     1       2.779   3.341   8.278  1.00  0.00     0.253 HD
ENDBRANCH  30  31
ENDBRANCH  26  30
ENDBRANCH  25  26
BRANCH  25  33
HETATM   33  O3  UNL     1       4.865   6.165   9.908  1.00  0.00    -0.393 OA
HETATM   34  H9  UNL     1       5.085   6.188   8.952  1.00  0.00     0.210 HD
ENDBRANCH  25  33
ENDBRANCH  24  25
ENDBRANCH  22  24
ENDBRANCH   1  22
BRANCH  12  35
HETATM   35  O4  UNL     1      -5.859   1.894   9.868  1.00  0.00    -0.395 OA
HETATM   36  H35 UNL     1      -5.826   0.969   9.571  1.00  0.00     0.210 HD
ENDBRANCH  12  35
TORSDOF 9
ENDMDL
MODEL 2
REMARK minimizedAffinity -9.20343018
REMARK  9 active torsions:
REMARK  status: ('A' for Active; 'I' for Inactive)
REMARK    1  A    between atoms: C2_2  and  C4_4 
REMARK    2  A    between atoms: C4_4  and  O1_5 
REMARK    3  A    between atoms: C4_4  and  C5_7 
REMARK    4  A    between atoms: O1_5  and  O2_6 
REMARK    5  A    between atoms: C5_7  and  O3_8 
REMARK    6  A    between atoms: C5_7  and  C6_9 
REMARK    7  A    between atoms: C6_9  and  C7_10 
REMARK    8  A    between atoms: C7_10  and  C9_12 
REMARK    9  A    between atoms: C20_23  and  O4_24 
ROOT
HETATM    1  C9  UNL     1       0.410   6.719  13.376  1.00  0.00    -0.002 C 
HETATM    2  C10 UNL     1       0.503   7.541  14.690  1.00  0.00     0.006 C 
HETATM    3  C11 UNL     1      -0.897   7.555  15.330  1.00  0.00     0.011 C 
HETATM    4  C12 UNL     1      -1.705   6.501  14.553  1.00  0.00    -0.032 C 
HETATM    5  C13 UNL     1      -1.389   5.121  15.211  1.00  0.00     0.016 C 
HETATM    6  C14 UNL     1      -3.236   6.752  14.536  1.00  0.00     0.004 C 
HETATM    7  C15 UNL     1      -3.928   6.511  15.886  1.00  0.00     0.006 C 
HETATM    8  C16 UNL     1      -5.413   6.848  15.791  1.00  0.00     0.006 C 
HETATM    9  C17 UNL     1      -6.131   5.834  14.895  1.00  0.00     0.001 C 
HETATM   10  C18 UNL     1      -7.619   6.188  14.629  1.00  0.00     0.015 C 
HETATM   11  C19 UNL     1      -8.426   6.266  15.934  1.00  0.00     0.013 C 
HETATM   12  C20 UNL     1      -8.281   5.171  13.662  1.00  0.00     0.122 C 
HETATM   13  C21 UNL     1      -7.386   3.976  13.326  1.00  0.00     0.033 C 
HETATM   14  C22 UNL     1      -6.011   4.403  12.796  1.00  0.00     0.013 C 
HETATM   15  C23 UNL     1      -5.432   5.597  13.553  1.00  0.00    -0.027 A 
HETATM   16  C24 UNL     1      -5.045   6.779  12.696  1.00  0.00     0.021 A 
HETATM   17  C25 UNL     1      -3.943   5.994  13.385  1.00  0.00    -0.027 A 
HETATM   18  C26 UNL     1      -3.079   5.085  12.513  1.00  0.00     0.011 C 
HETATM   19  C27 UNL     1      -1.636   5.533  12.226  1.00  0.00     0.011 C 
HETATM   20  C28 UNL     1      -1.132   6.689  13.099  1.00  0.00    -0.032 C 
HETATM   21  C29 UNL     1      -1.555   8.024  12.417  1.00  0.00     0.016 C 
ENDROOT
BRANCH   1  22
HETATM   22  C7  UNL     1       1.393   7.222  12.276  1.00  0.00    -0.011 C 
HETATM   23  C8  UNL     1       1.372   8.743  12.142  1.00  0.00     0.010 C 
BRANCH  22  24
HETATM   24  C6  UNL     1       1.220   6.522  10.891  1.00  0.00     0.039 C 
BRANCH  24  25
HETATM   25  C5  UNL     1       2.351   5.649  10.307  1.00  0.00     0.154 C 
BRANCH  25  26
HETATM   26  C4  UNL     1       2.564   5.719   8.766  1.00  0.00     0.216 C 
BRANCH  26  27
HETATM   27  C2  UNL     1       2.650   7.135   8.207  1.00  0.00    -0.059 C 
HETATM   28  C1  UNL     1       3.385   8.106   8.781  1.00  0.00     0.016 C 
HETATM   29  C3  UNL     1       1.905   7.401   6.927  1.00  0.00     0.045 C 
ENDBRANCH  26  27
BRANCH  26  30
HETATM   30  O1  UNL     1       3.832   5.075   8.462  1.00  0.00    -0.231 OA
BRANCH  30  31
HETATM   31  O2  UNL     1       3.604   4.181   7.335  1.00  0.00    -0.250 OA
HETATM   32  H7  UNL     1       4.163   4.667   6.700  1.00  0.00     0.253 HD
ENDBRANCH  30  31
ENDBRANCH  26  30
ENDBRANCH  25  26
BRANCH  25  33
HETATM   33  O3  UNL     1       2.181   4.294  10.734  1.00  0.00    -0.393 OA
HETATM   34  H9  UNL     1       2.751   3.755  10.145  1.00  0.00     0.210 HD
ENDBRANCH  25  33
ENDBRANCH  24  25
ENDBRANCH  22  24
ENDBRANCH   1  22
BRANCH  12  35
HETATM   35  O4  UNL     1      -8.627   5.855  12.452  1.00  0.00    -0.395 OA
HETATM   36  H35 UNL     1      -9.097   5.222  11.883  1.00  0.00     0.210 HD
ENDBRANCH  12  35
TORSDOF 9
ENDMDL
MODEL 3
REMARK minimizedAffinity -9.16793919
REMARK  9 active torsions:
REMARK  status: ('A' for Active; 'I' for Inactive)
REMARK    1  A    between atoms: C2_2  and  C4_4 
REMARK    2  A    between atoms: C4_4  and  O1_5 
REMARK    3  A    between atoms: C4_4  and  C5_7 
REMARK    4  A    between atoms: O1_5  and  O2_6 
REMARK    5  A    between atoms: C5_7  and  O3_8 
REMARK    6  A    between atoms: C5_7  and  C6_9 
REMARK    7  A    between atoms: C6_9  and  C7_10 
REMARK    8  A    between atoms: C7_10  and  C9_12 
REMARK    9  A    between atoms: C20_23  and  O4_24 
ROOT
HETATM    1  C9  UNL     1       1.972   6.649  12.124  1.00  0.00    -0.002 C 
HETATM    2  C10 UNL     1       1.385   7.892  12.844  1.00  0.00     0.006 C 
HETATM    3  C11 UNL     1      -0.104   7.614  13.115  1.00  0.00     0.011 C 
HETATM    4  C12 UNL     1      -0.291   6.113  12.829  1.00  0.00    -0.032 C 
HETATM    5  C13 UNL     1       0.115   5.358  14.134  1.00  0.00     0.016 C 
HETATM    6  C14 UNL     1      -1.729   5.717  12.402  1.00  0.00     0.004 C 
HETATM    7  C15 UNL     1      -2.764   5.788  13.535  1.00  0.00     0.006 C 
HETATM    8  C16 UNL     1      -4.155   5.449  13.007  1.00  0.00     0.006 C 
HETATM    9  C17 UNL     1      -4.228   3.969  12.618  1.00  0.00     0.001 C 
HETATM   10  C18 UNL     1      -5.566   3.574  11.937  1.00  0.00     0.015 C 
HETATM   11  C19 UNL     1      -6.771   3.847  12.850  1.00  0.00     0.013 C 
HETATM   12  C20 UNL     1      -5.564   2.085  11.500  1.00  0.00     0.122 C 
HETATM   13  C21 UNL     1      -4.335   1.310  11.980  1.00  0.00     0.033 C 
HETATM   14  C22 UNL     1      -3.020   1.988  11.578  1.00  0.00     0.013 C 
HETATM   15  C23 UNL     1      -3.068   3.507  11.732  1.00  0.00    -0.027 A 
HETATM   16  C24 UNL     1      -2.720   4.294  10.491  1.00  0.00     0.021 A 
HETATM   17  C25 UNL     1      -1.768   4.351  11.673  1.00  0.00    -0.027 A 
HETATM   18  C26 UNL     1      -0.452   3.585  11.550  1.00  0.00     0.011 C 
HETATM   19  C27 UNL     1       0.835   4.405  11.356  1.00  0.00     0.011 C 
HETATM   20  C28 UNL     1       0.688   5.910  11.614  1.00  0.00    -0.032 C 
HETATM   21  C29 UNL     1       0.206   6.577  10.291  1.00  0.00     0.016 C 
ENDROOT
BRANCH   1  22
HETATM   22  C7  UNL     1       3.115   7.008  11.127  1.00  0.00    -0.011 C 
HETATM   23  C8  UNL     1       3.618   5.784  10.366  1.00  0.00     0.010 C 
BRANCH  22  24
HETATM   24  C6  UNL     1       4.293   7.812  11.762  1.00  0.00     0.039 C 
BRANCH  24  25
HETATM   25  C5  UNL     1       5.650   7.129  12.037  1.00  0.00     0.154 C 
BRANCH  25  26
HETATM   26  C4  UNL     1       6.206   7.237  13.488  1.00  0.00     0.216 C 
BRANCH  26  27
HETATM   27  C2  UNL     1       7.323   8.260  13.659  1.00  0.00    -0.059 C 
HETATM   28  C1  UNL     1       8.622   7.916  13.754  1.00  0.00     0.016 C 
HETATM   29  C3  UNL     1       6.916   9.708  13.665  1.00  0.00     0.045 C 
ENDBRANCH  26  27
BRANCH  26  30
HETATM   30  O1  UNL     1       5.116   7.661  14.352  1.00  0.00    -0.231 OA
BRANCH  30  31
HETATM   31  O2  UNL     1       5.312   7.020  15.644  1.00  0.00    -0.250 OA
HETATM   32  H7  UNL     1       5.488   7.839  16.144  1.00  0.00     0.253 HD
ENDBRANCH  30  31
ENDBRANCH  26  30
ENDBRANCH  25  26
BRANCH  25  33
HETATM   33  O3  UNL     1       6.618   7.586  11.088  1.00  0.00    -0.393 OA
HETATM   34  H9  UNL     1       7.492   7.333  11.456  1.00  0.00     0.210 HD
ENDBRANCH  25  33
ENDBRANCH  24  25
ENDBRANCH  22  24
ENDBRANCH   1  22
BRANCH  12  35
HETATM   35  O4  UNL     1      -5.626   2.031  10.070  1.00  0.00    -0.395 OA
HETATM   36  H35 UNL     1      -5.689   1.095   9.816  1.00  0.00     0.210 HD
ENDBRANCH  12  35
TORSDOF 9
ENDMDL
MODEL 4
REMARK minimizedAffinity -9.11106396
REMARK  9 active torsions:
REMARK  status: ('A' for Active; 'I' for Inactive)
REMARK    1  A    between atoms: C2_2  and  C4_4 
REMARK    2  A    between atoms: C4_4  and  O1_5 
REMARK    3  A    between atoms: C4_4  and  C5_7 
REMARK    4  A    between atoms: O1_5  and  O2_6 
REMARK    5  A    between atoms: C5_7  and  O3_8 
REMARK    6  A    between atoms: C5_7  and  C6_9 
REMARK    7  A    between atoms: C6_9  and  C7_10 
REMARK    8  A    between atoms: C7_10  and  C9_12 
REMARK    9  A    between atoms: C20_23  and  O4_24 
ROOT
HETATM    1  C9  UNL     1       1.361   6.827  12.969  1.00  0.00    -0.002 C 
HETATM    2  C10 UNL     1       0.646   8.015  13.665  1.00  0.00     0.006 C 
HETATM    3  C11 UNL     1      -0.852   7.672  13.751  1.00  0.00     0.011 C 
HETATM    4  C12 UNL     1      -0.944   6.180  13.387  1.00  0.00    -0.032 C 
HETATM    5  C13 UNL     1      -0.658   5.382  14.698  1.00  0.00     0.016 C 
HETATM    6  C14 UNL     1      -2.307   5.752  12.781  1.00  0.00     0.004 C 
HETATM    7  C15 UNL     1      -3.466   5.735  13.788  1.00  0.00     0.006 C 
HETATM    8  C16 UNL     1      -4.773   5.371  13.090  1.00  0.00     0.006 C 
HETATM    9  C17 UNL     1      -4.742   3.908  12.637  1.00  0.00     0.001 C 
HETATM   10  C18 UNL     1      -5.976   3.496  11.790  1.00  0.00     0.015 C 
HETATM   11  C19 UNL     1      -7.288   3.685  12.569  1.00  0.00     0.013 C 
HETATM   12  C20 UNL     1      -5.864   2.029  11.298  1.00  0.00     0.122 C 
HETATM   13  C21 UNL     1      -4.668   1.278  11.885  1.00  0.00     0.033 C 
HETATM   14  C22 UNL     1      -3.343   2.020  11.664  1.00  0.00     0.013 C 
HETATM   15  C23 UNL     1      -3.470   3.528  11.872  1.00  0.00    -0.027 A 
HETATM   16  C24 UNL     1      -3.016   4.381  10.713  1.00  0.00     0.021 A 
HETATM   17  C25 UNL     1      -2.208   4.419  11.998  1.00  0.00    -0.027 A 
HETATM   18  C26 UNL     1      -0.856   3.707  11.997  1.00  0.00     0.011 C 
HETATM   19  C27 UNL     1       0.410   4.580  11.986  1.00  0.00     0.011 C 
HETATM   20  C28 UNL     1       0.174   6.066  12.285  1.00  0.00    -0.032 C 
HETATM   21  C29 UNL     1      -0.181   6.774  10.943  1.00  0.00     0.016 C 
ENDROOT
BRANCH   1  22
HETATM   22  C7  UNL     1       2.594   7.271  12.125  1.00  0.00    -0.011 C 
HETATM   23  C8  UNL     1       3.011   6.205  11.115  1.00  0.00     0.010 C 
BRANCH  22  24
HETATM   24  C6  UNL     1       3.810   7.763  12.974  1.00  0.00     0.039 C 
BRANCH  24  25
HETATM   25  C5  UNL     1       5.252   7.588  12.452  1.00  0.00     0.154 C 
BRANCH  25  26
HETATM   26  C4  UNL     1       5.548   8.128  11.021  1.00  0.00     0.216 C 
BRANCH  26  27
HETATM   27  C2  UNL     1       6.066   9.562  10.985  1.00  0.00    -0.059 C 
HETATM   28  C1  UNL     1       6.971   9.989  10.084  1.00  0.00     0.016 C 
HETATM   29  C3  UNL     1       5.476  10.518  11.984  1.00  0.00     0.045 C 
ENDBRANCH  26  27
BRANCH  26  30
HETATM   30  O1  UNL     1       6.586   7.295  10.438  1.00  0.00    -0.231 OA
BRANCH  30  31
HETATM   31  O2  UNL     1       7.651   7.175  11.423  1.00  0.00    -0.250 OA
HETATM   32  H7  UNL     1       7.540   6.218  11.585  1.00  0.00     0.253 HD
ENDBRANCH  30  31
ENDBRANCH  26  30
ENDBRANCH  25  26
BRANCH  25  33
HETATM   33  O3  UNL     1       5.640   6.216  12.566  1.00  0.00    -0.393 OA
HETATM   34  H9  UNL     1       6.435   6.116  11.999  1.00  0.00     0.210 HD
ENDBRANCH  25  33
ENDBRANCH  24  25
ENDBRANCH  22  24
ENDBRANCH   1  22
BRANCH  12  35
HETATM   35  O4  UNL     1      -5.761   2.037   9.869  1.00  0.00    -0.395 OA
HETATM   36  H35 UNL     1      -5.756   1.111   9.572  1.00  0.00     0.210 HD
ENDBRANCH  12  35
TORSDOF 9
ENDMDL
MODEL 5
REMARK minimizedAffinity -9.0994997
REMARK  9 active torsions:
REMARK  status: ('A' for Active; 'I' for Inactive)
REMARK    1  A    between atoms: C2_2  and  C4_4 
REMARK    2  A    between atoms: C4_4  and  O1_5 
REMARK    3  A    between atoms: C4_4  and  C5_7 
REMARK    4  A    between atoms: O1_5  and  O2_6 
REMARK    5  A    between atoms: C5_7  and  O3_8 
REMARK    6  A    between atoms: C5_7  and  C6_9 
REMARK    7  A    between atoms: C6_9  and  C7_10 
REMARK    8  A    between atoms: C7_10  and  C9_12 
REMARK    9  A    between atoms: C20_23  and  O4_24 
ROOT
HETATM    1  C9  UNL     1       0.810   6.330  12.305  1.00  0.00    -0.002 C 
HETATM    2  C10 UNL     1       1.161   4.909  11.788  1.00  0.00     0.006 C 
HETATM    3  C11 UNL     1      -0.143   4.093  11.746  1.00  0.00     0.011 C 
HETATM    4  C12 UNL     1      -1.269   5.123  11.945  1.00  0.00    -0.032 C 
HETATM    5  C13 UNL     1      -1.572   5.730  10.538  1.00  0.00     0.016 C 
HETATM    6  C14 UNL     1      -2.564   4.544  12.573  1.00  0.00     0.004 C 
HETATM    7  C15 UNL     1      -3.361   3.625  11.636  1.00  0.00     0.006 C 
HETATM    8  C16 UNL     1      -4.575   3.050  12.359  1.00  0.00     0.006 C 
HETATM    9  C17 UNL     1      -5.596   4.157  12.643  1.00  0.00     0.001 C 
HETATM   10  C18 UNL     1      -6.798   3.684  13.504  1.00  0.00     0.015 C 
HETATM   11  C19 UNL     1      -7.568   2.541  12.825  1.00  0.00     0.013 C 
HETATM   12  C20 UNL     1      -7.765   4.854  13.821  1.00  0.00     0.122 C 
HETATM   13  C21 UNL     1      -7.416   6.151  13.089  1.00  0.00     0.033 C 
HETATM   14  C22 UNL     1      -5.961   6.581  13.318  1.00  0.00     0.013 C 
HETATM   15  C23 UNL     1      -4.987   5.405  13.288  1.00  0.00    -0.027 A 
HETATM   16  C24 UNL     1      -4.112   5.260  14.510  1.00  0.00     0.021 A 
HETATM   17  C25 UNL     1      -3.458   5.645  13.194  1.00  0.00    -0.027 A 
HETATM   18  C26 UNL     1      -2.994   7.093  13.040  1.00  0.00     0.011 C 
HETATM   19  C27 UNL     1      -1.481   7.364  13.080  1.00  0.00     0.011 C 
HETATM   20  C28 UNL     1      -0.596   6.117  12.964  1.00  0.00    -0.032 C 
HETATM   21  C29 UNL     1      -0.407   5.529  14.394  1.00  0.00     0.016 C 
ENDROOT
BRANCH   1  22
HETATM   22  C7  UNL     1       1.966   6.980  13.124  1.00  0.00    -0.011 C 
HETATM   23  C8  UNL     1       1.534   7.332  14.545  1.00  0.00     0.010 C 
BRANCH  22  24
HETATM   24  C6  UNL     1       2.652   8.192  12.417  1.00  0.00     0.039 C 
BRANCH  24  25
HETATM   25  C5  UNL     1       3.960   7.996  11.621  1.00  0.00     0.154 C 
BRANCH  25  26
HETATM   26  C4  UNL     1       3.987   6.823  10.597  1.00  0.00     0.216 C 
BRANCH  26  27
HETATM   27  C2  UNL     1       3.353   7.151   9.249  1.00  0.00    -0.059 C 
HETATM   28  C1  UNL     1       3.421   8.372   8.686  1.00  0.00     0.016 C 
HETATM   29  C3  UNL     1       2.675   6.016   8.529  1.00  0.00     0.045 C 
ENDBRANCH  26  27
BRANCH  26  30
HETATM   30  O1  UNL     1       5.379   6.495  10.333  1.00  0.00    -0.231 OA
BRANCH  30  31
HETATM   31  O2  UNL     1       5.477   5.044  10.271  1.00  0.00    -0.250 OA
HETATM   32  H7  UNL     1       5.708   4.992   9.324  1.00  0.00     0.253 HD
ENDBRANCH  30  31
ENDBRANCH  26  30
ENDBRANCH  25  26
BRANCH  25  33
HETATM   33  O3  UNL     1       5.063   7.902  12.528  1.00  0.00    -0.393 OA
HETATM   34  H9  UNL     1       5.806   7.529  12.006  1.00  0.00     0.210 HD
ENDBRANCH  25  33
ENDBRANCH  24  25
ENDBRANCH  22  24
ENDBRANCH   1  22
BRANCH  12  35
HETATM   35  O4  UNL     1      -7.743   5.091  15.234  1.00  0.00    -0.395 OA
HETATM   36  H35 UNL     1      -8.400   5.782  15.424  1.00  0.00     0.210 HD
ENDBRANCH  12  35
TORSDOF 9
ENDMDL
MODEL 6
REMARK minimizedAffinity -8.90233517
REMARK  9 active torsions:
REMARK  status: ('A' for Active; 'I' for Inactive)
REMARK    1  A    between atoms: C2_2  and  C4_4 
REMARK    2  A    between atoms: C4_4  and  O1_5 
REMARK    3  A    between atoms: C4_4  and  C5_7 
REMARK    4  A    between atoms: O1_5  and  O2_6 
REMARK    5  A    between atoms: C5_7  and  O3_8 
REMARK    6  A    between atoms: C5_7  and  C6_9 
REMARK    7  A    between atoms: C6_9  and  C7_10 
REMARK    8  A    between atoms: C7_10  and  C9_12 
REMARK    9  A    between atoms: C20_23  and  O4_24 
ROOT
HETATM    1  C9  UNL     1      -1.038   9.881  14.933  1.00  0.00    -0.002 C 
HETATM    2  C10 UNL     1       0.117   9.000  14.386  1.00  0.00     0.006 C 
HETATM    3  C11 UNL     1      -0.508   7.724  13.797  1.00  0.00     0.011 C 
HETATM    4  C12 UNL     1      -2.019   8.009  13.732  1.00  0.00    -0.032 C 
HETATM    5  C13 UNL     1      -2.270   8.780  12.398  1.00  0.00     0.016 C 
HETATM    6  C14 UNL     1      -2.913   6.743  13.800  1.00  0.00     0.004 C 
HETATM    7  C15 UNL     1      -2.868   5.872  12.536  1.00  0.00     0.006 C 
HETATM    8  C16 UNL     1      -3.720   4.620  12.721  1.00  0.00     0.006 C 
HETATM    9  C17 UNL     1      -5.205   4.994  12.781  1.00  0.00     0.001 C 
HETATM   10  C18 UNL     1      -6.132   3.793  13.112  1.00  0.00     0.015 C 
HETATM   11  C19 UNL     1      -6.004   2.672  12.068  1.00  0.00     0.013 C 
HETATM   12  C20 UNL     1      -7.614   4.235  13.230  1.00  0.00     0.122 C 
HETATM   13  C21 UNL     1      -7.849   5.695  12.835  1.00  0.00     0.033 C 
HETATM   14  C22 UNL     1      -6.938   6.663  13.600  1.00  0.00     0.013 C 
HETATM   15  C23 UNL     1      -5.512   6.137  13.752  1.00  0.00    -0.027 A 
HETATM   16  C24 UNL     1      -4.995   6.070  15.169  1.00  0.00     0.021 A 
HETATM   17  C25 UNL     1      -4.367   7.074  14.217  1.00  0.00    -0.027 A 
HETATM   18  C26 UNL     1      -4.719   8.547  14.420  1.00  0.00     0.011 C 
HETATM   19  C27 UNL     1      -3.634   9.464  15.008  1.00  0.00     0.011 C 
HETATM   20  C28 UNL     1      -2.224   8.862  15.039  1.00  0.00    -0.032 C 
HETATM   21  C29 UNL     1      -2.081   8.046  16.359  1.00  0.00     0.016 C 
ENDROOT
BRANCH   1  22
HETATM   22  C7  UNL     1      -0.621  10.726  16.174  1.00  0.00    -0.011 C 
HETATM   23  C8  UNL     1      -1.247  12.119  16.155  1.00  0.00     0.010 C 
BRANCH  22  24
HETATM   24  C6  UNL     1       0.920  10.793  16.418  1.00  0.00     0.039 C 
BRANCH  24  25
HETATM   25  C5  UNL     1       1.534  10.224  17.715  1.00  0.00     0.154 C 
BRANCH  25  26
HETATM   26  C4  UNL     1       2.143  11.255  18.711  1.00  0.00     0.216 C 
BRANCH  26  27
HETATM   27  C2  UNL     1       1.161  11.778  19.754  1.00  0.00    -0.059 C 
HETATM   28  C1  UNL     1      -0.137  11.421  19.780  1.00  0.00     0.016 C 
HETATM   29  C3  UNL     1       1.722  12.689  20.811  1.00  0.00     0.045 C 
ENDBRANCH  26  27
BRANCH  26  30
HETATM   30  O1  UNL     1       3.211  10.590  19.440  1.00  0.00    -0.231 OA
BRANCH  30  31
HETATM   31  O2  UNL     1       2.630   9.427  20.096  1.00  0.00    -0.250 OA
HETATM   32  H7  UNL     1       3.118   8.759  19.578  1.00  0.00     0.253 HD
ENDBRANCH  30  31
ENDBRANCH  26  30
ENDBRANCH  25  26
BRANCH  25  33
HETATM   33  O3  UNL     1       2.488   9.209  17.388  1.00  0.00    -0.393 OA
HETATM   34  H9  UNL     1       3.020   9.072  18.202  1.00  0.00     0.210 HD
ENDBRANCH  25  33
ENDBRANCH  24  25
ENDBRANCH  22  24
ENDBRANCH   1  22
BRANCH  12  35
HETATM   35  O4  UNL     1      -8.040   4.039  14.583  1.00  0.00    -0.395 OA
HETATM   36  H35 UNL     1      -8.986   4.259  14.626  1.00  0.00     0.210 HD
ENDBRANCH  12  35
TORSDOF 9
ENDMDL
MODEL 7
REMARK minimizedAffinity -8.86750698
REMARK  9 active torsions:
REMARK  status: ('A' for Active; 'I' for Inactive)
REMARK    1  A    between atoms: C2_2  and  C4_4 
REMARK    2  A    between atoms: C4_4  and  O1_5 
REMARK    3  A    between atoms: C4_4  and  C5_7 
REMARK    4  A    between atoms: O1_5  and  O2_6 
REMARK    5  A    between atoms: C5_7  and  O3_8 
REMARK    6  A    between atoms: C5_7  and  C6_9 
REMARK    7  A    between atoms: C6_9  and  C7_10 
REMARK    8  A    between atoms: C7_10  and  C9_12 
REMARK    9  A    between atoms: C20_23  and  O4_24 
ROOT
HETATM    1  C9  UNL     1      -3.768   7.735  14.498  1.00  0.00    -0.002 C 
HETATM    2  C10 UNL     1      -4.424   6.597  13.670  1.00  0.00     0.006 C 
HETATM    3  C11 UNL     1      -3.330   5.970  12.790  1.00  0.00     0.011 C 
HETATM    4  C12 UNL     1      -2.005   6.537  13.330  1.00  0.00    -0.032 C 
HETATM    5  C13 UNL     1      -1.591   5.633  14.534  1.00  0.00     0.016 C 
HETATM    6  C14 UNL     1      -0.860   6.599  12.284  1.00  0.00     0.004 C 
HETATM    7  C15 UNL     1      -0.291   5.227  11.892  1.00  0.00     0.006 C 
HETATM    8  C16 UNL     1       0.776   5.382  10.813  1.00  0.00     0.006 C 
HETATM    9  C17 UNL     1       2.016   6.073  11.390  1.00  0.00     0.001 C 
HETATM   10  C18 UNL     1       3.095   6.399  10.323  1.00  0.00     0.015 C 
HETATM   11  C19 UNL     1       3.592   5.130   9.612  1.00  0.00     0.013 C 
HETATM   12  C20 UNL     1       4.297   7.159  10.943  1.00  0.00     0.122 C 
HETATM   13  C21 UNL     1       4.230   7.267  12.467  1.00  0.00     0.033 C 
HETATM   14  C22 UNL     1       2.906   7.868  12.956  1.00  0.00     0.013 C 
HETATM   15  C23 UNL     1       1.700   7.348  12.177  1.00  0.00    -0.027 A 
HETATM   16  C24 UNL     1       0.826   8.410  11.553  1.00  0.00     0.021 A 
HETATM   17  C25 UNL     1       0.258   7.587  12.697  1.00  0.00    -0.027 A 
HETATM   18  C26 UNL     1       0.118   8.276  14.054  1.00  0.00     0.011 C 
HETATM   19  C27 UNL     1      -1.299   8.642  14.524  1.00  0.00     0.011 C 
HETATM   20  C28 UNL     1      -2.435   8.001  13.718  1.00  0.00    -0.032 C 
HETATM   21  C29 UNL     1      -2.733   8.920  12.496  1.00  0.00     0.016 C 
ENDROOT
BRANCH   1  22
HETATM   22  C7  UNL     1      -4.746   8.911  14.796  1.00  0.00    -0.011 C 
HETATM   23  C8  UNL     1      -4.218   9.832  15.893  1.00  0.00     0.010 C 
BRANCH  22  24
HETATM   24  C6  UNL     1      -6.217   8.467  15.078  1.00  0.00     0.039 C 
BRANCH  24  25
HETATM   25  C5  UNL     1      -6.568   6.972  15.236  1.00  0.00     0.154 C 
BRANCH  25  26
HETATM   26  C4  UNL     1      -7.940   6.511  14.661  1.00  0.00     0.216 C 
BRANCH  26  27
HETATM   27  C2  UNL     1      -7.864   5.281  13.763  1.00  0.00    -0.059 C 
HETATM   28  C1  UNL     1      -7.356   4.105  14.175  1.00  0.00     0.016 C 
HETATM   29  C3  UNL     1      -8.442   5.419  12.381  1.00  0.00     0.045 C 
ENDBRANCH  26  27
BRANCH  26  30
HETATM   30  O1  UNL     1      -8.795   6.157  15.782  1.00  0.00    -0.231 OA
BRANCH  30  31
HETATM   31  O2  UNL     1     -10.132   6.648  15.480  1.00  0.00    -0.250 OA
HETATM   32  H7  UNL     1     -10.554   5.771  15.405  1.00  0.00     0.253 HD
ENDBRANCH  30  31
ENDBRANCH  26  30
ENDBRANCH  25  26
BRANCH  25  33
HETATM   33  O3  UNL     1      -6.440   6.592  16.610  1.00  0.00    -0.393 OA
HETATM   34  H9  UNL     1      -6.911   5.735  16.694  1.00  0.00     0.210 HD
ENDBRANCH  25  33
ENDBRANCH  24  25
ENDBRANCH  22  24
ENDBRANCH   1  22
BRANCH  12  35
HETATM   35  O4  UNL     1       4.342   8.475  10.379  1.00  0.00    -0.395 OA
HETATM   36  H35 UNL     1       5.135   8.915  10.729  1.00  0.00     0.210 HD
ENDBRANCH  12  35
TORSDOF 9
ENDMDL
MODEL 8
REMARK minimizedAffinity -8.86568451
REMARK  9 active torsions:
REMARK  status: ('A' for Active; 'I' for Inactive)
REMARK    1  A    between atoms: C2_2  and  C4_4 
REMARK    2  A    between atoms: C4_4  and  O1_5 
REMARK    3  A    between atoms: C4_4  and  C5_7 
REMARK    4  A    between atoms: O1_5  and  O2_6 
REMARK    5  A    between atoms: C5_7  and  O3_8 
REMARK    6  A    between atoms: C5_7  and  C6_9 
REMARK    7  A    between atoms: C6_9  and  C7_10 
REMARK    8  A    between atoms: C7_10  and  C9_12 
REMARK    9  A    between atoms: C20_23  and  O4_24 
ROOT
HETATM    1  C9  UNL     1       2.789   7.689  11.721  1.00  0.00    -0.002 C 
HETATM    2  C10 UNL     1       3.093   6.280  11.143  1.00  0.00     0.006 C 
HETATM    3  C11 UNL     1       1.789   5.465  11.194  1.00  0.00     0.011 C 
HETATM    4  C12 UNL     1       0.685   6.489  11.512  1.00  0.00    -0.032 C 
HETATM    5  C13 UNL     1       0.264   7.127  10.150  1.00  0.00     0.016 C 
HETATM    6  C14 UNL     1      -0.552   5.895  12.235  1.00  0.00     0.004 C 
HETATM    7  C15 UNL     1      -1.428   4.997  11.348  1.00  0.00     0.006 C 
HETATM    8  C16 UNL     1      -2.577   4.405  12.159  1.00  0.00     0.006 C 
HETATM    9  C17 UNL     1      -3.568   5.504  12.554  1.00  0.00     0.001 C 
HETATM   10  C18 UNL     1      -4.693   5.011  13.504  1.00  0.00     0.015 C 
HETATM   11  C19 UNL     1      -5.520   3.883  12.867  1.00  0.00     0.013 C 
HETATM   12  C20 UNL     1      -5.628   6.174  13.929  1.00  0.00     0.122 C 
HETATM   13  C21 UNL     1      -5.340   7.487  13.199  1.00  0.00     0.033 C 
HETATM   14  C22 UNL     1      -3.871   7.912  13.313  1.00  0.00     0.013 C 
HETATM   15  C23 UNL     1      -2.904   6.738  13.173  1.00  0.00    -0.027 A 
HETATM   16  C24 UNL     1      -1.929   6.565  14.312  1.00  0.00     0.021 A 
HETATM   17  C25 UNL     1      -1.388   6.981  12.955  1.00  0.00    -0.027 A 
HETATM   18  C26 UNL     1      -0.937   8.432  12.795  1.00  0.00     0.011 C 
HETATM   19  C27 UNL     1       0.574   8.704  12.711  1.00  0.00     0.011 C 
HETATM   20  C28 UNL     1       1.444   7.460  12.492  1.00  0.00    -0.032 C 
HETATM   21  C29 UNL     1       1.754   6.840  13.887  1.00  0.00     0.016 C 
ENDROOT
BRANCH   1  22
HETATM   22  C7  UNL     1       4.011   8.321  12.453  1.00  0.00    -0.011 C 
HETATM   23  C8  UNL     1       3.823   9.816  12.696  1.00  0.00     0.010 C 
BRANCH  22  24
HETATM   24  C6  UNL     1       5.389   8.017  11.782  1.00  0.00     0.039 C 
BRANCH  24  25
HETATM   25  C5  UNL     1       6.356   6.990  12.408  1.00  0.00     0.154 C 
BRANCH  25  26
HETATM   26  C4  UNL     1       6.974   7.362  13.788  1.00  0.00     0.216 C 
BRANCH  26  27
HETATM   27  C2  UNL     1       8.091   8.397  13.718  1.00  0.00    -0.059 C 
HETATM   28  C1  UNL     1       7.861   9.711  13.533  1.00  0.00     0.016 C 
HETATM   29  C3  UNL     1       9.494   7.891  13.921  1.00  0.00     0.045 C 
ENDBRANCH  26  27
BRANCH  26  30
HETATM   30  O1  UNL     1       5.920   7.941  14.606  1.00  0.00    -0.231 OA
BRANCH  30  31
HETATM   31  O2  UNL     1       5.516   6.930  15.572  1.00  0.00    -0.250 OA
HETATM   32  H7  UNL     1       5.833   7.405  16.363  1.00  0.00     0.253 HD
ENDBRANCH  30  31
ENDBRANCH  26  30
ENDBRANCH  25  26
BRANCH  25  33
HETATM   33  O3  UNL     1       7.381   6.661  11.466  1.00  0.00    -0.393 OA
HETATM   34  H9  UNL     1       8.090   6.224  11.985  1.00  0.00     0.210 HD
ENDBRANCH  25  33
ENDBRANCH  24  25
ENDBRANCH  22  24
ENDBRANCH   1  22
BRANCH  12  35
HETATM   35  O4  UNL     1      -5.485   6.378  15.339  1.00  0.00    -0.395 OA
HETATM   36  H35 UNL     1      -6.123   7.064  15.601  1.00  0.00     0.210 HD
ENDBRANCH  12  35
TORSDOF 9
ENDMDL
MODEL 9
REMARK minimizedAffinity -8.76994705
REMARK  9 active torsions:
REMARK  status: ('A' for Active; 'I' for Inactive)
REMARK    1  A    between atoms: C2_2  and  C4_4 
REMARK    2  A    between atoms: C4_4  and  O1_5 
REMARK    3  A    between atoms: C4_4  and  C5_7 
REMARK    4  A    between atoms: O1_5  and  O2_6 
REMARK    5  A    between atoms: C5_7  and  O3_8 
REMARK    6  A    between atoms: C5_7  and  C6_9 
REMARK    7  A    between atoms: C6_9  and  C7_10 
REMARK    8  A    between atoms: C7_10  and  C9_12 
REMARK    9  A    between atoms: C20_23  and  O4_24 
ROOT
HETATM    1  C9  UNL     1      -2.665   6.180  12.711  1.00  0.00    -0.002 C 
HETATM    2  C10 UNL     1      -2.715   6.839  14.116  1.00  0.00     0.006 C 
HETATM    3  C11 UNL     1      -1.382   7.576  14.332  1.00  0.00     0.011 C 
HETATM    4  C12 UNL     1      -0.703   7.595  12.951  1.00  0.00    -0.032 C 
HETATM    5  C13 UNL     1      -1.288   8.823  12.184  1.00  0.00     0.016 C 
HETATM    6  C14 UNL     1       0.845   7.677  12.999  1.00  0.00     0.004 C 
HETATM    7  C15 UNL     1       1.390   9.038  13.456  1.00  0.00     0.006 C 
HETATM    8  C16 UNL     1       2.913   9.002  13.538  1.00  0.00     0.006 C 
HETATM    9  C17 UNL     1       3.517   8.887  12.134  1.00  0.00     0.001 C 
HETATM   10  C18 UNL     1       5.058   8.699  12.138  1.00  0.00     0.015 C 
HETATM   11  C19 UNL     1       5.772   9.873  12.826  1.00  0.00     0.013 C 
HETATM   12  C20 UNL     1       5.612   8.518  10.700  1.00  0.00     0.122 C 
HETATM   13  C21 UNL     1       4.560   8.728   9.610  1.00  0.00     0.033 C 
HETATM   14  C22 UNL     1       3.315   7.857   9.818  1.00  0.00     0.013 C 
HETATM   15  C23 UNL     1       2.887   7.781  11.283  1.00  0.00    -0.027 A 
HETATM   16  C24 UNL     1       2.761   6.386  11.848  1.00  0.00     0.021 A 
HETATM   17  C25 UNL     1       1.498   7.212  11.674  1.00  0.00    -0.027 A 
HETATM   18  C26 UNL     1       0.561   6.828  10.529  1.00  0.00     0.011 C 
HETATM   19  C27 UNL     1      -0.764   6.139  10.894  1.00  0.00     0.011 C 
HETATM   20  C28 UNL     1      -1.133   6.192  12.381  1.00  0.00    -0.032 C 
HETATM   21  C29 UNL     1      -0.450   4.983  13.088  1.00  0.00     0.016 C 
ENDROOT
BRANCH   1  22
HETATM   22  C7  UNL     1      -3.471   4.848  12.637  1.00  0.00    -0.011 C 
HETATM   23  C8  UNL     1      -3.358   4.186  11.266  1.00  0.00     0.010 C 
BRANCH  22  24
HETATM   24  C6  UNL     1      -4.959   4.970  13.094  1.00  0.00     0.039 C 
BRANCH  24  25
HETATM   25  C5  UNL     1      -5.984   3.878  12.725  1.00  0.00     0.154 C 
BRANCH  25  26
HETATM   26  C4  UNL     1      -7.195   3.701  13.689  1.00  0.00     0.216 C 
BRANCH  26  27
HETATM   27  C2  UNL     1      -7.735   5.005  14.266  1.00  0.00    -0.059 C 
HETATM   28  C1  UNL     1      -8.461   5.879  13.544  1.00  0.00     0.016 C 
HETATM   29  C3  UNL     1      -7.466   5.260  15.724  1.00  0.00     0.045 C 
ENDBRANCH  26  27
BRANCH  26  30
HETATM   30  O1  UNL     1      -8.281   3.098  12.933  1.00  0.00    -0.231 OA
BRANCH  30  31
HETATM   31  O2  UNL     1      -7.921   1.709  12.689  1.00  0.00    -0.250 OA
HETATM   32  H7  UNL     1      -8.627   1.317  13.238  1.00  0.00     0.253 HD
ENDBRANCH  30  31
ENDBRANCH  26  30
ENDBRANCH  25  26
BRANCH  25  33
HETATM   33  O3  UNL     1      -5.308   2.632  12.528  1.00  0.00    -0.393 OA
HETATM   34  H9  UNL     1      -6.006   1.943  12.554  1.00  0.00     0.210 HD
ENDBRANCH  25  33
ENDBRANCH  24  25
ENDBRANCH  22  24
ENDBRANCH   1  22
BRANCH  12  35
HETATM   35  O4  UNL     1       6.151   7.196  10.585  1.00  0.00    -0.395 OA
HETATM   36  H35 UNL     1       6.550   7.119   9.702  1.00  0.00     0.210 HD
ENDBRANCH  12  35
TORSDOF 9
ENDMDL
