MODEL 1
REMARK minimizedAffinity -9.87983704
REMARK  6 active torsions:
REMARK  status: ('A' for Active; 'I' for Inactive)
REMARK    1  A    between atoms: C2_2  and  C3_3 
REMARK    2  A    between atoms: C2_2  and  C9_11 
REMARK    3  A    between atoms: C3_3  and  C4_4 
REMARK    4  A    between atoms: C5_5  and  C6_6 
REMARK    5  A    between atoms: C6_6  and  O1_9 
REMARK    6  A    between atoms: O1_9  and  O2_10 
ROOT
HETATM    1  C9  UNL     1      -5.528  49.156 -22.680  1.00  0.00    -0.001 C 
HETATM    2  C10 UNL     1      -5.321  49.957 -21.363  1.00  0.00     0.007 C 
HETATM    3  C11 UNL     1      -4.046  50.803 -21.532  1.00  0.00     0.024 C 
HETATM    4  C12 UNL     1      -3.670  50.634 -22.986  1.00  0.00     0.092 C 
HETATM    5  C13 UNL     1      -4.388  51.673 -23.887  1.00  0.00     0.272 C 
HETATM    6  O3  UNL     1      -5.453  52.229 -23.686  1.00  0.00    -0.264 OA
HETATM    7  O4  UNL     1      -3.613  51.877 -25.014  1.00  0.00    -0.305 OA
HETATM    8  C14 UNL     1      -2.432  51.043 -24.931  1.00  0.00     0.113 C 
HETATM    9  C15 UNL     1      -2.827  49.657 -25.535  1.00  0.00     0.043 C 
HETATM   10  C16 UNL     1      -4.112  49.048 -24.906  1.00  0.00     0.014 C 
HETATM   11  C17 UNL     1      -4.124  49.184 -23.361  1.00  0.00    -0.020 C 
HETATM   12  C18 UNL     1      -3.198  48.093 -22.779  1.00  0.00     0.017 C 
HETATM   13  C19 UNL     1      -2.293  50.909 -23.451  1.00  0.00     0.137 A 
HETATM   14  O5  UNL     1      -1.156  50.317 -22.856  1.00  0.00    -0.364 OA
HETATM   15  C20 UNL     1      -1.313  51.741 -22.668  1.00  0.00     0.162 A 
HETATM   16  C21 UNL     1      -0.297  52.576 -23.375  1.00  0.00     0.041 C 
HETATM   17  C22 UNL     1      -0.768  53.005 -24.781  1.00  0.00     0.010 C 
HETATM   18  C23 UNL     1       0.302  53.883 -25.489  1.00  0.00     0.056 C 
HETATM   19  C24 UNL     1       0.644  55.155 -24.705  1.00  0.00     0.018 C 
HETATM   20  C25 UNL     1      -0.177  54.251 -26.891  1.00  0.00     0.131 C 
HETATM   21  O6  UNL     1      -0.141  55.398 -27.333  1.00  0.00    -0.298 OA
HETATM   22  C26 UNL     1      -0.619  53.105 -27.766  1.00  0.00     0.079 C 
HETATM   23  C27 UNL     1      -1.673  52.281 -27.041  1.00  0.00     0.020 C 
HETATM   24  C28 UNL     1      -1.220  51.759 -25.642  1.00  0.00    -0.004 C 
HETATM   25  C29 UNL     1      -0.049  50.763 -25.849  1.00  0.00     0.019 C 
ENDROOT
BRANCH   1  26
HETATM   26  C2  UNL     1      -6.359  47.852 -22.496  1.00  0.00    -0.010 C 
HETATM   27  C1  UNL     1      -5.852  46.846 -21.451  1.00  0.00     0.010 C 
BRANCH  26  28
HETATM   28  C3  UNL     1      -6.620  47.150 -23.847  1.00  0.00     0.031 C 
BRANCH  28  29
HETATM   29  C4  UNL     1      -7.912  47.576 -24.494  1.00  0.00    -0.027 C 
HETATM   30  C5  UNL     1      -8.182  47.415 -25.800  1.00  0.00     0.009 C 
BRANCH  30  31
HETATM   31  C6  UNL     1      -9.451  47.809 -26.538  1.00  0.00     0.106 C 
HETATM   32  C7  UNL     1     -10.408  46.662 -26.898  1.00  0.00     0.053 C 
HETATM   33  C8  UNL     1      -9.046  48.525 -27.836  1.00  0.00     0.053 C 
BRANCH  31  34
HETATM   34  O1  UNL     1     -10.142  48.801 -25.747  1.00  0.00    -0.229 OA
BRANCH  34  35
HETATM   35  O2  UNL     1      -9.649  50.118 -26.145  1.00  0.00    -0.249 OA
HETATM   36  H15 UNL     1     -10.372  50.325 -26.765  1.00  0.00     0.253 HD
ENDBRANCH  34  35
ENDBRANCH  31  34
ENDBRANCH  30  31
ENDBRANCH  28  29
ENDBRANCH  26  28
ENDBRANCH   1  26
TORSDOF 6
ENDMDL
MODEL 2
REMARK minimizedAffinity -9.61420727
REMARK  6 active torsions:
REMARK  status: ('A' for Active; 'I' for Inactive)
REMARK    1  A    between atoms: C2_2  and  C3_3 
REMARK    2  A    between atoms: C2_2  and  C9_11 
REMARK    3  A    between atoms: C3_3  and  C4_4 
REMARK    4  A    between atoms: C5_5  and  C6_6 
REMARK    5  A    between atoms: C6_6  and  O1_9 
REMARK    6  A    between atoms: O1_9  and  O2_10 
ROOT
HETATM    1  C9  UNL     1      -6.158  48.976 -22.730  1.00  0.00    -0.001 C 
HETATM    2  C10 UNL     1      -6.943  49.763 -21.641  1.00  0.00     0.007 C 
HETATM    3  C11 UNL     1      -5.908  50.439 -20.723  1.00  0.00     0.024 C 
HETATM    4  C12 UNL     1      -4.582  50.205 -21.411  1.00  0.00     0.092 C 
HETATM    5  C13 UNL     1      -4.273  51.313 -22.451  1.00  0.00     0.272 C 
HETATM    6  O3  UNL     1      -5.066  52.002 -23.069  1.00  0.00    -0.264 OA
HETATM    7  O4  UNL     1      -2.900  51.403 -22.593  1.00  0.00    -0.305 OA
HETATM    8  C14 UNL     1      -2.272  50.429 -21.725  1.00  0.00     0.113 C 
HETATM    9  C15 UNL     1      -2.202  49.095 -22.537  1.00  0.00     0.043 C 
HETATM   10  C16 UNL     1      -3.568  48.661 -23.139  1.00  0.00     0.014 C 
HETATM   11  C17 UNL     1      -4.729  48.818 -22.122  1.00  0.00    -0.020 C 
HETATM   12  C18 UNL     1      -4.666  47.627 -21.140  1.00  0.00     0.017 C 
HETATM   13  C19 UNL     1      -3.311  50.298 -20.661  1.00  0.00     0.137 A 
HETATM   14  O5  UNL     1      -3.075  49.576 -19.469  1.00  0.00    -0.364 OA
HETATM   15  C20 UNL     1      -3.187  51.011 -19.340  1.00  0.00     0.162 A 
HETATM   16  C21 UNL     1      -1.916  51.702 -18.972  1.00  0.00     0.041 C 
HETATM   17  C22 UNL     1      -1.122  52.168 -20.211  1.00  0.00     0.010 C 
HETATM   18  C23 UNL     1       0.189  52.895 -19.799  1.00  0.00     0.056 C 
HETATM   19  C24 UNL     1      -0.062  54.124 -18.919  1.00  0.00     0.018 C 
HETATM   20  C25 UNL     1       0.969  53.301 -21.047  1.00  0.00     0.131 C 
HETATM   21  O6  UNL     1       1.431  54.428 -21.211  1.00  0.00    -0.298 OA
HETATM   22  C26 UNL     1       1.235  52.208 -22.052  1.00  0.00     0.079 C 
HETATM   23  C27 UNL     1      -0.074  51.533 -22.436  1.00  0.00     0.020 C 
HETATM   24  C28 UNL     1      -0.882  50.977 -21.222  1.00  0.00    -0.004 C 
HETATM   25  C29 UNL     1      -0.057  49.839 -20.566  1.00  0.00     0.019 C 
ENDROOT
BRANCH   1  26
HETATM   26  C2  UNL     1      -6.958  47.789 -23.343  1.00  0.00    -0.010 C 
HETATM   27  C1  UNL     1      -6.864  46.438 -22.618  1.00  0.00     0.010 C 
BRANCH  26  28
HETATM   28  C3  UNL     1      -6.659  47.622 -24.850  1.00  0.00     0.031 C 
BRANCH  28  29
HETATM   29  C4  UNL     1      -5.398  48.323 -25.283  1.00  0.00    -0.027 C 
HETATM   30  C5  UNL     1      -4.982  48.392 -26.559  1.00  0.00     0.009 C 
BRANCH  30  31
HETATM   31  C6  UNL     1      -3.732  49.074 -27.090  1.00  0.00     0.106 C 
HETATM   32  C7  UNL     1      -2.401  48.359 -26.810  1.00  0.00     0.053 C 
HETATM   33  C8  UNL     1      -3.662  50.483 -26.480  1.00  0.00     0.053 C 
BRANCH  31  34
HETATM   34  O1  UNL     1      -3.898  49.274 -28.510  1.00  0.00    -0.229 OA
BRANCH  34  35
HETATM   35  O2  UNL     1      -3.411  50.613 -28.838  1.00  0.00    -0.249 OA
HETATM   36  H15 UNL     1      -2.523  50.339 -29.131  1.00  0.00     0.253 HD
ENDBRANCH  34  35
ENDBRANCH  31  34
ENDBRANCH  30  31
ENDBRANCH  28  29
ENDBRANCH  26  28
ENDBRANCH   1  26
TORSDOF 6
ENDMDL
MODEL 3
REMARK minimizedAffinity -9.54562664
REMARK  6 active torsions:
REMARK  status: ('A' for Active; 'I' for Inactive)
REMARK    1  A    between atoms: C2_2  and  C3_3 
REMARK    2  A    between atoms: C2_2  and  C9_11 
REMARK    3  A    between atoms: C3_3  and  C4_4 
REMARK    4  A    between atoms: C5_5  and  C6_6 
REMARK    5  A    between atoms: C6_6  and  O1_9 
REMARK    6  A    between atoms: O1_9  and  O2_10 
ROOT
HETATM    1  C9  UNL     1      -0.351  51.536 -20.530  1.00  0.00    -0.001 C 
HETATM    2  C10 UNL     1      -0.967  52.256 -19.296  1.00  0.00     0.007 C 
HETATM    3  C11 UNL     1      -2.332  51.603 -19.013  1.00  0.00     0.024 C 
HETATM    4  C12 UNL     1      -2.380  50.410 -19.940  1.00  0.00     0.092 C 
HETATM    5  C13 UNL     1      -1.732  49.157 -19.294  1.00  0.00     0.272 C 
HETATM    6  O3  UNL     1      -0.862  49.120 -18.441  1.00  0.00    -0.264 OA
HETATM    7  O4  UNL     1      -2.301  48.033 -19.862  1.00  0.00    -0.305 OA
HETATM    8  C14 UNL     1      -3.279  48.447 -20.846  1.00  0.00     0.113 C 
HETATM    9  C15 UNL     1      -2.500  48.648 -22.186  1.00  0.00     0.043 C 
HETATM   10  C16 UNL     1      -1.262  49.579 -22.051  1.00  0.00     0.014 C 
HETATM   11  C17 UNL     1      -1.574  50.845 -21.209  1.00  0.00    -0.020 C 
HETATM   12  C18 UNL     1      -2.351  51.834 -22.106  1.00  0.00     0.017 C 
HETATM   13  C19 UNL     1      -3.668  49.782 -20.303  1.00  0.00     0.137 A 
HETATM   14  O5  UNL     1      -4.752  50.519 -20.832  1.00  0.00    -0.364 OA
HETATM   15  C20 UNL     1      -4.930  49.976 -19.505  1.00  0.00     0.162 A 
HETATM   16  C21 UNL     1      -5.941  48.881 -19.413  1.00  0.00     0.041 C 
HETATM   17  C22 UNL     1      -5.308  47.483 -19.583  1.00  0.00     0.010 C 
HETATM   18  C23 UNL     1      -6.379  46.363 -19.470  1.00  0.00     0.056 C 
HETATM   19  C24 UNL     1      -7.119  46.378 -18.128  1.00  0.00     0.018 C 
HETATM   20  C25 UNL     1      -5.727  45.000 -19.688  1.00  0.00     0.131 C 
HETATM   21  O6  UNL     1      -5.913  44.041 -18.941  1.00  0.00    -0.298 OA
HETATM   22  C26 UNL     1      -4.899  44.850 -20.939  1.00  0.00     0.079 C 
HETATM   23  C27 UNL     1      -3.858  45.957 -21.003  1.00  0.00     0.020 C 
HETATM   24  C28 UNL     1      -4.454  47.396 -20.910  1.00  0.00    -0.004 C 
HETATM   25  C29 UNL     1      -5.333  47.643 -22.163  1.00  0.00     0.019 C 
ENDROOT
BRANCH   1  26
HETATM   26  C2  UNL     1       0.678  52.404 -21.312  1.00  0.00    -0.010 C 
HETATM   27  C1  UNL     1       1.359  53.542 -20.537  1.00  0.00     0.010 C 
BRANCH  26  28
HETATM   28  C3  UNL     1       0.087  52.925 -22.641  1.00  0.00     0.031 C 
BRANCH  28  29
HETATM   29  C4  UNL     1       0.803  52.392 -23.855  1.00  0.00    -0.027 C 
HETATM   30  C5  UNL     1       0.409  52.626 -25.117  1.00  0.00     0.009 C 
BRANCH  30  31
HETATM   31  C6  UNL     1       1.065  52.136 -26.398  1.00  0.00     0.106 C 
HETATM   32  C7  UNL     1       0.614  52.826 -27.695  1.00  0.00     0.053 C 
HETATM   33  C8  UNL     1       0.789  50.630 -26.530  1.00  0.00     0.053 C 
BRANCH  31  34
HETATM   34  O1  UNL     1       2.496  52.257 -26.245  1.00  0.00    -0.229 OA
BRANCH  34  35
HETATM   35  O2  UNL     1       3.131  51.505 -27.326  1.00  0.00    -0.249 OA
HETATM   36  H15 UNL     1       3.279  52.265 -27.917  1.00  0.00     0.253 HD
ENDBRANCH  34  35
ENDBRANCH  31  34
ENDBRANCH  30  31
ENDBRANCH  28  29
ENDBRANCH  26  28
ENDBRANCH   1  26
TORSDOF 6
ENDMDL
MODEL 4
REMARK minimizedAffinity -9.31788254
REMARK  6 active torsions:
REMARK  status: ('A' for Active; 'I' for Inactive)
REMARK    1  A    between atoms: C2_2  and  C3_3 
REMARK    2  A    between atoms: C2_2  and  C9_11 
REMARK    3  A    between atoms: C3_3  and  C4_4 
REMARK    4  A    between atoms: C5_5  and  C6_6 
REMARK    5  A    between atoms: C6_6  and  O1_9 
REMARK    6  A    between atoms: O1_9  and  O2_10 
ROOT
HETATM    1  C9  UNL     1      -5.145  48.826 -22.747  1.00  0.00    -0.001 C 
HETATM    2  C10 UNL     1      -5.017  49.660 -21.440  1.00  0.00     0.007 C 
HETATM    3  C11 UNL     1      -3.818  50.610 -21.613  1.00  0.00     0.024 C 
HETATM    4  C12 UNL     1      -3.417  50.453 -23.062  1.00  0.00     0.092 C 
HETATM    5  C13 UNL     1      -4.215  51.414 -23.984  1.00  0.00     0.272 C 
HETATM    6  O3  UNL     1      -5.325  51.879 -23.797  1.00  0.00    -0.264 OA
HETATM    7  O4  UNL     1      -3.452  51.668 -25.108  1.00  0.00    -0.305 OA
HETATM    8  C14 UNL     1      -2.204  50.940 -25.006  1.00  0.00     0.113 C 
HETATM    9  C15 UNL     1      -2.474  49.517 -25.591  1.00  0.00     0.043 C 
HETATM   10  C16 UNL     1      -3.707  48.809 -24.962  1.00  0.00     0.014 C 
HETATM   11  C17 UNL     1      -3.743  48.964 -23.419  1.00  0.00    -0.020 C 
HETATM   12  C18 UNL     1      -2.731  47.965 -22.815  1.00  0.00     0.017 C 
HETATM   13  C19 UNL     1      -2.066  50.839 -23.522  1.00  0.00     0.137 A 
HETATM   14  O5  UNL     1      -0.887  50.355 -22.911  1.00  0.00    -0.364 OA
HETATM   15  C20 UNL     1      -1.166  51.763 -22.745  1.00  0.00     0.162 A 
HETATM   16  C21 UNL     1      -0.221  52.672 -23.458  1.00  0.00     0.041 C 
HETATM   17  C22 UNL     1      -0.716  53.039 -24.874  1.00  0.00     0.010 C 
HETATM   18  C23 UNL     1       0.280  53.996 -25.588  1.00  0.00     0.056 C 
HETATM   19  C24 UNL     1       0.506  55.303 -24.820  1.00  0.00     0.018 C 
HETATM   20  C25 UNL     1      -0.218  54.301 -26.998  1.00  0.00     0.131 C 
HETATM   21  O6  UNL     1      -0.277  55.441 -27.456  1.00  0.00    -0.298 OA
HETATM   22  C26 UNL     1      -0.554  53.109 -27.859  1.00  0.00     0.079 C 
HETATM   23  C27 UNL     1      -1.539  52.208 -27.128  1.00  0.00     0.020 C 
HETATM   24  C28 UNL     1      -1.053  51.747 -25.719  1.00  0.00    -0.004 C 
HETATM   25  C29 UNL     1       0.201  50.852 -25.903  1.00  0.00     0.019 C 
ENDROOT
BRANCH   1  26
HETATM   26  C2  UNL     1      -5.861  47.458 -22.548  1.00  0.00    -0.010 C 
HETATM   27  C1  UNL     1      -7.270  47.317 -23.145  1.00  0.00     0.010 C 
BRANCH  26  28
HETATM   28  C3  UNL     1      -5.850  47.021 -21.066  1.00  0.00     0.031 C 
BRANCH  28  29
HETATM   29  C4  UNL     1      -7.209  47.091 -20.420  1.00  0.00    -0.027 C 
HETATM   30  C5  UNL     1      -7.529  47.959 -19.446  1.00  0.00     0.009 C 
BRANCH  30  31
HETATM   31  C6  UNL     1      -8.867  48.105 -18.739  1.00  0.00     0.106 C 
HETATM   32  C7  UNL     1     -10.116  47.985 -19.624  1.00  0.00     0.053 C 
HETATM   33  C8  UNL     1      -8.894  49.477 -18.047  1.00  0.00     0.053 C 
BRANCH  31  34
HETATM   34  O1  UNL     1      -8.920  47.131 -17.673  1.00  0.00    -0.229 OA
BRANCH  34  35
HETATM   35  O2  UNL     1      -8.209  47.684 -16.521  1.00  0.00    -0.249 OA
HETATM   36  H15 UNL     1      -8.996  48.018 -16.055  1.00  0.00     0.253 HD
ENDBRANCH  34  35
ENDBRANCH  31  34
ENDBRANCH  30  31
ENDBRANCH  28  29
ENDBRANCH  26  28
ENDBRANCH   1  26
TORSDOF 6
ENDMDL
MODEL 5
REMARK minimizedAffinity -9.2573061
REMARK  6 active torsions:
REMARK  status: ('A' for Active; 'I' for Inactive)
REMARK    1  A    between atoms: C2_2  and  C3_3 
REMARK    2  A    between atoms: C2_2  and  C9_11 
REMARK    3  A    between atoms: C3_3  and  C4_4 
REMARK    4  A    between atoms: C5_5  and  C6_6 
REMARK    5  A    between atoms: C6_6  and  O1_9 
REMARK    6  A    between atoms: O1_9  and  O2_10 
ROOT
HETATM    1  C9  UNL     1      -6.252  49.251 -23.502  1.00  0.00    -0.001 C 
HETATM    2  C10 UNL     1      -7.060  49.831 -22.306  1.00  0.00     0.007 C 
HETATM    3  C11 UNL     1      -6.044  50.328 -21.261  1.00  0.00     0.024 C 
HETATM    4  C12 UNL     1      -4.704  50.217 -21.952  1.00  0.00     0.092 C 
HETATM    5  C13 UNL     1      -4.374  51.493 -22.769  1.00  0.00     0.272 C 
HETATM    6  O3  UNL     1      -5.154  52.284 -23.269  1.00  0.00    -0.264 OA
HETATM    7  O4  UNL     1      -2.999  51.603 -22.864  1.00  0.00    -0.305 OA
HETATM    8  C14 UNL     1      -2.388  50.486 -22.173  1.00  0.00     0.113 C 
HETATM    9  C15 UNL     1      -2.301  49.320 -23.209  1.00  0.00     0.043 C 
HETATM   10  C16 UNL     1      -3.654  49.006 -23.908  1.00  0.00     0.014 C 
HETATM   11  C17 UNL     1      -4.836  48.981 -22.904  1.00  0.00    -0.020 C 
HETATM   12  C18 UNL     1      -4.794  47.633 -22.151  1.00  0.00     0.017 C 
HETATM   13  C19 UNL     1      -3.449  50.169 -21.171  1.00  0.00     0.137 A 
HETATM   14  O5  UNL     1      -3.238  49.244 -20.124  1.00  0.00    -0.364 OA
HETATM   15  C20 UNL     1      -3.353  50.632 -19.742  1.00  0.00     0.162 A 
HETATM   16  C21 UNL     1      -2.091  51.241 -19.229  1.00  0.00     0.041 C 
HETATM   17  C22 UNL     1      -1.271  51.920 -20.347  1.00  0.00     0.010 C 
HETATM   18  C23 UNL     1       0.031  52.557 -19.784  1.00  0.00     0.056 C 
HETATM   19  C24 UNL     1      -0.239  53.608 -18.702  1.00  0.00     0.018 C 
HETATM   20  C25 UNL     1       0.837  53.177 -20.922  1.00  0.00     0.131 C 
HETATM   21  O6  UNL     1       1.302  54.314 -20.871  1.00  0.00    -0.298 OA
HETATM   22  C26 UNL     1       1.124  52.282 -22.101  1.00  0.00     0.079 C 
HETATM   23  C27 UNL     1      -0.176  51.692 -22.627  1.00  0.00     0.020 C 
HETATM   24  C28 UNL     1      -1.009  50.929 -21.551  1.00  0.00    -0.004 C 
HETATM   25  C29 UNL     1      -0.198  49.689 -21.093  1.00  0.00     0.019 C 
ENDROOT
BRANCH   1  26
HETATM   26  C2  UNL     1      -7.038  48.196 -24.335  1.00  0.00    -0.010 C 
HETATM   27  C1  UNL     1      -7.637  47.008 -23.567  1.00  0.00     0.010 C 
BRANCH  26  28
HETATM   28  C3  UNL     1      -6.217  47.704 -25.548  1.00  0.00     0.031 C 
BRANCH  28  29
HETATM   29  C4  UNL     1      -7.058  47.469 -26.775  1.00  0.00    -0.027 C 
HETATM   30  C5  UNL     1      -6.609  47.630 -28.031  1.00  0.00     0.009 C 
BRANCH  30  31
HETATM   31  C6  UNL     1      -7.378  47.416 -29.324  1.00  0.00     0.106 C 
HETATM   32  C7  UNL     1      -7.462  45.967 -29.829  1.00  0.00     0.053 C 
HETATM   33  C8  UNL     1      -6.721  48.272 -30.418  1.00  0.00     0.053 C 
BRANCH  31  34
HETATM   34  O1  UNL     1      -8.706  47.958 -29.153  1.00  0.00    -0.229 OA
BRANCH  34  35
HETATM   35  O2  UNL     1      -8.598  49.416 -29.138  1.00  0.00    -0.249 OA
HETATM   36  H15 UNL     1      -8.825  49.554 -30.075  1.00  0.00     0.253 HD
ENDBRANCH  34  35
ENDBRANCH  31  34
ENDBRANCH  30  31
ENDBRANCH  28  29
ENDBRANCH  26  28
ENDBRANCH   1  26
TORSDOF 6
ENDMDL
MODEL 6
REMARK minimizedAffinity -9.21232319
REMARK  6 active torsions:
REMARK  status: ('A' for Active; 'I' for Inactive)
REMARK    1  A    between atoms: C2_2  and  C3_3 
REMARK    2  A    between atoms: C2_2  and  C9_11 
REMARK    3  A    between atoms: C3_3  and  C4_4 
REMARK    4  A    between atoms: C5_5  and  C6_6 
REMARK    5  A    between atoms: C6_6  and  O1_9 
REMARK    6  A    between atoms: O1_9  and  O2_10 
ROOT
HETATM    1  C9  UNL     1      -1.225  51.473 -22.278  1.00  0.00    -0.001 C 
HETATM    2  C10 UNL     1      -1.184  50.614 -23.574  1.00  0.00     0.007 C 
HETATM    3  C11 UNL     1      -2.199  49.470 -23.404  1.00  0.00     0.024 C 
HETATM    4  C12 UNL     1      -2.938  49.807 -22.128  1.00  0.00     0.092 C 
HETATM    5  C13 UNL     1      -4.148  50.740 -22.397  1.00  0.00     0.272 C 
HETATM    6  O3  UNL     1      -4.290  51.536 -23.307  1.00  0.00    -0.264 OA
HETATM    7  O4  UNL     1      -5.081  50.537 -21.397  1.00  0.00    -0.305 OA
HETATM    8  C14 UNL     1      -4.577  49.538 -20.477  1.00  0.00     0.113 C 
HETATM    9  C15 UNL     1      -3.713  50.304 -19.424  1.00  0.00     0.043 C 
HETATM   10  C16 UNL     1      -2.633  51.226 -20.058  1.00  0.00     0.014 C 
HETATM   11  C17 UNL     1      -1.884  50.529 -21.224  1.00  0.00    -0.020 C 
HETATM   12  C18 UNL     1      -0.848  49.560 -20.613  1.00  0.00     0.017 C 
HETATM   13  C19 UNL     1      -3.673  48.765 -21.380  1.00  0.00     0.137 A 
HETATM   14  O5  UNL     1      -3.073  47.550 -20.976  1.00  0.00    -0.364 OA
HETATM   15  C20 UNL     1      -4.096  47.456 -21.993  1.00  0.00     0.162 A 
HETATM   16  C21 UNL     1      -5.353  46.785 -21.548  1.00  0.00     0.041 C 
HETATM   17  C22 UNL     1      -6.394  47.790 -21.008  1.00  0.00     0.010 C 
HETATM   18  C23 UNL     1      -7.697  47.067 -20.565  1.00  0.00     0.056 C 
HETATM   19  C24 UNL     1      -8.357  46.279 -21.701  1.00  0.00     0.018 C 
HETATM   20  C25 UNL     1      -8.683  48.083 -19.995  1.00  0.00     0.131 C 
HETATM   21  O6  UNL     1      -9.865  48.129 -20.330  1.00  0.00    -0.298 OA
HETATM   22  C26 UNL     1      -8.156  48.988 -18.910  1.00  0.00     0.079 C 
HETATM   23  C27 UNL     1      -6.890  49.683 -19.390  1.00  0.00     0.020 C 
HETATM   24  C28 UNL     1      -5.776  48.707 -19.879  1.00  0.00    -0.004 C 
HETATM   25  C29 UNL     1      -5.298  47.865 -18.667  1.00  0.00     0.019 C 
ENDROOT
BRANCH   1  26
HETATM   26  C2  UNL     1       0.089  52.263 -22.008  1.00  0.00    -0.010 C 
HETATM   27  C1  UNL     1       0.166  53.060 -20.697  1.00  0.00     0.010 C 
BRANCH  26  28
HETATM   28  C3  UNL     1       0.474  53.152 -23.212  1.00  0.00     0.031 C 
BRANCH  28  29
HETATM   29  C4  UNL     1      -0.284  52.807 -24.467  1.00  0.00    -0.027 C 
HETATM   30  C5  UNL     1      -0.034  53.360 -25.666  1.00  0.00     0.009 C 
BRANCH  30  31
HETATM   31  C6  UNL     1      -0.740  53.074 -26.982  1.00  0.00     0.106 C 
HETATM   32  C7  UNL     1      -2.131  52.432 -26.877  1.00  0.00     0.053 C 
HETATM   33  C8  UNL     1       0.159  52.148 -27.815  1.00  0.00     0.053 C 
BRANCH  31  34
HETATM   34  O1  UNL     1      -0.820  54.310 -27.726  1.00  0.00    -0.229 OA
BRANCH  34  35
HETATM   35  O2  UNL     1      -1.986  54.233 -28.604  1.00  0.00    -0.249 OA
HETATM   36  H15 UNL     1      -2.597  54.718 -28.021  1.00  0.00     0.253 HD
ENDBRANCH  34  35
ENDBRANCH  31  34
ENDBRANCH  30  31
ENDBRANCH  28  29
ENDBRANCH  26  28
ENDBRANCH   1  26
TORSDOF 6
ENDMDL
MODEL 7
REMARK minimizedAffinity -9.16104126
REMARK  6 active torsions:
REMARK  status: ('A' for Active; 'I' for Inactive)
REMARK    1  A    between atoms: C2_2  and  C3_3 
REMARK    2  A    between atoms: C2_2  and  C9_11 
REMARK    3  A    between atoms: C3_3  and  C4_4 
REMARK    4  A    between atoms: C5_5  and  C6_6 
REMARK    5  A    between atoms: C6_6  and  O1_9 
REMARK    6  A    between atoms: O1_9  and  O2_10 
ROOT
HETATM    1  C9  UNL     1      -0.780  50.936 -21.312  1.00  0.00    -0.001 C 
HETATM    2  C10 UNL     1      -0.230  49.538 -20.908  1.00  0.00     0.007 C 
HETATM    3  C11 UNL     1      -1.427  48.574 -20.835  1.00  0.00     0.024 C 
HETATM    4  C12 UNL     1      -2.588  49.369 -21.389  1.00  0.00     0.092 C 
HETATM    5  C13 UNL     1      -2.680  49.247 -22.933  1.00  0.00     0.272 C 
HETATM    6  O3  UNL     1      -1.778  49.022 -23.721  1.00  0.00    -0.264 OA
HETATM    7  O4  UNL     1      -3.996  49.452 -23.306  1.00  0.00    -0.305 OA
HETATM    8  C14 UNL     1      -4.787  49.708 -22.120  1.00  0.00     0.113 C 
HETATM    9  C15 UNL     1      -4.693  51.244 -21.850  1.00  0.00     0.043 C 
HETATM   10  C16 UNL     1      -3.234  51.779 -21.801  1.00  0.00     0.014 C 
HETATM   11  C17 UNL     1      -2.301  50.852 -20.978  1.00  0.00    -0.020 C 
HETATM   12  C18 UNL     1      -2.562  51.122 -19.479  1.00  0.00     0.017 C 
HETATM   13  C19 UNL     1      -3.984  48.982 -21.092  1.00  0.00     0.137 A 
HETATM   14  O5  UNL     1      -4.455  48.788 -19.774  1.00  0.00    -0.364 OA
HETATM   15  C20 UNL     1      -4.371  47.610 -20.606  1.00  0.00     0.162 A 
HETATM   16  C21 UNL     1      -5.689  47.020 -20.984  1.00  0.00     0.041 C 
HETATM   17  C22 UNL     1      -6.217  47.574 -22.325  1.00  0.00     0.010 C 
HETATM   18  C23 UNL     1      -7.583  46.934 -22.700  1.00  0.00     0.056 C 
HETATM   19  C24 UNL     1      -7.513  45.408 -22.822  1.00  0.00     0.018 C 
HETATM   20  C25 UNL     1      -8.095  47.537 -24.005  1.00  0.00     0.131 C 
HETATM   21  O6  UNL     1      -8.514  46.856 -24.939  1.00  0.00    -0.298 OA
HETATM   22  C26 UNL     1      -8.155  49.043 -24.066  1.00  0.00     0.079 C 
HETATM   23  C27 UNL     1      -6.796  49.626 -23.705  1.00  0.00     0.020 C 
HETATM   24  C28 UNL     1      -6.249  49.155 -22.322  1.00  0.00    -0.004 C 
HETATM   25  C29 UNL     1      -7.191  49.696 -21.214  1.00  0.00     0.019 C 
ENDROOT
BRANCH   1  26
HETATM   26  C2  UNL     1       0.126  52.119 -20.861  1.00  0.00    -0.010 C 
HETATM   27  C1  UNL     1      -0.220  52.789 -19.523  1.00  0.00     0.010 C 
BRANCH  26  28
HETATM   28  C3  UNL     1       0.278  53.176 -21.978  1.00  0.00     0.031 C 
BRANCH  28  29
HETATM   29  C4  UNL     1       0.047  52.615 -23.357  1.00  0.00    -0.027 C 
HETATM   30  C5  UNL     1       0.803  52.921 -24.424  1.00  0.00     0.009 C 
BRANCH  30  31
HETATM   31  C6  UNL     1       0.649  52.406 -25.846  1.00  0.00     0.106 C 
HETATM   32  C7  UNL     1      -0.541  51.469 -26.100  1.00  0.00     0.053 C 
HETATM   33  C8  UNL     1       1.940  51.664 -26.227  1.00  0.00     0.053 C 
BRANCH  31  34
HETATM   34  O1  UNL     1       0.581  53.545 -26.731  1.00  0.00    -0.229 OA
BRANCH  34  35
HETATM   35  O2  UNL     1       0.195  54.711 -25.937  1.00  0.00    -0.249 OA
HETATM   36  H15 UNL     1       1.096  55.057 -25.803  1.00  0.00     0.253 HD
ENDBRANCH  34  35
ENDBRANCH  31  34
ENDBRANCH  30  31
ENDBRANCH  28  29
ENDBRANCH  26  28
ENDBRANCH   1  26
TORSDOF 6
ENDMDL
MODEL 8
REMARK minimizedAffinity -8.99973106
REMARK  6 active torsions:
REMARK  status: ('A' for Active; 'I' for Inactive)
REMARK    1  A    between atoms: C2_2  and  C3_3 
REMARK    2  A    between atoms: C2_2  and  C9_11 
REMARK    3  A    between atoms: C3_3  and  C4_4 
REMARK    4  A    between atoms: C5_5  and  C6_6 
REMARK    5  A    between atoms: C6_6  and  O1_9 
REMARK    6  A    between atoms: O1_9  and  O2_10 
ROOT
HETATM    1  C9  UNL     1      -5.232  48.711 -22.991  1.00  0.00    -0.001 C 
HETATM    2  C10 UNL     1      -5.199  49.555 -21.685  1.00  0.00     0.007 C 
HETATM    3  C11 UNL     1      -3.999  50.514 -21.785  1.00  0.00     0.024 C 
HETATM    4  C12 UNL     1      -3.502  50.352 -23.203  1.00  0.00     0.092 C 
HETATM    5  C13 UNL     1      -4.244  51.300 -24.182  1.00  0.00     0.272 C 
HETATM    6  O3  UNL     1      -5.368  51.757 -24.073  1.00  0.00    -0.264 OA
HETATM    7  O4  UNL     1      -3.410  51.553 -25.256  1.00  0.00    -0.305 OA
HETATM    8  C14 UNL     1      -2.166  50.836 -25.065  1.00  0.00     0.113 C 
HETATM    9  C15 UNL     1      -2.385  49.407 -25.657  1.00  0.00     0.043 C 
HETATM   10  C16 UNL     1      -3.651  48.692 -25.106  1.00  0.00     0.014 C 
HETATM   11  C17 UNL     1      -3.790  48.858 -23.570  1.00  0.00    -0.020 C 
HETATM   12  C18 UNL     1      -2.812  47.871 -22.893  1.00  0.00     0.017 C 
HETATM   13  C19 UNL     1      -2.126  50.746 -23.575  1.00  0.00     0.137 A 
HETATM   14  O5  UNL     1      -0.986  50.277 -22.884  1.00  0.00    -0.364 OA
HETATM   15  C20 UNL     1      -1.287  51.683 -22.747  1.00  0.00     0.162 A 
HETATM   16  C21 UNL     1      -0.304  52.596 -23.402  1.00  0.00     0.041 C 
HETATM   17  C22 UNL     1      -0.707  52.949 -24.850  1.00  0.00     0.010 C 
HETATM   18  C23 UNL     1       0.326  53.910 -25.503  1.00  0.00     0.056 C 
HETATM   19  C24 UNL     1       0.489  55.224 -24.731  1.00  0.00     0.018 C 
HETATM   20  C25 UNL     1      -0.080  54.202 -26.945  1.00  0.00     0.131 C 
HETATM   21  O6  UNL     1      -0.118  55.338 -27.414  1.00  0.00    -0.298 OA
HETATM   22  C26 UNL     1      -0.348  53.001 -27.818  1.00  0.00     0.079 C 
HETATM   23  C27 UNL     1      -1.372  52.097 -27.148  1.00  0.00     0.020 C 
HETATM   24  C28 UNL     1      -0.976  51.649 -25.706  1.00  0.00    -0.004 C 
HETATM   25  C29 UNL     1       0.294  50.764 -25.801  1.00  0.00     0.019 C 
ENDROOT
BRANCH   1  26
HETATM   26  C2  UNL     1      -5.949  47.339 -22.831  1.00  0.00    -0.010 C 
HETATM   27  C1  UNL     1      -7.483  47.360 -22.745  1.00  0.00     0.010 C 
BRANCH  26  28
HETATM   28  C3  UNL     1      -5.349  46.517 -21.668  1.00  0.00     0.031 C 
BRANCH  28  29
HETATM   29  C4  UNL     1      -4.770  47.377 -20.575  1.00  0.00    -0.027 C 
HETATM   30  C5  UNL     1      -4.033  46.898 -19.560  1.00  0.00     0.009 C 
BRANCH  30  31
HETATM   31  C6  UNL     1      -3.407  47.684 -18.418  1.00  0.00     0.106 C 
HETATM   32  C7  UNL     1      -4.207  48.895 -17.914  1.00  0.00     0.053 C 
HETATM   33  C8  UNL     1      -2.025  48.173 -18.876  1.00  0.00     0.053 C 
BRANCH  31  34
HETATM   34  O1  UNL     1      -3.154  46.769 -17.329  1.00  0.00    -0.229 OA
BRANCH  34  35
HETATM   35  O2  UNL     1      -1.984  47.252 -16.597  1.00  0.00    -0.249 OA
HETATM   36  H15 UNL     1      -2.476  47.717 -15.897  1.00  0.00     0.253 HD
ENDBRANCH  34  35
ENDBRANCH  31  34
ENDBRANCH  30  31
ENDBRANCH  28  29
ENDBRANCH  26  28
ENDBRANCH   1  26
TORSDOF 6
ENDMDL
MODEL 9
REMARK minimizedAffinity -8.94079018
REMARK  6 active torsions:
REMARK  status: ('A' for Active; 'I' for Inactive)
REMARK    1  A    between atoms: C2_2  and  C3_3 
REMARK    2  A    between atoms: C2_2  and  C9_11 
REMARK    3  A    between atoms: C3_3  and  C4_4 
REMARK    4  A    between atoms: C5_5  and  C6_6 
REMARK    5  A    between atoms: C6_6  and  O1_9 
REMARK    6  A    between atoms: O1_9  and  O2_10 
ROOT
HETATM    1  C9  UNL     1      -1.001  49.603 -18.151  1.00  0.00    -0.001 C 
HETATM    2  C10 UNL     1      -1.988  48.426 -17.900  1.00  0.00     0.007 C 
HETATM    3  C11 UNL     1      -2.932  48.349 -19.114  1.00  0.00     0.024 C 
HETATM    4  C12 UNL     1      -2.350  49.326 -20.110  1.00  0.00     0.092 C 
HETATM    5  C13 UNL     1      -1.271  48.658 -21.002  1.00  0.00     0.272 C 
HETATM    6  O3  UNL     1      -0.563  47.704 -20.732  1.00  0.00    -0.264 OA
HETATM    7  O4  UNL     1      -1.216  49.344 -22.202  1.00  0.00    -0.305 OA
HETATM    8  C14 UNL     1      -2.179  50.425 -22.170  1.00  0.00     0.113 C 
HETATM    9  C15 UNL     1      -1.452  51.644 -21.517  1.00  0.00     0.043 C 
HETATM   10  C16 UNL     1      -0.786  51.312 -20.152  1.00  0.00     0.014 C 
HETATM   11  C17 UNL     1      -1.712  50.462 -19.243  1.00  0.00    -0.020 C 
HETATM   12  C18 UNL     1      -2.763  51.406 -18.618  1.00  0.00     0.017 C 
HETATM   13  C19 UNL     1      -3.177  49.877 -21.205  1.00  0.00     0.137 A 
HETATM   14  O5  UNL     1      -4.421  50.506 -20.976  1.00  0.00    -0.364 OA
HETATM   15  C20 UNL     1      -4.460  49.239 -21.667  1.00  0.00     0.162 A 
HETATM   16  C21 UNL     1      -4.872  49.324 -23.099  1.00  0.00     0.041 C 
HETATM   17  C22 UNL     1      -3.664  49.474 -24.049  1.00  0.00     0.010 C 
HETATM   18  C23 UNL     1      -4.120  49.547 -25.533  1.00  0.00     0.056 C 
HETATM   19  C24 UNL     1      -4.909  48.311 -25.976  1.00  0.00     0.018 C 
HETATM   20  C25 UNL     1      -2.906  49.740 -26.438  1.00  0.00     0.131 C 
HETATM   21  O6  UNL     1      -2.709  49.066 -27.448  1.00  0.00    -0.298 OA
HETATM   22  C26 UNL     1      -1.987  50.882 -26.085  1.00  0.00     0.079 C 
HETATM   23  C27 UNL     1      -1.555  50.764 -24.631  1.00  0.00     0.020 C 
HETATM   24  C28 UNL     1      -2.741  50.684 -23.621  1.00  0.00    -0.004 C 
HETATM   25  C29 UNL     1      -3.516  52.027 -23.669  1.00  0.00     0.019 C 
ENDROOT
BRANCH   1  26
HETATM   26  C2  UNL     1      -0.406  50.209 -16.846  1.00  0.00    -0.010 C 
HETATM   27  C1  UNL     1      -1.362  50.375 -15.656  1.00  0.00     0.010 C 
BRANCH  26  28
HETATM   28  C3  UNL     1       0.352  51.526 -17.127  1.00  0.00     0.031 C 
BRANCH  28  29
HETATM   29  C4  UNL     1       1.598  51.680 -16.294  1.00  0.00    -0.027 C 
HETATM   30  C5  UNL     1       1.873  50.927 -15.216  1.00  0.00     0.009 C 
BRANCH  30  31
HETATM   31  C6  UNL     1       3.098  51.007 -14.320  1.00  0.00     0.106 C 
HETATM   32  C7  UNL     1       2.919  51.765 -12.996  1.00  0.00     0.053 C 
HETATM   33  C8  UNL     1       4.228  51.680 -15.114  1.00  0.00     0.053 C 
BRANCH  31  34
HETATM   34  O1  UNL     1       3.554  49.661 -14.062  1.00  0.00    -0.229 OA
BRANCH  34  35
HETATM   35  O2  UNL     1       4.903  49.740 -13.504  1.00  0.00    -0.249 OA
HETATM   36  H15 UNL     1       4.641  49.672 -12.569  1.00  0.00     0.253 HD
ENDBRANCH  34  35
ENDBRANCH  31  34
ENDBRANCH  30  31
ENDBRANCH  28  29
ENDBRANCH  26  28
ENDBRANCH   1  26
TORSDOF 6
ENDMDL
