MODEL 1
REMARK minimizedAffinity -8.76191998
REMARK  3 active torsions:
REMARK  status: ('A' for Active; 'I' for Inactive)
REMARK    1  A    between atoms: N2_7  and  C6_8 
REMARK    2  A    between atoms: C9_11  and  C10_12 
REMARK    3  A    between atoms: C13_15  and  N3_16 
ROOT
HETATM    1  C6  UNL     1       2.895   6.880  11.691  1.00  0.00     0.030 A 
HETATM    2  C7  UNL     1       2.051   7.404  12.682  1.00  0.00     0.030 A 
HETATM    3  C8  UNL     1       0.727   6.965  12.851  1.00  0.00     0.014 A 
HETATM    4  C9  UNL     1       0.180   5.981  12.023  1.00  0.00    -0.026 A 
HETATM    5  C20 UNL     1       1.003   5.460  11.020  1.00  0.00     0.014 A 
HETATM    6  C21 UNL     1       2.326   5.906  10.858  1.00  0.00     0.030 A 
ENDROOT
BRANCH   4   7
HETATM    7  C10 UNL     1      -1.205   5.517  12.196  1.00  0.00    -0.026 A 
HETATM    8  C11 UNL     1      -1.682   4.384  11.525  1.00  0.00     0.014 A 
HETATM    9  C12 UNL     1      -3.005   3.937  11.687  1.00  0.00     0.032 A 
HETATM   10  C13 UNL     1      -3.906   4.605  12.526  1.00  0.00     0.060 A 
HETATM   11  C18 UNL     1      -3.418   5.741  13.198  1.00  0.00     0.032 A 
HETATM   12  C19 UNL     1      -2.098   6.188  13.038  1.00  0.00     0.014 A 
BRANCH  10  13
HETATM   13  N3  UNL     1      -5.271   4.179  12.719  1.00  0.00    -0.221 N 
HETATM   14  N4  UNL     1      -6.010   5.038  13.526  1.00  0.00    -0.302 N 
HETATM   15  C14 UNL     1      -7.243   4.744  13.761  1.00  0.00     0.108 A 
ATOM     16  H4  UNL     1      -5.588   5.879  13.920  1.00  0.00     0.186 HD
HETATM   17  C15 UNL     1      -7.956   3.573  13.257  1.00  0.00     0.024 A 
HETATM   18  C16 UNL     1      -7.248   2.753  12.484  1.00  0.00     0.077 A 
HETATM   19  C17 UNL     1      -5.823   3.016  12.159  1.00  0.00     0.266 A 
HETATM   20  O1  UNL     1      -5.279   2.189  11.432  1.00  0.00    -0.266 OA
ENDBRANCH  10  13
ENDBRANCH   4   7
BRANCH   1  21
HETATM   21  N2  UNL     1       4.193   7.333  11.519  1.00  0.00    -0.374 N 
HETATM   22  C5  UNL     1       5.260   6.440  11.068  1.00  0.00     0.124 C 
HETATM   23  C4  UNL     1       6.476   7.351  10.970  1.00  0.00     0.028 C 
HETATM   24  C3  UNL     1       5.888   8.673  10.485  1.00  0.00     0.040 C 
HETATM   25  C2  UNL     1       6.629   9.905  11.004  1.00  0.00     0.278 C 
HETATM   26  C22 UNL     1       4.494   8.720  11.132  1.00  0.00     0.118 C 
HETATM   27  N1  UNL     1       5.623  10.667  11.753  1.00  0.00     0.086 N 
HETATM   28  C1  UNL     1       6.211  11.515  12.779  1.00  0.00     0.310 C 
HETATM   29  C23 UNL     1       4.703   9.667  12.313  1.00  0.00     0.297 C 
ENDBRANCH   1  21
TORSDOF 3
ENDMDL
MODEL 2
REMARK minimizedAffinity -8.75852013
REMARK  3 active torsions:
REMARK  status: ('A' for Active; 'I' for Inactive)
REMARK    1  A    between atoms: N2_7  and  C6_8 
REMARK    2  A    between atoms: C9_11  and  C10_12 
REMARK    3  A    between atoms: C13_15  and  N3_16 
ROOT
HETATM    1  C6  UNL     1      -3.587   4.218  12.030  1.00  0.00     0.030 A 
HETATM    2  C7  UNL     1      -2.612   3.719  11.152  1.00  0.00     0.030 A 
HETATM    3  C8  UNL     1      -1.303   4.229  11.115  1.00  0.00     0.014 A 
HETATM    4  C9  UNL     1      -0.910   5.276  11.954  1.00  0.00    -0.026 A 
HETATM    5  C20 UNL     1      -1.874   5.794  12.823  1.00  0.00     0.014 A 
HETATM    6  C21 UNL     1      -3.181   5.279  12.853  1.00  0.00     0.030 A 
ENDROOT
BRANCH   4   7
HETATM    7  C10 UNL     1       0.459   5.813  11.920  1.00  0.00    -0.026 A 
HETATM    8  C11 UNL     1       1.371   5.420  10.932  1.00  0.00     0.014 A 
HETATM    9  C12 UNL     1       2.679   5.930  10.896  1.00  0.00     0.032 A 
HETATM   10  C13 UNL     1       3.133   6.853  11.847  1.00  0.00     0.060 A 
HETATM   11  C18 UNL     1       2.210   7.244  12.835  1.00  0.00     0.032 A 
HETATM   12  C19 UNL     1       0.902   6.736  12.872  1.00  0.00     0.014 A 
BRANCH  10  13
HETATM   13  N3  UNL     1       4.468   7.400  11.845  1.00  0.00    -0.221 N 
HETATM   14  N4  UNL     1       5.198   7.081  12.985  1.00  0.00    -0.302 N 
HETATM   15  C14 UNL     1       6.405   7.525  13.080  1.00  0.00     0.108 A 
ATOM     16  H4  UNL     1       4.790   6.512  13.726  1.00  0.00     0.186 HD
HETATM   17  C15 UNL     1       7.096   8.348  12.091  1.00  0.00     0.024 A 
HETATM   18  C16 UNL     1       6.397   8.651  10.999  1.00  0.00     0.077 A 
HETATM   19  C17 UNL     1       5.002   8.180  10.806  1.00  0.00     0.266 A 
HETATM   20  O1  UNL     1       4.462   8.520   9.756  1.00  0.00    -0.266 OA
ENDBRANCH  10  13
ENDBRANCH   4   7
BRANCH   1  21
HETATM   21  N2  UNL     1      -4.880   3.723  12.046  1.00  0.00    -0.374 N 
HETATM   22  C5  UNL     1      -5.192   2.385  11.543  1.00  0.00     0.124 C 
HETATM   23  C4  UNL     1      -6.686   2.242  11.798  1.00  0.00     0.028 C 
HETATM   24  C3  UNL     1      -6.890   2.980  13.118  1.00  0.00     0.040 C 
HETATM   25  C2  UNL     1      -8.254   3.660  13.241  1.00  0.00     0.278 C 
HETATM   26  C22 UNL     1      -5.859   4.120  13.069  1.00  0.00     0.118 C 
HETATM   27  N1  UNL     1      -7.955   5.084  13.426  1.00  0.00     0.086 N 
HETATM   28  C1  UNL     1      -9.041   5.947  12.985  1.00  0.00     0.310 C 
HETATM   29  C23 UNL     1      -6.711   5.329  12.683  1.00  0.00     0.297 C 
ENDBRANCH   1  21
TORSDOF 3
ENDMDL
MODEL 3
REMARK minimizedAffinity -8.74275112
REMARK  3 active torsions:
REMARK  status: ('A' for Active; 'I' for Inactive)
REMARK    1  A    between atoms: N2_7  and  C6_8 
REMARK    2  A    between atoms: C9_11  and  C10_12 
REMARK    3  A    between atoms: C13_15  and  N3_16 
ROOT
HETATM    1  C6  UNL     1      -3.117   5.287  12.819  1.00  0.00     0.030 A 
HETATM    2  C7  UNL     1      -3.502   6.588  13.179  1.00  0.00     0.030 A 
HETATM    3  C8  UNL     1      -4.833   6.922  13.479  1.00  0.00     0.014 A 
HETATM    4  C9  UNL     1      -5.850   5.965  13.422  1.00  0.00    -0.026 A 
HETATM    5  C20 UNL     1      -5.485   4.667  13.049  1.00  0.00     0.014 A 
HETATM    6  C21 UNL     1      -4.152   4.343  12.750  1.00  0.00     0.030 A 
ENDROOT
BRANCH   4   7
HETATM    7  C10 UNL     1      -7.246   6.309  13.736  1.00  0.00    -0.026 A 
HETATM    8  C11 UNL     1      -7.572   7.064  14.868  1.00  0.00     0.014 A 
HETATM    9  C12 UNL     1      -8.903   7.395  15.172  1.00  0.00     0.032 A 
HETATM   10  C13 UNL     1      -9.965   6.982  14.357  1.00  0.00     0.060 A 
HETATM   11  C18 UNL     1      -9.628   6.225  13.219  1.00  0.00     0.032 A 
HETATM   12  C19 UNL     1      -8.299   5.895  12.914  1.00  0.00     0.014 A 
BRANCH  10  13
HETATM   13  N3  UNL     1     -11.344   7.300  14.634  1.00  0.00    -0.221 N 
HETATM   14  N4  UNL     1     -12.201   6.212  14.501  1.00  0.00    -0.302 N 
HETATM   15  C14 UNL     1     -13.457   6.394  14.725  1.00  0.00     0.108 A 
ATOM     16  H4  UNL     1     -11.844   5.295  14.232  1.00  0.00     0.186 HD
HETATM   17  C15 UNL     1     -14.085   7.655  15.112  1.00  0.00     0.024 A 
HETATM   18  C16 UNL     1     -13.265   8.695  15.241  1.00  0.00     0.077 A 
HETATM   19  C17 UNL     1     -11.804   8.574  15.004  1.00  0.00     0.266 A 
HETATM   20  O1  UNL     1     -11.150   9.603  15.159  1.00  0.00    -0.266 OA
ENDBRANCH  10  13
ENDBRANCH   4   7
BRANCH   1  21
HETATM   21  N2  UNL     1      -1.805   4.971  12.506  1.00  0.00    -0.374 N 
HETATM   22  C5  UNL     1      -1.445   3.664  11.958  1.00  0.00     0.124 C 
HETATM   23  C4  UNL     1       0.055   3.773  11.720  1.00  0.00     0.028 C 
HETATM   24  C3  UNL     1       0.238   5.222  11.280  1.00  0.00     0.040 C 
HETATM   25  C2  UNL     1       1.575   5.831  11.701  1.00  0.00     0.278 C 
HETATM   26  C22 UNL     1      -0.837   5.989  12.069  1.00  0.00     0.118 C 
HETATM   27  N1  UNL     1       1.223   6.982  12.540  1.00  0.00     0.086 N 
HETATM   28  C1  UNL     1       2.272   7.329  13.488  1.00  0.00     0.310 C 
HETATM   29  C23 UNL     1      -0.035   6.617  13.208  1.00  0.00     0.297 C 
ENDBRANCH   1  21
TORSDOF 3
ENDMDL
MODEL 4
REMARK minimizedAffinity -8.70998955
REMARK  3 active torsions:
REMARK  status: ('A' for Active; 'I' for Inactive)
REMARK    1  A    between atoms: N2_7  and  C6_8 
REMARK    2  A    between atoms: C9_11  and  C10_12 
REMARK    3  A    between atoms: C13_15  and  N3_16 
ROOT
HETATM    1  C6  UNL     1      -4.541   5.977  13.152  1.00  0.00     0.030 A 
HETATM    2  C7  UNL     1      -3.872   7.197  13.331  1.00  0.00     0.030 A 
HETATM    3  C8  UNL     1      -2.490   7.335  13.117  1.00  0.00     0.014 A 
HETATM    4  C9  UNL     1      -1.707   6.247  12.721  1.00  0.00    -0.026 A 
HETATM    5  C20 UNL     1      -2.357   5.020  12.553  1.00  0.00     0.014 A 
HETATM    6  C21 UNL     1      -3.739   4.892  12.770  1.00  0.00     0.030 A 
ENDROOT
BRANCH   4   7
HETATM    7  C10 UNL     1      -0.260   6.386  12.495  1.00  0.00    -0.026 A 
HETATM    8  C11 UNL     1       0.350   5.868  11.345  1.00  0.00     0.014 A 
HETATM    9  C12 UNL     1       1.731   5.999  11.125  1.00  0.00     0.032 A 
HETATM   10  C13 UNL     1       2.562   6.650  12.046  1.00  0.00     0.060 A 
HETATM   11  C18 UNL     1       1.941   7.169  13.197  1.00  0.00     0.032 A 
HETATM   12  C19 UNL     1       0.561   7.040  13.418  1.00  0.00     0.014 A 
BRANCH  10  13
HETATM   13  N3  UNL     1       3.984   6.804  11.857  1.00  0.00    -0.221 N 
HETATM   14  N4  UNL     1       4.630   7.366  12.954  1.00  0.00    -0.302 N 
HETATM   15  C14 UNL     1       5.904   7.548  12.884  1.00  0.00     0.108 A 
ATOM     16  H4  UNL     1       4.109   7.628  13.791  1.00  0.00     0.186 HD
HETATM   17  C15 UNL     1       6.756   7.217  11.744  1.00  0.00     0.024 A 
HETATM   18  C16 UNL     1       6.137   6.678  10.696  1.00  0.00     0.077 A 
HETATM   19  C17 UNL     1       4.672   6.431  10.692  1.00  0.00     0.266 A 
HETATM   20  O1  UNL     1       4.218   5.924   9.670  1.00  0.00    -0.266 OA
ENDBRANCH  10  13
ENDBRANCH   4   7
BRANCH   1  21
HETATM   21  N2  UNL     1      -5.901   5.846  13.384  1.00  0.00    -0.374 N 
HETATM   22  C5  UNL     1      -6.659   4.712  12.856  1.00  0.00     0.124 C 
HETATM   23  C4  UNL     1      -8.068   4.941  13.387  1.00  0.00     0.028 C 
HETATM   24  C3  UNL     1      -7.830   5.539  14.770  1.00  0.00     0.040 C 
HETATM   25  C2  UNL     1      -8.904   6.536  15.205  1.00  0.00     0.278 C 
HETATM   26  C22 UNL     1      -6.541   6.360  14.604  1.00  0.00     0.118 C 
HETATM   27  N1  UNL     1      -8.186   7.796  15.429  1.00  0.00     0.086 N 
HETATM   28  C1  UNL     1      -9.040   8.964  15.272  1.00  0.00     0.310 C 
HETATM   29  C23 UNL     1      -7.066   7.790  14.478  1.00  0.00     0.297 C 
ENDBRANCH   1  21
TORSDOF 3
ENDMDL
MODEL 5
REMARK minimizedAffinity -8.6786356
REMARK  3 active torsions:
REMARK  status: ('A' for Active; 'I' for Inactive)
REMARK    1  A    between atoms: N2_7  and  C6_8 
REMARK    2  A    between atoms: C9_11  and  C10_12 
REMARK    3  A    between atoms: C13_15  and  N3_16 
ROOT
HETATM    1  C6  UNL     1     -10.124   6.943  14.201  1.00  0.00     0.030 A 
HETATM    2  C7  UNL     1      -9.031   6.869  15.077  1.00  0.00     0.030 A 
HETATM    3  C8  UNL     1      -7.817   6.263  14.714  1.00  0.00     0.014 A 
HETATM    4  C9  UNL     1      -7.642   5.690  13.451  1.00  0.00    -0.026 A 
HETATM    5  C20 UNL     1      -8.728   5.742  12.572  1.00  0.00     0.014 A 
HETATM    6  C21 UNL     1      -9.939   6.349  12.944  1.00  0.00     0.030 A 
ENDROOT
BRANCH   4   7
HETATM    7  C10 UNL     1      -6.372   5.055  13.066  1.00  0.00    -0.026 A 
HETATM    8  C11 UNL     1      -5.140   5.610  13.433  1.00  0.00     0.014 A 
HETATM    9  C12 UNL     1      -3.925   5.007  13.067  1.00  0.00     0.032 A 
HETATM   10  C13 UNL     1      -3.890   3.825  12.316  1.00  0.00     0.060 A 
HETATM   11  C18 UNL     1      -5.133   3.273  11.953  1.00  0.00     0.032 A 
HETATM   12  C19 UNL     1      -6.347   3.873  12.318  1.00  0.00     0.014 A 
BRANCH  10  13
HETATM   13  N3  UNL     1      -2.665   3.176  11.920  1.00  0.00    -0.221 N 
HETATM   14  N4  UNL     1      -2.855   1.892  11.419  1.00  0.00    -0.302 N 
HETATM   15  C14 UNL     1      -1.820   1.225  11.039  1.00  0.00     0.108 A 
ATOM     16  H4  UNL     1      -3.790   1.488  11.355  1.00  0.00     0.186 HD
HETATM   17  C15 UNL     1      -0.436   1.692  11.083  1.00  0.00     0.024 A 
HETATM   18  C16 UNL     1      -0.255   2.921  11.560  1.00  0.00     0.077 A 
HETATM   19  C17 UNL     1      -1.392   3.760  12.019  1.00  0.00     0.266 A 
HETATM   20  O1  UNL     1      -1.099   4.878  12.434  1.00  0.00    -0.266 OA
ENDBRANCH  10  13
ENDBRANCH   4   7
BRANCH   1  21
HETATM   21  N2  UNL     1     -11.325   7.525  14.574  1.00  0.00    -0.374 N 
HETATM   22  C5  UNL     1     -11.366   8.808  15.275  1.00  0.00     0.124 C 
HETATM   23  C4  UNL     1     -12.854   9.085  15.434  1.00  0.00     0.028 C 
HETATM   24  C3  UNL     1     -13.456   8.531  14.146  1.00  0.00     0.040 C 
HETATM   25  C2  UNL     1     -14.867   7.969  14.315  1.00  0.00     0.278 C 
HETATM   26  C22 UNL     1     -12.564   7.326  13.807  1.00  0.00     0.118 C 
HETATM   27  N1  UNL     1     -14.767   6.561  13.915  1.00  0.00     0.086 N 
HETATM   28  C1  UNL     1     -15.787   5.727  14.534  1.00  0.00     0.310 C 
HETATM   29  C23 UNL     1     -13.406   6.140  14.278  1.00  0.00     0.297 C 
ENDBRANCH   1  21
TORSDOF 3
ENDMDL
MODEL 6
REMARK minimizedAffinity -8.50910473
REMARK  3 active torsions:
REMARK  status: ('A' for Active; 'I' for Inactive)
REMARK    1  A    between atoms: N2_7  and  C6_8 
REMARK    2  A    between atoms: C9_11  and  C10_12 
REMARK    3  A    between atoms: C13_15  and  N3_16 
ROOT
HETATM    1  C6  UNL     1       2.847   7.333  11.616  1.00  0.00     0.030 A 
HETATM    2  C7  UNL     1       2.103   6.911  10.504  1.00  0.00     0.030 A 
HETATM    3  C8  UNL     1       0.834   6.320  10.629  1.00  0.00     0.014 A 
HETATM    4  C9  UNL     1       0.253   6.113  11.883  1.00  0.00    -0.026 A 
HETATM    5  C20 UNL     1       0.989   6.514  13.002  1.00  0.00     0.014 A 
HETATM    6  C21 UNL     1       2.257   7.104  12.867  1.00  0.00     0.030 A 
ENDROOT
BRANCH   4   7
HETATM    7  C10 UNL     1      -1.075   5.495  12.020  1.00  0.00    -0.026 A 
HETATM    8  C11 UNL     1      -1.999   5.958  12.965  1.00  0.00     0.014 A 
HETATM    9  C12 UNL     1      -3.269   5.370  13.099  1.00  0.00     0.032 A 
HETATM   10  C13 UNL     1      -3.668   4.295  12.295  1.00  0.00     0.060 A 
HETATM   11  C18 UNL     1      -2.734   3.838  11.347  1.00  0.00     0.032 A 
HETATM   12  C19 UNL     1      -1.466   4.423  11.211  1.00  0.00     0.014 A 
BRANCH  10  13
HETATM   13  N3  UNL     1      -4.961   3.665  12.402  1.00  0.00    -0.221 N 
HETATM   14  N4  UNL     1      -5.074   2.502  11.647  1.00  0.00    -0.302 N 
HETATM   15  C14 UNL     1      -6.194   1.864  11.674  1.00  0.00     0.108 A 
ATOM     16  H4  UNL     1      -4.291   2.163  11.088  1.00  0.00     0.186 HD
HETATM   17  C15 UNL     1      -7.382   2.249  12.431  1.00  0.00     0.024 A 
HETATM   18  C16 UNL     1      -7.272   3.361  13.154  1.00  0.00     0.077 A 
HETATM   19  C17 UNL     1      -6.018   4.156  13.184  1.00  0.00     0.266 A 
HETATM   20  O1  UNL     1      -6.038   5.160  13.893  1.00  0.00    -0.266 OA
ENDBRANCH  10  13
ENDBRANCH   4   7
BRANCH   1  21
HETATM   21  N2  UNL     1       4.105   7.897  11.484  1.00  0.00    -0.374 N 
HETATM   22  C5  UNL     1       4.543   8.503  10.227  1.00  0.00     0.124 C 
HETATM   23  C4  UNL     1       5.935   9.031  10.545  1.00  0.00     0.028 C 
HETATM   24  C3  UNL     1       5.812   9.500  11.992  1.00  0.00     0.040 C 
HETATM   25  C2  UNL     1       7.100   9.350  12.800  1.00  0.00     0.278 C 
HETATM   26  C22 UNL     1       4.809   8.516  12.617  1.00  0.00     0.118 C 
HETATM   27  N1  UNL     1       6.751   8.460  13.913  1.00  0.00     0.086 N 
HETATM   28  C1  UNL     1       7.901   7.737  14.436  1.00  0.00     0.310 C 
HETATM   29  C23 UNL     1       5.715   7.558  13.389  1.00  0.00     0.297 C 
ENDBRANCH   1  21
TORSDOF 3
ENDMDL
MODEL 7
REMARK minimizedAffinity -8.4050684
REMARK  3 active torsions:
REMARK  status: ('A' for Active; 'I' for Inactive)
REMARK    1  A    between atoms: N2_7  and  C6_8 
REMARK    2  A    between atoms: C9_11  and  C10_12 
REMARK    3  A    between atoms: C13_15  and  N3_16 
ROOT
HETATM    1  C6  UNL     1      -3.981   5.018  12.748  1.00  0.00     0.030 A 
HETATM    2  C7  UNL     1      -5.082   4.154  12.641  1.00  0.00     0.030 A 
HETATM    3  C8  UNL     1      -6.387   4.556  12.969  1.00  0.00     0.014 A 
HETATM    4  C9  UNL     1      -6.652   5.848  13.433  1.00  0.00    -0.026 A 
HETATM    5  C20 UNL     1      -5.564   6.716  13.560  1.00  0.00     0.014 A 
HETATM    6  C21 UNL     1      -4.262   6.305  13.230  1.00  0.00     0.030 A 
ENDROOT
BRANCH   4   7
HETATM    7  C10 UNL     1      -8.018   6.274  13.777  1.00  0.00    -0.026 A 
HETATM    8  C11 UNL     1      -9.060   6.200  12.845  1.00  0.00     0.014 A 
HETATM    9  C12 UNL     1     -10.365   6.607  13.169  1.00  0.00     0.032 A 
HETATM   10  C13 UNL     1     -10.684   7.105  14.439  1.00  0.00     0.060 A 
HETATM   11  C18 UNL     1      -9.631   7.173  15.371  1.00  0.00     0.032 A 
HETATM   12  C19 UNL     1      -8.327   6.768  15.048  1.00  0.00     0.014 A 
BRANCH  10  13
HETATM   13  N3  UNL     1     -12.010   7.532  14.811  1.00  0.00    -0.221 N 
HETATM   14  N4  UNL     1     -12.056   8.836  15.295  1.00  0.00    -0.302 N 
HETATM   15  C14 UNL     1     -13.198   9.312  15.657  1.00  0.00     0.108 A 
ATOM     16  H4  UNL     1     -11.209   9.400  15.361  1.00  0.00     0.186 HD
HETATM   17  C15 UNL     1     -14.475   8.605  15.611  1.00  0.00     0.024 A 
HETATM   18  C16 UNL     1     -14.430   7.358  15.146  1.00  0.00     0.077 A 
HETATM   19  C17 UNL     1     -13.158   6.731  14.705  1.00  0.00     0.266 A 
HETATM   20  O1  UNL     1     -13.245   5.578  14.291  1.00  0.00    -0.266 OA
ENDBRANCH  10  13
ENDBRANCH   4   7
BRANCH   1  21
HETATM   21  N2  UNL     1      -2.695   4.608  12.441  1.00  0.00    -0.374 N 
HETATM   22  C5  UNL     1      -2.437   3.317  11.804  1.00  0.00     0.124 C 
HETATM   23  C4  UNL     1      -0.927   3.305  11.608  1.00  0.00     0.028 C 
HETATM   24  C3  UNL     1      -0.602   4.760  11.283  1.00  0.00     0.040 C 
HETATM   25  C2  UNL     1       0.771   5.212  11.779  1.00  0.00     0.278 C 
HETATM   26  C22 UNL     1      -1.627   5.561  12.104  1.00  0.00     0.118 C 
HETATM   27  N1  UNL     1       0.499   6.326  12.695  1.00  0.00     0.086 N 
HETATM   28  C1  UNL     1       1.547   6.504  13.689  1.00  0.00     0.310 C 
HETATM   29  C23 UNL     1      -0.805   6.029  13.305  1.00  0.00     0.297 C 
ENDBRANCH   1  21
TORSDOF 3
ENDMDL
MODEL 8
REMARK minimizedAffinity -8.28559875
REMARK  3 active torsions:
REMARK  status: ('A' for Active; 'I' for Inactive)
REMARK    1  A    between atoms: N2_7  and  C6_8 
REMARK    2  A    between atoms: C9_11  and  C10_12 
REMARK    3  A    between atoms: C13_15  and  N3_16 
ROOT
HETATM    1  C6  UNL     1      -3.071   6.753  13.717  1.00  0.00     0.030 A 
HETATM    2  C7  UNL     1      -3.839   5.580  13.663  1.00  0.00     0.030 A 
HETATM    3  C8  UNL     1      -5.244   5.602  13.669  1.00  0.00     0.014 A 
HETATM    4  C9  UNL     1      -5.949   6.806  13.739  1.00  0.00    -0.026 A 
HETATM    5  C20 UNL     1      -5.198   7.983  13.808  1.00  0.00     0.014 A 
HETATM    6  C21 UNL     1      -3.793   7.952  13.803  1.00  0.00     0.030 A 
ENDROOT
BRANCH   4   7
HETATM    7  C10 UNL     1      -7.420   6.834  13.744  1.00  0.00    -0.026 A 
HETATM    8  C11 UNL     1      -8.130   7.615  14.663  1.00  0.00     0.014 A 
HETATM    9  C12 UNL     1      -9.535   7.644  14.671  1.00  0.00     0.032 A 
HETATM   10  C13 UNL     1     -10.289   6.893  13.761  1.00  0.00     0.060 A 
HETATM   11  C18 UNL     1      -9.568   6.112  12.839  1.00  0.00     0.032 A 
HETATM   12  C19 UNL     1      -8.165   6.082  12.829  1.00  0.00     0.014 A 
BRANCH  10  13
HETATM   13  N3  UNL     1     -11.731   6.895  13.737  1.00  0.00    -0.221 N 
HETATM   14  N4  UNL     1     -12.300   5.895  14.519  1.00  0.00    -0.302 N 
HETATM   15  C14 UNL     1     -13.586   5.812  14.562  1.00  0.00     0.108 A 
ATOM     16  H4  UNL     1     -11.715   5.245  15.043  1.00  0.00     0.186 HD
HETATM   17  C15 UNL     1     -14.526   6.679  13.857  1.00  0.00     0.024 A 
HETATM   18  C16 UNL     1     -13.980   7.637  13.110  1.00  0.00     0.077 A 
HETATM   19  C17 UNL     1     -12.509   7.807  13.005  1.00  0.00     0.266 A 
HETATM   20  O1  UNL     1     -12.127   8.730  12.290  1.00  0.00    -0.266 OA
ENDBRANCH  10  13
ENDBRANCH   4   7
BRANCH   1  21
HETATM   21  N2  UNL     1      -1.686   6.722  13.731  1.00  0.00    -0.374 N 
HETATM   22  C5  UNL     1      -0.930   6.937  14.965  1.00  0.00     0.124 C 
HETATM   23  C4  UNL     1       0.521   6.766  14.534  1.00  0.00     0.028 C 
HETATM   24  C3  UNL     1       0.448   5.662  13.483  1.00  0.00     0.040 C 
HETATM   25  C2  UNL     1       1.495   5.793  12.377  1.00  0.00     0.278 C 
HETATM   26  C22 UNL     1      -0.911   5.887  12.801  1.00  0.00     0.118 C 
HETATM   27  N1  UNL     1       0.724   5.908  11.135  1.00  0.00     0.086 N 
HETATM   28  C1  UNL     1       1.451   6.608  10.086  1.00  0.00     0.310 C 
HETATM   29  C23 UNL     1      -0.523   6.594  11.503  1.00  0.00     0.297 C 
ENDBRANCH   1  21
TORSDOF 3
ENDMDL
MODEL 9
REMARK minimizedAffinity -8.15387726
REMARK  3 active torsions:
REMARK  status: ('A' for Active; 'I' for Inactive)
REMARK    1  A    between atoms: N2_7  and  C6_8 
REMARK    2  A    between atoms: C9_11  and  C10_12 
REMARK    3  A    between atoms: C13_15  and  N3_16 
ROOT
HETATM    1  C6  UNL     1      -7.057   5.991  13.498  1.00  0.00     0.030 A 
HETATM    2  C7  UNL     1      -7.940   5.555  12.498  1.00  0.00     0.030 A 
HETATM    3  C8  UNL     1      -9.292   5.936  12.471  1.00  0.00     0.014 A 
HETATM    4  C9  UNL     1      -9.829   6.769  13.457  1.00  0.00    -0.026 A 
HETATM    5  C20 UNL     1      -8.966   7.199  14.469  1.00  0.00     0.014 A 
HETATM    6  C21 UNL     1      -7.616   6.812  14.488  1.00  0.00     0.030 A 
ENDROOT
BRANCH   4   7
HETATM    7  C10 UNL     1     -11.244   7.171  13.433  1.00  0.00    -0.026 A 
HETATM    8  C11 UNL     1     -12.233   6.391  14.044  1.00  0.00     0.014 A 
HETATM    9  C12 UNL     1     -13.586   6.772  14.024  1.00  0.00     0.032 A 
HETATM   10  C13 UNL     1     -14.007   7.948  13.390  1.00  0.00     0.060 A 
HETATM   11  C18 UNL     1     -13.005   8.728  12.780  1.00  0.00     0.032 A 
HETATM   12  C19 UNL     1     -11.655   8.349  12.801  1.00  0.00     0.014 A 
BRANCH  10  13
HETATM   13  N3  UNL     1     -15.384   8.374  13.346  1.00  0.00    -0.221 N 
HETATM   14  N4  UNL     1     -15.835   8.914  14.547  1.00  0.00    -0.302 N 
HETATM   15  C14 UNL     1     -17.055   9.323  14.611  1.00  0.00     0.108 A 
ATOM     16  H4  UNL     1     -15.216   8.984  15.354  1.00  0.00     0.186 HD
HETATM   17  C15 UNL     1     -18.034   9.274  13.528  1.00  0.00     0.024 A 
HETATM   18  C16 UNL     1     -17.601   8.759  12.379  1.00  0.00     0.077 A 
HETATM   19  C17 UNL     1     -16.210   8.266  12.216  1.00  0.00     0.266 A 
HETATM   20  O1  UNL     1     -15.928   7.817  11.108  1.00  0.00    -0.266 OA
ENDBRANCH  10  13
ENDBRANCH   4   7
BRANCH   1  21
HETATM   21  N2  UNL     1      -5.730   5.595  13.528  1.00  0.00    -0.374 N 
HETATM   22  C5  UNL     1      -5.306   4.306  12.983  1.00  0.00     0.124 C 
HETATM   23  C4  UNL     1      -3.796   4.311  13.174  1.00  0.00     0.028 C 
HETATM   24  C3  UNL     1      -3.416   5.770  12.935  1.00  0.00     0.040 C 
HETATM   25  C2  UNL     1      -2.216   6.238  13.759  1.00  0.00     0.278 C 
HETATM   26  C22 UNL     1      -4.622   6.560  13.467  1.00  0.00     0.118 C 
HETATM   27  N1  UNL     1      -2.723   7.350  14.571  1.00  0.00     0.086 N 
HETATM   28  C1  UNL     1      -1.962   7.543  15.796  1.00  0.00     0.310 C 
HETATM   29  C23 UNL     1      -4.136   7.039  14.834  1.00  0.00     0.297 C 
ENDBRANCH   1  21
TORSDOF 3
ENDMDL
