MODEL 1
REMARK minimizedAffinity -10.5487823
REMARK  4 active torsions:
REMARK  status: ('A' for Active; 'I' for Inactive)
REMARK    1  A    between atoms: C3_3  and  C4_4 
REMARK    2  A    between atoms: C4_4  and  O1_5 
REMARK    3  A    between atoms: C6_9  and  C7_10 
REMARK    4  A    between atoms: C7_10  and  C9_12 
ROOT
HETATM    1  C9  UNL     1      -1.530   5.938  12.572  1.00  0.00     0.000 C 
HETATM    2  C10 UNL     1      -1.849   4.610  11.825  1.00  0.00     0.006 C 
HETATM    3  C11 UNL     1      -3.330   4.287  12.076  1.00  0.00     0.006 C 
HETATM    4  C12 UNL     1      -3.858   5.531  12.774  1.00  0.00    -0.001 C 
HETATM    5  C13 UNL     1      -5.180   5.432  13.550  1.00  0.00     0.000 C 
HETATM    6  C14 UNL     1      -6.320   4.823  12.719  1.00  0.00     0.010 C 
HETATM    7  C15 UNL     1      -7.603   4.690  13.540  1.00  0.00     0.036 C 
HETATM    8  C16 UNL     1      -7.981   5.980  14.232  1.00  0.00    -0.063 A 
HETATM    9  C17 UNL     1      -9.211   6.498  14.067  1.00  0.00     0.058 A 
HETATM   10  C18 UNL     1      -9.615   7.775  14.694  1.00  0.00     0.172 A 
HETATM   11  O4  UNL     1     -10.751   8.218  14.569  1.00  0.00    -0.289 OA
HETATM   12  C19 UNL     1      -8.593   8.501  15.469  1.00  0.00     0.052 A 
HETATM   13  C20 UNL     1      -7.365   7.992  15.636  1.00  0.00    -0.008 A 
HETATM   14  C21 UNL     1      -6.885   6.653  15.077  1.00  0.00     0.005 A 
HETATM   15  C22 UNL     1      -6.644   5.772  16.328  1.00  0.00     0.025 C 
HETATM   16  C23 UNL     1      -5.583   6.833  14.162  1.00  0.00    -0.025 C 
HETATM   17  C24 UNL     1      -5.900   7.867  13.031  1.00  0.00     0.017 C 
HETATM   18  C25 UNL     1      -4.362   7.400  14.960  1.00  0.00     0.012 C 
HETATM   19  C26 UNL     1      -3.022   7.392  14.192  1.00  0.00     0.011 C 
HETATM   20  C27 UNL     1      -2.662   5.996  13.652  1.00  0.00    -0.036 C 
HETATM   21  C28 UNL     1      -2.338   5.044  14.831  1.00  0.00     0.016 C 
ENDROOT
BRANCH   1  22
HETATM   22  C7  UNL     1      -0.031   6.045  12.999  1.00  0.00     0.016 C 
HETATM   23  C8  UNL     1       0.137   7.012  14.183  1.00  0.00     0.013 C 
BRANCH  22  24
HETATM   24  C6  UNL     1       0.927   6.531  11.864  1.00  0.00     0.140 C 
HETATM   25  O3  UNL     1       0.232   7.447  11.001  1.00  0.00    -0.311 OA
HETATM   26  C5  UNL     1       0.828   7.903   9.872  1.00  0.00     0.292 C 
HETATM   27  C3  UNL     1       2.083   7.224   9.440  1.00  0.00     0.042 C 
HETATM   28  O2  UNL     1       0.337   8.824   9.231  1.00  0.00    -0.260 OA
HETATM   29  C2  UNL     1       2.422   6.027   9.970  1.00  0.00    -0.067 C 
HETATM   30  C1  UNL     1       3.625   5.220   9.571  1.00  0.00     0.044 C 
HETATM   31  C29 UNL     1       1.564   5.409  11.045  1.00  0.00     0.067 C 
BRANCH  27  32
HETATM   32  C4  UNL     1       2.882   7.972   8.412  1.00  0.00     0.209 C 
BRANCH  32  33
HETATM   33  O1  UNL     1       2.211   8.026   7.158  1.00  0.00    -0.396 OA
HETATM   34  H6  UNL     1       1.378   7.526   7.228  1.00  0.00     0.209 HD
ENDBRANCH  32  33
ENDBRANCH  27  32
ENDBRANCH  22  24
ENDBRANCH   1  22
TORSDOF 4
ENDMDL
MODEL 2
REMARK minimizedAffinity -9.99902153
REMARK  4 active torsions:
REMARK  status: ('A' for Active; 'I' for Inactive)
REMARK    1  A    between atoms: C3_3  and  C4_4 
REMARK    2  A    between atoms: C4_4  and  O1_5 
REMARK    3  A    between atoms: C6_9  and  C7_10 
REMARK    4  A    between atoms: C7_10  and  C9_12 
ROOT
HETATM    1  C9  UNL     1      -4.662   5.861  12.926  1.00  0.00     0.000 C 
HETATM    2  C10 UNL     1      -5.052   7.284  13.420  1.00  0.00     0.006 C 
HETATM    3  C11 UNL     1      -3.765   8.122  13.464  1.00  0.00     0.006 C 
HETATM    4  C12 UNL     1      -2.727   7.228  12.803  1.00  0.00    -0.001 C 
HETATM    5  C13 UNL     1      -1.241   7.538  13.029  1.00  0.00     0.000 C 
HETATM    6  C14 UNL     1      -0.880   9.001  12.726  1.00  0.00     0.010 C 
HETATM    7  C15 UNL     1       0.594   9.286  13.014  1.00  0.00     0.036 C 
HETATM    8  C16 UNL     1       1.514   8.287  12.349  1.00  0.00    -0.063 A 
HETATM    9  C17 UNL     1       2.517   8.714  11.562  1.00  0.00     0.058 A 
HETATM   10  C18 UNL     1       3.420   7.774  10.863  1.00  0.00     0.172 A 
HETATM   11  O4  UNL     1       4.355   8.174  10.178  1.00  0.00    -0.289 OA
HETATM   12  C19 UNL     1       3.146   6.334  11.013  1.00  0.00     0.052 A 
HETATM   13  C20 UNL     1       2.147   5.901  11.794  1.00  0.00    -0.008 A 
HETATM   14  C21 UNL     1       1.209   6.800  12.600  1.00  0.00     0.005 A 
HETATM   15  C22 UNL     1       1.547   6.490  14.080  1.00  0.00     0.025 C 
HETATM   16  C23 UNL     1      -0.325   6.530  12.226  1.00  0.00    -0.025 C 
HETATM   17  C24 UNL     1      -0.507   6.716  10.682  1.00  0.00     0.017 C 
HETATM   18  C25 UNL     1      -0.776   5.070  12.559  1.00  0.00     0.012 C 
HETATM   19  C26 UNL     1      -2.293   4.810  12.425  1.00  0.00     0.011 C 
HETATM   20  C27 UNL     1      -3.134   5.797  13.257  1.00  0.00    -0.036 C 
HETATM   21  C28 UNL     1      -2.916   5.529  14.767  1.00  0.00     0.016 C 
ENDROOT
BRANCH   1  22
HETATM   22  C7  UNL     1      -5.627   4.752  13.456  1.00  0.00     0.016 C 
HETATM   23  C8  UNL     1      -5.682   3.559  12.487  1.00  0.00     0.013 C 
BRANCH  22  24
HETATM   24  C6  UNL     1      -7.097   5.234  13.681  1.00  0.00     0.140 C 
HETATM   25  O3  UNL     1      -7.693   5.578  12.418  1.00  0.00    -0.311 OA
HETATM   26  C5  UNL     1      -8.926   6.141  12.379  1.00  0.00     0.292 C 
HETATM   27  C3  UNL     1      -9.500   6.620  13.669  1.00  0.00     0.042 C 
HETATM   28  O2  UNL     1      -9.528   6.261  11.320  1.00  0.00    -0.260 OA
HETATM   29  C2  UNL     1      -8.702   6.769  14.751  1.00  0.00    -0.067 C 
HETATM   30  C1  UNL     1      -9.150   7.300  16.083  1.00  0.00     0.044 C 
HETATM   31  C29 UNL     1      -7.245   6.388  14.670  1.00  0.00     0.067 C 
BRANCH  27  32
HETATM   32  C4  UNL     1     -10.974   6.903  13.637  1.00  0.00     0.209 C 
BRANCH  32  33
HETATM   33  O1  UNL     1     -11.675   6.172  14.637  1.00  0.00    -0.396 OA
HETATM   34  H6  UNL     1     -11.040   5.607  15.113  1.00  0.00     0.209 HD
ENDBRANCH  32  33
ENDBRANCH  27  32
ENDBRANCH  22  24
ENDBRANCH   1  22
TORSDOF 4
ENDMDL
MODEL 3
REMARK minimizedAffinity -9.93909931
REMARK  4 active torsions:
REMARK  status: ('A' for Active; 'I' for Inactive)
REMARK    1  A    between atoms: C3_3  and  C4_4 
REMARK    2  A    between atoms: C4_4  and  O1_5 
REMARK    3  A    between atoms: C6_9  and  C7_10 
REMARK    4  A    between atoms: C7_10  and  C9_12 
ROOT
HETATM    1  C9  UNL     1      -1.596   6.018  12.929  1.00  0.00     0.000 C 
HETATM    2  C10 UNL     1      -1.861   4.688  12.165  1.00  0.00     0.006 C 
HETATM    3  C11 UNL     1      -3.352   4.356  12.327  1.00  0.00     0.006 C 
HETATM    4  C12 UNL     1      -3.929   5.597  12.992  1.00  0.00    -0.001 C 
HETATM    5  C13 UNL     1      -5.294   5.489  13.687  1.00  0.00     0.000 C 
HETATM    6  C14 UNL     1      -6.379   4.873  12.789  1.00  0.00     0.010 C 
HETATM    7  C15 UNL     1      -7.707   4.732  13.532  1.00  0.00     0.036 C 
HETATM    8  C16 UNL     1      -8.134   6.020  14.200  1.00  0.00    -0.063 A 
HETATM    9  C17 UNL     1      -9.356   6.529  13.962  1.00  0.00     0.058 A 
HETATM   10  C18 UNL     1      -9.804   7.804  14.563  1.00  0.00     0.172 A 
HETATM   11  O4  UNL     1     -10.933   8.240  14.370  1.00  0.00    -0.289 OA
HETATM   12  C19 UNL     1      -8.835   8.536  15.398  1.00  0.00     0.052 A 
HETATM   13  C20 UNL     1      -7.616   8.035  15.637  1.00  0.00    -0.008 A 
HETATM   14  C21 UNL     1      -7.096   6.699  15.109  1.00  0.00     0.005 A 
HETATM   15  C22 UNL     1      -6.924   5.819  16.372  1.00  0.00     0.025 C 
HETATM   16  C23 UNL     1      -5.742   6.887  14.274  1.00  0.00    -0.025 C 
HETATM   17  C24 UNL     1      -5.997   7.920  13.125  1.00  0.00     0.017 C 
HETATM   18  C25 UNL     1      -4.575   7.462  15.143  1.00  0.00     0.012 C 
HETATM   19  C26 UNL     1      -3.191   7.463  14.457  1.00  0.00     0.011 C 
HETATM   20  C27 UNL     1      -2.790   6.069  13.939  1.00  0.00    -0.036 C 
HETATM   21  C28 UNL     1      -2.531   5.119  15.136  1.00  0.00     0.016 C 
ENDROOT
BRANCH   1  22
HETATM   22  C7  UNL     1      -0.126   6.135  13.445  1.00  0.00     0.016 C 
HETATM   23  C8  UNL     1       0.001   7.243  14.505  1.00  0.00     0.013 C 
BRANCH  22  24
HETATM   24  C6  UNL     1       0.925   6.439  12.329  1.00  0.00     0.140 C 
HETATM   25  O3  UNL     1       2.149   6.898  12.928  1.00  0.00    -0.311 OA
HETATM   26  C5  UNL     1       3.165   7.342  12.146  1.00  0.00     0.292 C 
HETATM   27  C3  UNL     1       2.863   7.579  10.705  1.00  0.00     0.042 C 
HETATM   28  O2  UNL     1       4.275   7.551  12.617  1.00  0.00    -0.260 OA
HETATM   29  C2  UNL     1       1.580   7.651  10.285  1.00  0.00    -0.067 C 
HETATM   30  C1  UNL     1       1.152   7.947   8.875  1.00  0.00     0.044 C 
HETATM   31  C29 UNL     1       0.454   7.425  11.262  1.00  0.00     0.067 C 
BRANCH  27  32
HETATM   32  C4  UNL     1       4.071   7.723   9.824  1.00  0.00     0.209 C 
BRANCH  32  33
HETATM   33  O1  UNL     1       5.058   6.741  10.115  1.00  0.00    -0.396 OA
HETATM   34  H6  UNL     1       4.747   6.198  10.862  1.00  0.00     0.209 HD
ENDBRANCH  32  33
ENDBRANCH  27  32
ENDBRANCH  22  24
ENDBRANCH   1  22
TORSDOF 4
ENDMDL
MODEL 4
REMARK minimizedAffinity -9.77822018
REMARK  4 active torsions:
REMARK  status: ('A' for Active; 'I' for Inactive)
REMARK    1  A    between atoms: C3_3  and  C4_4 
REMARK    2  A    between atoms: C4_4  and  O1_5 
REMARK    3  A    between atoms: C6_9  and  C7_10 
REMARK    4  A    between atoms: C7_10  and  C9_12 
ROOT
HETATM    1  C9  UNL     1      -3.631   2.832  12.208  1.00  0.00     0.000 C 
HETATM    2  C10 UNL     1      -2.810   1.653  11.610  1.00  0.00     0.006 C 
HETATM    3  C11 UNL     1      -1.420   2.199  11.249  1.00  0.00     0.006 C 
HETATM    4  C12 UNL     1      -1.418   3.602  11.837  1.00  0.00    -0.001 C 
HETATM    5  C13 UNL     1      -0.373   4.607  11.332  1.00  0.00     0.000 C 
HETATM    6  C14 UNL     1       1.062   4.059  11.385  1.00  0.00     0.010 C 
HETATM    7  C15 UNL     1       2.067   5.067  10.826  1.00  0.00     0.036 C 
HETATM    8  C16 UNL     1       1.919   6.436  11.449  1.00  0.00    -0.063 A 
HETATM    9  C17 UNL     1       2.984   7.044  12.001  1.00  0.00     0.058 A 
HETATM   10  C18 UNL     1       2.881   8.367  12.654  1.00  0.00     0.172 A 
HETATM   11  O4  UNL     1       3.866   8.929  13.119  1.00  0.00    -0.289 OA
HETATM   12  C19 UNL     1       1.544   8.980  12.732  1.00  0.00     0.052 A 
HETATM   13  C20 UNL     1       0.478   8.379  12.187  1.00  0.00    -0.008 A 
HETATM   14  C21 UNL     1       0.507   7.046  11.441  1.00  0.00     0.005 A 
HETATM   15  C22 UNL     1       0.157   7.410   9.976  1.00  0.00     0.025 C 
HETATM   16  C23 UNL     1      -0.503   5.988  12.093  1.00  0.00    -0.025 C 
HETATM   17  C24 UNL     1      -0.152   5.825  13.610  1.00  0.00     0.017 C 
HETATM   18  C25 UNL     1      -1.993   6.458  12.025  1.00  0.00     0.012 C 
HETATM   19  C26 UNL     1      -3.032   5.393  12.439  1.00  0.00     0.011 C 
HETATM   20  C27 UNL     1      -2.884   4.084  11.640  1.00  0.00    -0.036 C 
HETATM   21  C28 UNL     1      -3.273   4.326  10.160  1.00  0.00     0.016 C 
ENDROOT
BRANCH   1  22
HETATM   22  C7  UNL     1      -5.169   2.670  11.988  1.00  0.00     0.016 C 
HETATM   23  C8  UNL     1      -5.543   2.897  10.513  1.00  0.00     0.013 C 
BRANCH  22  24
HETATM   24  C6  UNL     1      -6.047   3.641  12.843  1.00  0.00     0.140 C 
HETATM   25  O3  UNL     1      -7.053   4.244  12.011  1.00  0.00    -0.311 OA
HETATM   26  C5  UNL     1      -7.854   5.219  12.510  1.00  0.00     0.292 C 
HETATM   27  C3  UNL     1      -7.476   5.804  13.828  1.00  0.00     0.042 C 
HETATM   28  O2  UNL     1      -8.835   5.605  11.888  1.00  0.00    -0.260 OA
HETATM   29  C2  UNL     1      -6.238   5.595  14.332  1.00  0.00    -0.067 C 
HETATM   30  C1  UNL     1      -5.723   6.182  15.616  1.00  0.00     0.044 C 
HETATM   31  C29 UNL     1      -5.263   4.716  13.591  1.00  0.00     0.067 C 
BRANCH  27  32
HETATM   32  C4  UNL     1      -8.557   6.605  14.495  1.00  0.00     0.209 C 
BRANCH  32  33
HETATM   33  O1  UNL     1      -9.096   5.929  15.625  1.00  0.00    -0.396 OA
HETATM   34  H6  UNL     1      -8.664   5.060  15.703  1.00  0.00     0.209 HD
ENDBRANCH  32  33
ENDBRANCH  27  32
ENDBRANCH  22  24
ENDBRANCH   1  22
TORSDOF 4
ENDMDL
MODEL 5
REMARK minimizedAffinity -9.63690567
REMARK  4 active torsions:
REMARK  status: ('A' for Active; 'I' for Inactive)
REMARK    1  A    between atoms: C3_3  and  C4_4 
REMARK    2  A    between atoms: C4_4  and  O1_5 
REMARK    3  A    between atoms: C6_9  and  C7_10 
REMARK    4  A    between atoms: C7_10  and  C9_12 
ROOT
HETATM    1  C9  UNL     1      -4.804   7.808  13.863  1.00  0.00     0.000 C 
HETATM    2  C10 UNL     1      -4.996   9.136  14.651  1.00  0.00     0.006 C 
HETATM    3  C11 UNL     1      -3.605   9.755  14.851  1.00  0.00     0.006 C 
HETATM    4  C12 UNL     1      -2.694   8.881  14.002  1.00  0.00    -0.001 C 
HETATM    5  C13 UNL     1      -1.182   8.924  14.267  1.00  0.00     0.000 C 
HETATM    6  C14 UNL     1      -0.613  10.352  14.273  1.00  0.00     0.010 C 
HETATM    7  C15 UNL     1       0.882  10.357  14.592  1.00  0.00     0.036 C 
HETATM    8  C16 UNL     1       1.662   9.400  13.720  1.00  0.00    -0.063 A 
HETATM    9  C17 UNL     1       2.728   9.836  13.025  1.00  0.00     0.058 A 
HETATM   10  C18 UNL     1       3.499   8.946  12.131  1.00  0.00     0.172 A 
HETATM   11  O4  UNL     1       4.492   9.344  11.532  1.00  0.00    -0.289 OA
HETATM   12  C19 UNL     1       3.021   7.560  11.980  1.00  0.00     0.052 A 
HETATM   13  C20 UNL     1       1.959   7.119  12.667  1.00  0.00    -0.008 A 
HETATM   14  C21 UNL     1       1.145   7.952  13.657  1.00  0.00     0.005 A 
HETATM   15  C22 UNL     1       1.412   7.294  15.034  1.00  0.00     0.025 C 
HETATM   16  C23 UNL     1      -0.405   7.987  13.257  1.00  0.00    -0.025 C 
HETATM   17  C24 UNL     1      -0.535   8.516  11.789  1.00  0.00     0.017 C 
HETATM   18  C25 UNL     1      -1.064   6.569  13.282  1.00  0.00     0.012 C 
HETATM   19  C26 UNL     1      -2.600   6.561  13.119  1.00  0.00     0.011 C 
HETATM   20  C27 UNL     1      -3.306   7.460  14.151  1.00  0.00    -0.036 C 
HETATM   21  C28 UNL     1      -3.152   6.853  15.568  1.00  0.00     0.016 C 
ENDROOT
BRANCH   1  22
HETATM   22  C7  UNL     1      -5.925   6.761  14.162  1.00  0.00     0.016 C 
HETATM   23  C8  UNL     1      -5.814   6.230  15.602  1.00  0.00     0.013 C 
BRANCH  22  24
HETATM   24  C6  UNL     1      -5.918   5.522  13.210  1.00  0.00     0.140 C 
HETATM   25  O3  UNL     1      -7.109   4.744  13.417  1.00  0.00    -0.311 OA
HETATM   26  C5  UNL     1      -7.262   3.552  12.789  1.00  0.00     0.292 C 
HETATM   27  C3  UNL     1      -6.064   2.979  12.111  1.00  0.00     0.042 C 
HETATM   28  O2  UNL     1      -8.340   2.972  12.797  1.00  0.00    -0.260 OA
HETATM   29  C2  UNL     1      -4.833   3.468  12.385  1.00  0.00    -0.067 C 
HETATM   30  C1  UNL     1      -3.550   2.933  11.815  1.00  0.00     0.044 C 
HETATM   31  C29 UNL     1      -4.679   4.636  13.326  1.00  0.00     0.067 C 
BRANCH  27  32
HETATM   32  C4  UNL     1      -6.357   1.864  11.149  1.00  0.00     0.209 C 
BRANCH  32  33
HETATM   33  O1  UNL     1      -5.343   0.866  11.171  1.00  0.00    -0.396 OA
HETATM   34  H6  UNL     1      -4.645   1.145  11.792  1.00  0.00     0.209 HD
ENDBRANCH  32  33
ENDBRANCH  27  32
ENDBRANCH  22  24
ENDBRANCH   1  22
TORSDOF 4
ENDMDL
MODEL 6
REMARK minimizedAffinity -9.45274639
REMARK  4 active torsions:
REMARK  status: ('A' for Active; 'I' for Inactive)
REMARK    1  A    between atoms: C3_3  and  C4_4 
REMARK    2  A    between atoms: C4_4  and  O1_5 
REMARK    3  A    between atoms: C6_9  and  C7_10 
REMARK    4  A    between atoms: C7_10  and  C9_12 
ROOT
HETATM    1  C9  UNL     1      -2.743   7.026  13.536  1.00  0.00     0.000 C 
HETATM    2  C10 UNL     1      -4.062   7.626  12.965  1.00  0.00     0.006 C 
HETATM    3  C11 UNL     1      -4.421   8.845  13.827  1.00  0.00     0.006 C 
HETATM    4  C12 UNL     1      -3.204   9.029  14.721  1.00  0.00    -0.001 C 
HETATM    5  C13 UNL     1      -3.348   9.878  15.992  1.00  0.00     0.000 C 
HETATM    6  C14 UNL     1      -3.963  11.261  15.724  1.00  0.00     0.010 C 
HETATM    7  C15 UNL     1      -4.140  12.055  17.018  1.00  0.00     0.036 C 
HETATM    8  C16 UNL     1      -2.874  12.106  17.842  1.00  0.00    -0.063 A 
HETATM    9  C17 UNL     1      -2.379  13.290  18.245  1.00  0.00     0.058 A 
HETATM   10  C18 UNL     1      -1.124  13.392  19.022  1.00  0.00     0.172 A 
HETATM   11  O4  UNL     1      -0.703  14.473  19.417  1.00  0.00    -0.289 OA
HETATM   12  C19 UNL     1      -0.394  12.142  19.294  1.00  0.00     0.052 A 
HETATM   13  C20 UNL     1      -0.879  10.959  18.894  1.00  0.00    -0.008 A 
HETATM   14  C21 UNL     1      -2.196  10.758  18.144  1.00  0.00     0.005 A 
HETATM   15  C22 UNL     1      -3.098   9.986  19.139  1.00  0.00     0.025 C 
HETATM   16  C23 UNL     1      -1.969   9.987  16.759  1.00  0.00    -0.025 C 
HETATM   17  C24 UNL     1      -0.917  10.777  15.909  1.00  0.00     0.017 C 
HETATM   18  C25 UNL     1      -1.393   8.547  16.960  1.00  0.00     0.012 C 
HETATM   19  C26 UNL     1      -1.356   7.676  15.685  1.00  0.00     0.011 C 
HETATM   20  C27 UNL     1      -2.732   7.573  15.002  1.00  0.00    -0.036 C 
HETATM   21  C28 UNL     1      -3.702   6.758  15.894  1.00  0.00     0.016 C 
ENDROOT
BRANCH   1  22
HETATM   22  C7  UNL     1      -2.613   5.492  13.270  1.00  0.00     0.016 C 
HETATM   23  C8  UNL     1      -1.998   5.222  11.886  1.00  0.00     0.013 C 
BRANCH  22  24
HETATM   24  C6  UNL     1      -3.966   4.711  13.335  1.00  0.00     0.140 C 
HETATM   25  O3  UNL     1      -4.003   3.718  12.297  1.00  0.00    -0.311 OA
HETATM   26  C5  UNL     1      -5.134   3.001  12.081  1.00  0.00     0.292 C 
HETATM   27  C3  UNL     1      -6.376   3.464  12.762  1.00  0.00     0.042 C 
HETATM   28  O2  UNL     1      -5.127   2.025  11.342  1.00  0.00    -0.260 OA
HETATM   29  C2  UNL     1      -6.431   4.703  13.302  1.00  0.00    -0.067 C 
HETATM   30  C1  UNL     1      -7.643   5.302  13.957  1.00  0.00     0.044 C 
HETATM   31  C29 UNL     1      -5.213   5.592  13.271  1.00  0.00     0.067 C 
BRANCH  27  32
HETATM   32  C4  UNL     1      -7.495   2.463  12.781  1.00  0.00     0.209 C 
BRANCH  32  33
HETATM   33  O1  UNL     1      -8.767   3.093  12.883  1.00  0.00    -0.396 OA
HETATM   34  H6  UNL     1      -8.633   4.055  12.956  1.00  0.00     0.209 HD
ENDBRANCH  32  33
ENDBRANCH  27  32
ENDBRANCH  22  24
ENDBRANCH   1  22
TORSDOF 4
ENDMDL
MODEL 7
REMARK minimizedAffinity -9.41786575
REMARK  4 active torsions:
REMARK  status: ('A' for Active; 'I' for Inactive)
REMARK    1  A    between atoms: C3_3  and  C4_4 
REMARK    2  A    between atoms: C4_4  and  O1_5 
REMARK    3  A    between atoms: C6_9  and  C7_10 
REMARK    4  A    between atoms: C7_10  and  C9_12 
ROOT
HETATM    1  C9  UNL     1      -1.781   7.216  12.780  1.00  0.00     0.000 C 
HETATM    2  C10 UNL     1      -2.063   5.861  12.067  1.00  0.00     0.006 C 
HETATM    3  C11 UNL     1      -0.761   5.427  11.376  1.00  0.00     0.006 C 
HETATM    4  C12 UNL     1       0.268   6.427  11.882  1.00  0.00    -0.001 C 
HETATM    5  C13 UNL     1       1.585   6.579  11.108  1.00  0.00     0.000 C 
HETATM    6  C14 UNL     1       2.295   5.239  10.861  1.00  0.00     0.010 C 
HETATM    7  C15 UNL     1       3.573   5.425  10.042  1.00  0.00     0.036 C 
HETATM    8  C16 UNL     1       4.477   6.490  10.618  1.00  0.00    -0.063 A 
HETATM    9  C17 UNL     1       5.765   6.209  10.885  1.00  0.00     0.058 A 
HETATM   10  C18 UNL     1       6.678   7.208  11.482  1.00  0.00     0.172 A 
HETATM   11  O4  UNL     1       7.859   6.953  11.686  1.00  0.00    -0.289 OA
HETATM   12  C19 UNL     1       6.109   8.521  11.832  1.00  0.00     0.052 A 
HETATM   13  C20 UNL     1       4.826   8.807  11.571  1.00  0.00    -0.008 A 
HETATM   14  C21 UNL     1       3.833   7.858  10.901  1.00  0.00     0.005 A 
HETATM   15  C22 UNL     1       3.516   8.524   9.538  1.00  0.00     0.025 C 
HETATM   16  C23 UNL     1       2.537   7.626  11.813  1.00  0.00    -0.025 C 
HETATM   17  C24 UNL     1       2.997   7.108  13.218  1.00  0.00     0.017 C 
HETATM   18  C25 UNL     1       1.734   8.945  12.062  1.00  0.00     0.012 C 
HETATM   19  C26 UNL     1       0.364   8.753  12.749  1.00  0.00     0.011 C 
HETATM   20  C27 UNL     1      -0.536   7.753  12.000  1.00  0.00    -0.036 C 
HETATM   21  C28 UNL     1      -0.964   8.352  10.637  1.00  0.00     0.016 C 
ENDROOT
BRANCH   1  22
HETATM   22  C7  UNL     1      -3.061   8.101  12.921  1.00  0.00     0.016 C 
HETATM   23  C8  UNL     1      -2.908   9.113  14.069  1.00  0.00     0.013 C 
BRANCH  22  24
HETATM   24  C6  UNL     1      -4.374   7.295  13.185  1.00  0.00     0.140 C 
HETATM   25  O3  UNL     1      -4.959   7.716  14.429  1.00  0.00    -0.311 OA
HETATM   26  C5  UNL     1      -6.040   7.067  14.927  1.00  0.00     0.292 C 
HETATM   27  C3  UNL     1      -6.413   5.773  14.288  1.00  0.00     0.042 C 
HETATM   28  O2  UNL     1      -6.667   7.525  15.874  1.00  0.00    -0.260 OA
HETATM   29  C2  UNL     1      -5.535   5.140  13.476  1.00  0.00    -0.067 C 
HETATM   30  C1  UNL     1      -5.773   3.806  12.827  1.00  0.00     0.044 C 
HETATM   31  C29 UNL     1      -4.204   5.777  13.166  1.00  0.00     0.067 C 
BRANCH  27  32
HETATM   32  C4  UNL     1      -7.790   5.277  14.626  1.00  0.00     0.209 C 
BRANCH  32  33
HETATM   33  O1  UNL     1      -7.931   5.014  16.018  1.00  0.00    -0.396 OA
HETATM   34  H6  UNL     1      -7.076   5.182  16.454  1.00  0.00     0.209 HD
ENDBRANCH  32  33
ENDBRANCH  27  32
ENDBRANCH  22  24
ENDBRANCH   1  22
TORSDOF 4
ENDMDL
MODEL 8
REMARK minimizedAffinity -9.35274506
REMARK  4 active torsions:
REMARK  status: ('A' for Active; 'I' for Inactive)
REMARK    1  A    between atoms: C3_3  and  C4_4 
REMARK    2  A    between atoms: C4_4  and  O1_5 
REMARK    3  A    between atoms: C6_9  and  C7_10 
REMARK    4  A    between atoms: C7_10  and  C9_12 
ROOT
HETATM    1  C9  UNL     1      -1.809   5.350  12.177  1.00  0.00     0.000 C 
HETATM    2  C10 UNL     1      -2.696   6.125  13.195  1.00  0.00     0.006 C 
HETATM    3  C11 UNL     1      -1.846   7.271  13.764  1.00  0.00     0.006 C 
HETATM    4  C12 UNL     1      -0.586   7.245  12.912  1.00  0.00    -0.001 C 
HETATM    5  C13 UNL     1       0.669   7.960  13.435  1.00  0.00     0.000 C 
HETATM    6  C14 UNL     1       0.400   9.414  13.856  1.00  0.00     0.010 C 
HETATM    7  C15 UNL     1       1.657  10.075  14.421  1.00  0.00     0.036 C 
HETATM    8  C16 UNL     1       2.851   9.921  13.505  1.00  0.00    -0.063 A 
HETATM    9  C17 UNL     1       3.548  11.004  13.119  1.00  0.00     0.058 A 
HETATM   10  C18 UNL     1       4.700  10.907  12.196  1.00  0.00     0.172 A 
HETATM   11  O4  UNL     1       5.352  11.895  11.881  1.00  0.00    -0.289 OA
HETATM   12  C19 UNL     1       5.028   9.573  11.662  1.00  0.00     0.052 A 
HETATM   13  C20 UNL     1       4.337   8.490  12.041  1.00  0.00    -0.008 A 
HETATM   14  C21 UNL     1       3.176   8.492  13.036  1.00  0.00     0.005 A 
HETATM   15  C22 UNL     1       3.707   7.701  14.258  1.00  0.00     0.025 C 
HETATM   16  C23 UNL     1       1.853   7.859  12.393  1.00  0.00    -0.025 C 
HETATM   17  C24 UNL     1       1.509   8.639  11.079  1.00  0.00     0.017 C 
HETATM   18  C25 UNL     1       2.039   6.360  11.989  1.00  0.00     0.012 C 
HETATM   19  C26 UNL     1       0.743   5.633  11.567  1.00  0.00     0.011 C 
HETATM   20  C27 UNL     1      -0.362   5.731  12.635  1.00  0.00    -0.036 C 
HETATM   21  C28 UNL     1       0.045   4.915  13.887  1.00  0.00     0.016 C 
ENDROOT
BRANCH   1  22
HETATM   22  C7  UNL     1      -2.219   3.849  12.040  1.00  0.00     0.016 C 
HETATM   23  C8  UNL     1      -1.993   3.344  10.605  1.00  0.00     0.013 C 
BRANCH  22  24
HETATM   24  C6  UNL     1      -3.710   3.554  12.405  1.00  0.00     0.140 C 
HETATM   25  O3  UNL     1      -4.198   2.461  11.609  1.00  0.00    -0.311 OA
HETATM   26  C5  UNL     1      -5.506   2.109  11.664  1.00  0.00     0.292 C 
HETATM   27  C3  UNL     1      -6.437   3.046  12.356  1.00  0.00     0.042 C 
HETATM   28  O2  UNL     1      -5.899   1.070  11.150  1.00  0.00    -0.260 OA
HETATM   29  C2  UNL     1      -6.045   4.312  12.626  1.00  0.00    -0.067 C 
HETATM   30  C1  UNL     1      -6.912   5.363  13.260  1.00  0.00     0.044 C 
HETATM   31  C29 UNL     1      -4.645   4.756  12.285  1.00  0.00     0.067 C 
BRANCH  27  32
HETATM   32  C4  UNL     1      -7.778   2.464  12.699  1.00  0.00     0.209 C 
BRANCH  32  33
HETATM   33  O1  UNL     1      -8.606   3.404  13.373  1.00  0.00    -0.396 OA
HETATM   34  H6  UNL     1      -8.102   4.228  13.501  1.00  0.00     0.209 HD
ENDBRANCH  32  33
ENDBRANCH  27  32
ENDBRANCH  22  24
ENDBRANCH   1  22
TORSDOF 4
ENDMDL
MODEL 9
REMARK minimizedAffinity -9.29488945
REMARK  4 active torsions:
REMARK  status: ('A' for Active; 'I' for Inactive)
REMARK    1  A    between atoms: C3_3  and  C4_4 
REMARK    2  A    between atoms: C4_4  and  O1_5 
REMARK    3  A    between atoms: C6_9  and  C7_10 
REMARK    4  A    between atoms: C7_10  and  C9_12 
ROOT
HETATM    1  C9  UNL     1      -4.974   6.775  13.203  1.00  0.00     0.000 C 
HETATM    2  C10 UNL     1      -5.016   8.274  13.621  1.00  0.00     0.006 C 
HETATM    3  C11 UNL     1      -3.585   8.820  13.509  1.00  0.00     0.006 C 
HETATM    4  C12 UNL     1      -2.817   7.691  12.839  1.00  0.00    -0.001 C 
HETATM    5  C13 UNL     1      -1.284   7.690  12.930  1.00  0.00     0.000 C 
HETATM    6  C14 UNL     1      -0.656   9.024  12.497  1.00  0.00     0.010 C 
HETATM    7  C15 UNL     1       0.865   9.004  12.652  1.00  0.00     0.036 C 
HETATM    8  C16 UNL     1       1.496   7.797  11.996  1.00  0.00    -0.063 A 
HETATM    9  C17 UNL     1       2.493   7.957  11.107  1.00  0.00     0.058 A 
HETATM   10  C18 UNL     1       3.116   6.810  10.413  1.00  0.00     0.172 A 
HETATM   11  O4  UNL     1       4.049   6.964   9.634  1.00  0.00    -0.289 OA
HETATM   12  C19 UNL     1       2.564   5.472  10.688  1.00  0.00     0.052 A 
HETATM   13  C20 UNL     1       1.569   5.305  11.570  1.00  0.00    -0.008 A 
HETATM   14  C21 UNL     1       0.913   6.425  12.376  1.00  0.00     0.005 A 
HETATM   15  C22 UNL     1       1.307   6.133  13.845  1.00  0.00     0.025 C 
HETATM   16  C23 UNL     1      -0.671   6.467  12.137  1.00  0.00    -0.025 C 
HETATM   17  C24 UNL     1      -0.945   6.602  10.602  1.00  0.00     0.017 C 
HETATM   18  C25 UNL     1      -1.384   5.157  12.608  1.00  0.00     0.012 C 
HETATM   19  C26 UNL     1      -2.928   5.219  12.606  1.00  0.00     0.011 C 
HETATM   20  C27 UNL     1      -3.470   6.406  13.424  1.00  0.00    -0.036 C 
HETATM   21  C28 UNL     1      -3.180   6.182  14.929  1.00  0.00     0.016 C 
ENDROOT
BRANCH   1  22
HETATM   22  C7  UNL     1      -6.098   5.928  13.882  1.00  0.00     0.016 C 
HETATM   23  C8  UNL     1      -6.443   4.690  13.037  1.00  0.00     0.013 C 
BRANCH  22  24
HETATM   24  C6  UNL     1      -7.431   6.707  14.128  1.00  0.00     0.140 C 
HETATM   25  O3  UNL     1      -7.677   6.813  15.541  1.00  0.00    -0.311 OA
HETATM   26  C5  UNL     1      -8.842   7.341  15.991  1.00  0.00     0.292 C 
HETATM   27  C3  UNL     1      -9.929   7.549  14.992  1.00  0.00     0.042 C 
HETATM   28  O2  UNL     1      -8.990   7.618  17.174  1.00  0.00    -0.260 OA
HETATM   29  C2  UNL     1      -9.859   6.949  13.781  1.00  0.00    -0.067 C 
HETATM   30  C1  UNL     1     -10.918   7.032  12.719  1.00  0.00     0.044 C 
HETATM   31  C29 UNL     1      -8.650   6.123  13.419  1.00  0.00     0.067 C 
BRANCH  27  32
HETATM   32  C4  UNL     1     -11.044   8.443  15.450  1.00  0.00     0.209 C 
BRANCH  32  33
HETATM   33  O1  UNL     1     -12.033   8.615  14.441  1.00  0.00    -0.396 OA
HETATM   34  H6  UNL     1     -11.749   8.135  13.642  1.00  0.00     0.209 HD
ENDBRANCH  32  33
ENDBRANCH  27  32
ENDBRANCH  22  24
ENDBRANCH   1  22
TORSDOF 4
ENDMDL
