MODEL 1
REMARK minimizedAffinity -8.64445877
REMARK  6 active torsions:
REMARK  status: ('A' for Active; 'I' for Inactive)
REMARK    1  A    between atoms: O1_2  and  C2_3 
REMARK    2  A    between atoms: C7_8  and  C8_9 
REMARK    3  A    between atoms: C8_9  and  C9_10 
REMARK    4  A    between atoms: C9_10  and  O3_12 
REMARK    5  A    between atoms: C10_13  and  C11_14 
REMARK    6  A    between atoms: C10_13  and  C17_20 
ROOT
HETATM    1  C8  UNL     1      -1.439  51.030 -23.808  1.00  0.00     0.062 C 
HETATM    2  C10 UNL     1      -0.403  51.848 -24.142  1.00  0.00     0.002 C 
ENDROOT
BRANCH   1   3
HETATM    3  C7  UNL     1      -2.162  50.182 -24.786  1.00  0.00     0.015 A 
HETATM    4  C2  UNL     1      -3.094  49.211 -24.370  1.00  0.00     0.079 A 
HETATM    5  C3  UNL     1      -3.738  48.425 -25.334  1.00  0.00     0.037 A 
HETATM    6  C4  UNL     1      -3.465  48.603 -26.695  1.00  0.00     0.003 A 
HETATM    7  C5  UNL     1      -2.547  49.562 -27.106  1.00  0.00     0.001 A 
HETATM    8  C6  UNL     1      -1.895  50.348 -26.155  1.00  0.00     0.015 A 
BRANCH   4   9
HETATM    9  O1  UNL     1      -3.302  49.110 -23.018  1.00  0.00    -0.355 OA
HETATM   10  C1  UNL     1      -4.278  48.174 -22.573  1.00  0.00     0.210 C 
ENDBRANCH   4   9
ENDBRANCH   1   3
BRANCH   1  11
HETATM   11  C9  UNL     1      -1.860  50.891 -22.395  1.00  0.00     0.178 C 
HETATM   12  O2  UNL     1      -1.412  50.090 -21.596  1.00  0.00    -0.646 OA
BRANCH  11  13
HETATM   13  O3  UNL     1      -2.857  51.732 -22.069  1.00  0.00    -0.773 OA
HETATM   14  H8  UNL     1      -3.028  51.533 -21.127  1.00  0.00     0.167 HD
ENDBRANCH  11  13
ENDBRANCH   1  11
BRANCH   2  15
HETATM   15  C11 UNL     1       0.347  52.577 -23.086  1.00  0.00    -0.024 A 
HETATM   16  C12 UNL     1       0.715  51.933 -21.890  1.00  0.00     0.012 A 
HETATM   17  C13 UNL     1       1.430  52.625 -20.910  1.00  0.00     0.001 A 
HETATM   18  C14 UNL     1       1.777  53.963 -21.113  1.00  0.00     0.000 A 
HETATM   19  C15 UNL     1       1.410  54.612 -22.297  1.00  0.00     0.001 A 
HETATM   20  C16 UNL     1       0.702  53.922 -23.283  1.00  0.00     0.012 A 
ENDBRANCH   2  15
BRANCH   2  21
HETATM   21  C17 UNL     1      -0.003  51.993 -25.566  1.00  0.00    -0.024 A 
HETATM   22  C18 UNL     1       1.029  51.197 -26.092  1.00  0.00     0.012 A 
HETATM   23  C19 UNL     1       1.399  51.327 -27.433  1.00  0.00     0.001 A 
HETATM   24  C20 UNL     1       0.754  52.257 -28.251  1.00  0.00     0.000 A 
HETATM   25  C21 UNL     1      -0.254  53.068 -27.729  1.00  0.00     0.001 A 
HETATM   26  C22 UNL     1      -0.635  52.938 -26.392  1.00  0.00     0.012 A 
ENDBRANCH   2  21
TORSDOF 6
ENDMDL
MODEL 2
REMARK minimizedAffinity -8.59560299
REMARK  6 active torsions:
REMARK  status: ('A' for Active; 'I' for Inactive)
REMARK    1  A    between atoms: O1_2  and  C2_3 
REMARK    2  A    between atoms: C7_8  and  C8_9 
REMARK    3  A    between atoms: C8_9  and  C9_10 
REMARK    4  A    between atoms: C9_10  and  O3_12 
REMARK    5  A    between atoms: C10_13  and  C11_14 
REMARK    6  A    between atoms: C10_13  and  C17_20 
ROOT
HETATM    1  C8  UNL     1      -1.168  52.096 -24.422  1.00  0.00     0.062 C 
HETATM    2  C10 UNL     1      -1.021  51.334 -25.541  1.00  0.00     0.002 C 
ENDROOT
BRANCH   1   3
HETATM    3  C7  UNL     1      -2.275  51.920 -23.451  1.00  0.00     0.015 A 
HETATM    4  C2  UNL     1      -2.119  51.137 -22.292  1.00  0.00     0.079 A 
HETATM    5  C3  UNL     1      -3.201  50.991 -21.414  1.00  0.00     0.037 A 
HETATM    6  C4  UNL     1      -4.423  51.619 -21.681  1.00  0.00     0.003 A 
HETATM    7  C5  UNL     1      -4.577  52.394 -22.825  1.00  0.00     0.001 A 
HETATM    8  C6  UNL     1      -3.508  52.543 -23.709  1.00  0.00     0.015 A 
BRANCH   4   9
HETATM    9  O1  UNL     1      -0.887  50.563 -22.109  1.00  0.00    -0.355 OA
HETATM   10  C1  UNL     1      -0.767  49.576 -21.090  1.00  0.00     0.210 C 
ENDBRANCH   4   9
ENDBRANCH   1   3
BRANCH   1  11
HETATM   11  C9  UNL     1      -0.157  53.119 -24.072  1.00  0.00     0.178 C 
HETATM   12  O2  UNL     1       0.661  53.033 -23.176  1.00  0.00    -0.646 OA
BRANCH  11  13
HETATM   13  O3  UNL     1      -0.255  54.221 -24.835  1.00  0.00    -0.773 OA
HETATM   14  H8  UNL     1       0.459  54.799 -24.500  1.00  0.00     0.167 HD
ENDBRANCH  11  13
ENDBRANCH   1  11
BRANCH   2  15
HETATM   15  C11 UNL     1       0.179  51.492 -26.403  1.00  0.00    -0.024 A 
HETATM   16  C12 UNL     1       1.455  51.128 -25.933  1.00  0.00     0.012 A 
HETATM   17  C13 UNL     1       2.575  51.269 -26.756  1.00  0.00     0.001 A 
HETATM   18  C14 UNL     1       2.431  51.780 -28.048  1.00  0.00     0.000 A 
HETATM   19  C15 UNL     1       1.167  52.149 -28.522  1.00  0.00     0.001 A 
HETATM   20  C16 UNL     1       0.043  52.002 -27.705  1.00  0.00     0.012 A 
ENDBRANCH   2  15
BRANCH   2  21
HETATM   21  C17 UNL     1      -2.053  50.323 -25.890  1.00  0.00    -0.024 A 
HETATM   22  C18 UNL     1      -2.330  49.266 -25.006  1.00  0.00     0.012 A 
HETATM   23  C19 UNL     1      -3.306  48.321 -25.330  1.00  0.00     0.001 A 
HETATM   24  C20 UNL     1      -4.000  48.415 -26.538  1.00  0.00     0.000 A 
HETATM   25  C21 UNL     1      -3.712  49.448 -27.431  1.00  0.00     0.001 A 
HETATM   26  C22 UNL     1      -2.744  50.401 -27.111  1.00  0.00     0.012 A 
ENDBRANCH   2  21
TORSDOF 6
ENDMDL
MODEL 3
REMARK minimizedAffinity -8.29612255
REMARK  6 active torsions:
REMARK  status: ('A' for Active; 'I' for Inactive)
REMARK    1  A    between atoms: O1_2  and  C2_3 
REMARK    2  A    between atoms: C7_8  and  C8_9 
REMARK    3  A    between atoms: C8_9  and  C9_10 
REMARK    4  A    between atoms: C9_10  and  O3_12 
REMARK    5  A    between atoms: C10_13  and  C11_14 
REMARK    6  A    between atoms: C10_13  and  C17_20 
ROOT
HETATM    1  C8  UNL     1      -1.292  51.735 -24.557  1.00  0.00     0.062 C 
HETATM    2  C10 UNL     1      -1.035  51.139 -25.754  1.00  0.00     0.002 C 
ENDROOT
BRANCH   1   3
HETATM    3  C7  UNL     1      -0.341  52.644 -23.873  1.00  0.00     0.015 A 
HETATM    4  C2  UNL     1       0.023  53.884 -24.433  1.00  0.00     0.079 A 
HETATM    5  C3  UNL     1       0.938  54.699 -23.754  1.00  0.00     0.037 A 
HETATM    6  C4  UNL     1       1.482  54.291 -22.531  1.00  0.00     0.003 A 
HETATM    7  C5  UNL     1       1.122  53.067 -21.977  1.00  0.00     0.001 A 
HETATM    8  C6  UNL     1       0.215  52.245 -22.646  1.00  0.00     0.015 A 
BRANCH   4   9
HETATM    9  O1  UNL     1      -0.563  54.204 -25.631  1.00  0.00    -0.355 OA
HETATM   10  C1  UNL     1       0.077  55.192 -26.432  1.00  0.00     0.210 C 
ENDBRANCH   4   9
ENDBRANCH   1   3
BRANCH   1  11
HETATM   11  C9  UNL     1      -2.605  51.556 -23.896  1.00  0.00     0.178 C 
HETATM   12  O2  UNL     1      -3.604  52.218 -24.108  1.00  0.00    -0.646 OA
BRANCH  11  13
HETATM   13  O3  UNL     1      -2.584  50.586 -22.966  1.00  0.00    -0.773 OA
HETATM   14  H8  UNL     1      -3.499  50.579 -22.619  1.00  0.00     0.167 HD
ENDBRANCH  11  13
ENDBRANCH   1  11
BRANCH   2  15
HETATM   15  C11 UNL     1      -2.086  50.336 -26.432  1.00  0.00    -0.024 A 
HETATM   16  C12 UNL     1      -2.752  50.835 -27.567  1.00  0.00     0.012 A 
HETATM   17  C13 UNL     1      -3.729  50.066 -28.204  1.00  0.00     0.001 A 
HETATM   18  C14 UNL     1      -4.052  48.799 -27.710  1.00  0.00     0.000 A 
HETATM   19  C15 UNL     1      -3.397  48.298 -26.580  1.00  0.00     0.001 A 
HETATM   20  C16 UNL     1      -2.414  49.060 -25.945  1.00  0.00     0.012 A 
ENDBRANCH   2  15
BRANCH   2  21
HETATM   21  C17 UNL     1       0.293  51.312 -26.398  1.00  0.00    -0.024 A 
HETATM   22  C18 UNL     1       0.379  51.784 -27.719  1.00  0.00     0.012 A 
HETATM   23  C19 UNL     1       1.628  51.955 -28.321  1.00  0.00     0.001 A 
HETATM   24  C20 UNL     1       2.794  51.645 -27.618  1.00  0.00     0.000 A 
HETATM   25  C21 UNL     1       2.715  51.153 -26.314  1.00  0.00     0.001 A 
HETATM   26  C22 UNL     1       1.471  50.988 -25.704  1.00  0.00     0.012 A 
ENDBRANCH   2  21
TORSDOF 6
ENDMDL
MODEL 4
REMARK minimizedAffinity -8.07032204
REMARK  6 active torsions:
REMARK  status: ('A' for Active; 'I' for Inactive)
REMARK    1  A    between atoms: O1_2  and  C2_3 
REMARK    2  A    between atoms: C7_8  and  C8_9 
REMARK    3  A    between atoms: C8_9  and  C9_10 
REMARK    4  A    between atoms: C9_10  and  O3_12 
REMARK    5  A    between atoms: C10_13  and  C11_14 
REMARK    6  A    between atoms: C10_13  and  C17_20 
ROOT
HETATM    1  C8  UNL     1      -1.731  51.150 -24.620  1.00  0.00     0.062 C 
HETATM    2  C10 UNL     1      -0.476  51.672 -24.551  1.00  0.00     0.002 C 
ENDROOT
BRANCH   1   3
HETATM    3  C7  UNL     1      -2.683  51.153 -23.483  1.00  0.00     0.015 A 
HETATM    4  C2  UNL     1      -2.918  49.993 -22.719  1.00  0.00     0.079 A 
HETATM    5  C3  UNL     1      -3.839  50.045 -21.665  1.00  0.00     0.037 A 
HETATM    6  C4  UNL     1      -4.515  51.234 -21.368  1.00  0.00     0.003 A 
HETATM    7  C5  UNL     1      -4.281  52.379 -22.120  1.00  0.00     0.001 A 
HETATM    8  C6  UNL     1      -3.370  52.339 -23.176  1.00  0.00     0.015 A 
BRANCH   4   9
HETATM    9  O1  UNL     1      -2.209  48.876 -23.078  1.00  0.00    -0.355 OA
HETATM   10  C1  UNL     1      -2.074  47.843 -22.107  1.00  0.00     0.210 C 
ENDBRANCH   4   9
ENDBRANCH   1   3
BRANCH   1  11
HETATM   11  C9  UNL     1      -2.249  50.604 -25.895  1.00  0.00     0.178 C 
HETATM   12  O2  UNL     1      -1.939  49.536 -26.389  1.00  0.00    -0.646 OA
BRANCH  11  13
HETATM   13  O3  UNL     1      -3.094  51.448 -26.512  1.00  0.00    -0.773 OA
HETATM   14  H8  UNL     1      -3.351  50.966 -27.323  1.00  0.00     0.167 HD
ENDBRANCH  11  13
ENDBRANCH   1  11
BRANCH   2  15
HETATM   15  C11 UNL     1       0.376  51.738 -25.768  1.00  0.00    -0.024 A 
HETATM   16  C12 UNL     1      -0.081  52.385 -26.931  1.00  0.00     0.012 A 
HETATM   17  C13 UNL     1       0.733  52.453 -28.064  1.00  0.00     0.001 A 
HETATM   18  C14 UNL     1       2.003  51.870 -28.047  1.00  0.00     0.000 A 
HETATM   19  C15 UNL     1       2.463  51.221 -26.896  1.00  0.00     0.001 A 
HETATM   20  C16 UNL     1       1.655  51.159 -25.758  1.00  0.00     0.012 A 
ENDBRANCH   2  15
BRANCH   2  21
HETATM   21  C17 UNL     1       0.038  52.200 -23.260  1.00  0.00    -0.024 A 
HETATM   22  C18 UNL     1      -0.034  51.411 -22.099  1.00  0.00     0.012 A 
HETATM   23  C19 UNL     1       0.457  51.903 -20.888  1.00  0.00     0.001 A 
HETATM   24  C20 UNL     1       1.008  53.185 -20.823  1.00  0.00     0.000 A 
HETATM   25  C21 UNL     1       1.060  53.982 -21.967  1.00  0.00     0.001 A 
HETATM   26  C22 UNL     1       0.579  53.494 -23.183  1.00  0.00     0.012 A 
ENDBRANCH   2  21
TORSDOF 6
ENDMDL
MODEL 5
REMARK minimizedAffinity -7.95566463
REMARK  6 active torsions:
REMARK  status: ('A' for Active; 'I' for Inactive)
REMARK    1  A    between atoms: O1_2  and  C2_3 
REMARK    2  A    between atoms: C7_8  and  C8_9 
REMARK    3  A    between atoms: C8_9  and  C9_10 
REMARK    4  A    between atoms: C9_10  and  O3_12 
REMARK    5  A    between atoms: C10_13  and  C11_14 
REMARK    6  A    between atoms: C10_13  and  C17_20 
ROOT
HETATM    1  C8  UNL     1      -0.636  51.670 -24.556  1.00  0.00     0.062 C 
HETATM    2  C10 UNL     1      -1.068  51.846 -23.277  1.00  0.00     0.002 C 
ENDROOT
BRANCH   1   3
HETATM    3  C7  UNL     1      -1.496  51.154 -25.648  1.00  0.00     0.015 A 
HETATM    4  C2  UNL     1      -1.939  51.989 -26.692  1.00  0.00     0.079 A 
HETATM    5  C3  UNL     1      -2.763  51.455 -27.691  1.00  0.00     0.037 A 
HETATM    6  C4  UNL     1      -3.138  50.107 -27.659  1.00  0.00     0.003 A 
HETATM    7  C5  UNL     1      -2.699  49.282 -26.629  1.00  0.00     0.001 A 
HETATM    8  C6  UNL     1      -1.882  49.803 -25.626  1.00  0.00     0.015 A 
BRANCH   4   9
HETATM    9  O1  UNL     1      -1.518  53.293 -26.645  1.00  0.00    -0.355 OA
HETATM   10  C1  UNL     1      -1.028  53.868 -27.852  1.00  0.00     0.210 C 
ENDBRANCH   4   9
ENDBRANCH   1   3
BRANCH   1  11
HETATM   11  C9  UNL     1       0.736  52.066 -24.945  1.00  0.00     0.178 C 
HETATM   12  O2  UNL     1       1.703  51.329 -24.992  1.00  0.00    -0.646 OA
BRANCH  11  13
HETATM   13  O3  UNL     1       0.837  53.380 -25.212  1.00  0.00    -0.773 OA
HETATM   14  H8  UNL     1       1.777  53.496 -25.451  1.00  0.00     0.167 HD
ENDBRANCH  11  13
ENDBRANCH   1  11
BRANCH   2  15
HETATM   15  C11 UNL     1      -0.182  52.479 -22.266  1.00  0.00    -0.024 A 
HETATM   16  C12 UNL     1      -0.062  51.935 -20.973  1.00  0.00     0.012 A 
HETATM   17  C13 UNL     1       0.783  52.530 -20.035  1.00  0.00     0.001 A 
HETATM   18  C14 UNL     1       1.509  53.674 -20.376  1.00  0.00     0.000 A 
HETATM   19  C15 UNL     1       1.393  54.224 -21.658  1.00  0.00     0.001 A 
HETATM   20  C16 UNL     1       0.555  53.626 -22.602  1.00  0.00     0.012 A 
ENDBRANCH   2  15
BRANCH   2  21
HETATM   21  C17 UNL     1      -2.442  51.426 -22.895  1.00  0.00    -0.024 A 
HETATM   22  C18 UNL     1      -2.647  50.194 -22.249  1.00  0.00     0.012 A 
HETATM   23  C19 UNL     1      -3.937  49.803 -21.882  1.00  0.00     0.001 A 
HETATM   24  C20 UNL     1      -5.027  50.628 -22.166  1.00  0.00     0.000 A 
HETATM   25  C21 UNL     1      -4.833  51.840 -22.829  1.00  0.00     0.001 A 
HETATM   26  C22 UNL     1      -3.547  52.241 -23.192  1.00  0.00     0.012 A 
ENDBRANCH   2  21
TORSDOF 6
ENDMDL
MODEL 6
REMARK minimizedAffinity -7.9171772
REMARK  6 active torsions:
REMARK  status: ('A' for Active; 'I' for Inactive)
REMARK    1  A    between atoms: O1_2  and  C2_3 
REMARK    2  A    between atoms: C7_8  and  C8_9 
REMARK    3  A    between atoms: C8_9  and  C9_10 
REMARK    4  A    between atoms: C9_10  and  O3_12 
REMARK    5  A    between atoms: C10_13  and  C11_14 
REMARK    6  A    between atoms: C10_13  and  C17_20 
ROOT
HETATM    1  C8  UNL     1      -3.604  51.038 -23.715  1.00  0.00     0.062 C 
HETATM    2  C10 UNL     1      -2.309  50.619 -23.676  1.00  0.00     0.002 C 
ENDROOT
BRANCH   1   3
HETATM    3  C7  UNL     1      -4.634  50.609 -22.740  1.00  0.00     0.015 A 
HETATM    4  C2  UNL     1      -5.652  49.702 -23.096  1.00  0.00     0.079 A 
HETATM    5  C3  UNL     1      -6.610  49.341 -22.141  1.00  0.00     0.037 A 
HETATM    6  C4  UNL     1      -6.557  49.867 -20.845  1.00  0.00     0.003 A 
HETATM    7  C5  UNL     1      -5.552  50.761 -20.493  1.00  0.00     0.001 A 
HETATM    8  C6  UNL     1      -4.595  51.132 -21.437  1.00  0.00     0.015 A 
BRANCH   4   9
HETATM    9  O1  UNL     1      -5.622  49.233 -24.384  1.00  0.00    -0.355 OA
HETATM   10  C1  UNL     1      -6.304  48.013 -24.655  1.00  0.00     0.210 C 
ENDBRANCH   4   9
ENDBRANCH   1   3
BRANCH   1  11
HETATM   11  C9  UNL     1      -4.041  52.031 -24.723  1.00  0.00     0.178 C 
HETATM   12  O2  UNL     1      -3.315  52.621 -25.501  1.00  0.00    -0.646 OA
BRANCH  11  13
HETATM   13  O3  UNL     1      -5.363  52.269 -24.671  1.00  0.00    -0.773 OA
HETATM   14  H8  UNL     1      -5.507  52.929 -25.378  1.00  0.00     0.167 HD
ENDBRANCH  11  13
ENDBRANCH   1  11
BRANCH   2  15
HETATM   15  C11 UNL     1      -1.308  51.186 -24.618  1.00  0.00    -0.024 A 
HETATM   16  C12 UNL     1      -0.578  52.340 -24.281  1.00  0.00     0.012 A 
HETATM   17  C13 UNL     1       0.369  52.857 -25.168  1.00  0.00     0.001 A 
HETATM   18  C14 UNL     1       0.588  52.231 -26.398  1.00  0.00     0.000 A 
HETATM   19  C15 UNL     1      -0.138  51.086 -26.742  1.00  0.00     0.001 A 
HETATM   20  C16 UNL     1      -1.080  50.561 -25.854  1.00  0.00     0.012 A 
ENDBRANCH   2  15
BRANCH   2  21
HETATM   21  C17 UNL     1      -1.888  49.608 -22.671  1.00  0.00    -0.024 A 
HETATM   22  C18 UNL     1      -2.334  48.279 -22.781  1.00  0.00     0.012 A 
HETATM   23  C19 UNL     1      -1.931  47.327 -21.842  1.00  0.00     0.001 A 
HETATM   24  C20 UNL     1      -1.095  47.693 -20.785  1.00  0.00     0.000 A 
HETATM   25  C21 UNL     1      -0.669  49.016 -20.657  1.00  0.00     0.001 A 
HETATM   26  C22 UNL     1      -1.061  49.971 -21.596  1.00  0.00     0.012 A 
ENDBRANCH   2  21
TORSDOF 6
ENDMDL
MODEL 7
REMARK minimizedAffinity -7.82293797
REMARK  6 active torsions:
REMARK  status: ('A' for Active; 'I' for Inactive)
REMARK    1  A    between atoms: O1_2  and  C2_3 
REMARK    2  A    between atoms: C7_8  and  C8_9 
REMARK    3  A    between atoms: C8_9  and  C9_10 
REMARK    4  A    between atoms: C9_10  and  O3_12 
REMARK    5  A    between atoms: C10_13  and  C11_14 
REMARK    6  A    between atoms: C10_13  and  C17_20 
ROOT
HETATM    1  C8  UNL     1      -2.281  50.077 -24.497  1.00  0.00     0.062 C 
HETATM    2  C10 UNL     1      -1.207  50.911 -24.432  1.00  0.00     0.002 C 
ENDROOT
BRANCH   1   3
HETATM    3  C7  UNL     1      -3.015  49.592 -23.304  1.00  0.00     0.015 A 
HETATM    4  C2  UNL     1      -3.936  50.412 -22.623  1.00  0.00     0.079 A 
HETATM    5  C3  UNL     1      -4.591  49.910 -21.491  1.00  0.00     0.037 A 
HETATM    6  C4  UNL     1      -4.341  48.608 -21.043  1.00  0.00     0.003 A 
HETATM    7  C5  UNL     1      -3.434  47.797 -21.717  1.00  0.00     0.001 A 
HETATM    8  C6  UNL     1      -2.771  48.288 -22.842  1.00  0.00     0.015 A 
BRANCH   4   9
HETATM    9  O1  UNL     1      -4.121  51.670 -23.135  1.00  0.00    -0.355 OA
HETATM   10  C1  UNL     1      -5.418  51.995 -23.624  1.00  0.00     0.210 C 
ENDBRANCH   4   9
ENDBRANCH   1   3
BRANCH   1  11
HETATM   11  C9  UNL     1      -2.830  49.660 -25.808  1.00  0.00     0.178 C 
HETATM   12  O2  UNL     1      -2.399  48.761 -26.505  1.00  0.00    -0.646 OA
BRANCH  11  13
HETATM   13  O3  UNL     1      -3.864  50.424 -26.200  1.00  0.00    -0.773 OA
HETATM   14  H8  UNL     1      -4.120  50.042 -27.062  1.00  0.00     0.167 HD
ENDBRANCH  11  13
ENDBRANCH   1  11
BRANCH   2  15
HETATM   15  C11 UNL     1      -0.598  51.448 -25.677  1.00  0.00    -0.024 A 
HETATM   16  C12 UNL     1       0.533  50.834 -26.247  1.00  0.00     0.012 A 
HETATM   17  C13 UNL     1       1.090  51.339 -27.424  1.00  0.00     0.001 A 
HETATM   18  C14 UNL     1       0.528  52.462 -28.036  1.00  0.00     0.000 A 
HETATM   19  C15 UNL     1      -0.594  53.081 -27.473  1.00  0.00     0.001 A 
HETATM   20  C16 UNL     1      -1.159  52.574 -26.301  1.00  0.00     0.012 A 
ENDBRANCH   2  15
BRANCH   2  21
HETATM   21  C17 UNL     1      -0.655  51.306 -23.110  1.00  0.00    -0.024 A 
HETATM   22  C18 UNL     1      -0.215  52.624 -22.897  1.00  0.00     0.012 A 
HETATM   23  C19 UNL     1       0.295  52.998 -21.652  1.00  0.00     0.001 A 
HETATM   24  C20 UNL     1       0.383  52.062 -20.619  1.00  0.00     0.000 A 
HETATM   25  C21 UNL     1      -0.028  50.746 -20.832  1.00  0.00     0.001 A 
HETATM   26  C22 UNL     1      -0.547  50.367 -22.071  1.00  0.00     0.012 A 
ENDBRANCH   2  21
TORSDOF 6
ENDMDL
MODEL 8
REMARK minimizedAffinity -7.81309462
REMARK  6 active torsions:
REMARK  status: ('A' for Active; 'I' for Inactive)
REMARK    1  A    between atoms: O1_2  and  C2_3 
REMARK    2  A    between atoms: C7_8  and  C8_9 
REMARK    3  A    between atoms: C8_9  and  C9_10 
REMARK    4  A    between atoms: C9_10  and  O3_12 
REMARK    5  A    between atoms: C10_13  and  C11_14 
REMARK    6  A    between atoms: C10_13  and  C17_20 
ROOT
HETATM    1  C8  UNL     1      -2.437  49.954 -24.033  1.00  0.00     0.062 C 
HETATM    2  C10 UNL     1      -2.635  50.044 -25.377  1.00  0.00     0.002 C 
ENDROOT
BRANCH   1   3
HETATM    3  C7  UNL     1      -1.496  50.821 -23.284  1.00  0.00     0.015 A 
HETATM    4  C2  UNL     1      -1.722  51.158 -21.935  1.00  0.00     0.079 A 
HETATM    5  C3  UNL     1      -0.810  51.994 -21.278  1.00  0.00     0.037 A 
HETATM    6  C4  UNL     1       0.316  52.485 -21.948  1.00  0.00     0.003 A 
HETATM    7  C5  UNL     1       0.540  52.151 -23.279  1.00  0.00     0.001 A 
HETATM    8  C6  UNL     1      -0.363  51.324 -23.946  1.00  0.00     0.015 A 
BRANCH   4   9
HETATM    9  O1  UNL     1      -2.848  50.628 -21.358  1.00  0.00    -0.355 OA
HETATM   10  C1  UNL     1      -3.458  51.370 -20.307  1.00  0.00     0.210 C 
ENDBRANCH   4   9
ENDBRANCH   1   3
BRANCH   1  11
HETATM   11  C9  UNL     1      -3.230  49.006 -23.219  1.00  0.00     0.178 C 
HETATM   12  O2  UNL     1      -4.382  49.167 -22.860  1.00  0.00    -0.646 OA
BRANCH  11  13
HETATM   13  O3  UNL     1      -2.523  47.922 -22.856  1.00  0.00    -0.773 OA
HETATM   14  H8  UNL     1      -3.160  47.394 -22.335  1.00  0.00     0.167 HD
ENDBRANCH  11  13
ENDBRANCH   1  11
BRANCH   2  15
HETATM   15  C11 UNL     1      -3.682  49.221 -26.038  1.00  0.00    -0.024 A 
HETATM   16  C12 UNL     1      -4.832  48.820 -25.333  1.00  0.00     0.012 A 
HETATM   17  C13 UNL     1      -5.815  48.056 -25.967  1.00  0.00     0.001 A 
HETATM   18  C14 UNL     1      -5.654  47.682 -27.304  1.00  0.00     0.000 A 
HETATM   19  C15 UNL     1      -4.511  48.073 -28.010  1.00  0.00     0.001 A 
HETATM   20  C16 UNL     1      -3.530  48.844 -27.382  1.00  0.00     0.012 A 
ENDBRANCH   2  15
BRANCH   2  21
HETATM   21  C17 UNL     1      -1.819  50.988 -26.185  1.00  0.00    -0.024 A 
HETATM   22  C18 UNL     1      -0.574  50.582 -26.696  1.00  0.00     0.012 A 
HETATM   23  C19 UNL     1       0.189  51.465 -27.462  1.00  0.00     0.001 A 
HETATM   24  C20 UNL     1      -0.275  52.758 -27.713  1.00  0.00     0.000 A 
HETATM   25  C21 UNL     1      -1.499  53.175 -27.189  1.00  0.00     0.001 A 
HETATM   26  C22 UNL     1      -2.271  52.295 -26.429  1.00  0.00     0.012 A 
ENDBRANCH   2  21
TORSDOF 6
ENDMDL
MODEL 9
REMARK minimizedAffinity -7.78168488
REMARK  6 active torsions:
REMARK  status: ('A' for Active; 'I' for Inactive)
REMARK    1  A    between atoms: O1_2  and  C2_3 
REMARK    2  A    between atoms: C7_8  and  C8_9 
REMARK    3  A    between atoms: C8_9  and  C9_10 
REMARK    4  A    between atoms: C9_10  and  O3_12 
REMARK    5  A    between atoms: C10_13  and  C11_14 
REMARK    6  A    between atoms: C10_13  and  C17_20 
ROOT
HETATM    1  C8  UNL     1      -1.182  51.809 -23.920  1.00  0.00     0.062 C 
HETATM    2  C10 UNL     1      -1.141  51.165 -25.118  1.00  0.00     0.002 C 
ENDROOT
BRANCH   1   3
HETATM    3  C7  UNL     1      -0.181  52.818 -23.497  1.00  0.00     0.015 A 
HETATM    4  C2  UNL     1       0.520  52.695 -22.282  1.00  0.00     0.079 A 
HETATM    5  C3  UNL     1       1.444  53.684 -21.922  1.00  0.00     0.037 A 
HETATM    6  C4  UNL     1       1.675  54.781 -22.761  1.00  0.00     0.003 A 
HETATM    7  C5  UNL     1       0.985  54.902 -23.962  1.00  0.00     0.001 A 
HETATM    8  C6  UNL     1       0.059  53.925 -24.329  1.00  0.00     0.015 A 
BRANCH   4   9
HETATM    9  O1  UNL     1       0.233  51.587 -21.526  1.00  0.00    -0.355 OA
HETATM   10  C1  UNL     1       0.045  51.777 -20.128  1.00  0.00     0.210 C 
ENDBRANCH   4   9
ENDBRANCH   1   3
BRANCH   1  11
HETATM   11  C9  UNL     1      -2.303  51.579 -22.981  1.00  0.00     0.178 C 
HETATM   12  O2  UNL     1      -3.213  52.355 -22.757  1.00  0.00    -0.646 OA
BRANCH  11  13
HETATM   13  O3  UNL     1      -2.201  50.405 -22.335  1.00  0.00    -0.773 OA
HETATM   14  H8  UNL     1      -2.993  50.387 -21.762  1.00  0.00     0.167 HD
ENDBRANCH  11  13
ENDBRANCH   1  11
BRANCH   2  15
HETATM   15  C11 UNL     1      -2.245  50.255 -25.518  1.00  0.00    -0.024 A 
HETATM   16  C12 UNL     1      -3.572  50.521 -25.133  1.00  0.00     0.012 A 
HETATM   17  C13 UNL     1      -4.604  49.665 -25.524  1.00  0.00     0.001 A 
HETATM   18  C14 UNL     1      -4.319  48.536 -26.296  1.00  0.00     0.000 A 
HETATM   19  C15 UNL     1      -3.002  48.261 -26.679  1.00  0.00     0.001 A 
HETATM   20  C16 UNL     1      -1.968  49.119 -26.297  1.00  0.00     0.012 A 
ENDBRANCH   2  15
BRANCH   2  21
HETATM   21  C17 UNL     1       0.001  51.392 -26.043  1.00  0.00    -0.024 A 
HETATM   22  C18 UNL     1       1.310  51.089 -25.631  1.00  0.00     0.012 A 
HETATM   23  C19 UNL     1       2.382  51.293 -26.504  1.00  0.00     0.001 A 
HETATM   24  C20 UNL     1       2.158  51.811 -27.781  1.00  0.00     0.000 A 
HETATM   25  C21 UNL     1       0.864  52.137 -28.187  1.00  0.00     0.001 A 
HETATM   26  C22 UNL     1      -0.213  51.928 -27.324  1.00  0.00     0.012 A 
ENDBRANCH   2  21
TORSDOF 6
ENDMDL
