MODEL 1
REMARK minimizedAffinity -10.0176992
REMARK  8 active torsions:
REMARK  status: ('A' for Active; 'I' for Inactive)
REMARK    1  A    between atoms: C2_2  and  C30_33 
REMARK    2  A    between atoms: C3_3  and  C4_4 
REMARK    3  A    between atoms: C4_4  and  C5_5 
REMARK    4  A    between atoms: C5_5  and  C6_6 
REMARK    5  A    between atoms: C6_6  and  C8_8 
REMARK    6  A    between atoms: C21_22  and  O2_23 
REMARK    7  A    between atoms: C23_25  and  O3_26 
REMARK    8  A    between atoms: C30_33  and  O4_34 
ROOT
HETATM    1  C8  UNL     1      -0.731  51.636 -21.467  1.00  0.00    -0.001 C 
HETATM    2  C9  UNL     1      -0.226  50.656 -20.371  1.00  0.00     0.007 C 
HETATM    3  C10 UNL     1      -1.391  49.697 -20.055  1.00  0.00     0.015 C 
HETATM    4  C11 UNL     1      -2.626  50.347 -20.709  1.00  0.00    -0.012 C 
HETATM    5  C12 UNL     1      -3.171  51.420 -19.713  1.00  0.00     0.021 C 
HETATM    6  C13 UNL     1      -3.830  49.481 -21.051  1.00  0.00    -0.060 C 
HETATM    7  C14 UNL     1      -4.689  49.848 -22.034  1.00  0.00     0.002 C 
HETATM    8  C15 UNL     1      -4.398  51.125 -22.813  1.00  0.00     0.157 C 
HETATM    9  O1  UNL     1      -5.272  51.635 -23.523  1.00  0.00    -0.293 OA
HETATM   10  C16 UNL     1      -3.033  51.804 -22.710  1.00  0.00     0.094 C 
HETATM   11  C17 UNL     1      -1.991  50.916 -22.032  1.00  0.00    -0.022 C 
HETATM   12  C18 UNL     1      -1.583  49.801 -23.040  1.00  0.00     0.017 C 
HETATM   13  C19 UNL     1      -5.995  49.077 -22.356  1.00  0.00     0.017 C 
HETATM   14  C20 UNL     1      -7.116  49.893 -21.653  1.00  0.00     0.023 C 
HETATM   15  C21 UNL     1      -6.218  48.981 -23.914  1.00  0.00     0.134 C 
HETATM   16  C22 UNL     1      -6.704  47.620 -24.430  1.00  0.00     0.065 C 
HETATM   17  C23 UNL     1      -7.732  46.974 -23.504  1.00  0.00     0.128 C 
HETATM   18  C24 UNL     1      -7.146  46.694 -22.081  1.00  0.00    -0.017 C 
HETATM   19  C25 UNL     1      -6.659  45.217 -22.076  1.00  0.00     0.018 C 
HETATM   20  C26 UNL     1      -8.235  46.785 -20.991  1.00  0.00     0.018 C 
HETATM   21  C27 UNL     1      -5.889  47.611 -21.795  1.00  0.00     0.011 C 
HETATM   22  C28 UNL     1      -5.420  47.605 -20.327  1.00  0.00     0.011 C 
HETATM   23  C29 UNL     1      -4.047  48.262 -20.186  1.00  0.00     0.036 C 
ENDROOT
BRANCH   1  24
HETATM   24  C6  UNL     1       0.408  52.214 -22.358  1.00  0.00    -0.014 C 
HETATM   25  C7  UNL     1       1.268  53.217 -21.578  1.00  0.00     0.010 C 
BRANCH  24  26
HETATM   26  C5  UNL     1       0.007  52.796 -23.732  1.00  0.00     0.008 C 
BRANCH  26  27
HETATM   27  C4  UNL     1      -0.098  51.717 -24.820  1.00  0.00     0.028 C 
BRANCH  27  28
HETATM   28  C3  UNL     1       1.047  51.823 -25.790  1.00  0.00    -0.022 C 
HETATM   29  C2  UNL     1       0.991  51.805 -27.137  1.00  0.00    -0.064 C 
HETATM   30  C1  UNL     1      -0.276  51.717 -27.946  1.00  0.00     0.045 C 
BRANCH  29  31
HETATM   31  C30 UNL     1       2.249  51.905 -27.959  1.00  0.00     0.197 C 
BRANCH  31  32
HETATM   32  O4  UNL     1       3.341  51.419 -27.191  1.00  0.00    -0.397 OA
HETATM   33  H48 UNL     1       4.147  51.649 -27.678  1.00  0.00     0.209 HD
ENDBRANCH  31  32
ENDBRANCH  29  31
ENDBRANCH  27  28
ENDBRANCH  26  27
ENDBRANCH  24  26
ENDBRANCH   1  24
BRANCH  15  34
HETATM   34  O2  UNL     1      -7.182  49.952 -24.346  1.00  0.00    -0.394 OA
HETATM   35  H30 UNL     1      -6.696  50.810 -24.389  1.00  0.00     0.210 HD
ENDBRANCH  15  34
BRANCH  17  36
HETATM   36  O3  UNL     1      -8.917  47.767 -23.467  1.00  0.00    -0.395 OA
HETATM   37  H34 UNL     1      -8.689  48.677 -23.736  1.00  0.00     0.210 HD
ENDBRANCH  17  36
TORSDOF 8
ENDMDL
MODEL 2
REMARK minimizedAffinity -9.32525158
REMARK  8 active torsions:
REMARK  status: ('A' for Active; 'I' for Inactive)
REMARK    1  A    between atoms: C2_2  and  C30_33 
REMARK    2  A    between atoms: C3_3  and  C4_4 
REMARK    3  A    between atoms: C4_4  and  C5_5 
REMARK    4  A    between atoms: C5_5  and  C6_6 
REMARK    5  A    between atoms: C6_6  and  C8_8 
REMARK    6  A    between atoms: C21_22  and  O2_23 
REMARK    7  A    between atoms: C23_25  and  O3_26 
REMARK    8  A    between atoms: C30_33  and  O4_34 
ROOT
HETATM    1  C8  UNL     1      -0.521  52.539 -21.579  1.00  0.00    -0.001 C 
HETATM    2  C9  UNL     1       0.848  53.264 -21.707  1.00  0.00     0.007 C 
HETATM    3  C10 UNL     1       1.506  53.230 -20.314  1.00  0.00     0.015 C 
HETATM    4  C11 UNL     1       0.377  52.804 -19.354  1.00  0.00    -0.012 C 
HETATM    5  C12 UNL     1      -0.439  54.087 -18.995  1.00  0.00     0.021 C 
HETATM    6  C13 UNL     1       0.735  52.178 -18.014  1.00  0.00    -0.060 C 
HETATM    7  C14 UNL     1      -0.136  51.355 -17.380  1.00  0.00     0.002 C 
HETATM    8  C15 UNL     1      -1.463  51.040 -18.060  1.00  0.00     0.157 C 
HETATM    9  O1  UNL     1      -2.385  50.522 -17.420  1.00  0.00    -0.293 OA
HETATM   10  C16 UNL     1      -1.682  51.382 -19.533  1.00  0.00     0.094 C 
HETATM   11  C17 UNL     1      -0.381  51.750 -20.244  1.00  0.00    -0.022 C 
HETATM   12  C18 UNL     1       0.433  50.440 -20.462  1.00  0.00     0.017 C 
HETATM   13  C19 UNL     1       0.114  50.777 -15.963  1.00  0.00     0.017 C 
HETATM   14  C20 UNL     1      -0.714  51.690 -15.015  1.00  0.00     0.023 C 
HETATM   15  C21 UNL     1      -0.342  49.270 -15.885  1.00  0.00     0.134 C 
HETATM   16  C22 UNL     1       0.607  48.330 -15.130  1.00  0.00     0.065 C 
HETATM   17  C23 UNL     1       1.206  48.977 -13.883  1.00  0.00     0.128 C 
HETATM   18  C24 UNL     1       2.061  50.240 -14.231  1.00  0.00    -0.017 C 
HETATM   19  C25 UNL     1       3.540  49.770 -14.330  1.00  0.00     0.018 C 
HETATM   20  C26 UNL     1       2.022  51.282 -13.093  1.00  0.00     0.018 C 
HETATM   21  C27 UNL     1       1.653  50.830 -15.641  1.00  0.00     0.011 C 
HETATM   22  C28 UNL     1       2.240  52.223 -15.939  1.00  0.00     0.011 C 
HETATM   23  C29 UNL     1       2.056  52.594 -17.410  1.00  0.00     0.036 C 
ENDROOT
BRANCH   1  24
HETATM   24  C6  UNL     1      -1.018  51.905 -22.912  1.00  0.00    -0.014 C 
HETATM   25  C7  UNL     1      -1.271  50.401 -22.750  1.00  0.00     0.010 C 
BRANCH  24  26
HETATM   26  C5  UNL     1      -0.185  52.182 -24.182  1.00  0.00     0.008 C 
BRANCH  26  27
HETATM   27  C4  UNL     1      -0.431  51.142 -25.286  1.00  0.00     0.028 C 
BRANCH  27  28
HETATM   28  C3  UNL     1       0.729  51.094 -26.242  1.00  0.00    -0.022 C 
HETATM   29  C2  UNL     1       0.967  51.907 -27.291  1.00  0.00    -0.064 C 
HETATM   30  C1  UNL     1       0.109  53.080 -27.685  1.00  0.00     0.045 C 
BRANCH  29  31
HETATM   31  C30 UNL     1       2.179  51.701 -28.162  1.00  0.00     0.197 C 
BRANCH  31  32
HETATM   32  O4  UNL     1       3.311  51.481 -27.333  1.00  0.00    -0.397 OA
HETATM   33  H48 UNL     1       4.089  51.519 -27.910  1.00  0.00     0.209 HD
ENDBRANCH  31  32
ENDBRANCH  29  31
ENDBRANCH  27  28
ENDBRANCH  26  27
ENDBRANCH  24  26
ENDBRANCH   1  24
BRANCH  15  34
HETATM   34  O2  UNL     1      -1.621  49.163 -15.244  1.00  0.00    -0.394 OA
HETATM   35  H30 UNL     1      -2.286  49.410 -15.931  1.00  0.00     0.210 HD
ENDBRANCH  15  34
BRANCH  17  36
HETATM   36  O3  UNL     1       0.174  49.251 -12.938  1.00  0.00    -0.395 OA
HETATM   37  H34 UNL     1      -0.677  49.298 -13.412  1.00  0.00     0.210 HD
ENDBRANCH  17  36
TORSDOF 8
ENDMDL
MODEL 3
REMARK minimizedAffinity -9.18989849
REMARK  8 active torsions:
REMARK  status: ('A' for Active; 'I' for Inactive)
REMARK    1  A    between atoms: C2_2  and  C30_33 
REMARK    2  A    between atoms: C3_3  and  C4_4 
REMARK    3  A    between atoms: C4_4  and  C5_5 
REMARK    4  A    between atoms: C5_5  and  C6_6 
REMARK    5  A    between atoms: C6_6  and  C8_8 
REMARK    6  A    between atoms: C21_22  and  O2_23 
REMARK    7  A    between atoms: C23_25  and  O3_26 
REMARK    8  A    between atoms: C30_33  and  O4_34 
ROOT
HETATM    1  C8  UNL     1      -5.527  48.843 -21.831  1.00  0.00    -0.001 C 
HETATM    2  C9  UNL     1      -4.772  49.388 -20.587  1.00  0.00     0.007 C 
HETATM    3  C10 UNL     1      -3.456  50.009 -21.096  1.00  0.00     0.015 C 
HETATM    4  C11 UNL     1      -3.321  49.513 -22.549  1.00  0.00    -0.012 C 
HETATM    5  C12 UNL     1      -2.687  48.086 -22.497  1.00  0.00     0.021 C 
HETATM    6  C13 UNL     1      -2.453  50.293 -23.525  1.00  0.00    -0.060 C 
HETATM    7  C14 UNL     1      -2.681  50.225 -24.860  1.00  0.00     0.002 C 
HETATM    8  C15 UNL     1      -3.851  49.383 -25.355  1.00  0.00     0.157 C 
HETATM    9  O1  UNL     1      -3.938  49.078 -26.550  1.00  0.00    -0.293 OA
HETATM   10  C16 UNL     1      -4.916  48.883 -24.380  1.00  0.00     0.094 C 
HETATM   11  C17 UNL     1      -4.823  49.566 -23.017  1.00  0.00    -0.022 C 
HETATM   12  C18 UNL     1      -5.360  51.021 -23.172  1.00  0.00     0.017 C 
HETATM   13  C19 UNL     1      -1.767  50.898 -25.917  1.00  0.00     0.017 C 
HETATM   14  C20 UNL     1      -0.861  49.749 -26.441  1.00  0.00     0.023 C 
HETATM   15  C21 UNL     1      -2.627  51.549 -27.067  1.00  0.00     0.134 C 
HETATM   16  C22 UNL     1      -2.165  52.936 -27.535  1.00  0.00     0.065 C 
HETATM   17  C23 UNL     1      -0.644  53.055 -27.603  1.00  0.00     0.128 C 
HETATM   18  C24 UNL     1       0.025  52.844 -26.204  1.00  0.00    -0.017 C 
HETATM   19  C25 UNL     1       0.242  54.257 -25.590  1.00  0.00     0.018 C 
HETATM   20  C26 UNL     1       1.429  52.218 -26.336  1.00  0.00     0.018 C 
HETATM   21  C27 UNL     1      -0.934  52.045 -25.232  1.00  0.00     0.011 C 
HETATM   22  C28 UNL     1      -0.258  51.551 -23.939  1.00  0.00     0.011 C 
HETATM   23  C29 UNL     1      -1.295  51.059 -22.930  1.00  0.00     0.036 C 
ENDROOT
BRANCH   1  24
HETATM   24  C6  UNL     1      -7.072  48.785 -21.647  1.00  0.00    -0.014 C 
HETATM   25  C7  UNL     1      -7.494  49.396 -20.304  1.00  0.00     0.010 C 
BRANCH  24  26
HETATM   26  C5  UNL     1      -7.761  47.421 -21.863  1.00  0.00     0.008 C 
BRANCH  26  27
HETATM   27  C4  UNL     1      -7.702  46.955 -23.325  1.00  0.00     0.028 C 
BRANCH  27  28
HETATM   28  C3  UNL     1      -8.692  47.712 -24.167  1.00  0.00    -0.022 C 
HETATM   29  C2  UNL     1      -8.644  47.933 -25.497  1.00  0.00    -0.064 C 
HETATM   30  C1  UNL     1      -7.579  47.406 -26.421  1.00  0.00     0.045 C 
BRANCH  29  31
HETATM   31  C30 UNL     1      -9.720  48.736 -26.180  1.00  0.00     0.197 C 
BRANCH  31  32
HETATM   32  O4  UNL     1      -9.317  50.096 -26.234  1.00  0.00    -0.397 OA
HETATM   33  H48 UNL     1     -10.090  50.604 -26.523  1.00  0.00     0.209 HD
ENDBRANCH  31  32
ENDBRANCH  29  31
ENDBRANCH  27  28
ENDBRANCH  26  27
ENDBRANCH  24  26
ENDBRANCH   1  24
BRANCH  15  34
HETATM   34  O2  UNL     1      -2.636  50.706 -28.228  1.00  0.00    -0.394 OA
HETATM   35  H30 UNL     1      -3.291  49.993 -28.035  1.00  0.00     0.210 HD
ENDBRANCH  15  34
BRANCH  17  36
HETATM   36  O3  UNL     1      -0.133  52.172 -28.599  1.00  0.00    -0.395 OA
HETATM   37  H34 UNL     1      -0.788  51.465 -28.752  1.00  0.00     0.210 HD
ENDBRANCH  17  36
TORSDOF 8
ENDMDL
MODEL 4
REMARK minimizedAffinity -9.15100098
REMARK  8 active torsions:
REMARK  status: ('A' for Active; 'I' for Inactive)
REMARK    1  A    between atoms: C2_2  and  C30_33 
REMARK    2  A    between atoms: C3_3  and  C4_4 
REMARK    3  A    between atoms: C4_4  and  C5_5 
REMARK    4  A    between atoms: C5_5  and  C6_6 
REMARK    5  A    between atoms: C6_6  and  C8_8 
REMARK    6  A    between atoms: C21_22  and  O2_23 
REMARK    7  A    between atoms: C23_25  and  O3_26 
REMARK    8  A    between atoms: C30_33  and  O4_34 
ROOT
HETATM    1  C8  UNL     1      -1.498  50.379 -21.710  1.00  0.00    -0.001 C 
HETATM    2  C9  UNL     1      -0.918  49.097 -21.051  1.00  0.00     0.007 C 
HETATM    3  C10 UNL     1      -2.069  48.076 -20.966  1.00  0.00     0.015 C 
HETATM    4  C11 UNL     1      -3.344  48.893 -21.252  1.00  0.00    -0.012 C 
HETATM    5  C12 UNL     1      -3.776  49.569 -19.911  1.00  0.00     0.021 C 
HETATM    6  C13 UNL     1      -4.591  48.178 -21.749  1.00  0.00    -0.060 C 
HETATM    7  C14 UNL     1      -5.528  48.841 -22.473  1.00  0.00     0.002 C 
HETATM    8  C15 UNL     1      -5.281  50.307 -22.808  1.00  0.00     0.157 C 
HETATM    9  O1  UNL     1      -6.204  51.015 -23.226  1.00  0.00    -0.293 OA
HETATM   10  C16 UNL     1      -3.898  50.927 -22.611  1.00  0.00     0.094 C 
HETATM   11  C17 UNL     1      -2.819  49.875 -22.363  1.00  0.00    -0.022 C 
HETATM   12  C18 UNL     1      -2.526  49.161 -23.717  1.00  0.00     0.017 C 
HETATM   13  C19 UNL     1      -6.873  48.208 -22.911  1.00  0.00     0.017 C 
HETATM   14  C20 UNL     1      -7.909  48.733 -21.878  1.00  0.00     0.023 C 
HETATM   15  C21 UNL     1      -7.237  48.631 -24.386  1.00  0.00     0.134 C 
HETATM   16  C22 UNL     1      -7.795  47.514 -25.277  1.00  0.00     0.065 C 
HETATM   17  C23 UNL     1      -8.750  46.587 -24.526  1.00  0.00     0.128 C 
HETATM   18  C24 UNL     1      -8.044  45.857 -23.337  1.00  0.00    -0.017 C 
HETATM   19  C25 UNL     1      -7.590  44.466 -23.866  1.00  0.00     0.018 C 
HETATM   20  C26 UNL     1      -9.030  45.570 -22.183  1.00  0.00     0.018 C 
HETATM   21  C27 UNL     1      -6.747  46.640 -22.880  1.00  0.00     0.011 C 
HETATM   22  C28 UNL     1      -6.150  46.152 -21.546  1.00  0.00     0.011 C 
HETATM   23  C29 UNL     1      -4.757  46.738 -21.321  1.00  0.00     0.036 C 
ENDROOT
BRANCH   1  24
HETATM   24  C6  UNL     1      -0.432  51.232 -22.459  1.00  0.00    -0.014 C 
HETATM   25  C7  UNL     1       0.558  51.870 -21.477  1.00  0.00     0.010 C 
BRANCH  24  26
HETATM   26  C5  UNL     1      -0.945  52.280 -23.471  1.00  0.00     0.008 C 
BRANCH  26  27
HETATM   27  C4  UNL     1       0.186  53.139 -24.055  1.00  0.00     0.028 C 
BRANCH  27  28
HETATM   28  C3  UNL     1       1.130  52.297 -24.868  1.00  0.00    -0.022 C 
HETATM   29  C2  UNL     1       1.181  52.177 -26.210  1.00  0.00    -0.064 C 
HETATM   30  C1  UNL     1       0.300  52.924 -27.176  1.00  0.00     0.045 C 
BRANCH  29  31
HETATM   31  C30 UNL     1       2.188  51.265 -26.862  1.00  0.00     0.197 C 
BRANCH  31  32
HETATM   32  O4  UNL     1       3.309  52.035 -27.273  1.00  0.00    -0.397 OA
HETATM   33  H48 UNL     1       3.854  51.457 -27.828  1.00  0.00     0.209 HD
ENDBRANCH  31  32
ENDBRANCH  29  31
ENDBRANCH  27  28
ENDBRANCH  26  27
ENDBRANCH  24  26
ENDBRANCH   1  24
BRANCH  15  34
HETATM   34  O2  UNL     1      -8.215  49.681 -24.382  1.00  0.00    -0.394 OA
HETATM   35  H30 UNL     1      -7.717  50.509 -24.183  1.00  0.00     0.210 HD
ENDBRANCH  15  34
BRANCH  17  36
HETATM   36  O3  UNL     1      -9.909  47.311 -24.122  1.00  0.00    -0.395 OA
HETATM   37  H34 UNL     1      -9.688  48.261 -24.094  1.00  0.00     0.210 HD
ENDBRANCH  17  36
TORSDOF 8
ENDMDL
MODEL 5
REMARK minimizedAffinity -9.0629921
REMARK  8 active torsions:
REMARK  status: ('A' for Active; 'I' for Inactive)
REMARK    1  A    between atoms: C2_2  and  C30_33 
REMARK    2  A    between atoms: C3_3  and  C4_4 
REMARK    3  A    between atoms: C4_4  and  C5_5 
REMARK    4  A    between atoms: C5_5  and  C6_6 
REMARK    5  A    between atoms: C6_6  and  C8_8 
REMARK    6  A    between atoms: C21_22  and  O2_23 
REMARK    7  A    between atoms: C23_25  and  O3_26 
REMARK    8  A    between atoms: C30_33  and  O4_34 
ROOT
HETATM    1  C8  UNL     1      -1.493  51.572 -23.241  1.00  0.00    -0.001 C 
HETATM    2  C9  UNL     1      -2.497  52.720 -23.536  1.00  0.00     0.007 C 
HETATM    3  C10 UNL     1      -3.905  52.178 -23.217  1.00  0.00     0.015 C 
HETATM    4  C11 UNL     1      -3.719  50.654 -23.080  1.00  0.00    -0.012 C 
HETATM    5  C12 UNL     1      -3.756  50.048 -24.519  1.00  0.00     0.021 C 
HETATM    6  C13 UNL     1      -4.739  49.848 -22.289  1.00  0.00    -0.060 C 
HETATM    7  C14 UNL     1      -4.395  48.667 -21.718  1.00  0.00     0.002 C 
HETATM    8  C15 UNL     1      -2.955  48.187 -21.855  1.00  0.00     0.157 C 
HETATM    9  O1  UNL     1      -2.659  47.016 -21.590  1.00  0.00    -0.293 OA
HETATM   10  C16 UNL     1      -1.862  49.137 -22.343  1.00  0.00     0.094 C 
HETATM   11  C17 UNL     1      -2.322  50.593 -22.358  1.00  0.00    -0.022 C 
HETATM   12  C18 UNL     1      -2.377  51.094 -20.883  1.00  0.00     0.017 C 
HETATM   13  C19 UNL     1      -5.408  47.739 -21.000  1.00  0.00     0.017 C 
HETATM   14  C20 UNL     1      -5.756  46.648 -22.051  1.00  0.00     0.023 C 
HETATM   15  C21 UNL     1      -4.776  47.126 -19.692  1.00  0.00     0.134 C 
HETATM   16  C22 UNL     1      -5.698  47.089 -18.466  1.00  0.00     0.065 C 
HETATM   17  C23 UNL     1      -7.136  46.721 -18.823  1.00  0.00     0.128 C 
HETATM   18  C24 UNL     1      -7.782  47.760 -19.798  1.00  0.00    -0.017 C 
HETATM   19  C25 UNL     1      -8.577  48.769 -18.921  1.00  0.00     0.018 C 
HETATM   20  C26 UNL     1      -8.821  47.095 -20.727  1.00  0.00     0.018 C 
HETATM   21  C27 UNL     1      -6.672  48.576 -20.574  1.00  0.00     0.011 C 
HETATM   22  C28 UNL     1      -7.208  49.417 -21.749  1.00  0.00     0.011 C 
HETATM   23  C29 UNL     1      -6.147  50.394 -22.255  1.00  0.00     0.036 C 
ENDROOT
BRANCH   1  24
HETATM   24  C6  UNL     1      -0.065  52.073 -22.871  1.00  0.00    -0.014 C 
HETATM   25  C7  UNL     1       0.045  52.378 -21.372  1.00  0.00     0.010 C 
BRANCH  24  26
HETATM   26  C5  UNL     1       0.517  53.235 -23.705  1.00  0.00     0.008 C 
BRANCH  26  27
HETATM   27  C4  UNL     1      -0.105  53.324 -25.107  1.00  0.00     0.028 C 
BRANCH  27  28
HETATM   28  C3  UNL     1       0.884  52.905 -26.158  1.00  0.00    -0.022 C 
HETATM   29  C2  UNL     1       0.890  51.764 -26.877  1.00  0.00    -0.064 C 
HETATM   30  C1  UNL     1      -0.155  50.683 -26.787  1.00  0.00     0.045 C 
BRANCH  29  31
HETATM   31  C30 UNL     1       1.978  51.497 -27.884  1.00  0.00     0.197 C 
BRANCH  31  32
HETATM   32  O4  UNL     1       3.234  51.504 -27.219  1.00  0.00    -0.397 OA
HETATM   33  H48 UNL     1       3.914  51.498 -27.910  1.00  0.00     0.209 HD
ENDBRANCH  31  32
ENDBRANCH  29  31
ENDBRANCH  27  28
ENDBRANCH  26  27
ENDBRANCH  24  26
ENDBRANCH   1  24
BRANCH  15  34
HETATM   34  O2  UNL     1      -4.348  45.777 -19.924  1.00  0.00    -0.394 OA
HETATM   35  H30 UNL     1      -3.487  45.848 -20.401  1.00  0.00     0.210 HD
ENDBRANCH  15  34
BRANCH  17  36
HETATM   36  O3  UNL     1      -7.184  45.387 -19.325  1.00  0.00    -0.395 OA
HETATM   37  H34 UNL     1      -6.296  45.147 -19.653  1.00  0.00     0.210 HD
ENDBRANCH  17  36
TORSDOF 8
ENDMDL
MODEL 6
REMARK minimizedAffinity -8.99414921
REMARK  8 active torsions:
REMARK  status: ('A' for Active; 'I' for Inactive)
REMARK    1  A    between atoms: C2_2  and  C30_33 
REMARK    2  A    between atoms: C3_3  and  C4_4 
REMARK    3  A    between atoms: C4_4  and  C5_5 
REMARK    4  A    between atoms: C5_5  and  C6_6 
REMARK    5  A    between atoms: C6_6  and  C8_8 
REMARK    6  A    between atoms: C21_22  and  O2_23 
REMARK    7  A    between atoms: C23_25  and  O3_26 
REMARK    8  A    between atoms: C30_33  and  O4_34 
ROOT
HETATM    1  C8  UNL     1       0.204  52.859 -21.936  1.00  0.00    -0.001 C 
HETATM    2  C9  UNL     1       1.603  53.151 -21.326  1.00  0.00     0.007 C 
HETATM    3  C10 UNL     1       1.566  52.663 -19.864  1.00  0.00     0.015 C 
HETATM    4  C11 UNL     1       0.073  52.423 -19.566  1.00  0.00    -0.012 C 
HETATM    5  C12 UNL     1      -0.552  53.801 -19.175  1.00  0.00     0.021 C 
HETATM    6  C13 UNL     1      -0.319  51.481 -18.437  1.00  0.00    -0.060 C 
HETATM    7  C14 UNL     1      -1.521  50.853 -18.446  1.00  0.00     0.002 C 
HETATM    8  C15 UNL     1      -2.451  51.083 -19.631  1.00  0.00     0.157 C 
HETATM    9  O1  UNL     1      -3.641  50.754 -19.563  1.00  0.00    -0.293 OA
HETATM   10  C16 UNL     1      -1.934  51.743 -20.909  1.00  0.00     0.094 C 
HETATM   11  C17 UNL     1      -0.409  51.830 -20.941  1.00  0.00    -0.022 C 
HETATM   12  C18 UNL     1       0.147  50.401 -21.216  1.00  0.00     0.017 C 
HETATM   13  C19 UNL     1      -2.033  49.974 -17.276  1.00  0.00     0.017 C 
HETATM   14  C20 UNL     1      -2.997  50.900 -16.481  1.00  0.00     0.023 C 
HETATM   15  C21 UNL     1      -2.760  48.686 -17.821  1.00  0.00     0.134 C 
HETATM   16  C22 UNL     1      -2.438  47.381 -17.080  1.00  0.00     0.065 C 
HETATM   17  C23 UNL     1      -2.331  47.576 -15.568  1.00  0.00     0.128 C 
HETATM   18  C24 UNL     1      -1.183  48.566 -15.184  1.00  0.00    -0.017 C 
HETATM   19  C25 UNL     1       0.068  47.702 -14.858  1.00  0.00     0.018 C 
HETATM   20  C26 UNL     1      -1.513  49.340 -13.890  1.00  0.00     0.018 C 
HETATM   21  C27 UNL     1      -0.811  49.503 -16.404  1.00  0.00     0.011 C 
HETATM   22  C28 UNL     1       0.105  50.686 -16.037  1.00  0.00     0.011 C 
HETATM   23  C29 UNL     1       0.658  51.362 -17.291  1.00  0.00     0.036 C 
ENDROOT
BRANCH   1  24
HETATM   24  C6  UNL     1       0.226  52.663 -23.481  1.00  0.00    -0.014 C 
HETATM   25  C7  UNL     1       0.728  53.925 -24.194  1.00  0.00     0.010 C 
BRANCH  24  26
HETATM   26  C5  UNL     1      -1.064  52.139 -24.148  1.00  0.00     0.008 C 
BRANCH  26  27
HETATM   27  C4  UNL     1      -0.803  50.948 -25.082  1.00  0.00     0.028 C 
BRANCH  27  28
HETATM   28  C3  UNL     1       0.477  51.140 -25.848  1.00  0.00    -0.022 C 
HETATM   29  C2  UNL     1       0.623  51.599 -27.107  1.00  0.00    -0.064 C 
HETATM   30  C1  UNL     1      -0.504  52.062 -27.992  1.00  0.00     0.045 C 
BRANCH  29  31
HETATM   31  C30 UNL     1       1.990  51.710 -27.730  1.00  0.00     0.197 C 
BRANCH  31  32
HETATM   32  O4  UNL     1       2.948  51.926 -26.703  1.00  0.00    -0.397 OA
HETATM   33  H48 UNL     1       3.780  52.157 -27.145  1.00  0.00     0.209 HD
ENDBRANCH  31  32
ENDBRANCH  29  31
ENDBRANCH  27  28
ENDBRANCH  26  27
ENDBRANCH  24  26
ENDBRANCH   1  24
BRANCH  15  34
HETATM   34  O2  UNL     1      -4.184  48.849 -17.765  1.00  0.00    -0.394 OA
HETATM   35  H30 UNL     1      -4.420  49.407 -18.544  1.00  0.00     0.210 HD
ENDBRANCH  15  34
BRANCH  17  36
HETATM   36  O3  UNL     1      -3.597  47.964 -15.040  1.00  0.00    -0.395 OA
HETATM   37  H34 UNL     1      -4.129  48.351 -15.761  1.00  0.00     0.210 HD
ENDBRANCH  17  36
TORSDOF 8
ENDMDL
MODEL 7
REMARK minimizedAffinity -8.98764133
REMARK  8 active torsions:
REMARK  status: ('A' for Active; 'I' for Inactive)
REMARK    1  A    between atoms: C2_2  and  C30_33 
REMARK    2  A    between atoms: C3_3  and  C4_4 
REMARK    3  A    between atoms: C4_4  and  C5_5 
REMARK    4  A    between atoms: C5_5  and  C6_6 
REMARK    5  A    between atoms: C6_6  and  C8_8 
REMARK    6  A    between atoms: C21_22  and  O2_23 
REMARK    7  A    between atoms: C23_25  and  O3_26 
REMARK    8  A    between atoms: C30_33  and  O4_34 
ROOT
HETATM    1  C8  UNL     1      -1.141  50.112 -18.367  1.00  0.00    -0.001 C 
HETATM    2  C9  UNL     1      -2.329  49.110 -18.365  1.00  0.00     0.007 C 
HETATM    3  C10 UNL     1      -2.953  49.151 -19.774  1.00  0.00     0.015 C 
HETATM    4  C11 UNL     1      -2.345  50.400 -20.440  1.00  0.00    -0.012 C 
HETATM    5  C12 UNL     1      -3.186  51.633 -19.976  1.00  0.00     0.021 C 
HETATM    6  C13 UNL     1      -2.315  50.495 -21.958  1.00  0.00    -0.060 C 
HETATM    7  C14 UNL     1      -1.392  51.266 -22.585  1.00  0.00     0.002 C 
HETATM    8  C15 UNL     1      -0.362  52.001 -21.735  1.00  0.00     0.157 C 
HETATM    9  O1  UNL     1       0.319  52.908 -22.227  1.00  0.00    -0.293 OA
HETATM   10  C16 UNL     1      -0.174  51.645 -20.261  1.00  0.00     0.094 C 
HETATM   11  C17 UNL     1      -0.873  50.341 -19.884  1.00  0.00    -0.022 C 
HETATM   12  C18 UNL     1      -0.045  49.164 -20.481  1.00  0.00     0.017 C 
HETATM   13  C19 UNL     1      -1.376  51.501 -24.118  1.00  0.00     0.017 C 
HETATM   14  C20 UNL     1      -2.047  52.890 -24.309  1.00  0.00     0.023 C 
HETATM   15  C21 UNL     1       0.100  51.472 -24.672  1.00  0.00     0.134 C 
HETATM   16  C22 UNL     1       0.295  50.716 -25.993  1.00  0.00     0.065 C 
HETATM   17  C23 UNL     1      -0.851  50.946 -26.976  1.00  0.00     0.128 C 
HETATM   18  C24 UNL     1      -2.219  50.445 -26.410  1.00  0.00    -0.017 C 
HETATM   19  C25 UNL     1      -2.437  49.006 -26.959  1.00  0.00     0.018 C 
HETATM   20  C26 UNL     1      -3.397  51.287 -26.946  1.00  0.00     0.018 C 
HETATM   21  C27 UNL     1      -2.179  50.351 -24.831  1.00  0.00     0.011 C 
HETATM   22  C28 UNL     1      -3.556  50.138 -24.173  1.00  0.00     0.011 C 
HETATM   23  C29 UNL     1      -3.408  49.762 -22.699  1.00  0.00     0.036 C 
ENDROOT
BRANCH   1  24
HETATM   24  C6  UNL     1      -0.028  49.762 -17.335  1.00  0.00    -0.014 C 
HETATM   25  C7  UNL     1      -0.582  48.898 -16.195  1.00  0.00     0.010 C 
BRANCH  24  26
HETATM   26  C5  UNL     1       0.811  50.930 -16.774  1.00  0.00     0.008 C 
BRANCH  26  27
HETATM   27  C4  UNL     1       0.674  51.075 -15.251  1.00  0.00     0.028 C 
BRANCH  27  28
HETATM   28  C3  UNL     1       1.876  50.506 -14.550  1.00  0.00    -0.022 C 
HETATM   29  C2  UNL     1       3.150  50.943 -14.612  1.00  0.00    -0.064 C 
HETATM   30  C1  UNL     1       3.611  52.149 -15.387  1.00  0.00     0.045 C 
BRANCH  29  31
HETATM   31  C30 UNL     1       4.242  50.236 -13.853  1.00  0.00     0.197 C 
BRANCH  31  32
HETATM   32  O4  UNL     1       3.919  48.856 -13.759  1.00  0.00    -0.397 OA
HETATM   33  H48 UNL     1       4.546  48.466 -13.131  1.00  0.00     0.209 HD
ENDBRANCH  31  32
ENDBRANCH  29  31
ENDBRANCH  27  28
ENDBRANCH  26  27
ENDBRANCH  24  26
ENDBRANCH   1  24
BRANCH  15  34
HETATM   34  O2  UNL     1       0.583  52.806 -24.888  1.00  0.00    -0.394 OA
HETATM   35  H30 UNL     1       0.842  53.143 -23.997  1.00  0.00     0.210 HD
ENDBRANCH  15  34
BRANCH  17  36
HETATM   36  O3  UNL     1      -0.883  52.316 -27.370  1.00  0.00    -0.395 OA
HETATM   37  H34 UNL     1      -0.426  52.845 -26.689  1.00  0.00     0.210 HD
ENDBRANCH  17  36
TORSDOF 8
ENDMDL
MODEL 8
REMARK minimizedAffinity -8.82104683
REMARK  8 active torsions:
REMARK  status: ('A' for Active; 'I' for Inactive)
REMARK    1  A    between atoms: C2_2  and  C30_33 
REMARK    2  A    between atoms: C3_3  and  C4_4 
REMARK    3  A    between atoms: C4_4  and  C5_5 
REMARK    4  A    between atoms: C5_5  and  C6_6 
REMARK    5  A    between atoms: C6_6  and  C8_8 
REMARK    6  A    between atoms: C21_22  and  O2_23 
REMARK    7  A    between atoms: C23_25  and  O3_26 
REMARK    8  A    between atoms: C30_33  and  O4_34 
ROOT
HETATM    1  C8  UNL     1      -1.406  51.529 -26.251  1.00  0.00    -0.001 C 
HETATM    2  C9  UNL     1      -2.494  51.388 -27.352  1.00  0.00     0.007 C 
HETATM    3  C10 UNL     1      -3.588  50.461 -26.786  1.00  0.00     0.015 C 
HETATM    4  C11 UNL     1      -2.956  49.823 -25.534  1.00  0.00    -0.012 C 
HETATM    5  C12 UNL     1      -2.100  48.606 -26.012  1.00  0.00     0.021 C 
HETATM    6  C13 UNL     1      -3.860  49.263 -24.446  1.00  0.00    -0.060 C 
HETATM    7  C14 UNL     1      -3.424  49.164 -23.166  1.00  0.00     0.002 C 
HETATM    8  C15 UNL     1      -2.022  49.664 -22.837  1.00  0.00     0.157 C 
HETATM    9  O1  UNL     1      -1.487  49.358 -21.765  1.00  0.00    -0.293 OA
HETATM   10  C16 UNL     1      -1.250  50.526 -23.834  1.00  0.00     0.094 C 
HETATM   11  C17 UNL     1      -2.138  51.041 -24.966  1.00  0.00    -0.022 C 
HETATM   12  C18 UNL     1      -3.046  52.168 -24.388  1.00  0.00     0.017 C 
HETATM   13  C19 UNL     1      -4.247  48.498 -22.033  1.00  0.00     0.017 C 
HETATM   14  C20 UNL     1      -3.649  47.068 -21.902  1.00  0.00     0.023 C 
HETATM   15  C21 UNL     1      -4.122  49.320 -20.694  1.00  0.00     0.134 C 
HETATM   16  C22 UNL     1      -5.425  49.497 -19.903  1.00  0.00     0.065 C 
HETATM   17  C23 UNL     1      -6.292  48.240 -19.911  1.00  0.00     0.128 C 
HETATM   18  C24 UNL     1      -6.735  47.841 -21.357  1.00  0.00    -0.017 C 
HETATM   19  C25 UNL     1      -8.147  48.453 -21.581  1.00  0.00     0.018 C 
HETATM   20  C26 UNL     1      -6.907  46.314 -21.496  1.00  0.00     0.018 C 
HETATM   21  C27 UNL     1      -5.767  48.469 -22.439  1.00  0.00     0.011 C 
HETATM   22  C28 UNL     1      -5.956  47.907 -23.861  1.00  0.00     0.011 C 
HETATM   23  C29 UNL     1      -5.212  48.756 -24.891  1.00  0.00     0.036 C 
ENDROOT
BRANCH   1  24
HETATM   24  C6  UNL     1      -0.601  52.859 -26.337  1.00  0.00    -0.014 C 
HETATM   25  C7  UNL     1      -0.467  53.334 -27.790  1.00  0.00     0.010 C 
BRANCH  24  26
HETATM   26  C5  UNL     1       0.767  52.908 -25.622  1.00  0.00     0.008 C 
BRANCH  26  27
HETATM   27  C4  UNL     1       0.736  53.768 -24.350  1.00  0.00     0.028 C 
BRANCH  27  28
HETATM   28  C3  UNL     1       0.505  52.915 -23.134  1.00  0.00    -0.022 C 
HETATM   29  C2  UNL     1       0.907  53.156 -21.869  1.00  0.00    -0.064 C 
HETATM   30  C1  UNL     1       1.647  54.387 -21.419  1.00  0.00     0.045 C 
BRANCH  29  31
HETATM   31  C30 UNL     1       0.602  52.174 -20.767  1.00  0.00     0.197 C 
BRANCH  31  32
HETATM   32  O4  UNL     1      -0.377  52.737 -19.906  1.00  0.00    -0.397 OA
HETATM   33  H48 UNL     1      -0.426  52.161 -19.127  1.00  0.00     0.209 HD
ENDBRANCH  31  32
ENDBRANCH  29  31
ENDBRANCH  27  28
ENDBRANCH  26  27
ENDBRANCH  24  26
ENDBRANCH   1  24
BRANCH  15  34
HETATM   34  O2  UNL     1      -3.184  48.696 -19.805  1.00  0.00    -0.394 OA
HETATM   35  H30 UNL     1      -2.291  48.952 -20.137  1.00  0.00     0.210 HD
ENDBRANCH  15  34
BRANCH  17  36
HETATM   36  O3  UNL     1      -5.620  47.184 -19.227  1.00  0.00    -0.395 OA
HETATM   37  H34 UNL     1      -4.663  47.376 -19.224  1.00  0.00     0.210 HD
ENDBRANCH  17  36
TORSDOF 8
ENDMDL
MODEL 9
REMARK minimizedAffinity -8.61683178
REMARK  8 active torsions:
REMARK  status: ('A' for Active; 'I' for Inactive)
REMARK    1  A    between atoms: C2_2  and  C30_33 
REMARK    2  A    between atoms: C3_3  and  C4_4 
REMARK    3  A    between atoms: C4_4  and  C5_5 
REMARK    4  A    between atoms: C5_5  and  C6_6 
REMARK    5  A    between atoms: C6_6  and  C8_8 
REMARK    6  A    between atoms: C21_22  and  O2_23 
REMARK    7  A    between atoms: C23_25  and  O3_26 
REMARK    8  A    between atoms: C30_33  and  O4_34 
ROOT
HETATM    1  C8  UNL     1      -2.506  50.095 -22.843  1.00  0.00    -0.001 C 
HETATM    2  C9  UNL     1      -2.895  49.432 -24.193  1.00  0.00     0.007 C 
HETATM    3  C10 UNL     1      -4.043  48.447 -23.895  1.00  0.00     0.015 C 
HETATM    4  C11 UNL     1      -4.057  48.310 -22.361  1.00  0.00    -0.012 C 
HETATM    5  C12 UNL     1      -2.977  47.248 -21.976  1.00  0.00     0.021 C 
HETATM    6  C13 UNL     1      -5.328  47.844 -21.666  1.00  0.00    -0.060 C 
HETATM    7  C14 UNL     1      -5.572  48.174 -20.374  1.00  0.00     0.002 C 
HETATM    8  C15 UNL     1      -4.562  49.055 -19.648  1.00  0.00     0.157 C 
HETATM    9  O1  UNL     1      -4.600  49.163 -18.416  1.00  0.00    -0.293 OA
HETATM   10  C16 UNL     1      -3.476  49.796 -20.425  1.00  0.00     0.094 C 
HETATM   11  C17 UNL     1      -3.731  49.788 -21.931  1.00  0.00    -0.022 C 
HETATM   12  C18 UNL     1      -4.898  50.778 -22.225  1.00  0.00     0.017 C 
HETATM   13  C19 UNL     1      -6.786  47.640 -19.571  1.00  0.00     0.017 C 
HETATM   14  C20 UNL     1      -6.211  46.471 -18.722  1.00  0.00     0.023 C 
HETATM   15  C21 UNL     1      -7.407  48.777 -18.673  1.00  0.00     0.134 C 
HETATM   16  C22 UNL     1      -8.940  48.837 -18.647  1.00  0.00     0.065 C 
HETATM   17  C23 UNL     1      -9.581  47.450 -18.617  1.00  0.00     0.128 C 
HETATM   18  C24 UNL     1      -9.219  46.610 -19.885  1.00  0.00    -0.017 C 
HETATM   19  C25 UNL     1     -10.384  46.796 -20.899  1.00  0.00     0.018 C 
HETATM   20  C26 UNL     1      -9.169  45.100 -19.569  1.00  0.00     0.018 C 
HETATM   21  C27 UNL     1      -7.900  47.155 -20.570  1.00  0.00     0.011 C 
HETATM   22  C28 UNL     1      -7.317  46.226 -21.652  1.00  0.00     0.011 C 
HETATM   23  C29 UNL     1      -6.237  46.940 -22.465  1.00  0.00     0.036 C 
ENDROOT
BRANCH   1  24
HETATM   24  C6  UNL     1      -1.880  51.512 -23.002  1.00  0.00    -0.014 C 
HETATM   25  C7  UNL     1      -2.875  52.491 -23.636  1.00  0.00     0.010 C 
BRANCH  24  26
HETATM   26  C5  UNL     1      -0.506  51.605 -23.701  1.00  0.00     0.008 C 
BRANCH  26  27
HETATM   27  C4  UNL     1      -0.587  51.300 -25.204  1.00  0.00     0.028 C 
BRANCH  27  28
HETATM   28  C3  UNL     1       0.758  51.466 -25.856  1.00  0.00    -0.022 C 
HETATM   29  C2  UNL     1       1.018  51.715 -27.155  1.00  0.00    -0.064 C 
HETATM   30  C1  UNL     1      -0.026  51.922 -28.220  1.00  0.00     0.045 C 
BRANCH  29  31
HETATM   31  C30 UNL     1       2.438  51.834 -27.644  1.00  0.00     0.197 C 
BRANCH  31  32
HETATM   32  O4  UNL     1       3.303  51.211 -26.705  1.00  0.00    -0.397 OA
HETATM   33  H48 UNL     1       4.208  51.449 -26.960  1.00  0.00     0.209 HD
ENDBRANCH  31  32
ENDBRANCH  29  31
ENDBRANCH  27  28
ENDBRANCH  26  27
ENDBRANCH  24  26
ENDBRANCH   1  24
BRANCH  15  34
HETATM   34  O2  UNL     1      -6.979  48.634 -17.311  1.00  0.00    -0.394 OA
HETATM   35  H30 UNL     1      -6.063  49.001 -17.279  1.00  0.00     0.210 HD
ENDBRANCH  15  34
BRANCH  17  36
HETATM   36  O3  UNL     1      -9.245  46.788 -17.400  1.00  0.00    -0.395 OA
HETATM   37  H34 UNL     1      -8.434  47.193 -17.040  1.00  0.00     0.210 HD
ENDBRANCH  17  36
TORSDOF 8
ENDMDL
