MODEL 1
REMARK minimizedAffinity -6.30061054
REMARK CNNscore 0.871338367
REMARK CNNaffinity 7.45767403
REMARK  7 active torsions:
REMARK  status: ('A' for Active; 'I' for Inactive)
REMARK    1  A    between atoms: C2_2  and  C3_3 
REMARK    2  A    between atoms: C4_5  and  C5_6 
REMARK    3  A    between atoms: C5_6  and  C6_7 
REMARK    4  A    between atoms: C6_7  and  C7_8 
REMARK    5  A    between atoms: C7_8  and  C9_10 
REMARK    6  A    between atoms: C11_12  and  O2_13 
REMARK    7  A    between atoms: C30_33  and  O4_34 
ROOT
HETATM    1  C9  UNL     1      -1.888  15.294   4.468  1.00  0.00     0.001 C 
HETATM    2  C10 UNL     1      -2.695  15.349   3.135  1.00  0.00     0.038 C 
HETATM    3  C11 UNL     1      -1.672  15.335   1.984  1.00  0.00     0.132 C 
HETATM    4  C12 UNL     1      -0.374  14.799   2.630  1.00  0.00     0.016 C 
HETATM    5  C13 UNL     1      -0.477  13.240   2.756  1.00  0.00     0.023 C 
HETATM    6  C14 UNL     1       0.960  15.066   1.932  1.00  0.00    -0.037 C 
HETATM    7  C15 UNL     1       2.102  15.079   2.669  1.00  0.00    -0.065 C 
HETATM    8  C16 UNL     1       2.063  14.977   4.203  1.00  0.00     0.036 C 
HETATM    9  C17 UNL     1       0.682  14.971   4.897  1.00  0.00     0.015 C 
HETATM   10  C18 UNL     1      -0.418  15.563   4.006  1.00  0.00    -0.026 C 
HETATM   11  C19 UNL     1      -0.179  17.099   3.867  1.00  0.00     0.016 C 
HETATM   12  C20 UNL     1       3.504  15.214   2.014  1.00  0.00    -0.015 C 
HETATM   13  C21 UNL     1       4.019  16.637   2.338  1.00  0.00     0.020 C 
HETATM   14  C22 UNL     1       4.486  14.169   2.625  1.00  0.00     0.021 C 
HETATM   15  C23 UNL     1       5.625  13.718   1.714  1.00  0.00     0.080 C 
HETATM   16  C24 UNL     1       5.936  14.729   0.640  1.00  0.00     0.135 C 
HETATM   17  O3  UNL     1       7.076  15.175   0.510  1.00  0.00    -0.297 OA
HETATM   18  C25 UNL     1       4.785  15.103  -0.301  1.00  0.00     0.018 C 
HETATM   19  C26 UNL     1       4.840  14.113  -1.482  1.00  0.00     0.023 C 
HETATM   20  C27 UNL     1       5.018  16.513  -0.878  1.00  0.00     0.023 C 
HETATM   21  C28 UNL     1       3.427  14.938   0.467  1.00  0.00     0.016 C 
HETATM   22  C29 UNL     1       2.265  15.712  -0.170  1.00  0.00     0.043 C 
HETATM   23  C30 UNL     1       0.928  15.289   0.437  1.00  0.00     0.148 C 
ENDROOT
BRANCH   1  24
HETATM   24  C7  UNL     1      -2.522  16.180   5.576  1.00  0.00    -0.013 C 
HETATM   25  C8  UNL     1      -3.061  17.513   5.044  1.00  0.00     0.010 C 
BRANCH  24  26
HETATM   26  C6  UNL     1      -1.553  16.447   6.761  1.00  0.00     0.008 C 
BRANCH  26  27
HETATM   27  C5  UNL     1      -2.183  17.143   7.971  1.00  0.00     0.028 C 
BRANCH  27  28
HETATM   28  C4  UNL     1      -3.617  17.519   7.702  1.00  0.00    -0.017 C 
HETATM   29  C2  UNL     1      -4.451  18.213   8.497  1.00  0.00    -0.028 C 
HETATM   30  C1  UNL     1      -5.880  18.483   8.126  1.00  0.00     0.051 C 
BRANCH  29  31
HETATM   31  C3  UNL     1      -4.029  18.809   9.800  1.00  0.00     0.265 C 
HETATM   32  O1  UNL     1      -4.046  18.214  10.870  1.00  0.00    -0.302 OA
ENDBRANCH  29  31
ENDBRANCH  27  28
ENDBRANCH  26  27
ENDBRANCH  24  26
ENDBRANCH   1  24
BRANCH   3  33
HETATM   33  O2  UNL     1      -2.116  14.545   0.887  1.00  0.00    -0.394 OA
HETATM   34  H18 UNL     1      -3.017  14.840   0.665  1.00  0.00     0.210 HD
ENDBRANCH   3  33
BRANCH  23  35
HETATM   35  O4  UNL     1       0.508  14.088  -0.200  1.00  0.00    -0.391 OA
HETATM   36  H46 UNL     1      -0.457  14.023  -0.035  1.00  0.00     0.210 HD
ENDBRANCH  23  35
TORSDOF 7
ENDMDL
MODEL 2
REMARK minimizedAffinity -7.48877144
REMARK CNNscore 0.663203061
REMARK CNNaffinity 6.84687614
REMARK  7 active torsions:
REMARK  status: ('A' for Active; 'I' for Inactive)
REMARK    1  A    between atoms: C2_2  and  C3_3 
REMARK    2  A    between atoms: C4_5  and  C5_6 
REMARK    3  A    between atoms: C5_6  and  C6_7 
REMARK    4  A    between atoms: C6_7  and  C7_8 
REMARK    5  A    between atoms: C7_8  and  C9_10 
REMARK    6  A    between atoms: C11_12  and  O2_13 
REMARK    7  A    between atoms: C30_33  and  O4_34 
ROOT
HETATM    1  C9  UNL     1      -0.738   6.531  13.026  1.00  0.00     0.001 C 
HETATM    2  C10 UNL     1       0.726   6.433  13.554  1.00  0.00     0.038 C 
HETATM    3  C11 UNL     1       0.950   7.629  14.497  1.00  0.00     0.132 C 
HETATM    4  C12 UNL     1      -0.476   8.099  14.867  1.00  0.00     0.016 C 
HETATM    5  C13 UNL     1      -1.054   7.146  15.969  1.00  0.00     0.023 C 
HETATM    6  C14 UNL     1      -0.666   9.515  15.409  1.00  0.00    -0.037 C 
HETATM    7  C15 UNL     1      -1.873  10.125  15.262  1.00  0.00    -0.065 C 
HETATM    8  C16 UNL     1      -2.997   9.477  14.437  1.00  0.00     0.036 C 
HETATM    9  C17 UNL     1      -2.684   8.165  13.683  1.00  0.00     0.015 C 
HETATM   10  C18 UNL     1      -1.179   7.966  13.464  1.00  0.00    -0.026 C 
HETATM   11  C19 UNL     1      -0.681   9.015  12.422  1.00  0.00     0.016 C 
HETATM   12  C20 UNL     1      -2.181  11.508  15.899  1.00  0.00    -0.015 C 
HETATM   13  C21 UNL     1      -2.221  12.537  14.744  1.00  0.00     0.020 C 
HETATM   14  C22 UNL     1      -3.573  11.478  16.600  1.00  0.00     0.021 C 
HETATM   15  C23 UNL     1      -3.746  12.443  17.770  1.00  0.00     0.080 C 
HETATM   16  C24 UNL     1      -2.796  13.612  17.696  1.00  0.00     0.135 C 
HETATM   17  O3  UNL     1      -3.220  14.767  17.720  1.00  0.00    -0.297 OA
HETATM   18  C25 UNL     1      -1.300  13.276  17.662  1.00  0.00     0.018 C 
HETATM   19  C26 UNL     1      -0.825  13.226  19.128  1.00  0.00     0.023 C 
HETATM   20  C27 UNL     1      -0.525  14.414  16.971  1.00  0.00     0.023 C 
HETATM   21  C28 UNL     1      -1.111  11.870  16.993  1.00  0.00     0.016 C 
HETATM   22  C29 UNL     1       0.311  11.626  16.470  1.00  0.00     0.043 C 
HETATM   23  C30 UNL     1       0.515  10.158  16.101  1.00  0.00     0.148 C 
ENDROOT
BRANCH   1  24
HETATM   24  C7  UNL     1      -0.854   6.110  11.534  1.00  0.00    -0.013 C 
HETATM   25  C8  UNL     1      -1.606   4.789  11.339  1.00  0.00     0.010 C 
BRANCH  24  26
HETATM   26  C6  UNL     1       0.525   6.034  10.823  1.00  0.00     0.008 C 
BRANCH  26  27
HETATM   27  C5  UNL     1       1.087   7.378  10.350  1.00  0.00     0.028 C 
BRANCH  27  28
HETATM   28  C4  UNL     1       1.118   7.462   8.846  1.00  0.00    -0.017 C 
HETATM   29  C2  UNL     1       1.994   6.883   8.005  1.00  0.00    -0.028 C 
HETATM   30  C1  UNL     1       1.939   7.086   6.519  1.00  0.00     0.051 C 
BRANCH  29  31
HETATM   31  C3  UNL     1       3.076   5.961   8.463  1.00  0.00     0.265 C 
HETATM   32  O1  UNL     1       3.000   4.740   8.435  1.00  0.00    -0.302 OA
ENDBRANCH  29  31
ENDBRANCH  27  28
ENDBRANCH  26  27
ENDBRANCH  24  26
ENDBRANCH   1  24
BRANCH   3  33
HETATM   33  O2  UNL     1       1.730   7.273  15.633  1.00  0.00    -0.394 OA
HETATM   34  H18 UNL     1       2.528   6.822  15.304  1.00  0.00     0.210 HD
ENDBRANCH   3  33
BRANCH  23  35
HETATM   35  O4  UNL     1       0.803   9.433  17.290  1.00  0.00    -0.391 OA
HETATM   36  H46 UNL     1       1.233   8.601  16.998  1.00  0.00     0.210 HD
ENDBRANCH  23  35
TORSDOF 7
ENDMDL
MODEL 3
REMARK minimizedAffinity -9.9083662
REMARK CNNscore 0.660680354
REMARK CNNaffinity 7.35531664
REMARK  7 active torsions:
REMARK  status: ('A' for Active; 'I' for Inactive)
REMARK    1  A    between atoms: C2_2  and  C3_3 
REMARK    2  A    between atoms: C4_5  and  C5_6 
REMARK    3  A    between atoms: C5_6  and  C6_7 
REMARK    4  A    between atoms: C6_7  and  C7_8 
REMARK    5  A    between atoms: C7_8  and  C9_10 
REMARK    6  A    between atoms: C11_12  and  O2_13 
REMARK    7  A    between atoms: C30_33  and  O4_34 
ROOT
HETATM    1  C9  UNL     1       0.683   6.293  12.905  1.00  0.00     0.001 C 
HETATM    2  C10 UNL     1       1.087   7.042  14.211  1.00  0.00     0.038 C 
HETATM    3  C11 UNL     1      -0.214   7.395  14.954  1.00  0.00     0.132 C 
HETATM    4  C12 UNL     1      -1.275   6.454  14.339  1.00  0.00     0.016 C 
HETATM    5  C13 UNL     1      -1.122   5.030  14.976  1.00  0.00     0.023 C 
HETATM    6  C14 UNL     1      -2.754   6.813  14.491  1.00  0.00    -0.037 C 
HETATM    7  C15 UNL     1      -3.647   6.341  13.581  1.00  0.00    -0.065 C 
HETATM    8  C16 UNL     1      -3.182   5.579  12.329  1.00  0.00     0.036 C 
HETATM    9  C17 UNL     1      -1.663   5.461  12.071  1.00  0.00     0.015 C 
HETATM   10  C18 UNL     1      -0.861   6.531  12.822  1.00  0.00    -0.026 C 
HETATM   11  C19 UNL     1      -1.149   7.921  12.173  1.00  0.00     0.016 C 
HETATM   12  C20 UNL     1      -5.177   6.554  13.741  1.00  0.00    -0.015 C 
HETATM   13  C21 UNL     1      -5.600   7.602  12.683  1.00  0.00     0.020 C 
HETATM   14  C22 UNL     1      -5.938   5.221  13.467  1.00  0.00     0.021 C 
HETATM   15  C23 UNL     1      -7.279   5.064  14.178  1.00  0.00     0.080 C 
HETATM   16  C24 UNL     1      -7.889   6.391  14.553  1.00  0.00     0.135 C 
HETATM   17  O3  UNL     1      -9.025   6.685  14.184  1.00  0.00    -0.297 OA
HETATM   18  C25 UNL     1      -7.049   7.298  15.461  1.00  0.00     0.018 C 
HETATM   19  C26 UNL     1      -7.416   6.933  16.913  1.00  0.00     0.023 C 
HETATM   20  C27 UNL     1      -7.451   8.769  15.246  1.00  0.00     0.023 C 
HETATM   21  C28 UNL     1      -5.529   7.002  15.207  1.00  0.00     0.016 C 
HETATM   22  C29 UNL     1      -4.599   8.130  15.673  1.00  0.00     0.043 C 
HETATM   23  C30 UNL     1      -3.141   7.674  15.672  1.00  0.00     0.148 C 
ENDROOT
BRANCH   1  24
HETATM   24  C7  UNL     1       1.588   6.679  11.702  1.00  0.00    -0.013 C 
HETATM   25  C8  UNL     1       0.971   7.760  10.808  1.00  0.00     0.010 C 
BRANCH  24  26
HETATM   26  C6  UNL     1       1.989   5.454  10.835  1.00  0.00     0.008 C 
BRANCH  26  27
HETATM   27  C5  UNL     1       3.114   5.713   9.827  1.00  0.00     0.028 C 
BRANCH  27  28
HETATM   28  C4  UNL     1       2.571   5.898   8.434  1.00  0.00    -0.017 C 
HETATM   29  C2  UNL     1       2.499   7.036   7.720  1.00  0.00    -0.028 C 
HETATM   30  C1  UNL     1       1.890   7.092   6.350  1.00  0.00     0.051 C 
BRANCH  29  31
HETATM   31  C3  UNL     1       3.048   8.338   8.205  1.00  0.00     0.265 C 
HETATM   32  O1  UNL     1       3.290   9.297   7.484  1.00  0.00    -0.302 OA
ENDBRANCH  29  31
ENDBRANCH  27  28
ENDBRANCH  26  27
ENDBRANCH  24  26
ENDBRANCH   1  24
BRANCH   3  33
HETATM   33  O2  UNL     1      -0.083   7.240  16.363  1.00  0.00    -0.394 OA
HETATM   34  H18 UNL     1       0.718   7.724  16.633  1.00  0.00     0.210 HD
ENDBRANCH   3  33
BRANCH  23  35
HETATM   35  O4  UNL     1      -2.899   6.949  16.871  1.00  0.00    -0.391 OA
HETATM   36  H46 UNL     1      -1.925   6.952  16.993  1.00  0.00     0.210 HD
ENDBRANCH  23  35
TORSDOF 7
ENDMDL
MODEL 4
REMARK minimizedAffinity -7.51334333
REMARK CNNscore 0.590974331
REMARK CNNaffinity 6.80606651
REMARK  7 active torsions:
REMARK  status: ('A' for Active; 'I' for Inactive)
REMARK    1  A    between atoms: C2_2  and  C3_3 
REMARK    2  A    between atoms: C4_5  and  C5_6 
REMARK    3  A    between atoms: C5_6  and  C6_7 
REMARK    4  A    between atoms: C6_7  and  C7_8 
REMARK    5  A    between atoms: C7_8  and  C9_10 
REMARK    6  A    between atoms: C11_12  and  O2_13 
REMARK    7  A    between atoms: C30_33  and  O4_34 
ROOT
HETATM    1  C9  UNL     1     -10.275   7.842  14.990  1.00  0.00     0.001 C 
HETATM    2  C10 UNL     1     -10.034   9.374  14.825  1.00  0.00     0.038 C 
HETATM    3  C11 UNL     1     -11.336   9.983  14.273  1.00  0.00     0.132 C 
HETATM    4  C12 UNL     1     -12.416   8.921  14.580  1.00  0.00     0.016 C 
HETATM    5  C13 UNL     1     -12.827   9.035  16.088  1.00  0.00     0.023 C 
HETATM    6  C14 UNL     1     -13.728   8.958  13.794  1.00  0.00    -0.037 C 
HETATM    7  C15 UNL     1     -14.449   7.813  13.655  1.00  0.00    -0.065 C 
HETATM    8  C16 UNL     1     -13.902   6.462  14.143  1.00  0.00     0.036 C 
HETATM    9  C17 UNL     1     -12.460   6.417  14.697  1.00  0.00     0.015 C 
HETATM   10  C18 UNL     1     -11.619   7.610  14.224  1.00  0.00    -0.026 C 
HETATM   11  C19 UNL     1     -11.340   7.452  12.697  1.00  0.00     0.016 C 
HETATM   12  C20 UNL     1     -15.850   7.799  12.985  1.00  0.00    -0.015 C 
HETATM   13  C21 UNL     1     -15.683   7.123  11.603  1.00  0.00     0.020 C 
HETATM   14  C22 UNL     1     -16.848   6.961  13.842  1.00  0.00     0.021 C 
HETATM   15  C23 UNL     1     -18.317   7.356  13.724  1.00  0.00     0.080 C 
HETATM   16  C24 UNL     1     -18.617   8.072  12.431  1.00  0.00     0.135 C 
HETATM   17  O3  UNL     1     -19.495   7.659  11.674  1.00  0.00    -0.297 OA
HETATM   18  C25 UNL     1     -17.826   9.358  12.163  1.00  0.00     0.018 C 
HETATM   19  C26 UNL     1     -18.642  10.515  12.774  1.00  0.00     0.023 C 
HETATM   20  C27 UNL     1     -17.742   9.613  10.645  1.00  0.00     0.023 C 
HETATM   21  C28 UNL     1     -16.433   9.256  12.877  1.00  0.00     0.016 C 
HETATM   22  C29 UNL     1     -15.384  10.225  12.315  1.00  0.00     0.043 C 
HETATM   23  C30 UNL     1     -14.157  10.290  13.223  1.00  0.00     0.148 C 
ENDROOT
BRANCH   1  24
HETATM   24  C7  UNL     1      -9.020   7.006  14.614  1.00  0.00    -0.013 C 
HETATM   25  C8  UNL     1      -7.705   7.759  14.846  1.00  0.00     0.010 C 
BRANCH  24  26
HETATM   26  C6  UNL     1      -9.065   6.477  13.154  1.00  0.00     0.008 C 
BRANCH  26  27
HETATM   27  C5  UNL     1      -8.606   5.026  12.976  1.00  0.00     0.028 C 
BRANCH  27  28
HETATM   28  C4  UNL     1      -7.108   4.937  12.840  1.00  0.00    -0.017 C 
HETATM   29  C2  UNL     1      -6.364   3.843  12.596  1.00  0.00    -0.028 C 
HETATM   30  C1  UNL     1      -4.866   3.885  12.529  1.00  0.00     0.051 C 
BRANCH  29  31
HETATM   31  C3  UNL     1      -6.956   2.497  12.336  1.00  0.00     0.265 C 
HETATM   32  O1  UNL     1      -7.949   2.058  12.900  1.00  0.00    -0.302 OA
ENDBRANCH  29  31
ENDBRANCH  27  28
ENDBRANCH  26  27
ENDBRANCH  24  26
ENDBRANCH   1  24
BRANCH   3  33
HETATM   33  O2  UNL     1     -11.620  11.250  14.855  1.00  0.00    -0.394 OA
HETATM   34  H18 UNL     1     -10.816  11.793  14.771  1.00  0.00     0.210 HD
ENDBRANCH   3  33
BRANCH  23  35
HETATM   35  O4  UNL     1     -14.440  11.181  14.295  1.00  0.00    -0.391 OA
HETATM   36  H46 UNL     1     -13.569  11.446  14.659  1.00  0.00     0.210 HD
ENDBRANCH  23  35
TORSDOF 7
ENDMDL
MODEL 5
REMARK minimizedAffinity -8.13486004
REMARK CNNscore 0.539960444
REMARK CNNaffinity 6.58588934
REMARK  7 active torsions:
REMARK  status: ('A' for Active; 'I' for Inactive)
REMARK    1  A    between atoms: C2_2  and  C3_3 
REMARK    2  A    between atoms: C4_5  and  C5_6 
REMARK    3  A    between atoms: C5_6  and  C6_7 
REMARK    4  A    between atoms: C6_7  and  C7_8 
REMARK    5  A    between atoms: C7_8  and  C9_10 
REMARK    6  A    between atoms: C11_12  and  O2_13 
REMARK    7  A    between atoms: C30_33  and  O4_34 
ROOT
HETATM    1  C9  UNL     1      -2.201   6.072  13.043  1.00  0.00     0.001 C 
HETATM    2  C10 UNL     1      -3.157   5.505  14.137  1.00  0.00     0.038 C 
HETATM    3  C11 UNL     1      -3.209   6.539  15.276  1.00  0.00     0.132 C 
HETATM    4  C12 UNL     1      -2.696   7.847  14.632  1.00  0.00     0.016 C 
HETATM    5  C13 UNL     1      -3.855   8.490  13.795  1.00  0.00     0.023 C 
HETATM    6  C14 UNL     1      -2.180   8.963  15.541  1.00  0.00    -0.037 C 
HETATM    7  C15 UNL     1      -1.287   9.861  15.047  1.00  0.00    -0.065 C 
HETATM    8  C16 UNL     1      -0.678   9.691  13.646  1.00  0.00     0.036 C 
HETATM    9  C17 UNL     1      -1.021   8.409  12.853  1.00  0.00     0.015 C 
HETATM   10  C18 UNL     1      -1.511   7.276  13.764  1.00  0.00    -0.026 C 
HETATM   11  C19 UNL     1      -0.310   6.766  14.619  1.00  0.00     0.016 C 
HETATM   12  C20 UNL     1      -0.819  11.094  15.868  1.00  0.00    -0.015 C 
HETATM   13  C21 UNL     1       0.642  10.820  16.300  1.00  0.00     0.020 C 
HETATM   14  C22 UNL     1      -0.853  12.375  14.980  1.00  0.00     0.021 C 
HETATM   15  C23 UNL     1      -1.067  13.691  15.723  1.00  0.00     0.080 C 
HETATM   16  C24 UNL     1      -0.654  13.606  17.171  1.00  0.00     0.135 C 
HETATM   17  O3  UNL     1       0.164  14.399  17.638  1.00  0.00    -0.297 OA
HETATM   18  C25 UNL     1      -1.355  12.539  18.021  1.00  0.00     0.018 C 
HETATM   19  C26 UNL     1      -2.614  13.204  18.614  1.00  0.00     0.023 C 
HETATM   20  C27 UNL     1      -0.454  12.136  19.203  1.00  0.00     0.023 C 
HETATM   21  C28 UNL     1      -1.773  11.345  17.093  1.00  0.00     0.016 C 
HETATM   22  C29 UNL     1      -2.040  10.041  17.855  1.00  0.00     0.043 C 
HETATM   23  C30 UNL     1      -2.715   9.008  16.955  1.00  0.00     0.148 C 
ENDROOT
BRANCH   1  24
HETATM   24  C7  UNL     1      -1.330   4.963  12.391  1.00  0.00    -0.013 C 
HETATM   25  C8  UNL     1      -0.567   5.448  11.153  1.00  0.00     0.010 C 
BRANCH  24  26
HETATM   26  C6  UNL     1      -2.147   3.691  12.032  1.00  0.00     0.008 C 
BRANCH  26  27
HETATM   27  C5  UNL     1      -3.342   3.928  11.103  1.00  0.00     0.028 C 
BRANCH  27  28
HETATM   28  C4  UNL     1      -4.223   2.710  11.019  1.00  0.00    -0.017 C 
HETATM   29  C2  UNL     1      -5.472   2.559  11.498  1.00  0.00    -0.028 C 
HETATM   30  C1  UNL     1      -6.228   1.268  11.386  1.00  0.00     0.051 C 
BRANCH  29  31
HETATM   31  C3  UNL     1      -6.233   3.666  12.150  1.00  0.00     0.265 C 
HETATM   32  O1  UNL     1      -7.403   3.586  12.502  1.00  0.00    -0.302 OA
ENDBRANCH  29  31
ENDBRANCH  27  28
ENDBRANCH  26  27
ENDBRANCH  24  26
ENDBRANCH   1  24
BRANCH   3  33
HETATM   33  O2  UNL     1      -4.518   6.664  15.822  1.00  0.00    -0.394 OA
HETATM   34  H18 UNL     1      -4.828   5.767  16.035  1.00  0.00     0.210 HD
ENDBRANCH   3  33
BRANCH  23  35
HETATM   35  O4  UNL     1      -4.108   9.295  16.911  1.00  0.00    -0.391 OA
HETATM   36  H46 UNL     1      -4.542   8.468  16.611  1.00  0.00     0.210 HD
ENDBRANCH  23  35
TORSDOF 7
ENDMDL
MODEL 6
REMARK minimizedAffinity -8.77045536
REMARK CNNscore 0.499856502
REMARK CNNaffinity 6.82020426
REMARK  7 active torsions:
REMARK  status: ('A' for Active; 'I' for Inactive)
REMARK    1  A    between atoms: C2_2  and  C3_3 
REMARK    2  A    between atoms: C4_5  and  C5_6 
REMARK    3  A    between atoms: C5_6  and  C6_7 
REMARK    4  A    between atoms: C6_7  and  C7_8 
REMARK    5  A    between atoms: C7_8  and  C9_10 
REMARK    6  A    between atoms: C11_12  and  O2_13 
REMARK    7  A    between atoms: C30_33  and  O4_34 
ROOT
HETATM    1  C9  UNL     1      -6.129   7.055  14.778  1.00  0.00     0.001 C 
HETATM    2  C10 UNL     1      -5.929   8.459  15.426  1.00  0.00     0.038 C 
HETATM    3  C11 UNL     1      -4.474   8.882  15.155  1.00  0.00     0.132 C 
HETATM    4  C12 UNL     1      -4.023   7.977  13.985  1.00  0.00     0.016 C 
HETATM    5  C13 UNL     1      -4.597   8.554  12.646  1.00  0.00     0.023 C 
HETATM    6  C14 UNL     1      -2.526   7.784  13.740  1.00  0.00    -0.037 C 
HETATM    7  C15 UNL     1      -2.098   6.660  13.106  1.00  0.00    -0.065 C 
HETATM    8  C16 UNL     1      -3.070   5.519  12.764  1.00  0.00     0.036 C 
HETATM    9  C17 UNL     1      -4.529   5.631  13.261  1.00  0.00     0.015 C 
HETATM   10  C18 UNL     1      -4.670   6.612  14.432  1.00  0.00    -0.026 C 
HETATM   11  C19 UNL     1      -3.991   5.990  15.691  1.00  0.00     0.016 C 
HETATM   12  C20 UNL     1      -0.611   6.454  12.706  1.00  0.00    -0.015 C 
HETATM   13  C21 UNL     1      -0.031   5.385  13.661  1.00  0.00     0.020 C 
HETATM   14  C22 UNL     1      -0.516   5.931  11.240  1.00  0.00     0.021 C 
HETATM   15  C23 UNL     1       0.766   6.286  10.492  1.00  0.00     0.080 C 
HETATM   16  C24 UNL     1       1.915   6.573  11.425  1.00  0.00     0.135 C 
HETATM   17  O3  UNL     1       2.975   5.956  11.324  1.00  0.00    -0.297 OA
HETATM   18  C25 UNL     1       1.707   7.706  12.438  1.00  0.00     0.018 C 
HETATM   19  C26 UNL     1       2.185   9.003  11.754  1.00  0.00     0.023 C 
HETATM   20  C27 UNL     1       2.608   7.480  13.667  1.00  0.00     0.023 C 
HETATM   21  C28 UNL     1       0.178   7.814  12.772  1.00  0.00     0.016 C 
HETATM   22  C29 UNL     1      -0.112   8.552  14.085  1.00  0.00     0.043 C 
HETATM   23  C30 UNL     1      -1.598   8.880  14.212  1.00  0.00     0.148 C 
ENDROOT
BRANCH   1  24
HETATM   24  C7  UNL     1      -7.030   6.131  15.645  1.00  0.00    -0.013 C 
HETATM   25  C8  UNL     1      -7.376   4.808  14.953  1.00  0.00     0.010 C 
BRANCH  24  26
HETATM   26  C6  UNL     1      -8.336   6.831  16.112  1.00  0.00     0.008 C 
BRANCH  26  27
HETATM   27  C5  UNL     1      -9.152   7.492  14.996  1.00  0.00     0.028 C 
BRANCH  27  28
HETATM   28  C4  UNL     1     -10.477   6.802  14.803  1.00  0.00    -0.017 C 
HETATM   29  C2  UNL     1     -11.603   7.311  14.269  1.00  0.00    -0.028 C 
HETATM   30  C1  UNL     1     -12.878   6.525  14.176  1.00  0.00     0.051 C 
BRANCH  29  31
HETATM   31  C3  UNL     1     -11.681   8.684  13.687  1.00  0.00     0.265 C 
HETATM   32  O1  UNL     1     -11.638   8.931  12.489  1.00  0.00    -0.302 OA
ENDBRANCH  29  31
ENDBRANCH  27  28
ENDBRANCH  26  27
ENDBRANCH  24  26
ENDBRANCH   1  24
BRANCH   3  33
HETATM   33  O2  UNL     1      -4.369  10.270  14.857  1.00  0.00    -0.394 OA
HETATM   34  H18 UNL     1      -4.838  10.752  15.560  1.00  0.00     0.210 HD
ENDBRANCH   3  33
BRANCH  23  35
HETATM   35  O4  UNL     1      -1.861  10.061  13.464  1.00  0.00    -0.391 OA
HETATM   36  H46 UNL     1      -2.706  10.416  13.813  1.00  0.00     0.210 HD
ENDBRANCH  23  35
TORSDOF 7
ENDMDL
MODEL 7
REMARK minimizedAffinity -7.41400337
REMARK CNNscore 0.495949745
REMARK CNNaffinity 6.36614418
REMARK  7 active torsions:
REMARK  status: ('A' for Active; 'I' for Inactive)
REMARK    1  A    between atoms: C2_2  and  C3_3 
REMARK    2  A    between atoms: C4_5  and  C5_6 
REMARK    3  A    between atoms: C5_6  and  C6_7 
REMARK    4  A    between atoms: C6_7  and  C7_8 
REMARK    5  A    between atoms: C7_8  and  C9_10 
REMARK    6  A    between atoms: C11_12  and  O2_13 
REMARK    7  A    between atoms: C30_33  and  O4_34 
ROOT
HETATM    1  C9  UNL     1      -1.318   7.239  13.527  1.00  0.00     0.001 C 
HETATM    2  C10 UNL     1      -1.691   6.376  14.770  1.00  0.00     0.038 C 
HETATM    3  C11 UNL     1      -1.920   7.345  15.944  1.00  0.00     0.132 C 
HETATM    4  C12 UNL     1      -2.149   8.717  15.270  1.00  0.00     0.016 C 
HETATM    5  C13 UNL     1      -3.621   8.781  14.735  1.00  0.00     0.023 C 
HETATM    6  C14 UNL     1      -1.961   9.986  16.102  1.00  0.00    -0.037 C 
HETATM    7  C15 UNL     1      -1.652  11.151  15.473  1.00  0.00    -0.065 C 
HETATM    8  C16 UNL     1      -1.345  11.187  13.967  1.00  0.00     0.036 C 
HETATM    9  C17 UNL     1      -1.287   9.844  13.204  1.00  0.00     0.015 C 
HETATM   10  C18 UNL     1      -1.053   8.652  14.141  1.00  0.00    -0.026 C 
HETATM   11  C19 UNL     1       0.405   8.727  14.692  1.00  0.00     0.016 C 
HETATM   12  C20 UNL     1      -1.573  12.503  16.234  1.00  0.00    -0.015 C 
HETATM   13  C21 UNL     1      -0.075  12.882  16.328  1.00  0.00     0.020 C 
HETATM   14  C22 UNL     1      -2.328  13.612  15.439  1.00  0.00     0.021 C 
HETATM   15  C23 UNL     1      -2.902  14.752  16.276  1.00  0.00     0.080 C 
HETATM   16  C24 UNL     1      -2.190  14.912  17.595  1.00  0.00     0.135 C 
HETATM   17  O3  UNL     1      -1.696  15.994  17.914  1.00  0.00    -0.297 OA
HETATM   18  C25 UNL     1      -2.183  13.690  18.521  1.00  0.00     0.018 C 
HETATM   19  C26 UNL     1      -3.443  13.797  19.403  1.00  0.00     0.023 C 
HETATM   20  C27 UNL     1      -0.963  13.753  19.460  1.00  0.00     0.023 C 
HETATM   21  C28 UNL     1      -2.256  12.390  17.647  1.00  0.00     0.016 C 
HETATM   22  C29 UNL     1      -1.785  11.128  18.383  1.00  0.00     0.043 C 
HETATM   23  C30 UNL     1      -2.147   9.869  17.598  1.00  0.00     0.148 C 
ENDROOT
BRANCH   1  24
HETATM   24  C7  UNL     1      -0.228   6.564  12.648  1.00  0.00    -0.013 C 
HETATM   25  C8  UNL     1      -0.116   7.182  11.250  1.00  0.00     0.010 C 
BRANCH  24  26
HETATM   26  C6  UNL     1      -0.424   5.028  12.522  1.00  0.00     0.008 C 
BRANCH  26  27
HETATM   27  C5  UNL     1      -1.079   4.562  11.218  1.00  0.00     0.028 C 
BRANCH  27  28
HETATM   28  C4  UNL     1      -2.207   3.599  11.483  1.00  0.00    -0.017 C 
HETATM   29  C2  UNL     1      -2.199   2.261  11.348  1.00  0.00    -0.028 C 
HETATM   30  C1  UNL     1      -3.414   1.418  11.604  1.00  0.00     0.051 C 
BRANCH  29  31
HETATM   31  C3  UNL     1      -0.981   1.487  10.966  1.00  0.00     0.265 C 
HETATM   32  O1  UNL     1      -0.856   0.866   9.919  1.00  0.00    -0.302 OA
ENDBRANCH  29  31
ENDBRANCH  27  28
ENDBRANCH  26  27
ENDBRANCH  24  26
ENDBRANCH   1  24
BRANCH   3  33
HETATM   33  O2  UNL     1      -3.010   6.939  16.765  1.00  0.00    -0.394 OA
HETATM   34  H18 UNL     1      -2.866   6.004  16.994  1.00  0.00     0.210 HD
ENDBRANCH   3  33
BRANCH  23  35
HETATM   35  O4  UNL     1      -3.507   9.548  17.870  1.00  0.00    -0.391 OA
HETATM   36  H46 UNL     1      -3.611   8.603  17.629  1.00  0.00     0.210 HD
ENDBRANCH  23  35
TORSDOF 7
ENDMDL
MODEL 8
REMARK minimizedAffinity -6.35543776
REMARK CNNscore 0.475614071
REMARK CNNaffinity 6.1615634
REMARK  7 active torsions:
REMARK  status: ('A' for Active; 'I' for Inactive)
REMARK    1  A    between atoms: C2_2  and  C3_3 
REMARK    2  A    between atoms: C4_5  and  C5_6 
REMARK    3  A    between atoms: C5_6  and  C6_7 
REMARK    4  A    between atoms: C6_7  and  C7_8 
REMARK    5  A    between atoms: C7_8  and  C9_10 
REMARK    6  A    between atoms: C11_12  and  O2_13 
REMARK    7  A    between atoms: C30_33  and  O4_34 
ROOT
HETATM    1  C9  UNL     1      -5.954 -10.941   4.538  1.00  0.00     0.001 C 
HETATM    2  C10 UNL     1      -7.028  -9.859   4.863  1.00  0.00     0.038 C 
HETATM    3  C11 UNL     1      -7.621  -9.390   3.522  1.00  0.00     0.132 C 
HETATM    4  C12 UNL     1      -7.249 -10.511   2.524  1.00  0.00     0.016 C 
HETATM    5  C13 UNL     1      -8.240 -11.710   2.714  1.00  0.00     0.023 C 
HETATM    6  C14 UNL     1      -7.265 -10.199   1.027  1.00  0.00    -0.037 C 
HETATM    7  C15 UNL     1      -6.489 -10.936   0.188  1.00  0.00    -0.065 C 
HETATM    8  C16 UNL     1      -5.492 -11.973   0.730  1.00  0.00     0.036 C 
HETATM    9  C17 UNL     1      -5.310 -12.078   2.261  1.00  0.00     0.015 C 
HETATM   10  C18 UNL     1      -5.774 -10.811   2.990  1.00  0.00    -0.026 C 
HETATM   11  C19 UNL     1      -4.778  -9.654   2.667  1.00  0.00     0.016 C 
HETATM   12  C20 UNL     1      -6.551 -10.765  -1.354  1.00  0.00    -0.015 C 
HETATM   13  C21 UNL     1      -5.246 -10.051  -1.782  1.00  0.00     0.020 C 
HETATM   14  C22 UNL     1      -6.617 -12.160  -2.048  1.00  0.00     0.021 C 
HETATM   15  C23 UNL     1      -7.313 -12.193  -3.406  1.00  0.00     0.080 C 
HETATM   16  C24 UNL     1      -7.312 -10.846  -4.084  1.00  0.00     0.135 C 
HETATM   17  O3  UNL     1      -6.851 -10.715  -5.218  1.00  0.00    -0.297 OA
HETATM   18  C25 UNL     1      -7.970  -9.693  -3.316  1.00  0.00     0.018 C 
HETATM   19  C26 UNL     1      -9.458  -9.686  -3.721  1.00  0.00     0.023 C 
HETATM   20  C27 UNL     1      -7.368  -8.350  -3.772  1.00  0.00     0.023 C 
HETATM   21  C28 UNL     1      -7.840  -9.969  -1.777  1.00  0.00     0.016 C 
HETATM   22  C29 UNL     1      -8.016  -8.713  -0.913  1.00  0.00     0.043 C 
HETATM   23  C30 UNL     1      -8.170  -9.080   0.561  1.00  0.00     0.148 C 
ENDROOT
BRANCH   1  24
HETATM   24  C7  UNL     1      -4.714 -10.837   5.469  1.00  0.00    -0.013 C 
HETATM   25  C8  UNL     1      -4.173 -12.204   5.905  1.00  0.00     0.010 C 
BRANCH  24  26
HETATM   26  C6  UNL     1      -4.977  -9.959   6.724  1.00  0.00     0.008 C 
BRANCH  26  27
HETATM   27  C5  UNL     1      -5.144 -10.734   8.035  1.00  0.00     0.028 C 
BRANCH  27  28
HETATM   28  C4  UNL     1      -4.140 -10.289   9.066  1.00  0.00    -0.017 C 
HETATM   29  C2  UNL     1      -4.377  -9.644  10.223  1.00  0.00    -0.028 C 
HETATM   30  C1  UNL     1      -3.274  -9.215  11.147  1.00  0.00     0.051 C 
BRANCH  29  31
HETATM   31  C3  UNL     1      -5.751  -9.326  10.714  1.00  0.00     0.265 C 
HETATM   32  O1  UNL     1      -6.543  -8.600  10.127  1.00  0.00    -0.302 OA
ENDBRANCH  29  31
ENDBRANCH  27  28
ENDBRANCH  26  27
ENDBRANCH  24  26
ENDBRANCH   1  24
BRANCH   3  33
HETATM   33  O2  UNL     1      -9.024  -9.167   3.609  1.00  0.00    -0.394 OA
HETATM   34  H18 UNL     1      -9.177  -8.589   4.378  1.00  0.00     0.210 HD
ENDBRANCH   3  33
BRANCH  23  35
HETATM   35  O4  UNL     1      -9.523  -9.456   0.791  1.00  0.00    -0.391 OA
HETATM   36  H46 UNL     1      -9.663  -9.372   1.758  1.00  0.00     0.210 HD
ENDBRANCH  23  35
TORSDOF 7
ENDMDL
MODEL 9
REMARK minimizedAffinity -6.69447708
REMARK CNNscore 0.429337919
REMARK CNNaffinity 6.32990885
REMARK  7 active torsions:
REMARK  status: ('A' for Active; 'I' for Inactive)
REMARK    1  A    between atoms: C2_2  and  C3_3 
REMARK    2  A    between atoms: C4_5  and  C5_6 
REMARK    3  A    between atoms: C5_6  and  C6_7 
REMARK    4  A    between atoms: C6_7  and  C7_8 
REMARK    5  A    between atoms: C7_8  and  C9_10 
REMARK    6  A    between atoms: C11_12  and  O2_13 
REMARK    7  A    between atoms: C30_33  and  O4_34 
ROOT
HETATM    1  C9  UNL     1      -0.364   8.227  14.287  1.00  0.00     0.001 C 
HETATM    2  C10 UNL     1      -0.758   7.282  15.462  1.00  0.00     0.038 C 
HETATM    3  C11 UNL     1      -1.516   8.134  16.496  1.00  0.00     0.132 C 
HETATM    4  C12 UNL     1      -1.957   9.390  15.710  1.00  0.00     0.016 C 
HETATM    5  C13 UNL     1      -3.221   9.035  14.855  1.00  0.00     0.023 C 
HETATM    6  C14 UNL     1      -2.330  10.652  16.489  1.00  0.00    -0.037 C 
HETATM    7  C15 UNL     1      -2.221  11.862  15.879  1.00  0.00    -0.065 C 
HETATM    8  C16 UNL     1      -1.596  11.998  14.481  1.00  0.00     0.036 C 
HETATM    9  C17 UNL     1      -0.989  10.735  13.829  1.00  0.00     0.015 C 
HETATM   10  C18 UNL     1      -0.655   9.651  14.862  1.00  0.00    -0.026 C 
HETATM   11  C19 UNL     1       0.554  10.134  15.722  1.00  0.00     0.016 C 
HETATM   12  C20 UNL     1      -2.703  13.174  16.559  1.00  0.00    -0.015 C 
HETATM   13  C21 UNL     1      -1.436  13.963  16.966  1.00  0.00     0.020 C 
HETATM   14  C22 UNL     1      -3.532  14.028  15.552  1.00  0.00     0.021 C 
HETATM   15  C23 UNL     1      -4.581  14.949  16.170  1.00  0.00     0.080 C 
HETATM   16  C24 UNL     1      -4.268  15.294  17.604  1.00  0.00     0.135 C 
HETATM   17  O3  UNL     1      -4.185  16.468  17.963  1.00  0.00    -0.297 OA
HETATM   18  C25 UNL     1      -4.135  14.116  18.577  1.00  0.00     0.018 C 
HETATM   19  C26 UNL     1      -5.543  13.851  19.146  1.00  0.00     0.023 C 
HETATM   20  C27 UNL     1      -3.234  14.516  19.762  1.00  0.00     0.023 C 
HETATM   21  C28 UNL     1      -3.636  12.857  17.785  1.00  0.00     0.016 C 
HETATM   22  C29 UNL     1      -3.015  11.776  18.680  1.00  0.00     0.043 C 
HETATM   23  C30 UNL     1      -2.818  10.473  17.908  1.00  0.00     0.148 C 
ENDROOT
BRANCH   1  24
HETATM   24  C7  UNL     1       1.044   7.899  13.716  1.00  0.00    -0.013 C 
HETATM   25  C8  UNL     1       2.181   8.550  14.512  1.00  0.00     0.010 C 
BRANCH  24  26
HETATM   26  C6  UNL     1       1.185   8.269  12.214  1.00  0.00     0.008 C 
BRANCH  26  27
HETATM   27  C5  UNL     1       0.429   7.351  11.247  1.00  0.00     0.028 C 
BRANCH  27  28
HETATM   28  C4  UNL     1       1.340   6.815  10.174  1.00  0.00    -0.017 C 
HETATM   29  C2  UNL     1       1.452   7.234   8.901  1.00  0.00    -0.028 C 
HETATM   30  C1  UNL     1       2.374   6.578   7.915  1.00  0.00     0.051 C 
BRANCH  29  31
HETATM   31  C3  UNL     1       0.703   8.406   8.359  1.00  0.00     0.265 C 
HETATM   32  O1  UNL     1      -0.449   8.360   7.948  1.00  0.00    -0.302 OA
ENDBRANCH  29  31
ENDBRANCH  27  28
ENDBRANCH  26  27
ENDBRANCH  24  26
ENDBRANCH   1  24
BRANCH   3  33
HETATM   33  O2  UNL     1      -2.608   7.426  17.072  1.00  0.00    -0.394 OA
HETATM   34  H18 UNL     1      -2.266   6.569  17.382  1.00  0.00     0.210 HD
ENDBRANCH   3  33
BRANCH  23  35
HETATM   35  O4  UNL     1      -4.057   9.775  17.885  1.00  0.00    -0.391 OA
HETATM   36  H46 UNL     1      -3.834   8.841  17.682  1.00  0.00     0.210 HD
ENDBRANCH  23  35
TORSDOF 7
ENDMDL
