MODEL 1
REMARK minimizedAffinity -10.8409472
REMARK  6 active torsions:
REMARK  status: ('A' for Active; 'I' for Inactive)
REMARK    1  A    between atoms: C2_2  and  C3_4 
REMARK    2  A    between atoms: C4_5  and  C5_6 
REMARK    3  A    between atoms: C6_7  and  C8_9 
REMARK    4  A    between atoms: C8_9  and  O3_11 
REMARK    5  A    between atoms: C9_12  and  C10_13 
REMARK    6  A    between atoms: C30_35  and  O6_36 
ROOT
HETATM    1  C10 UNL     1      -0.806  51.886 -23.059  1.00  0.00    -0.068 C 
HETATM    2  C11 UNL     1       0.537  52.586 -22.979  1.00  0.00     0.044 C 
HETATM    3  C12 UNL     1      -1.277  51.113 -22.049  1.00  0.00    -0.001 C 
HETATM    4  C13 UNL     1      -2.539  50.266 -22.088  1.00  0.00     0.157 C 
HETATM    5  O4  UNL     1      -3.243  50.084 -23.069  1.00  0.00    -0.293 OA
HETATM    6  C14 UNL     1      -2.810  49.620 -20.757  1.00  0.00     0.090 C 
HETATM    7  C15 UNL     1      -1.976  50.514 -19.850  1.00  0.00     0.014 C 
HETATM    8  C16 UNL     1      -1.825  50.110 -18.343  1.00  0.00    -0.034 C 
HETATM    9  C17 UNL     1      -3.113  50.647 -17.659  1.00  0.00     0.016 C 
HETATM   10  C18 UNL     1      -1.746  48.590 -18.089  1.00  0.00     0.017 C 
HETATM   11  C19 UNL     1      -1.512  48.245 -16.616  1.00  0.00     0.080 C 
HETATM   12  C20 UNL     1      -0.382  49.021 -15.957  1.00  0.00     0.135 C 
HETATM   13  O5  UNL     1       0.338  48.451 -15.134  1.00  0.00    -0.297 OA
HETATM   14  C21 UNL     1      -0.237  50.531 -16.256  1.00  0.00     0.017 C 
HETATM   15  C22 UNL     1       1.227  50.933 -15.929  1.00  0.00     0.023 C 
HETATM   16  C23 UNL     1      -1.144  51.336 -15.318  1.00  0.00     0.023 C 
HETATM   17  C24 UNL     1      -0.497  50.723 -17.783  1.00  0.00     0.009 C 
HETATM   18  C25 UNL     1      -0.257  52.117 -18.382  1.00  0.00     0.007 C 
HETATM   19  C26 UNL     1      -0.017  52.048 -19.914  1.00  0.00     0.015 C 
HETATM   20  C27 UNL     1      -0.684  50.845 -20.644  1.00  0.00    -0.008 C 
HETATM   21  C28 UNL     1       0.296  49.664 -20.834  1.00  0.00     0.021 C 
ENDROOT
BRANCH   1  22
HETATM   22  C9  UNL     1      -1.477  52.139 -24.416  1.00  0.00     0.026 C 
HETATM   23  C4  UNL     1      -1.397  50.976 -25.433  1.00  0.00     0.031 C 
HETATM   24  C3  UNL     1      -2.478  51.355 -26.461  1.00  0.00     0.092 C 
HETATM   25  C30 UNL     1      -3.611  51.936 -25.605  1.00  0.00     0.130 C 
HETATM   26  C29 UNL     1      -2.944  52.608 -24.399  1.00  0.00     0.042 C 
BRANCH  23  27
HETATM   27  C5  UNL     1      -0.011  50.862 -26.037  1.00  0.00    -0.007 C 
HETATM   28  C6  UNL     1       0.742  51.859 -26.549  1.00  0.00     0.008 C 
HETATM   29  C7  UNL     1       0.357  53.308 -26.629  1.00  0.00     0.055 C 
BRANCH  28  30
HETATM   30  C8  UNL     1       2.091  51.577 -27.113  1.00  0.00     0.171 C 
HETATM   31  O2  UNL     1       2.429  51.778 -28.267  1.00  0.00    -0.646 OA
BRANCH  30  32
HETATM   32  O3  UNL     1       2.951  51.037 -26.232  1.00  0.00    -0.773 OA
HETATM   33  H10 UNL     1       3.770  50.933 -26.757  1.00  0.00     0.167 HD
ENDBRANCH  30  32
ENDBRANCH  28  30
ENDBRANCH  23  27
BRANCH  24  34
HETATM   34  C2  UNL     1      -2.931  50.187 -27.329  1.00  0.00     0.130 C 
HETATM   35  C1  UNL     1      -2.943  48.821 -26.691  1.00  0.00     0.091 C 
HETATM   36  O1  UNL     1      -3.359  50.342 -28.475  1.00  0.00    -0.298 OA
ENDBRANCH  24  34
BRANCH  25  37
HETATM   37  O6  UNL     1      -4.520  50.937 -25.161  1.00  0.00    -0.395 OA
HETATM   38  H42 UNL     1      -4.067  50.406 -24.466  1.00  0.00     0.210 HD
ENDBRANCH  25  37
ENDBRANCH   1  22
TORSDOF 6
ENDMDL
MODEL 2
REMARK minimizedAffinity -10.4326544
REMARK  6 active torsions:
REMARK  status: ('A' for Active; 'I' for Inactive)
REMARK    1  A    between atoms: C2_2  and  C3_4 
REMARK    2  A    between atoms: C4_5  and  C5_6 
REMARK    3  A    between atoms: C6_7  and  C8_9 
REMARK    4  A    between atoms: C8_9  and  O3_11 
REMARK    5  A    between atoms: C9_12  and  C10_13 
REMARK    6  A    between atoms: C30_35  and  O6_36 
ROOT
HETATM    1  C10 UNL     1      -0.477  50.864 -20.532  1.00  0.00    -0.068 C 
HETATM    2  C11 UNL     1       0.303  52.108 -20.152  1.00  0.00     0.044 C 
HETATM    3  C12 UNL     1      -1.054  50.721 -21.752  1.00  0.00    -0.001 C 
HETATM    4  C13 UNL     1      -1.965  49.580 -22.178  1.00  0.00     0.157 C 
HETATM    5  O4  UNL     1      -2.386  48.695 -21.450  1.00  0.00    -0.293 OA
HETATM    6  C14 UNL     1      -2.342  49.690 -23.631  1.00  0.00     0.090 C 
HETATM    7  C15 UNL     1      -1.233  50.608 -24.126  1.00  0.00     0.014 C 
HETATM    8  C16 UNL     1      -1.311  51.140 -25.598  1.00  0.00    -0.034 C 
HETATM    9  C17 UNL     1      -0.724  49.992 -26.465  1.00  0.00     0.016 C 
HETATM   10  C18 UNL     1      -2.739  51.437 -26.100  1.00  0.00     0.017 C 
HETATM   11  C19 UNL     1      -2.762  52.035 -27.510  1.00  0.00     0.080 C 
HETATM   12  C20 UNL     1      -1.802  53.195 -27.719  1.00  0.00     0.135 C 
HETATM   13  O5  UNL     1      -2.148  54.140 -28.431  1.00  0.00    -0.297 OA
HETATM   14  C21 UNL     1      -0.379  53.108 -27.120  1.00  0.00     0.017 C 
HETATM   15  C22 UNL     1       0.168  54.556 -27.001  1.00  0.00     0.023 C 
HETATM   16  C23 UNL     1       0.545  52.357 -28.086  1.00  0.00     0.023 C 
HETATM   17  C24 UNL     1      -0.519  52.488 -25.695  1.00  0.00     0.009 C 
HETATM   18  C25 UNL     1       0.735  52.435 -24.810  1.00  0.00     0.007 C 
HETATM   19  C26 UNL     1       0.370  52.327 -23.305  1.00  0.00     0.015 C 
HETATM   20  C27 UNL     1      -0.994  51.642 -22.994  1.00  0.00    -0.008 C 
HETATM   21  C28 UNL     1      -2.129  52.674 -22.791  1.00  0.00     0.021 C 
ENDROOT
BRANCH   1  22
HETATM   22  C9  UNL     1      -0.547  49.880 -19.358  1.00  0.00     0.026 C 
HETATM   23  C4  UNL     1      -1.162  50.434 -18.051  1.00  0.00     0.031 C 
HETATM   24  C3  UNL     1      -1.473  49.153 -17.257  1.00  0.00     0.092 C 
HETATM   25  C30 UNL     1      -1.969  48.170 -18.325  1.00  0.00     0.130 C 
HETATM   26  C29 UNL     1      -1.221  48.520 -19.618  1.00  0.00     0.042 C 
BRANCH  23  27
HETATM   27  C5  UNL     1      -0.199  51.362 -17.335  1.00  0.00    -0.007 C 
HETATM   28  C6  UNL     1       0.728  51.024 -16.413  1.00  0.00     0.008 C 
HETATM   29  C7  UNL     1       1.001  49.642 -15.896  1.00  0.00     0.055 C 
BRANCH  28  30
HETATM   30  C8  UNL     1       1.598  52.064 -15.798  1.00  0.00     0.171 C 
HETATM   31  O2  UNL     1       2.435  51.863 -14.935  1.00  0.00    -0.646 OA
BRANCH  30  32
HETATM   32  O3  UNL     1       1.377  53.307 -16.260  1.00  0.00    -0.773 OA
HETATM   33  H10 UNL     1       2.029  53.846 -15.768  1.00  0.00     0.167 HD
ENDBRANCH  30  32
ENDBRANCH  28  30
ENDBRANCH  23  27
BRANCH  24  34
HETATM   34  C2  UNL     1      -2.480  49.362 -16.132  1.00  0.00     0.130 C 
HETATM   35  C1  UNL     1      -3.100  50.732 -16.010  1.00  0.00     0.091 C 
HETATM   36  O1  UNL     1      -2.855  48.443 -15.401  1.00  0.00    -0.298 OA
ENDBRANCH  24  34
BRANCH  25  37
HETATM   37  O6  UNL     1      -3.373  48.266 -18.538  1.00  0.00    -0.395 OA
HETATM   38  H42 UNL     1      -3.548  49.108 -19.018  1.00  0.00     0.210 HD
ENDBRANCH  25  37
ENDBRANCH   1  22
TORSDOF 6
ENDMDL
MODEL 3
REMARK minimizedAffinity -9.69993401
REMARK  6 active torsions:
REMARK  status: ('A' for Active; 'I' for Inactive)
REMARK    1  A    between atoms: C2_2  and  C3_4 
REMARK    2  A    between atoms: C4_5  and  C5_6 
REMARK    3  A    between atoms: C6_7  and  C8_9 
REMARK    4  A    between atoms: C8_9  and  O3_11 
REMARK    5  A    between atoms: C9_12  and  C10_13 
REMARK    6  A    between atoms: C30_35  and  O6_36 
ROOT
HETATM    1  C10 UNL     1      -1.907  51.103 -22.316  1.00  0.00    -0.068 C 
HETATM    2  C11 UNL     1      -0.615  51.776 -22.739  1.00  0.00     0.044 C 
HETATM    3  C12 UNL     1      -2.050  50.518 -21.101  1.00  0.00    -0.001 C 
HETATM    4  C13 UNL     1      -3.250  49.705 -20.639  1.00  0.00     0.157 C 
HETATM    5  O4  UNL     1      -4.200  49.380 -21.335  1.00  0.00    -0.293 OA
HETATM    6  C14 UNL     1      -3.113  49.291 -19.199  1.00  0.00     0.090 C 
HETATM    7  C15 UNL     1      -2.078  50.302 -18.727  1.00  0.00     0.014 C 
HETATM    8  C16 UNL     1      -1.493  50.148 -17.282  1.00  0.00    -0.034 C 
HETATM    9  C17 UNL     1      -2.545  50.819 -16.355  1.00  0.00     0.016 C 
HETATM   10  C18 UNL     1      -1.306  48.689 -16.816  1.00  0.00     0.017 C 
HETATM   11  C19 UNL     1      -0.652  48.584 -15.435  1.00  0.00     0.080 C 
HETATM   12  C20 UNL     1       0.598  49.432 -15.262  1.00  0.00     0.135 C 
HETATM   13  O5  UNL     1       1.537  48.988 -14.598  1.00  0.00    -0.297 OA
HETATM   14  C21 UNL     1       0.614  50.868 -15.833  1.00  0.00     0.017 C 
HETATM   15  C22 UNL     1       2.100  51.284 -16.008  1.00  0.00     0.023 C 
HETATM   16  C23 UNL     1      -0.007  51.837 -14.820  1.00  0.00     0.023 C 
HETATM   17  C24 UNL     1      -0.075  50.813 -17.232  1.00  0.00     0.009 C 
HETATM   18  C25 UNL     1      -0.052  52.084 -18.094  1.00  0.00     0.007 C 
HETATM   19  C26 UNL     1      -0.257  51.760 -19.598  1.00  0.00     0.015 C 
HETATM   20  C27 UNL     1      -1.075  50.470 -19.900  1.00  0.00    -0.008 C 
HETATM   21  C28 UNL     1      -0.160  49.251 -20.166  1.00  0.00     0.021 C 
ENDROOT
BRANCH   1  22
HETATM   22  C9  UNL     1      -2.943  51.147 -23.447  1.00  0.00     0.026 C 
HETATM   23  C4  UNL     1      -2.378  51.016 -24.882  1.00  0.00     0.031 C 
HETATM   24  C3  UNL     1      -3.632  50.672 -25.706  1.00  0.00     0.092 C 
HETATM   25  C30 UNL     1      -4.425  49.729 -24.791  1.00  0.00     0.130 C 
HETATM   26  C29 UNL     1      -4.130  50.170 -23.352  1.00  0.00     0.042 C 
BRANCH  23  27
HETATM   27  C5  UNL     1      -1.702  52.297 -25.330  1.00  0.00    -0.007 C 
HETATM   28  C6  UNL     1      -0.630  52.414 -26.142  1.00  0.00     0.008 C 
HETATM   29  C7  UNL     1       0.125  51.284 -26.780  1.00  0.00     0.055 C 
BRANCH  28  30
HETATM   30  C8  UNL     1      -0.080  53.755 -26.483  1.00  0.00     0.171 C 
HETATM   31  O2  UNL     1       0.643  54.424 -25.764  1.00  0.00    -0.646 OA
BRANCH  30  32
HETATM   32  O3  UNL     1      -0.467  54.218 -27.684  1.00  0.00    -0.773 OA
HETATM   33  H10 UNL     1      -0.014  55.082 -27.746  1.00  0.00     0.167 HD
ENDBRANCH  30  32
ENDBRANCH  28  30
ENDBRANCH  23  27
BRANCH  24  34
HETATM   34  C2  UNL     1      -3.319  50.055 -27.064  1.00  0.00     0.130 C 
HETATM   35  C1  UNL     1      -2.998  48.582 -27.092  1.00  0.00     0.091 C 
HETATM   36  O1  UNL     1      -3.410  50.691 -28.116  1.00  0.00    -0.298 OA
ENDBRANCH  24  34
BRANCH  25  37
HETATM   37  O6  UNL     1      -4.054  48.367 -24.966  1.00  0.00    -0.395 OA
HETATM   38  H42 UNL     1      -3.161  48.246 -24.567  1.00  0.00     0.210 HD
ENDBRANCH  25  37
ENDBRANCH   1  22
TORSDOF 6
ENDMDL
MODEL 4
REMARK minimizedAffinity -9.46826363
REMARK  6 active torsions:
REMARK  status: ('A' for Active; 'I' for Inactive)
REMARK    1  A    between atoms: C2_2  and  C3_4 
REMARK    2  A    between atoms: C4_5  and  C5_6 
REMARK    3  A    between atoms: C6_7  and  C8_9 
REMARK    4  A    between atoms: C8_9  and  O3_11 
REMARK    5  A    between atoms: C9_12  and  C10_13 
REMARK    6  A    between atoms: C30_35  and  O6_36 
ROOT
HETATM    1  C10 UNL     1       6.056  65.412 -36.416  1.00  0.00    -0.068 C 
HETATM    2  C11 UNL     1       5.578  64.246 -37.259  1.00  0.00     0.044 C 
HETATM    3  C12 UNL     1       5.516  66.651 -36.528  1.00  0.00    -0.001 C 
HETATM    4  C13 UNL     1       6.015  67.908 -35.830  1.00  0.00     0.157 C 
HETATM    5  O4  UNL     1       7.030  67.992 -35.157  1.00  0.00    -0.293 OA
HETATM    6  C14 UNL     1       5.117  69.083 -36.105  1.00  0.00     0.090 C 
HETATM    7  C15 UNL     1       3.852  68.358 -36.542  1.00  0.00     0.014 C 
HETATM    8  C16 UNL     1       2.659  69.211 -37.093  1.00  0.00    -0.034 C 
HETATM    9  C17 UNL     1       1.912  69.714 -35.826  1.00  0.00     0.016 C 
HETATM   10  C18 UNL     1       3.078  70.443 -37.923  1.00  0.00     0.017 C 
HETATM   11  C19 UNL     1       1.883  71.197 -38.514  1.00  0.00     0.080 C 
HETATM   12  C20 UNL     1       0.869  70.315 -39.224  1.00  0.00     0.135 C 
HETATM   13  O5  UNL     1       0.318  70.735 -40.244  1.00  0.00    -0.297 OA
HETATM   14  C21 UNL     1       0.477  68.962 -38.589  1.00  0.00     0.017 C 
HETATM   15  C22 UNL     1      -0.105  68.066 -39.716  1.00  0.00     0.023 C 
HETATM   16  C23 UNL     1      -0.642  69.175 -37.562  1.00  0.00     0.023 C 
HETATM   17  C24 UNL     1       1.787  68.316 -38.040  1.00  0.00     0.009 C 
HETATM   18  C25 UNL     1       1.707  66.883 -37.494  1.00  0.00     0.007 C 
HETATM   19  C26 UNL     1       3.096  66.189 -37.502  1.00  0.00     0.015 C 
HETATM   20  C27 UNL     1       4.322  67.142 -37.383  1.00  0.00    -0.008 C 
HETATM   21  C28 UNL     1       4.925  67.488 -38.765  1.00  0.00     0.021 C 
ENDROOT
BRANCH   1  22
HETATM   22  C9  UNL     1       7.218  64.992 -35.508  1.00  0.00     0.026 C 
HETATM   23  C4  UNL     1       6.969  63.742 -34.630  1.00  0.00     0.031 C 
HETATM   24  C3  UNL     1       8.391  63.347 -34.195  1.00  0.00     0.092 C 
HETATM   25  C30 UNL     1       9.244  63.611 -35.443  1.00  0.00     0.130 C 
HETATM   26  C29 UNL     1       8.595  64.794 -36.171  1.00  0.00     0.042 C 
BRANCH  23  27
HETATM   27  C5  UNL     1       6.052  64.057 -33.465  1.00  0.00    -0.007 C 
HETATM   28  C6  UNL     1       4.906  63.425 -33.131  1.00  0.00     0.008 C 
HETATM   29  C7  UNL     1       4.293  62.263 -33.857  1.00  0.00     0.055 C 
BRANCH  28  30
HETATM   30  C8  UNL     1       4.115  63.865 -31.950  1.00  0.00     0.171 C 
HETATM   31  O2  UNL     1       4.322  64.874 -31.298  1.00  0.00    -0.646 OA
BRANCH  30  32
HETATM   32  O3  UNL     1       3.118  63.028 -31.614  1.00  0.00    -0.773 OA
HETATM   33  H10 UNL     1       2.706  63.470 -30.845  1.00  0.00     0.167 HD
ENDBRANCH  30  32
ENDBRANCH  28  30
ENDBRANCH  23  27
BRANCH  24  34
HETATM   34  C2  UNL     1       8.501  61.912 -33.695  1.00  0.00     0.130 C 
HETATM   35  C1  UNL     1       7.733  60.859 -34.455  1.00  0.00     0.091 C 
HETATM   36  O1  UNL     1       9.250  61.589 -32.770  1.00  0.00    -0.298 OA
ENDBRANCH  24  34
BRANCH  25  37
HETATM   37  O6  UNL     1       9.299  62.483 -36.308  1.00  0.00    -0.395 OA
HETATM   38  H42 UNL     1       8.420  62.394 -36.744  1.00  0.00     0.210 HD
ENDBRANCH  25  37
ENDBRANCH   1  22
TORSDOF 6
ENDMDL
MODEL 5
REMARK minimizedAffinity -9.44358921
REMARK  6 active torsions:
REMARK  status: ('A' for Active; 'I' for Inactive)
REMARK    1  A    between atoms: C2_2  and  C3_4 
REMARK    2  A    between atoms: C4_5  and  C5_6 
REMARK    3  A    between atoms: C6_7  and  C8_9 
REMARK    4  A    between atoms: C8_9  and  O3_11 
REMARK    5  A    between atoms: C9_12  and  C10_13 
REMARK    6  A    between atoms: C30_35  and  O6_36 
ROOT
HETATM    1  C10 UNL     1      -3.383  48.607 -23.704  1.00  0.00    -0.068 C 
HETATM    2  C11 UNL     1      -3.083  49.356 -24.988  1.00  0.00     0.044 C 
HETATM    3  C12 UNL     1      -4.629  48.163 -23.403  1.00  0.00    -0.001 C 
HETATM    4  C13 UNL     1      -5.055  47.526 -22.089  1.00  0.00     0.157 C 
HETATM    5  O4  UNL     1      -4.361  47.425 -21.090  1.00  0.00    -0.293 OA
HETATM    6  C14 UNL     1      -6.485  47.062 -22.141  1.00  0.00     0.090 C 
HETATM    7  C15 UNL     1      -6.689  46.988 -23.647  1.00  0.00     0.014 C 
HETATM    8  C16 UNL     1      -8.129  46.690 -24.189  1.00  0.00    -0.034 C 
HETATM    9  C17 UNL     1      -8.268  45.144 -24.112  1.00  0.00     0.016 C 
HETATM   10  C18 UNL     1      -9.270  47.316 -23.361  1.00  0.00     0.017 C 
HETATM   11  C19 UNL     1     -10.653  47.072 -23.974  1.00  0.00     0.080 C 
HETATM   12  C20 UNL     1     -10.749  47.386 -25.458  1.00  0.00     0.135 C 
HETATM   13  O5  UNL     1     -11.784  47.892 -25.898  1.00  0.00    -0.297 OA
HETATM   14  C21 UNL     1      -9.591  46.966 -26.390  1.00  0.00     0.017 C 
HETATM   15  C22 UNL     1      -9.675  47.845 -27.668  1.00  0.00     0.023 C 
HETATM   16  C23 UNL     1      -9.783  45.510 -26.833  1.00  0.00     0.023 C 
HETATM   17  C24 UNL     1      -8.260  47.276 -25.636  1.00  0.00     0.009 C 
HETATM   18  C25 UNL     1      -6.942  47.099 -26.405  1.00  0.00     0.007 C 
HETATM   19  C26 UNL     1      -5.794  47.930 -25.771  1.00  0.00     0.015 C 
HETATM   20  C27 UNL     1      -5.928  48.202 -24.244  1.00  0.00    -0.008 C 
HETATM   21  C28 UNL     1      -6.559  49.585 -23.953  1.00  0.00     0.021 C 
ENDROOT
BRANCH   1  22
HETATM   22  C9  UNL     1      -2.127  48.491 -22.831  1.00  0.00     0.026 C 
HETATM   23  C4  UNL     1      -1.759  49.750 -22.011  1.00  0.00     0.031 C 
HETATM   24  C3  UNL     1      -0.770  49.196 -20.970  1.00  0.00     0.092 C 
HETATM   25  C30 UNL     1      -1.355  47.827 -20.600  1.00  0.00     0.130 C 
HETATM   26  C29 UNL     1      -2.052  47.297 -21.860  1.00  0.00     0.042 C 
BRANCH  23  27
HETATM   27  C5  UNL     1      -1.159  50.829 -22.891  1.00  0.00    -0.007 C 
HETATM   28  C6  UNL     1      -1.757  51.961 -23.320  1.00  0.00     0.008 C 
HETATM   29  C7  UNL     1      -3.161  52.392 -23.011  1.00  0.00     0.055 C 
BRANCH  28  30
HETATM   30  C8  UNL     1      -1.024  52.921 -24.190  1.00  0.00     0.171 C 
HETATM   31  O2  UNL     1      -1.441  53.381 -25.240  1.00  0.00    -0.646 OA
BRANCH  30  32
HETATM   32  O3  UNL     1       0.196  53.253 -23.736  1.00  0.00    -0.773 OA
HETATM   33  H10 UNL     1       0.519  53.886 -24.408  1.00  0.00     0.167 HD
ENDBRANCH  30  32
ENDBRANCH  28  30
ENDBRANCH  23  27
BRANCH  24  34
HETATM   34  C2  UNL     1      -0.582  50.106 -19.762  1.00  0.00     0.130 C 
HETATM   35  C1  UNL     1      -0.695  51.592 -19.996  1.00  0.00     0.091 C 
HETATM   36  O1  UNL     1      -0.437  49.666 -18.619  1.00  0.00    -0.298 OA
ENDBRANCH  24  34
BRANCH  25  37
HETATM   37  O6  UNL     1      -2.288  47.908 -19.530  1.00  0.00    -0.395 OA
HETATM   38  H42 UNL     1      -3.107  48.331 -19.876  1.00  0.00     0.210 HD
ENDBRANCH  25  37
ENDBRANCH   1  22
TORSDOF 6
ENDMDL
MODEL 6
REMARK minimizedAffinity -9.39920616
REMARK  6 active torsions:
REMARK  status: ('A' for Active; 'I' for Inactive)
REMARK    1  A    between atoms: C2_2  and  C3_4 
REMARK    2  A    between atoms: C4_5  and  C5_6 
REMARK    3  A    between atoms: C6_7  and  C8_9 
REMARK    4  A    between atoms: C8_9  and  O3_11 
REMARK    5  A    between atoms: C9_12  and  C10_13 
REMARK    6  A    between atoms: C30_35  and  O6_36 
ROOT
HETATM    1  C10 UNL     1      -6.066  47.861 -26.583  1.00  0.00    -0.068 C 
HETATM    2  C11 UNL     1      -7.492  47.866 -26.066  1.00  0.00     0.044 C 
HETATM    3  C12 UNL     1      -5.021  48.265 -25.818  1.00  0.00    -0.001 C 
HETATM    4  C13 UNL     1      -3.583  48.424 -26.286  1.00  0.00     0.157 C 
HETATM    5  O4  UNL     1      -3.193  48.312 -27.438  1.00  0.00    -0.293 OA
HETATM    6  C14 UNL     1      -2.671  48.792 -25.147  1.00  0.00     0.090 C 
HETATM    7  C15 UNL     1      -3.520  48.341 -23.967  1.00  0.00     0.014 C 
HETATM    8  C16 UNL     1      -3.023  48.681 -22.521  1.00  0.00    -0.034 C 
HETATM    9  C17 UNL     1      -1.994  47.566 -22.184  1.00  0.00     0.016 C 
HETATM   10  C18 UNL     1      -2.313  50.044 -22.388  1.00  0.00     0.017 C 
HETATM   11  C19 UNL     1      -1.922  50.374 -20.945  1.00  0.00     0.080 C 
HETATM   12  C20 UNL     1      -3.037  50.179 -19.929  1.00  0.00     0.135 C 
HETATM   13  O5  UNL     1      -3.137  50.972 -18.990  1.00  0.00    -0.297 OA
HETATM   14  C21 UNL     1      -3.944  48.933 -20.042  1.00  0.00     0.017 C 
HETATM   15  C22 UNL     1      -5.261  49.244 -19.281  1.00  0.00     0.023 C 
HETATM   16  C23 UNL     1      -3.285  47.745 -19.331  1.00  0.00     0.023 C 
HETATM   17  C24 UNL     1      -4.257  48.730 -21.557  1.00  0.00     0.009 C 
HETATM   18  C25 UNL     1      -5.277  47.646 -21.939  1.00  0.00     0.007 C 
HETATM   19  C26 UNL     1      -5.890  47.907 -23.341  1.00  0.00     0.015 C 
HETATM   20  C27 UNL     1      -4.986  48.697 -24.332  1.00  0.00    -0.008 C 
HETATM   21  C28 UNL     1      -5.315  50.209 -24.340  1.00  0.00     0.021 C 
ENDROOT
BRANCH   1  22
HETATM   22  C9  UNL     1      -6.015  47.402 -28.046  1.00  0.00     0.026 C 
HETATM   23  C4  UNL     1      -7.287  47.678 -28.883  1.00  0.00     0.031 C 
HETATM   24  C3  UNL     1      -6.782  47.510 -30.327  1.00  0.00     0.092 C 
HETATM   25  C30 UNL     1      -5.379  48.130 -30.299  1.00  0.00     0.130 C 
HETATM   26  C29 UNL     1      -4.820  47.880 -28.892  1.00  0.00     0.042 C 
BRANCH  23  27
HETATM   27  C5  UNL     1      -8.404  46.718 -28.525  1.00  0.00    -0.007 C 
HETATM   28  C6  UNL     1      -8.386  45.371 -28.619  1.00  0.00     0.008 C 
HETATM   29  C7  UNL     1      -7.240  44.533 -29.104  1.00  0.00     0.055 C 
BRANCH  28  30
HETATM   30  C8  UNL     1      -9.578  44.568 -28.228  1.00  0.00     0.171 C 
HETATM   31  O2  UNL     1      -9.548  43.445 -27.756  1.00  0.00    -0.646 OA
BRANCH  30  32
HETATM   32  O3  UNL     1     -10.752  45.181 -28.461  1.00  0.00    -0.773 OA
HETATM   33  H10 UNL     1     -11.409  44.531 -28.140  1.00  0.00     0.167 HD
ENDBRANCH  30  32
ENDBRANCH  28  30
ENDBRANCH  23  27
BRANCH  24  34
HETATM   34  C2  UNL     1      -7.691  48.149 -31.369  1.00  0.00     0.130 C 
HETATM   35  C1  UNL     1      -8.787  49.053 -30.864  1.00  0.00     0.091 C 
HETATM   36  O1  UNL     1      -7.501  48.021 -32.581  1.00  0.00    -0.298 OA
ENDBRANCH  24  34
BRANCH  25  37
HETATM   37  O6  UNL     1      -5.399  49.526 -30.570  1.00  0.00    -0.395 OA
HETATM   38  H42 UNL     1      -5.777  49.980 -29.782  1.00  0.00     0.210 HD
ENDBRANCH  25  37
ENDBRANCH   1  22
TORSDOF 6
ENDMDL
MODEL 7
REMARK minimizedAffinity -9.35045815
REMARK  6 active torsions:
REMARK  status: ('A' for Active; 'I' for Inactive)
REMARK    1  A    between atoms: C2_2  and  C3_4 
REMARK    2  A    between atoms: C4_5  and  C5_6 
REMARK    3  A    between atoms: C6_7  and  C8_9 
REMARK    4  A    between atoms: C8_9  and  O3_11 
REMARK    5  A    between atoms: C9_12  and  C10_13 
REMARK    6  A    between atoms: C30_35  and  O6_36 
ROOT
HETATM    1  C10 UNL     1      -2.346  50.468 -23.642  1.00  0.00    -0.068 C 
HETATM    2  C11 UNL     1      -2.362  50.892 -25.097  1.00  0.00     0.044 C 
HETATM    3  C12 UNL     1      -3.420  49.888 -23.049  1.00  0.00    -0.001 C 
HETATM    4  C13 UNL     1      -3.550  49.554 -21.571  1.00  0.00     0.157 C 
HETATM    5  O4  UNL     1      -2.750  49.858 -20.700  1.00  0.00    -0.293 OA
HETATM    6  C14 UNL     1      -4.835  48.826 -21.282  1.00  0.00     0.090 C 
HETATM    7  C15 UNL     1      -5.173  48.317 -22.676  1.00  0.00     0.014 C 
HETATM    8  C16 UNL     1      -6.557  47.613 -22.894  1.00  0.00    -0.034 C 
HETATM    9  C17 UNL     1      -6.332  46.147 -22.431  1.00  0.00     0.016 C 
HETATM   10  C18 UNL     1      -7.717  48.204 -22.066  1.00  0.00     0.017 C 
HETATM   11  C19 UNL     1      -9.064  47.545 -22.375  1.00  0.00     0.080 C 
HETATM   12  C20 UNL     1      -9.385  47.429 -23.856  1.00  0.00     0.135 C 
HETATM   13  O5  UNL     1     -10.548  47.589 -24.233  1.00  0.00    -0.297 OA
HETATM   14  C21 UNL     1      -8.266  47.007 -24.835  1.00  0.00     0.017 C 
HETATM   15  C22 UNL     1      -8.682  47.481 -26.254  1.00  0.00     0.023 C 
HETATM   16  C23 UNL     1      -8.168  45.477 -24.884  1.00  0.00     0.023 C 
HETATM   17  C24 UNL     1      -6.969  47.757 -24.399  1.00  0.00     0.009 C 
HETATM   18  C25 UNL     1      -5.733  47.640 -25.304  1.00  0.00     0.007 C 
HETATM   19  C26 UNL     1      -4.744  48.814 -25.077  1.00  0.00     0.015 C 
HETATM   20  C27 UNL     1      -4.775  49.452 -23.656  1.00  0.00    -0.008 C 
HETATM   21  C28 UNL     1      -5.670  50.713 -23.605  1.00  0.00     0.021 C 
ENDROOT
BRANCH   1  22
HETATM   22  C9  UNL     1      -1.012  50.833 -22.978  1.00  0.00     0.026 C 
HETATM   23  C4  UNL     1      -0.887  52.291 -22.476  1.00  0.00     0.031 C 
HETATM   24  C3  UNL     1       0.321  52.216 -21.525  1.00  0.00     0.092 C 
HETATM   25  C30 UNL     1       0.149  50.865 -20.819  1.00  0.00     0.130 C 
HETATM   26  C29 UNL     1      -0.527  49.929 -21.829  1.00  0.00     0.042 C 
BRANCH  23  27
HETATM   27  C5  UNL     1      -0.684  53.258 -23.626  1.00  0.00    -0.007 C 
HETATM   28  C6  UNL     1       0.194  53.142 -24.645  1.00  0.00     0.008 C 
HETATM   29  C7  UNL     1       1.166  52.018 -24.853  1.00  0.00     0.055 C 
BRANCH  28  30
HETATM   30  C8  UNL     1       0.272  54.190 -25.700  1.00  0.00     0.171 C 
HETATM   31  O2  UNL     1       0.174  55.391 -25.510  1.00  0.00    -0.646 OA
BRANCH  30  32
HETATM   32  O3  UNL     1       0.445  53.707 -26.942  1.00  0.00    -0.773 OA
HETATM   33  H10 UNL     1       0.486  54.515 -27.491  1.00  0.00     0.167 HD
ENDBRANCH  30  32
ENDBRANCH  28  30
ENDBRANCH  23  27
BRANCH  24  34
HETATM   34  C2  UNL     1       0.406  53.386 -20.553  1.00  0.00     0.130 C 
HETATM   35  C1  UNL     1      -0.256  53.212 -19.208  1.00  0.00     0.091 C 
HETATM   36  O1  UNL     1       1.060  54.403 -20.796  1.00  0.00    -0.298 OA
ENDBRANCH  24  34
BRANCH  25  37
HETATM   37  O6  UNL     1      -0.647  50.966 -19.645  1.00  0.00    -0.395 OA
HETATM   38  H42 UNL     1      -1.581  51.107 -19.926  1.00  0.00     0.210 HD
ENDBRANCH  25  37
ENDBRANCH   1  22
TORSDOF 6
ENDMDL
MODEL 8
REMARK minimizedAffinity -9.16012573
REMARK  6 active torsions:
REMARK  status: ('A' for Active; 'I' for Inactive)
REMARK    1  A    between atoms: C2_2  and  C3_4 
REMARK    2  A    between atoms: C4_5  and  C5_6 
REMARK    3  A    between atoms: C6_7  and  C8_9 
REMARK    4  A    between atoms: C8_9  and  O3_11 
REMARK    5  A    between atoms: C9_12  and  C10_13 
REMARK    6  A    between atoms: C30_35  and  O6_36 
ROOT
HETATM    1  C10 UNL     1      -5.694  48.193 -26.107  1.00  0.00    -0.068 C 
HETATM    2  C11 UNL     1      -5.479  47.684 -27.519  1.00  0.00     0.044 C 
HETATM    3  C12 UNL     1      -4.759  48.932 -25.458  1.00  0.00    -0.001 C 
HETATM    4  C13 UNL     1      -4.823  49.370 -24.003  1.00  0.00     0.157 C 
HETATM    5  O4  UNL     1      -5.671  49.029 -23.194  1.00  0.00    -0.293 OA
HETATM    6  C14 UNL     1      -3.665  50.262 -23.646  1.00  0.00     0.090 C 
HETATM    7  C15 UNL     1      -3.241  50.720 -25.034  1.00  0.00     0.014 C 
HETATM    8  C16 UNL     1      -1.930  51.568 -25.169  1.00  0.00    -0.034 C 
HETATM    9  C17 UNL     1      -2.364  53.023 -24.840  1.00  0.00     0.016 C 
HETATM   10  C18 UNL     1      -0.804  51.171 -24.191  1.00  0.00     0.017 C 
HETATM   11  C19 UNL     1       0.486  51.965 -24.416  1.00  0.00     0.080 C 
HETATM   12  C20 UNL     1       0.946  52.027 -25.864  1.00  0.00     0.135 C 
HETATM   13  O5  UNL     1       2.152  51.982 -26.113  1.00  0.00    -0.297 OA
HETATM   14  C21 UNL     1      -0.105  52.251 -26.975  1.00  0.00     0.017 C 
HETATM   15  C22 UNL     1       0.507  51.742 -28.308  1.00  0.00     0.023 C 
HETATM   16  C23 UNL     1      -0.368  53.752 -27.146  1.00  0.00     0.023 C 
HETATM   17  C24 UNL     1      -1.349  51.381 -26.612  1.00  0.00     0.009 C 
HETATM   18  C25 UNL     1      -2.489  51.294 -27.639  1.00  0.00     0.007 C 
HETATM   19  C26 UNL     1      -3.358  50.027 -27.422  1.00  0.00     0.015 C 
HETATM   20  C27 UNL     1      -3.405  49.487 -25.962  1.00  0.00    -0.008 C 
HETATM   21  C28 UNL     1      -2.386  48.347 -25.731  1.00  0.00     0.021 C 
ENDROOT
BRANCH   1  22
HETATM   22  C9  UNL     1      -7.041  47.715 -25.551  1.00  0.00     0.026 C 
HETATM   23  C4  UNL     1      -7.704  46.542 -26.312  1.00  0.00     0.031 C 
HETATM   24  C3  UNL     1      -8.755  46.040 -25.305  1.00  0.00     0.092 C 
HETATM   25  C30 UNL     1      -8.048  46.156 -23.948  1.00  0.00     0.130 C 
HETATM   26  C29 UNL     1      -7.097  47.355 -24.054  1.00  0.00     0.042 C 
BRANCH  23  27
HETATM   27  C5  UNL     1      -8.306  47.002 -27.624  1.00  0.00    -0.007 C 
HETATM   28  C6  UNL     1      -9.405  47.769 -27.795  1.00  0.00     0.008 C 
HETATM   29  C7  UNL     1     -10.271  48.331 -26.706  1.00  0.00     0.055 C 
BRANCH  28  30
HETATM   30  C8  UNL     1      -9.870  48.130 -29.163  1.00  0.00     0.171 C 
HETATM   31  O2  UNL     1      -9.171  48.159 -30.161  1.00  0.00    -0.646 OA
BRANCH  30  32
HETATM   32  O3  UNL     1     -11.171  48.462 -29.229  1.00  0.00    -0.773 OA
HETATM   33  H10 UNL     1     -11.303  48.653 -30.180  1.00  0.00     0.167 HD
ENDBRANCH  30  32
ENDBRANCH  28  30
ENDBRANCH  23  27
BRANCH  24  34
HETATM   34  C2  UNL     1      -9.253  44.629 -25.594  1.00  0.00     0.130 C 
HETATM   35  C1  UNL     1      -8.371  43.750 -26.446  1.00  0.00     0.091 C 
HETATM   36  O1  UNL     1     -10.282  44.175 -25.090  1.00  0.00    -0.298 OA
ENDBRANCH  24  34
BRANCH  25  37
HETATM   37  O6  UNL     1      -7.313  44.984 -23.619  1.00  0.00    -0.395 OA
HETATM   38  H42 UNL     1      -6.517  44.955 -24.199  1.00  0.00     0.210 HD
ENDBRANCH  25  37
ENDBRANCH   1  22
TORSDOF 6
ENDMDL
MODEL 9
REMARK minimizedAffinity -9.04298782
REMARK  6 active torsions:
REMARK  status: ('A' for Active; 'I' for Inactive)
REMARK    1  A    between atoms: C2_2  and  C3_4 
REMARK    2  A    between atoms: C4_5  and  C5_6 
REMARK    3  A    between atoms: C6_7  and  C8_9 
REMARK    4  A    between atoms: C8_9  and  O3_11 
REMARK    5  A    between atoms: C9_12  and  C10_13 
REMARK    6  A    between atoms: C30_35  and  O6_36 
ROOT
HETATM    1  C10 UNL     1      -0.412  50.728 -17.893  1.00  0.00    -0.068 C 
HETATM    2  C11 UNL     1      -0.957  49.390 -17.431  1.00  0.00     0.044 C 
HETATM    3  C12 UNL     1      -0.460  51.115 -19.193  1.00  0.00    -0.001 C 
HETATM    4  C13 UNL     1       0.177  52.368 -19.774  1.00  0.00     0.157 C 
HETATM    5  O4  UNL     1       0.906  53.141 -19.171  1.00  0.00    -0.293 OA
HETATM    6  C14 UNL     1      -0.162  52.533 -21.230  1.00  0.00     0.090 C 
HETATM    7  C15 UNL     1      -1.394  51.644 -21.321  1.00  0.00     0.014 C 
HETATM    8  C16 UNL     1      -2.015  51.378 -22.735  1.00  0.00    -0.034 C 
HETATM    9  C17 UNL     1      -2.911  52.617 -23.013  1.00  0.00     0.016 C 
HETATM   10  C18 UNL     1      -0.987  51.264 -23.879  1.00  0.00     0.017 C 
HETATM   11  C19 UNL     1      -1.630  50.918 -25.225  1.00  0.00     0.080 C 
HETATM   12  C20 UNL     1      -2.604  49.751 -25.179  1.00  0.00     0.135 C 
HETATM   13  O5  UNL     1      -2.646  48.967 -26.129  1.00  0.00    -0.297 OA
HETATM   14  C21 UNL     1      -3.587  49.644 -23.992  1.00  0.00     0.017 C 
HETATM   15  C22 UNL     1      -4.050  48.164 -23.900  1.00  0.00     0.023 C 
HETATM   16  C23 UNL     1      -4.837  50.488 -24.273  1.00  0.00     0.023 C 
HETATM   17  C24 UNL     1      -2.793  50.018 -22.702  1.00  0.00     0.009 C 
HETATM   18  C25 UNL     1      -3.496  49.838 -21.348  1.00  0.00     0.007 C 
HETATM   19  C26 UNL     1      -2.475  49.710 -20.186  1.00  0.00     0.015 C 
HETATM   20  C27 UNL     1      -1.107  50.418 -20.414  1.00  0.00    -0.008 C 
HETATM   21  C28 UNL     1      -0.029  49.442 -20.944  1.00  0.00     0.021 C 
ENDROOT
BRANCH   1  22
HETATM   22  C9  UNL     1       0.213  51.500 -16.724  1.00  0.00     0.026 C 
HETATM   23  C4  UNL     1       0.695  50.639 -15.531  1.00  0.00     0.031 C 
HETATM   24  C3  UNL     1       1.615  51.608 -14.768  1.00  0.00     0.092 C 
HETATM   25  C30 UNL     1       2.341  52.377 -15.880  1.00  0.00     0.130 C 
HETATM   26  C29 UNL     1       1.360  52.472 -17.055  1.00  0.00     0.042 C 
BRANCH  23  27
HETATM   27  C5  UNL     1      -0.472  50.142 -14.700  1.00  0.00    -0.007 C 
HETATM   28  C6  UNL     1      -1.152  50.826 -13.755  1.00  0.00     0.008 C 
HETATM   29  C7  UNL     1      -0.890  52.240 -13.324  1.00  0.00     0.055 C 
BRANCH  28  30
HETATM   30  C8  UNL     1      -2.278  50.186 -13.020  1.00  0.00     0.171 C 
HETATM   31  O2  UNL     1      -2.295  49.948 -11.825  1.00  0.00    -0.646 OA
BRANCH  30  32
HETATM   32  O3  UNL     1      -3.320  49.850 -13.799  1.00  0.00    -0.773 OA
HETATM   33  H10 UNL     1      -3.957  49.464 -13.164  1.00  0.00     0.167 HD
ENDBRANCH  30  32
ENDBRANCH  28  30
ENDBRANCH  23  27
BRANCH  24  34
HETATM   34  C2  UNL     1       2.571  50.913 -13.807  1.00  0.00     0.130 C 
HETATM   35  C1  UNL     1       2.853  51.605 -12.496  1.00  0.00     0.091 C 
HETATM   36  O1  UNL     1       3.032  49.791 -14.028  1.00  0.00    -0.298 OA
ENDBRANCH  24  34
BRANCH  25  37
HETATM   37  O6  UNL     1       3.534  51.725 -16.298  1.00  0.00    -0.395 OA
HETATM   38  H42 UNL     1       3.276  50.926 -16.813  1.00  0.00     0.210 HD
ENDBRANCH  25  37
ENDBRANCH   1  22
TORSDOF 6
ENDMDL
