MODEL 1
REMARK minimizedAffinity -9.48828316
REMARK  4 active torsions:
REMARK  status: ('A' for Active; 'I' for Inactive)
REMARK    1  A    between atoms: C4_4  and  C5_5 
REMARK    2  A    between atoms: C5_5  and  C6_6 
REMARK    3  A    between atoms: C6_6  and  C7_7 
REMARK    4  A    between atoms: C7_7  and  C9_9 
ROOT
HETATM    1  C9  UNL     1      -1.571  52.546 -26.183  1.00  0.00    -0.002 C 
HETATM    2  C10 UNL     1      -2.376  52.160 -27.456  1.00  0.00     0.006 C 
HETATM    3  C11 UNL     1      -3.135  50.845 -27.132  1.00  0.00     0.011 C 
HETATM    4  C12 UNL     1      -3.005  50.678 -25.605  1.00  0.00    -0.032 C 
HETATM    5  C13 UNL     1      -4.121  51.577 -24.980  1.00  0.00     0.016 C 
HETATM    6  C14 UNL     1      -3.138  49.230 -25.017  1.00  0.00     0.004 C 
HETATM    7  C15 UNL     1      -4.451  48.530 -25.409  1.00  0.00     0.007 C 
HETATM    8  C16 UNL     1      -5.476  48.213 -24.317  1.00  0.00     0.007 C 
HETATM    9  C17 UNL     1      -5.393  49.057 -23.035  1.00  0.00     0.010 C 
HETATM   10  C18 UNL     1      -6.412  48.576 -21.941  1.00  0.00     0.018 C 
HETATM   11  C19 UNL     1      -7.863  48.771 -22.426  1.00  0.00     0.023 C 
HETATM   12  C20 UNL     1      -6.247  47.098 -21.541  1.00  0.00     0.023 C 
HETATM   13  C21 UNL     1      -6.195  49.432 -20.685  1.00  0.00     0.135 C 
HETATM   14  O1  UNL     1      -7.099  50.045 -20.125  1.00  0.00    -0.297 OA
HETATM   15  C22 UNL     1      -4.790  49.477 -20.141  1.00  0.00     0.080 C 
HETATM   16  C23 UNL     1      -3.864  49.999 -21.225  1.00  0.00     0.018 C 
HETATM   17  C24 UNL     1      -3.956  49.162 -22.492  1.00  0.00    -0.026 A 
HETATM   18  C25 UNL     1      -3.009  48.000 -22.678  1.00  0.00     0.021 A 
HETATM   19  C26 UNL     1      -2.798  49.253 -23.506  1.00  0.00    -0.027 A 
HETATM   20  C27 UNL     1      -1.471  49.969 -23.181  1.00  0.00     0.011 C 
HETATM   21  C28 UNL     1      -1.283  51.326 -23.878  1.00  0.00     0.011 C 
HETATM   22  C29 UNL     1      -1.533  51.205 -25.388  1.00  0.00    -0.032 C 
HETATM   23  C30 UNL     1      -0.428  50.283 -25.989  1.00  0.00     0.016 C 
ENDROOT
BRANCH   1  24
HETATM   24  C7  UNL     1      -0.231  53.314 -26.397  1.00  0.00    -0.014 C 
HETATM   25  C8  UNL     1      -0.158  54.162 -27.672  1.00  0.00     0.010 C 
BRANCH  24  26
HETATM   26  C6  UNL     1       0.061  54.200 -25.156  1.00  0.00     0.008 C 
BRANCH  26  27
HETATM   27  C5  UNL     1       1.110  53.610 -24.206  1.00  0.00     0.028 C 
BRANCH  27  28
HETATM   28  C4  UNL     1       0.933  54.125 -22.804  1.00  0.00    -0.025 C 
HETATM   29  C2  UNL     1       1.018  53.420 -21.658  1.00  0.00    -0.091 C 
HETATM   30  C1  UNL     1       1.269  51.934 -21.559  1.00  0.00     0.042 C 
HETATM   31  C3  UNL     1       0.850  54.104 -20.327  1.00  0.00     0.042 C 
ENDBRANCH  27  28
ENDBRANCH  26  27
ENDBRANCH  24  26
ENDBRANCH   1  24
TORSDOF 4
ENDMDL
MODEL 2
REMARK minimizedAffinity -9.13696671
REMARK  4 active torsions:
REMARK  status: ('A' for Active; 'I' for Inactive)
REMARK    1  A    between atoms: C4_4  and  C5_5 
REMARK    2  A    between atoms: C5_5  and  C6_6 
REMARK    3  A    between atoms: C6_6  and  C7_7 
REMARK    4  A    between atoms: C7_7  and  C9_9 
ROOT
HETATM    1  C9  UNL     1      -0.610  51.089 -24.050  1.00  0.00    -0.002 C 
HETATM    2  C10 UNL     1       0.390  52.278 -24.073  1.00  0.00     0.006 C 
HETATM    3  C11 UNL     1       0.365  52.920 -22.660  1.00  0.00     0.011 C 
HETATM    4  C12 UNL     1      -0.395  51.908 -21.779  1.00  0.00    -0.032 C 
HETATM    5  C13 UNL     1       0.655  50.828 -21.363  1.00  0.00     0.016 C 
HETATM    6  C14 UNL     1      -1.096  52.451 -20.485  1.00  0.00     0.004 C 
HETATM    7  C15 UNL     1      -0.138  53.198 -19.540  1.00  0.00     0.007 C 
HETATM    8  C16 UNL     1       0.166  52.596 -18.166  1.00  0.00     0.007 C 
HETATM    9  C17 UNL     1      -0.052  51.082 -18.019  1.00  0.00     0.010 C 
HETATM   10  C18 UNL     1       0.181  50.589 -16.547  1.00  0.00     0.018 C 
HETATM   11  C19 UNL     1       1.651  50.799 -16.129  1.00  0.00     0.023 C 
HETATM   12  C20 UNL     1      -0.707  51.294 -15.504  1.00  0.00     0.023 C 
HETATM   13  C21 UNL     1      -0.134  49.087 -16.496  1.00  0.00     0.135 C 
HETATM   14  O1  UNL     1       0.650  48.250 -16.059  1.00  0.00    -0.297 OA
HETATM   15  C22 UNL     1      -1.491  48.671 -17.003  1.00  0.00     0.080 C 
HETATM   16  C23 UNL     1      -1.634  49.128 -18.445  1.00  0.00     0.018 C 
HETATM   17  C24 UNL     1      -1.411  50.627 -18.582  1.00  0.00    -0.026 A 
HETATM   18  C25 UNL     1      -2.596  51.560 -18.496  1.00  0.00     0.021 A 
HETATM   19  C26 UNL     1      -1.948  51.326 -19.847  1.00  0.00    -0.027 A 
HETATM   20  C27 UNL     1      -2.885  50.617 -20.847  1.00  0.00     0.011 C 
HETATM   21  C28 UNL     1      -2.225  50.217 -22.176  1.00  0.00     0.011 C 
HETATM   22  C29 UNL     1      -1.488  51.409 -22.803  1.00  0.00    -0.032 C 
HETATM   23  C30 UNL     1      -2.548  52.487 -23.184  1.00  0.00     0.016 C 
ENDROOT
BRANCH   1  24
HETATM   24  C7  UNL     1      -1.330  50.742 -25.389  1.00  0.00    -0.014 C 
HETATM   25  C8  UNL     1      -0.424  50.676 -26.624  1.00  0.00     0.010 C 
BRANCH  24  26
HETATM   26  C6  UNL     1      -2.103  49.405 -25.231  1.00  0.00     0.008 C 
BRANCH  26  27
HETATM   27  C5  UNL     1      -2.799  48.935 -26.514  1.00  0.00     0.028 C 
BRANCH  27  28
HETATM   28  C4  UNL     1      -4.193  48.445 -26.234  1.00  0.00    -0.025 C 
HETATM   29  C2  UNL     1      -5.135  48.103 -27.137  1.00  0.00    -0.091 C 
HETATM   30  C1  UNL     1      -4.985  48.191 -28.636  1.00  0.00     0.042 C 
HETATM   31  C3  UNL     1      -6.476  47.592 -26.682  1.00  0.00     0.042 C 
ENDBRANCH  27  28
ENDBRANCH  26  27
ENDBRANCH  24  26
ENDBRANCH   1  24
TORSDOF 4
ENDMDL
MODEL 3
REMARK minimizedAffinity -9.12245083
REMARK  4 active torsions:
REMARK  status: ('A' for Active; 'I' for Inactive)
REMARK    1  A    between atoms: C4_4  and  C5_5 
REMARK    2  A    between atoms: C5_5  and  C6_6 
REMARK    3  A    between atoms: C6_6  and  C7_7 
REMARK    4  A    between atoms: C7_7  and  C9_9 
ROOT
HETATM    1  C9  UNL     1      -1.224  49.216 -18.270  1.00  0.00    -0.002 C 
HETATM    2  C10 UNL     1      -2.287  48.083 -18.322  1.00  0.00     0.006 C 
HETATM    3  C11 UNL     1      -3.185  48.360 -19.557  1.00  0.00     0.011 C 
HETATM    4  C12 UNL     1      -2.437  49.445 -20.356  1.00  0.00    -0.032 C 
HETATM    5  C13 UNL     1      -1.360  48.690 -21.201  1.00  0.00     0.016 C 
HETATM    6  C14 UNL     1      -3.281  50.355 -21.315  1.00  0.00     0.004 C 
HETATM    7  C15 UNL     1      -4.099  49.559 -22.347  1.00  0.00     0.007 C 
HETATM    8  C16 UNL     1      -3.744  49.685 -23.831  1.00  0.00     0.007 C 
HETATM    9  C17 UNL     1      -2.313  50.144 -24.156  1.00  0.00     0.010 C 
HETATM   10  C18 UNL     1      -2.090  50.346 -25.696  1.00  0.00     0.018 C 
HETATM   11  C19 UNL     1      -2.234  49.007 -26.448  1.00  0.00     0.023 C 
HETATM   12  C20 UNL     1      -3.062  51.352 -26.341  1.00  0.00     0.023 C 
HETATM   13  C21 UNL     1      -0.662  50.872 -25.902  1.00  0.00     0.135 C 
HETATM   14  O1  UNL     1       0.147  50.343 -26.657  1.00  0.00    -0.297 OA
HETATM   15  C22 UNL     1      -0.289  52.110 -25.127  1.00  0.00     0.080 C 
HETATM   16  C23 UNL     1      -0.474  51.835 -23.646  1.00  0.00     0.018 C 
HETATM   17  C24 UNL     1      -1.891  51.376 -23.334  1.00  0.00    -0.026 A 
HETATM   18  C25 UNL     1      -2.932  52.403 -22.955  1.00  0.00     0.021 A 
HETATM   19  C26 UNL     1      -2.384  51.486 -21.877  1.00  0.00    -0.027 A 
HETATM   20  C27 UNL     1      -1.591  52.244 -20.793  1.00  0.00     0.011 C 
HETATM   21  C28 UNL     1      -0.883  51.344 -19.766  1.00  0.00     0.011 C 
HETATM   22  C29 UNL     1      -1.858  50.316 -19.174  1.00  0.00    -0.032 C 
HETATM   23  C30 UNL     1      -2.940  51.090 -18.359  1.00  0.00     0.016 C 
ENDROOT
BRANCH   1  24
HETATM   24  C7  UNL     1      -0.699  49.632 -16.861  1.00  0.00    -0.014 C 
HETATM   25  C8  UNL     1      -0.610  48.499 -15.833  1.00  0.00     0.010 C 
BRANCH  24  26
HETATM   26  C6  UNL     1       0.685  50.321 -17.007  1.00  0.00     0.008 C 
BRANCH  26  27
HETATM   27  C5  UNL     1       0.681  51.805 -16.623  1.00  0.00     0.028 C 
BRANCH  27  28
HETATM   28  C4  UNL     1       2.059  52.401 -16.723  1.00  0.00    -0.025 C 
HETATM   29  C2  UNL     1       3.092  52.217 -15.875  1.00  0.00    -0.091 C 
HETATM   30  C1  UNL     1       3.051  51.395 -14.610  1.00  0.00     0.042 C 
HETATM   31  C3  UNL     1       4.424  52.864 -16.146  1.00  0.00     0.042 C 
ENDBRANCH  27  28
ENDBRANCH  26  27
ENDBRANCH  24  26
ENDBRANCH   1  24
TORSDOF 4
ENDMDL
MODEL 4
REMARK minimizedAffinity -9.05720901
REMARK  4 active torsions:
REMARK  status: ('A' for Active; 'I' for Inactive)
REMARK    1  A    between atoms: C4_4  and  C5_5 
REMARK    2  A    between atoms: C5_5  and  C6_6 
REMARK    3  A    between atoms: C6_6  and  C7_7 
REMARK    4  A    between atoms: C7_7  and  C9_9 
ROOT
HETATM    1  C9  UNL     1      -1.192  50.651 -23.748  1.00  0.00    -0.002 C 
HETATM    2  C10 UNL     1      -0.230  51.862 -23.907  1.00  0.00     0.006 C 
HETATM    3  C11 UNL     1      -0.145  52.560 -22.524  1.00  0.00     0.011 C 
HETATM    4  C12 UNL     1      -0.796  51.568 -21.539  1.00  0.00    -0.032 C 
HETATM    5  C13 UNL     1       0.316  50.529 -21.179  1.00  0.00     0.016 C 
HETATM    6  C14 UNL     1      -1.392  52.147 -20.209  1.00  0.00     0.004 C 
HETATM    7  C15 UNL     1      -0.374  52.953 -19.384  1.00  0.00     0.007 C 
HETATM    8  C16 UNL     1       0.069  52.415 -18.021  1.00  0.00     0.007 C 
HETATM    9  C17 UNL     1      -0.095  50.904 -17.796  1.00  0.00     0.010 C 
HETATM   10  C18 UNL     1       0.282  50.477 -16.334  1.00  0.00     0.018 C 
HETATM   11  C19 UNL     1       1.778  50.737 -16.059  1.00  0.00     0.023 C 
HETATM   12  C20 UNL     1      -0.527  51.203 -15.243  1.00  0.00     0.023 C 
HETATM   13  C21 UNL     1       0.014  48.971 -16.197  1.00  0.00     0.135 C 
HETATM   14  O1  UNL     1       0.856  48.171 -15.801  1.00  0.00    -0.297 OA
HETATM   15  C22 UNL     1      -1.372  48.504 -16.563  1.00  0.00     0.080 C 
HETATM   16  C23 UNL     1      -1.656  48.898 -18.001  1.00  0.00     0.018 C 
HETATM   17  C24 UNL     1      -1.486  50.395 -18.216  1.00  0.00    -0.026 A 
HETATM   18  C25 UNL     1      -2.683  51.302 -18.059  1.00  0.00     0.021 A 
HETATM   19  C26 UNL     1      -2.153  51.029 -19.454  1.00  0.00    -0.027 A 
HETATM   20  C27 UNL     1      -3.157  50.258 -20.335  1.00  0.00     0.011 C 
HETATM   21  C28 UNL     1      -2.609  49.819 -21.703  1.00  0.00     0.011 C 
HETATM   22  C29 UNL     1      -1.962  51.001 -22.439  1.00  0.00    -0.032 C 
HETATM   23  C30 UNL     1      -3.081  52.038 -22.764  1.00  0.00     0.016 C 
ENDROOT
BRANCH   1  24
HETATM   24  C7  UNL     1      -2.020  50.234 -25.002  1.00  0.00    -0.014 C 
HETATM   25  C8  UNL     1      -2.947  49.030 -24.805  1.00  0.00     0.010 C 
BRANCH  24  26
HETATM   26  C6  UNL     1      -2.838  51.451 -25.511  1.00  0.00     0.008 C 
BRANCH  26  27
HETATM   27  C5  UNL     1      -2.611  51.775 -26.992  1.00  0.00     0.028 C 
BRANCH  27  28
HETATM   28  C4  UNL     1      -1.221  51.400 -27.429  1.00  0.00    -0.025 C 
HETATM   29  C2  UNL     1      -0.201  52.234 -27.715  1.00  0.00    -0.091 C 
HETATM   30  C1  UNL     1      -0.270  53.742 -27.694  1.00  0.00     0.042 C 
HETATM   31  C3  UNL     1       1.146  51.685 -28.104  1.00  0.00     0.042 C 
ENDBRANCH  27  28
ENDBRANCH  26  27
ENDBRANCH  24  26
ENDBRANCH   1  24
TORSDOF 4
ENDMDL
MODEL 5
REMARK minimizedAffinity -8.96574402
REMARK  4 active torsions:
REMARK  status: ('A' for Active; 'I' for Inactive)
REMARK    1  A    between atoms: C4_4  and  C5_5 
REMARK    2  A    between atoms: C5_5  and  C6_6 
REMARK    3  A    between atoms: C6_6  and  C7_7 
REMARK    4  A    between atoms: C7_7  and  C9_9 
ROOT
HETATM    1  C9  UNL     1      -0.619  51.346 -23.941  1.00  0.00    -0.002 C 
HETATM    2  C10 UNL     1       0.135  52.196 -22.880  1.00  0.00     0.006 C 
HETATM    3  C11 UNL     1      -0.726  52.179 -21.589  1.00  0.00     0.011 C 
HETATM    4  C12 UNL     1      -1.779  51.079 -21.829  1.00  0.00    -0.032 C 
HETATM    5  C13 UNL     1      -1.074  49.728 -21.479  1.00  0.00     0.016 C 
HETATM    6  C14 UNL     1      -3.122  51.168 -21.025  1.00  0.00     0.004 C 
HETATM    7  C15 UNL     1      -2.918  51.232 -19.501  1.00  0.00     0.007 C 
HETATM    8  C16 UNL     1      -3.401  50.062 -18.639  1.00  0.00     0.007 C 
HETATM    9  C17 UNL     1      -3.560  48.709 -19.349  1.00  0.00     0.010 C 
HETATM   10  C18 UNL     1      -4.164  47.610 -18.404  1.00  0.00     0.018 C 
HETATM   11  C19 UNL     1      -3.204  47.310 -17.234  1.00  0.00     0.023 C 
HETATM   12  C20 UNL     1      -5.531  47.987 -17.803  1.00  0.00     0.023 C 
HETATM   13  C21 UNL     1      -4.348  46.327 -19.228  1.00  0.00     0.135 C 
HETATM   14  O1  UNL     1      -3.891  45.240 -18.890  1.00  0.00    -0.297 OA
HETATM   15  C22 UNL     1      -5.150  46.458 -20.498  1.00  0.00     0.080 C 
HETATM   16  C23 UNL     1      -4.487  47.493 -21.390  1.00  0.00     0.018 C 
HETATM   17  C24 UNL     1      -4.329  48.828 -20.678  1.00  0.00    -0.026 A 
HETATM   18  C25 UNL     1      -5.417  49.868 -20.810  1.00  0.00     0.021 A 
HETATM   19  C26 UNL     1      -4.106  50.087 -21.539  1.00  0.00    -0.027 A 
HETATM   20  C27 UNL     1      -4.265  50.075 -23.074  1.00  0.00     0.011 C 
HETATM   21  C28 UNL     1      -2.945  50.136 -23.859  1.00  0.00     0.011 C 
HETATM   22  C29 UNL     1      -2.067  51.295 -23.366  1.00  0.00    -0.032 C 
HETATM   23  C30 UNL     1      -2.798  52.631 -23.699  1.00  0.00     0.016 C 
ENDROOT
BRANCH   1  24
HETATM   24  C7  UNL     1      -0.433  51.750 -25.436  1.00  0.00    -0.014 C 
HETATM   25  C8  UNL     1       1.021  51.878 -25.905  1.00  0.00     0.010 C 
BRANCH  24  26
HETATM   26  C6  UNL     1      -1.193  50.745 -26.342  1.00  0.00     0.008 C 
BRANCH  26  27
HETATM   27  C5  UNL     1      -2.095  51.413 -27.387  1.00  0.00     0.028 C 
BRANCH  27  28
HETATM   28  C4  UNL     1      -3.205  50.494 -27.821  1.00  0.00    -0.025 C 
HETATM   29  C2  UNL     1      -3.397  49.213 -27.449  1.00  0.00    -0.091 C 
HETATM   30  C1  UNL     1      -2.491  48.418 -26.540  1.00  0.00     0.042 C 
HETATM   31  C3  UNL     1      -4.590  48.444 -27.953  1.00  0.00     0.042 C 
ENDBRANCH  27  28
ENDBRANCH  26  27
ENDBRANCH  24  26
ENDBRANCH   1  24
TORSDOF 4
ENDMDL
MODEL 6
REMARK minimizedAffinity -8.9340992
REMARK  4 active torsions:
REMARK  status: ('A' for Active; 'I' for Inactive)
REMARK    1  A    between atoms: C4_4  and  C5_5 
REMARK    2  A    between atoms: C5_5  and  C6_6 
REMARK    3  A    between atoms: C6_6  and  C7_7 
REMARK    4  A    between atoms: C7_7  and  C9_9 
ROOT
HETATM    1  C9  UNL     1      -3.906  49.119 -20.369  1.00  0.00    -0.002 C 
HETATM    2  C10 UNL     1      -3.923  47.680 -20.956  1.00  0.00     0.006 C 
HETATM    3  C11 UNL     1      -3.769  47.815 -22.495  1.00  0.00     0.011 C 
HETATM    4  C12 UNL     1      -3.353  49.282 -22.724  1.00  0.00    -0.032 C 
HETATM    5  C13 UNL     1      -1.810  49.333 -22.479  1.00  0.00     0.016 C 
HETATM    6  C14 UNL     1      -3.660  49.916 -24.125  1.00  0.00     0.004 C 
HETATM    7  C15 UNL     1      -3.064  49.119 -25.299  1.00  0.00     0.007 C 
HETATM    8  C16 UNL     1      -1.953  49.756 -26.138  1.00  0.00     0.007 C 
HETATM    9  C17 UNL     1      -1.146  50.878 -25.466  1.00  0.00     0.010 C 
HETATM   10  C18 UNL     1      -0.111  51.535 -26.448  1.00  0.00     0.018 C 
HETATM   11  C19 UNL     1       0.958  50.509 -26.878  1.00  0.00     0.023 C 
HETATM   12  C20 UNL     1      -0.745  52.115 -27.726  1.00  0.00     0.023 C 
HETATM   13  C21 UNL     1       0.583  52.684 -25.703  1.00  0.00     0.135 C 
HETATM   14  O1  UNL     1       1.803  52.785 -25.611  1.00  0.00    -0.297 OA
HETATM   15  C22 UNL     1      -0.319  53.721 -25.084  1.00  0.00     0.080 C 
HETATM   16  C23 UNL     1      -1.257  53.034 -24.108  1.00  0.00     0.018 C 
HETATM   17  C24 UNL     1      -2.048  51.921 -24.780  1.00  0.00    -0.026 A 
HETATM   18  C25 UNL     1      -3.400  52.234 -25.375  1.00  0.00     0.021 A 
HETATM   19  C26 UNL     1      -3.336  51.430 -24.090  1.00  0.00    -0.027 A 
HETATM   20  C27 UNL     1      -3.963  52.170 -22.890  1.00  0.00     0.011 C 
HETATM   21  C28 UNL     1      -3.783  51.466 -21.535  1.00  0.00     0.011 C 
HETATM   22  C29 UNL     1      -4.222  49.997 -21.618  1.00  0.00    -0.032 C 
HETATM   23  C30 UNL     1      -5.757  49.966 -21.890  1.00  0.00     0.016 C 
ENDROOT
BRANCH   1  24
HETATM   24  C7  UNL     1      -4.729  49.364 -19.068  1.00  0.00    -0.014 C 
HETATM   25  C8  UNL     1      -5.980  48.492 -18.909  1.00  0.00     0.010 C 
BRANCH  24  26
HETATM   26  C6  UNL     1      -3.806  49.191 -17.831  1.00  0.00     0.008 C 
BRANCH  26  27
HETATM   27  C5  UNL     1      -3.209  50.506 -17.315  1.00  0.00     0.028 C 
BRANCH  27  28
HETATM   28  C4  UNL     1      -2.456  51.229 -18.398  1.00  0.00    -0.025 C 
HETATM   29  C2  UNL     1      -1.132  51.181 -18.644  1.00  0.00    -0.091 C 
HETATM   30  C1  UNL     1      -0.117  50.409 -17.835  1.00  0.00     0.042 C 
HETATM   31  C3  UNL     1      -0.543  51.943 -19.802  1.00  0.00     0.042 C 
ENDBRANCH  27  28
ENDBRANCH  26  27
ENDBRANCH  24  26
ENDBRANCH   1  24
TORSDOF 4
ENDMDL
MODEL 7
REMARK minimizedAffinity -8.92536068
REMARK  4 active torsions:
REMARK  status: ('A' for Active; 'I' for Inactive)
REMARK    1  A    between atoms: C4_4  and  C5_5 
REMARK    2  A    between atoms: C5_5  and  C6_6 
REMARK    3  A    between atoms: C6_6  and  C7_7 
REMARK    4  A    between atoms: C7_7  and  C9_9 
ROOT
HETATM    1  C9  UNL     1      -0.664  52.190 -21.134  1.00  0.00    -0.002 C 
HETATM    2  C10 UNL     1      -0.527  52.406 -22.667  1.00  0.00     0.006 C 
HETATM    3  C11 UNL     1      -1.232  51.209 -23.359  1.00  0.00     0.011 C 
HETATM    4  C12 UNL     1      -2.022  50.510 -22.234  1.00  0.00    -0.032 C 
HETATM    5  C13 UNL     1      -3.353  51.316 -22.080  1.00  0.00     0.016 C 
HETATM    6  C14 UNL     1      -2.372  48.993 -22.424  1.00  0.00     0.004 C 
HETATM    7  C15 UNL     1      -3.143  48.703 -23.724  1.00  0.00     0.007 C 
HETATM    8  C16 UNL     1      -4.589  48.210 -23.634  1.00  0.00     0.007 C 
HETATM    9  C17 UNL     1      -5.344  48.537 -22.336  1.00  0.00     0.010 C 
HETATM   10  C18 UNL     1      -6.775  47.891 -22.302  1.00  0.00     0.018 C 
HETATM   11  C19 UNL     1      -7.665  48.484 -23.414  1.00  0.00     0.023 C 
HETATM   12  C20 UNL     1      -6.773  46.361 -22.470  1.00  0.00     0.023 C 
HETATM   13  C21 UNL     1      -7.408  48.216 -20.941  1.00  0.00     0.135 C 
HETATM   14  O1  UNL     1      -8.508  48.745 -20.821  1.00  0.00    -0.297 OA
HETATM   15  C22 UNL     1      -6.606  47.833 -19.724  1.00  0.00     0.080 C 
HETATM   16  C23 UNL     1      -5.258  48.529 -19.787  1.00  0.00     0.018 C 
HETATM   17  C24 UNL     1      -4.520  48.205 -21.078  1.00  0.00    -0.026 A 
HETATM   18  C25 UNL     1      -3.567  47.033 -21.107  1.00  0.00     0.021 A 
HETATM   19  C26 UNL     1      -2.997  48.439 -21.120  1.00  0.00    -0.027 A 
HETATM   20  C27 UNL     1      -2.177  48.764 -19.854  1.00  0.00     0.011 C 
HETATM   21  C28 UNL     1      -1.711  50.225 -19.746  1.00  0.00     0.011 C 
HETATM   22  C29 UNL     1      -1.008  50.673 -21.035  1.00  0.00    -0.032 C 
HETATM   23  C30 UNL     1       0.301  49.839 -21.187  1.00  0.00     0.016 C 
ENDROOT
BRANCH   1  24
HETATM   24  C7  UNL     1       0.482  52.746 -20.234  1.00  0.00    -0.014 C 
HETATM   25  C8  UNL     1       1.189  53.996 -20.770  1.00  0.00     0.010 C 
BRANCH  24  26
HETATM   26  C6  UNL     1      -0.066  53.021 -18.808  1.00  0.00     0.008 C 
BRANCH  26  27
HETATM   27  C5  UNL     1       0.549  52.127 -17.725  1.00  0.00     0.028 C 
BRANCH  27  28
HETATM   28  C4  UNL     1       1.937  52.579 -17.363  1.00  0.00    -0.025 C 
HETATM   29  C2  UNL     1       2.629  52.277 -16.245  1.00  0.00    -0.091 C 
HETATM   30  C1  UNL     1       2.116  51.445 -15.095  1.00  0.00     0.042 C 
HETATM   31  C3  UNL     1       4.033  52.787 -16.057  1.00  0.00     0.042 C 
ENDBRANCH  27  28
ENDBRANCH  26  27
ENDBRANCH  24  26
ENDBRANCH   1  24
TORSDOF 4
ENDMDL
MODEL 8
REMARK minimizedAffinity -8.70249081
REMARK  4 active torsions:
REMARK  status: ('A' for Active; 'I' for Inactive)
REMARK    1  A    between atoms: C4_4  and  C5_5 
REMARK    2  A    between atoms: C5_5  and  C6_6 
REMARK    3  A    between atoms: C6_6  and  C7_7 
REMARK    4  A    between atoms: C7_7  and  C9_9 
ROOT
HETATM    1  C9  UNL     1      -1.138  50.708 -21.777  1.00  0.00    -0.002 C 
HETATM    2  C10 UNL     1      -0.327  49.643 -20.988  1.00  0.00     0.006 C 
HETATM    3  C11 UNL     1      -1.355  48.730 -20.269  1.00  0.00     0.011 C 
HETATM    4  C12 UNL     1      -2.714  49.086 -20.904  1.00  0.00    -0.032 C 
HETATM    5  C13 UNL     1      -2.791  48.270 -22.236  1.00  0.00     0.016 C 
HETATM    6  C14 UNL     1      -4.007  48.802 -20.064  1.00  0.00     0.004 C 
HETATM    7  C15 UNL     1      -4.127  47.338 -19.605  1.00  0.00     0.007 C 
HETATM    8  C16 UNL     1      -5.259  46.475 -20.168  1.00  0.00     0.007 C 
HETATM    9  C17 UNL     1      -5.859  46.923 -21.510  1.00  0.00     0.010 C 
HETATM   10  C18 UNL     1      -7.082  46.037 -21.939  1.00  0.00     0.018 C 
HETATM   11  C19 UNL     1      -6.637  44.582 -22.193  1.00  0.00     0.023 C 
HETATM   12  C20 UNL     1      -8.222  46.004 -20.904  1.00  0.00     0.023 C 
HETATM   13  C21 UNL     1      -7.647  46.613 -23.245  1.00  0.00     0.135 C 
HETATM   14  O1  UNL     1      -7.817  45.941 -24.258  1.00  0.00    -0.297 OA
HETATM   15  C22 UNL     1      -8.011  48.075 -23.229  1.00  0.00     0.080 C 
HETATM   16  C23 UNL     1      -6.777  48.881 -22.861  1.00  0.00     0.018 C 
HETATM   17  C24 UNL     1      -6.187  48.428 -21.534  1.00  0.00    -0.026 A 
HETATM   18  C25 UNL     1      -6.629  49.108 -20.259  1.00  0.00     0.021 A 
HETATM   19  C26 UNL     1      -5.238  49.393 -20.795  1.00  0.00    -0.027 A 
HETATM   20  C27 UNL     1      -5.055  50.862 -21.230  1.00  0.00     0.011 C 
HETATM   21  C28 UNL     1      -3.717  51.165 -21.924  1.00  0.00     0.011 C 
HETATM   22  C29 UNL     1      -2.537  50.643 -21.093  1.00  0.00    -0.032 C 
HETATM   23  C30 UNL     1      -2.493  51.449 -19.758  1.00  0.00     0.016 C 
ENDROOT
BRANCH   1  24
HETATM   24  C7  UNL     1      -0.474  52.107 -21.968  1.00  0.00    -0.014 C 
HETATM   25  C8  UNL     1       0.988  52.206 -21.520  1.00  0.00     0.010 C 
BRANCH  24  26
HETATM   26  C6  UNL     1      -0.602  52.542 -23.453  1.00  0.00     0.008 C 
BRANCH  26  27
HETATM   27  C5  UNL     1       0.629  52.209 -24.304  1.00  0.00     0.028 C 
BRANCH  27  28
HETATM   28  C4  UNL     1       0.272  52.081 -25.759  1.00  0.00    -0.025 C 
HETATM   29  C2  UNL     1       1.094  51.752 -26.776  1.00  0.00    -0.091 C 
HETATM   30  C1  UNL     1       2.575  51.484 -26.655  1.00  0.00     0.042 C 
HETATM   31  C3  UNL     1       0.561  51.631 -28.179  1.00  0.00     0.042 C 
ENDBRANCH  27  28
ENDBRANCH  26  27
ENDBRANCH  24  26
ENDBRANCH   1  24
TORSDOF 4
ENDMDL
MODEL 9
REMARK minimizedAffinity -8.7019043
REMARK  4 active torsions:
REMARK  status: ('A' for Active; 'I' for Inactive)
REMARK    1  A    between atoms: C4_4  and  C5_5 
REMARK    2  A    between atoms: C5_5  and  C6_6 
REMARK    3  A    between atoms: C6_6  and  C7_7 
REMARK    4  A    between atoms: C7_7  and  C9_9 
ROOT
HETATM    1  C9  UNL     1      -6.239  49.899 -21.418  1.00  0.00    -0.002 C 
HETATM    2  C10 UNL     1      -5.325  50.265 -20.216  1.00  0.00     0.006 C 
HETATM    3  C11 UNL     1      -3.860  50.215 -20.727  1.00  0.00     0.011 C 
HETATM    4  C12 UNL     1      -3.979  50.136 -22.262  1.00  0.00    -0.032 C 
HETATM    5  C13 UNL     1      -4.190  51.606 -22.752  1.00  0.00     0.016 C 
HETATM    6  C14 UNL     1      -2.778  49.510 -23.054  1.00  0.00     0.004 C 
HETATM    7  C15 UNL     1      -1.433  50.201 -22.769  1.00  0.00     0.007 C 
HETATM    8  C16 UNL     1      -0.743  50.973 -23.897  1.00  0.00     0.007 C 
HETATM    9  C17 UNL     1      -1.644  51.461 -25.043  1.00  0.00     0.010 C 
HETATM   10  C18 UNL     1      -0.822  52.140 -26.195  1.00  0.00     0.018 C 
HETATM   11  C19 UNL     1      -0.132  53.423 -25.688  1.00  0.00     0.023 C 
HETATM   12  C20 UNL     1       0.263  51.235 -26.806  1.00  0.00     0.023 C 
HETATM   13  C21 UNL     1      -1.803  52.521 -27.314  1.00  0.00     0.135 C 
HETATM   14  O1  UNL     1      -1.886  53.653 -27.779  1.00  0.00    -0.297 OA
HETATM   15  C22 UNL     1      -2.674  51.411 -27.844  1.00  0.00     0.080 C 
HETATM   16  C23 UNL     1      -3.481  50.832 -26.695  1.00  0.00     0.018 C 
HETATM   17  C24 UNL     1      -2.582  50.357 -25.563  1.00  0.00    -0.026 A 
HETATM   18  C25 UNL     1      -2.114  48.921 -25.547  1.00  0.00     0.021 A 
HETATM   19  C26 UNL     1      -3.167  49.356 -24.545  1.00  0.00    -0.027 A 
HETATM   20  C27 UNL     1      -4.525  48.657 -24.763  1.00  0.00     0.011 C 
HETATM   21  C28 UNL     1      -5.667  49.179 -23.875  1.00  0.00     0.011 C 
HETATM   22  C29 UNL     1      -5.246  49.205 -22.399  1.00  0.00    -0.032 C 
HETATM   23  C30 UNL     1      -5.012  47.734 -21.937  1.00  0.00     0.016 C 
ENDROOT
BRANCH   1  24
HETATM   24  C7  UNL     1      -7.582  49.175 -21.094  1.00  0.00    -0.014 C 
HETATM   25  C8  UNL     1      -8.055  48.167 -22.147  1.00  0.00     0.010 C 
BRANCH  24  26
HETATM   26  C6  UNL     1      -7.474  48.480 -19.710  1.00  0.00     0.008 C 
BRANCH  26  27
HETATM   27  C5  UNL     1      -8.455  49.024 -18.665  1.00  0.00     0.028 C 
BRANCH  27  28
HETATM   28  C4  UNL     1      -9.849  48.508 -18.899  1.00  0.00    -0.025 C 
HETATM   29  C2  UNL     1     -10.604  47.781 -18.050  1.00  0.00    -0.091 C 
HETATM   30  C1  UNL     1     -10.171  47.297 -16.688  1.00  0.00     0.042 C 
HETATM   31  C3  UNL     1     -12.003  47.376 -18.431  1.00  0.00     0.042 C 
ENDBRANCH  27  28
ENDBRANCH  26  27
ENDBRANCH  24  26
ENDBRANCH   1  24
TORSDOF 4
ENDMDL
