MODEL 1
REMARK minimizedAffinity -7.54726028
REMARK CNNscore 0.641864896
REMARK CNNaffinity 7.14655876
REMARK  10 active torsions:
REMARK  status: ('A' for Active; 'I' for Inactive)
REMARK    1  A    between atoms: C2_2  and  O1_3 
REMARK    2  A    between atoms: O1_3  and  C3_4 
REMARK    3  A    between atoms: C14_15  and  O2_16 
REMARK    4  A    between atoms: C19_21  and  O3_22 
REMARK    5  A    between atoms: O3_22  and  C20_23 
REMARK    6  A    between atoms: C21_25  and  C22_26 
REMARK    7  A    between atoms: C22_26  and  O5_27 
REMARK    8  A    between atoms: C23_28  and  O6_29 
REMARK    9  A    between atoms: C24_30  and  O7_31 
REMARK   10  A    between atoms: C25_32  and  O8_33 
ROOT
HETATM    1  C3  UNL     1      -3.056   3.331  11.886  1.00  0.00     0.260 C 
HETATM    2  C4  UNL     1      -1.884   3.797  11.003  1.00  0.00     0.065 C 
HETATM    3  C5  UNL     1      -0.924   4.713  11.772  1.00  0.00    -0.007 C 
HETATM    4  C6  UNL     1       0.265   5.100  10.896  1.00  0.00     0.010 C 
HETATM    5  C7  UNL     1      -1.729   5.940  12.249  1.00  0.00     0.027 C 
HETATM    6  C8  UNL     1      -3.124   5.518  12.795  1.00  0.00     0.130 C 
HETATM    7  C9  UNL     1      -3.348   6.313  14.093  1.00  0.00     0.042 C 
HETATM    8  C10 UNL     1      -2.429   7.541  13.946  1.00  0.00    -0.029 C 
HETATM    9  C11 UNL     1      -3.131   8.534  12.967  1.00  0.00     0.016 C 
HETATM   10  C12 UNL     1      -2.084   8.255  15.278  1.00  0.00     0.006 C 
HETATM   11  C13 UNL     1      -3.275   8.973  15.916  1.00  0.00     0.038 C 
HETATM   12  C14 UNL     1      -2.890   9.716  17.201  1.00  0.00     0.124 C 
HETATM   13  C15 UNL     1      -1.950  10.891  16.853  1.00  0.00     0.034 C 
HETATM   14  C16 UNL     1      -1.492  11.842  18.022  1.00  0.00    -0.015 C 
HETATM   15  C17 UNL     1      -2.665  12.303  18.918  1.00  0.00     0.018 C 
HETATM   16  C18 UNL     1      -0.492  11.139  18.968  1.00  0.00     0.018 C 
HETATM   17  C19 UNL     1      -0.888  13.145  17.376  1.00  0.00     0.133 C 
HETATM   18  C26 UNL     1      -0.384  12.963  15.936  1.00  0.00     0.034 C 
HETATM   19  C27 UNL     1       0.227  11.595  15.684  1.00  0.00     0.013 C 
HETATM   20  C28 UNL     1      -0.717  10.441  16.036  1.00  0.00    -0.025 A 
HETATM   21  C29 UNL     1       0.026   9.171  16.388  1.00  0.00     0.021 A 
HETATM   22  C30 UNL     1      -0.838   9.166  15.145  1.00  0.00    -0.027 A 
HETATM   23  C31 UNL     1      -0.112   9.201  13.791  1.00  0.00     0.011 C 
HETATM   24  C32 UNL     1      -0.207   7.977  12.864  1.00  0.00     0.011 C 
HETATM   25  C33 UNL     1      -1.138   6.868  13.362  1.00  0.00    -0.030 C 
HETATM   26  C34 UNL     1      -0.342   6.014  14.389  1.00  0.00     0.016 C 
HETATM   27  O9  UNL     1      -3.193   4.125  13.065  1.00  0.00    -0.356 OA
ENDROOT
BRANCH  17  28
HETATM   28  O3  UNL     1       0.185  13.648  18.183  1.00  0.00    -0.352 OA
BRANCH  28  29
HETATM   29  C20 UNL     1      -0.084  14.937  18.746  1.00  0.00     0.292 C 
HETATM   30  O4  UNL     1      -1.240  14.859  19.583  1.00  0.00    -0.348 OA
HETATM   31  C21 UNL     1      -1.563  16.108  20.210  1.00  0.00     0.179 C 
HETATM   32  C23 UNL     1      -1.974  17.113  19.120  1.00  0.00     0.180 C 
HETATM   33  C24 UNL     1      -0.817  17.271  18.129  1.00  0.00     0.183 C 
HETATM   34  C25 UNL     1      -0.327  15.927  17.588  1.00  0.00     0.204 C 
BRANCH  31  35
HETATM   35  C22 UNL     1      -2.689  15.847  21.220  1.00  0.00     0.198 C 
BRANCH  35  36
HETATM   36  O5  UNL     1      -2.808  16.916  22.151  1.00  0.00    -0.398 OA
HETATM   37  H37 UNL     1      -3.599  16.743  22.689  1.00  0.00     0.209 HD
ENDBRANCH  35  36
ENDBRANCH  31  35
BRANCH  32  38
HETATM   38  O6  UNL     1      -2.307  18.396  19.644  1.00  0.00    -0.390 OA
HETATM   39  H39 UNL     1      -2.232  19.035  18.909  1.00  0.00     0.210 HD
ENDBRANCH  32  38
BRANCH  33  40
HETATM   40  O7  UNL     1      -1.221  18.122  17.037  1.00  0.00    -0.390 OA
HETATM   41  H41 UNL     1      -1.944  17.676  16.557  1.00  0.00     0.210 HD
ENDBRANCH  33  40
BRANCH  34  42
HETATM   42  O8  UNL     1       0.868  16.155  16.820  1.00  0.00    -0.388 OA
HETATM   43  H43 UNL     1       0.708  16.963  16.296  1.00  0.00     0.210 HD
ENDBRANCH  34  42
ENDBRANCH  28  29
ENDBRANCH  17  28
BRANCH  12  44
HETATM   44  O2  UNL     1      -4.113  10.201  17.759  1.00  0.00    -0.395 OA
HETATM   45  H24 UNL     1      -4.641   9.425  18.022  1.00  0.00     0.210 HD
ENDBRANCH  12  44
BRANCH   1  46
HETATM   46  O1  UNL     1      -4.240   3.346  11.088  1.00  0.00    -0.362 OA
BRANCH  46  47
HETATM   47  C2  UNL     1      -5.400   2.845  11.746  1.00  0.00     0.166 C 
HETATM   48  C1  UNL     1      -5.841   1.492  11.220  1.00  0.00     0.033 C 
ENDBRANCH  46  47
ENDBRANCH   1  46
TORSDOF 10
ENDMDL
MODEL 2
REMARK minimizedAffinity -7.89250135
REMARK CNNscore 0.530688763
REMARK CNNaffinity 7.07345819
REMARK  10 active torsions:
REMARK  status: ('A' for Active; 'I' for Inactive)
REMARK    1  A    between atoms: C2_2  and  O1_3 
REMARK    2  A    between atoms: O1_3  and  C3_4 
REMARK    3  A    between atoms: C14_15  and  O2_16 
REMARK    4  A    between atoms: C19_21  and  O3_22 
REMARK    5  A    between atoms: O3_22  and  C20_23 
REMARK    6  A    between atoms: C21_25  and  C22_26 
REMARK    7  A    between atoms: C22_26  and  O5_27 
REMARK    8  A    between atoms: C23_28  and  O6_29 
REMARK    9  A    between atoms: C24_30  and  O7_31 
REMARK   10  A    between atoms: C25_32  and  O8_33 
ROOT
HETATM    1  C3  UNL     1      -6.165   3.744  12.888  1.00  0.00     0.260 C 
HETATM    2  C4  UNL     1      -4.987   3.546  11.915  1.00  0.00     0.065 C 
HETATM    3  C5  UNL     1      -3.677   4.099  12.491  1.00  0.00    -0.007 C 
HETATM    4  C6  UNL     1      -2.516   3.824  11.539  1.00  0.00     0.010 C 
HETATM    5  C7  UNL     1      -3.881   5.606  12.754  1.00  0.00     0.027 C 
HETATM    6  C8  UNL     1      -5.274   5.881  13.391  1.00  0.00     0.130 C 
HETATM    7  C9  UNL     1      -5.046   6.891  14.528  1.00  0.00     0.042 C 
HETATM    8  C10 UNL     1      -3.731   7.598  14.148  1.00  0.00    -0.029 C 
HETATM    9  C11 UNL     1      -4.063   8.623  13.019  1.00  0.00     0.016 C 
HETATM   10  C12 UNL     1      -3.013   8.307  15.323  1.00  0.00     0.006 C 
HETATM   11  C13 UNL     1      -3.757   9.539  15.844  1.00  0.00     0.038 C 
HETATM   12  C14 UNL     1      -2.996  10.252  16.967  1.00  0.00     0.124 C 
HETATM   13  C15 UNL     1      -1.700  10.871  16.398  1.00  0.00     0.034 C 
HETATM   14  C16 UNL     1      -0.799  11.722  17.369  1.00  0.00    -0.015 C 
HETATM   15  C17 UNL     1      -1.606  12.757  18.188  1.00  0.00     0.018 C 
HETATM   16  C18 UNL     1      -0.082  10.831  18.408  1.00  0.00     0.018 C 
HETATM   17  C19 UNL     1       0.214  12.546  16.489  1.00  0.00     0.133 C 
HETATM   18  C26 UNL     1       0.474  11.952  15.096  1.00  0.00     0.034 C 
HETATM   19  C27 UNL     1       0.464  10.433  15.084  1.00  0.00     0.013 C 
HETATM   20  C28 UNL     1      -0.826   9.835  15.654  1.00  0.00    -0.025 A 
HETATM   21  C29 UNL     1      -0.624   8.444  16.215  1.00  0.00     0.021 A 
HETATM   22  C30 UNL     1      -1.524   8.597  15.008  1.00  0.00    -0.027 A 
HETATM   23  C31 UNL     1      -0.969   8.120  13.657  1.00  0.00     0.011 C 
HETATM   24  C32 UNL     1      -1.626   6.913  12.967  1.00  0.00     0.011 C 
HETATM   25  C33 UNL     1      -2.873   6.374  13.672  1.00  0.00    -0.030 C 
HETATM   26  C34 UNL     1      -2.395   5.441  14.821  1.00  0.00     0.016 C 
HETATM   27  O9  UNL     1      -5.868   4.698  13.907  1.00  0.00    -0.356 OA
ENDROOT
BRANCH  17  28
HETATM   28  O3  UNL     1       1.466  12.688  17.174  1.00  0.00    -0.352 OA
BRANCH  28  29
HETATM   29  C20 UNL     1       1.727  14.027  17.611  1.00  0.00     0.292 C 
HETATM   30  O4  UNL     1       0.991  14.289  18.808  1.00  0.00    -0.348 OA
HETATM   31  C21 UNL     1       1.218  15.606  19.328  1.00  0.00     0.179 C 
HETATM   32  C23 UNL     1       0.659  16.633  18.328  1.00  0.00     0.180 C 
HETATM   33  C24 UNL     1       1.355  16.441  16.977  1.00  0.00     0.183 C 
HETATM   34  C25 UNL     1       1.289  14.992  16.489  1.00  0.00     0.204 C 
BRANCH  31  35
HETATM   35  C22 UNL     1       0.534  15.691  20.700  1.00  0.00     0.198 C 
BRANCH  35  36
HETATM   36  O5  UNL     1       1.010  16.804  21.446  1.00  0.00    -0.398 OA
HETATM   37  H37 UNL     1       0.467  16.866  22.250  1.00  0.00     0.209 HD
ENDBRANCH  35  36
ENDBRANCH  31  35
BRANCH  32  38
HETATM   38  O6  UNL     1       0.846  17.981  18.752  1.00  0.00    -0.390 OA
HETATM   39  H39 UNL     1       0.776  18.544  17.957  1.00  0.00     0.210 HD
ENDBRANCH  32  38
BRANCH  33  40
HETATM   40  O7  UNL     1       0.766  17.316  15.995  1.00  0.00    -0.390 OA
HETATM   41  H41 UNL     1      -0.165  17.052  15.872  1.00  0.00     0.210 HD
ENDBRANCH  33  40
BRANCH  34  42
HETATM   42  O8  UNL     1       2.119  14.868  15.321  1.00  0.00    -0.388 OA
HETATM   43  H43 UNL     1       1.956  15.665  14.783  1.00  0.00     0.210 HD
ENDBRANCH  34  42
ENDBRANCH  28  29
ENDBRANCH  17  28
BRANCH  12  44
HETATM   44  O2  UNL     1      -3.868  11.275  17.450  1.00  0.00    -0.395 OA
HETATM   45  H24 UNL     1      -4.636  10.834  17.858  1.00  0.00     0.210 HD
ENDBRANCH  12  44
BRANCH   1  46
HETATM   46  O1  UNL     1      -7.311   4.115  12.121  1.00  0.00    -0.362 OA
BRANCH  46  47
HETATM   47  C2  UNL     1      -8.451   4.468  12.899  1.00  0.00     0.166 C 
HETATM   48  C1  UNL     1      -8.895   5.902  12.680  1.00  0.00     0.033 C 
ENDBRANCH  46  47
ENDBRANCH   1  46
TORSDOF 10
ENDMDL
MODEL 3
REMARK minimizedAffinity -10.1401739
REMARK CNNscore 0.469186276
REMARK CNNaffinity 7.28772354
REMARK  10 active torsions:
REMARK  status: ('A' for Active; 'I' for Inactive)
REMARK    1  A    between atoms: C2_2  and  O1_3 
REMARK    2  A    between atoms: O1_3  and  C3_4 
REMARK    3  A    between atoms: C14_15  and  O2_16 
REMARK    4  A    between atoms: C19_21  and  O3_22 
REMARK    5  A    between atoms: O3_22  and  C20_23 
REMARK    6  A    between atoms: C21_25  and  C22_26 
REMARK    7  A    between atoms: C22_26  and  O5_27 
REMARK    8  A    between atoms: C23_28  and  O6_29 
REMARK    9  A    between atoms: C24_30  and  O7_31 
REMARK   10  A    between atoms: C25_32  and  O8_33 
ROOT
HETATM    1  C3  UNL     1      -7.457   6.074  13.984  1.00  0.00     0.260 C 
HETATM    2  C4  UNL     1      -7.191   7.206  14.995  1.00  0.00     0.065 C 
HETATM    3  C5  UNL     1      -5.983   8.058  14.586  1.00  0.00    -0.007 C 
HETATM    4  C6  UNL     1      -5.788   9.215  15.564  1.00  0.00     0.010 C 
HETATM    5  C7  UNL     1      -4.755   7.127  14.520  1.00  0.00     0.027 C 
HETATM    6  C8  UNL     1      -5.111   5.774  13.839  1.00  0.00     0.130 C 
HETATM    7  C9  UNL     1      -3.961   5.453  12.869  1.00  0.00     0.042 C 
HETATM    8  C10 UNL     1      -2.764   6.245  13.427  1.00  0.00    -0.029 C 
HETATM    9  C11 UNL     1      -2.222   5.461  14.663  1.00  0.00     0.016 C 
HETATM   10  C12 UNL     1      -1.623   6.498  12.409  1.00  0.00     0.006 C 
HETATM   11  C13 UNL     1      -0.858   5.233  12.017  1.00  0.00     0.038 C 
HETATM   12  C14 UNL     1       0.299   5.522  11.054  1.00  0.00     0.124 C 
HETATM   13  C15 UNL     1       1.383   6.344  11.786  1.00  0.00     0.034 C 
HETATM   14  C16 UNL     1       2.704   6.688  11.002  1.00  0.00    -0.015 C 
HETATM   15  C17 UNL     1       3.315   5.462  10.283  1.00  0.00     0.018 C 
HETATM   16  C18 UNL     1       2.454   7.741   9.898  1.00  0.00     0.018 C 
HETATM   17  C19 UNL     1       3.777   7.167  12.050  1.00  0.00     0.133 C 
HETATM   18  C26 UNL     1       3.186   7.707  13.361  1.00  0.00     0.034 C 
HETATM   19  C27 UNL     1       1.879   8.456  13.163  1.00  0.00     0.013 C 
HETATM   20  C28 UNL     1       0.815   7.628  12.435  1.00  0.00    -0.025 A 
HETATM   21  C29 UNL     1      -0.189   8.490  11.701  1.00  0.00     0.021 A 
HETATM   22  C30 UNL     1      -0.687   7.649  12.857  1.00  0.00    -0.027 A 
HETATM   23  C31 UNL     1      -1.025   8.386  14.162  1.00  0.00     0.011 C 
HETATM   24  C32 UNL     1      -2.488   8.427  14.636  1.00  0.00     0.011 C 
HETATM   25  C33 UNL     1      -3.459   7.605  13.784  1.00  0.00    -0.030 C 
HETATM   26  C34 UNL     1      -3.847   8.470  12.550  1.00  0.00     0.016 C 
HETATM   27  O9  UNL     1      -6.339   5.842  13.128  1.00  0.00    -0.356 OA
ENDROOT
BRANCH  17  28
HETATM   28  O3  UNL     1       4.621   8.172  11.473  1.00  0.00    -0.352 OA
BRANCH  28  29
HETATM   29  C20 UNL     1       5.521   8.769  12.415  1.00  0.00     0.292 C 
HETATM   30  O4  UNL     1       5.868  10.083  11.973  1.00  0.00    -0.348 OA
HETATM   31  C21 UNL     1       6.749  10.763  12.878  1.00  0.00     0.179 C 
HETATM   32  C23 UNL     1       8.097  10.021  12.903  1.00  0.00     0.180 C 
HETATM   33  C24 UNL     1       7.859   8.574  13.341  1.00  0.00     0.183 C 
HETATM   34  C25 UNL     1       6.780   7.882  12.505  1.00  0.00     0.204 C 
BRANCH  31  35
HETATM   35  C22 UNL     1       6.887  12.213  12.395  1.00  0.00     0.198 C 
BRANCH  35  36
HETATM   36  O5  UNL     1       5.695  12.662  11.761  1.00  0.00    -0.398 OA
HETATM   37  H37 UNL     1       5.806  13.611  11.578  1.00  0.00     0.209 HD
ENDBRANCH  35  36
ENDBRANCH  31  35
BRANCH  32  38
HETATM   38  O6  UNL     1       9.043  10.618  13.786  1.00  0.00    -0.390 OA
HETATM   39  H39 UNL     1       9.713   9.937  13.992  1.00  0.00     0.210 HD
ENDBRANCH  32  38
BRANCH  33  40
HETATM   40  O7  UNL     1       9.092   7.831  13.263  1.00  0.00    -0.390 OA
HETATM   41  H41 UNL     1       9.368   7.799  12.328  1.00  0.00     0.210 HD
ENDBRANCH  33  40
BRANCH  34  42
HETATM   42  O8  UNL     1       6.494   6.605  13.101  1.00  0.00    -0.388 OA
HETATM   43  H43 UNL     1       7.353   6.223  13.360  1.00  0.00     0.210 HD
ENDBRANCH  34  42
ENDBRANCH  28  29
ENDBRANCH  17  28
BRANCH  12  44
HETATM   44  O2  UNL     1       0.815   4.250  10.662  1.00  0.00    -0.395 OA
HETATM   45  H24 UNL     1       0.120   3.799  10.149  1.00  0.00     0.210 HD
ENDBRANCH  12  44
BRANCH   1  46
HETATM   46  O1  UNL     1      -7.822   4.906  14.719  1.00  0.00    -0.362 OA
BRANCH  46  47
HETATM   47  C2  UNL     1      -7.403   3.681  14.126  1.00  0.00     0.166 C 
HETATM   48  C1  UNL     1      -8.202   3.319  12.887  1.00  0.00     0.033 C 
ENDBRANCH  46  47
ENDBRANCH   1  46
TORSDOF 10
ENDMDL
MODEL 4
REMARK minimizedAffinity -8.24249363
REMARK CNNscore 0.428216487
REMARK CNNaffinity 6.25059748
REMARK  10 active torsions:
REMARK  status: ('A' for Active; 'I' for Inactive)
REMARK    1  A    between atoms: C2_2  and  O1_3 
REMARK    2  A    between atoms: O1_3  and  C3_4 
REMARK    3  A    between atoms: C14_15  and  O2_16 
REMARK    4  A    between atoms: C19_21  and  O3_22 
REMARK    5  A    between atoms: O3_22  and  C20_23 
REMARK    6  A    between atoms: C21_25  and  C22_26 
REMARK    7  A    between atoms: C22_26  and  O5_27 
REMARK    8  A    between atoms: C23_28  and  O6_29 
REMARK    9  A    between atoms: C24_30  and  O7_31 
REMARK   10  A    between atoms: C25_32  and  O8_33 
ROOT
HETATM    1  C3  UNL     1     -11.450  -7.331  -6.231  1.00  0.00     0.260 C 
HETATM    2  C4  UNL     1     -10.031  -7.526  -6.797  1.00  0.00     0.065 C 
HETATM    3  C5  UNL     1      -9.222  -8.530  -5.965  1.00  0.00    -0.007 C 
HETATM    4  C6  UNL     1      -7.848  -8.759  -6.590  1.00  0.00     0.010 C 
HETATM    5  C7  UNL     1      -9.132  -7.980  -4.526  1.00  0.00     0.027 C 
HETATM    6  C8  UNL     1     -10.498  -7.394  -4.063  1.00  0.00     0.130 C 
HETATM    7  C9  UNL     1     -10.724  -7.892  -2.625  1.00  0.00     0.042 C 
HETATM    8  C10 UNL     1      -9.308  -8.210  -2.108  1.00  0.00    -0.029 C 
HETATM    9  C11 UNL     1      -8.626  -6.851  -1.755  1.00  0.00     0.016 C 
HETATM   10  C12 UNL     1      -9.263  -9.165  -0.889  1.00  0.00     0.006 C 
HETATM   11  C13 UNL     1      -9.810  -8.545   0.399  1.00  0.00     0.038 C 
HETATM   12  C14 UNL     1      -9.700  -9.493   1.599  1.00  0.00     0.124 C 
HETATM   13  C15 UNL     1      -8.211  -9.708   1.948  1.00  0.00     0.034 C 
HETATM   14  C16 UNL     1      -7.867 -10.591   3.206  1.00  0.00    -0.015 C 
HETATM   15  C17 UNL     1      -8.691 -10.205   4.457  1.00  0.00     0.018 C 
HETATM   16  C18 UNL     1      -8.168 -12.086   2.951  1.00  0.00     0.018 C 
HETATM   17  C19 UNL     1      -6.357 -10.340   3.574  1.00  0.00     0.133 C 
HETATM   18  C26 UNL     1      -5.497  -9.825   2.409  1.00  0.00     0.034 C 
HETATM   19  C27 UNL     1      -5.901 -10.408   1.066  1.00  0.00     0.013 C 
HETATM   20  C28 UNL     1      -7.381 -10.188   0.735  1.00  0.00    -0.025 A 
HETATM   21  C29 UNL     1      -7.925 -11.233  -0.214  1.00  0.00     0.021 A 
HETATM   22  C30 UNL     1      -7.863  -9.801  -0.698  1.00  0.00    -0.027 A 
HETATM   23  C31 UNL     1      -6.771  -9.457  -1.723  1.00  0.00     0.011 C 
HETATM   24  C32 UNL     1      -7.187  -9.056  -3.148  1.00  0.00     0.011 C 
HETATM   25  C33 UNL     1      -8.698  -8.929  -3.361  1.00  0.00    -0.030 C 
HETATM   26  C34 UNL     1      -9.257 -10.359  -3.613  1.00  0.00     0.016 C 
HETATM   27  O9  UNL     1     -11.570  -7.817  -4.894  1.00  0.00    -0.356 OA
ENDROOT
BRANCH  17  28
HETATM   28  O3  UNL     1      -5.767 -11.540   4.092  1.00  0.00    -0.352 OA
BRANCH  28  29
HETATM   29  C20 UNL     1      -5.242 -11.389   5.417  1.00  0.00     0.292 C 
HETATM   30  O4  UNL     1      -5.885 -10.286   6.060  1.00  0.00    -0.348 OA
HETATM   31  C21 UNL     1      -5.434 -10.083   7.406  1.00  0.00     0.179 C 
HETATM   32  C23 UNL     1      -3.953  -9.668   7.372  1.00  0.00     0.180 C 
HETATM   33  C24 UNL     1      -3.146 -10.768   6.675  1.00  0.00     0.183 C 
HETATM   34  C25 UNL     1      -3.724 -11.137   5.307  1.00  0.00     0.204 C 
BRANCH  31  35
HETATM   35  C22 UNL     1      -6.329  -9.009   8.041  1.00  0.00     0.198 C 
BRANCH  35  36
HETATM   36  O5  UNL     1      -6.348  -7.823   7.258  1.00  0.00    -0.398 OA
HETATM   37  H37 UNL     1      -7.010  -7.229   7.651  1.00  0.00     0.209 HD
ENDBRANCH  35  36
ENDBRANCH  31  35
BRANCH  32  38
HETATM   38  O6  UNL     1      -3.406  -9.451   8.670  1.00  0.00    -0.390 OA
HETATM   39  H39 UNL     1      -2.435  -9.519   8.587  1.00  0.00     0.210 HD
ENDBRANCH  32  38
BRANCH  33  40
HETATM   40  O7  UNL     1      -1.774 -10.349   6.531  1.00  0.00    -0.390 OA
HETATM   41  H41 UNL     1      -1.754  -9.571   5.943  1.00  0.00     0.210 HD
ENDBRANCH  33  40
BRANCH  34  42
HETATM   42  O8  UNL     1      -3.023 -12.292   4.815  1.00  0.00    -0.388 OA
HETATM   43  H43 UNL     1      -2.081 -12.150   5.022  1.00  0.00     0.210 HD
ENDBRANCH  34  42
ENDBRANCH  28  29
ENDBRANCH  17  28
BRANCH  12  44
HETATM   44  O2  UNL     1     -10.379  -8.847   2.677  1.00  0.00    -0.395 OA
HETATM   45  H24 UNL     1     -11.322  -8.795   2.437  1.00  0.00     0.210 HD
ENDBRANCH  12  44
BRANCH   1  46
HETATM   46  O1  UNL     1     -11.776  -5.945  -6.330  1.00  0.00    -0.362 OA
BRANCH  46  47
HETATM   47  C2  UNL     1     -10.726  -5.127  -6.839  1.00  0.00     0.166 C 
HETATM   48  C1  UNL     1     -11.151  -3.687  -7.059  1.00  0.00     0.033 C 
ENDBRANCH  46  47
ENDBRANCH   1  46
TORSDOF 10
ENDMDL
MODEL 5
REMARK minimizedAffinity -10.6820602
REMARK CNNscore 0.383606762
REMARK CNNaffinity 7.45526123
REMARK  10 active torsions:
REMARK  status: ('A' for Active; 'I' for Inactive)
REMARK    1  A    between atoms: C2_2  and  O1_3 
REMARK    2  A    between atoms: O1_3  and  C3_4 
REMARK    3  A    between atoms: C14_15  and  O2_16 
REMARK    4  A    between atoms: C19_21  and  O3_22 
REMARK    5  A    between atoms: O3_22  and  C20_23 
REMARK    6  A    between atoms: C21_25  and  C22_26 
REMARK    7  A    between atoms: C22_26  and  O5_27 
REMARK    8  A    between atoms: C23_28  and  O6_29 
REMARK    9  A    between atoms: C24_30  and  O7_31 
REMARK   10  A    between atoms: C25_32  and  O8_33 
ROOT
HETATM    1  C3  UNL     1      -8.217   5.122  13.076  1.00  0.00     0.260 C 
HETATM    2  C4  UNL     1      -8.225   5.909  14.400  1.00  0.00     0.065 C 
HETATM    3  C5  UNL     1      -7.079   6.926  14.462  1.00  0.00    -0.007 C 
HETATM    4  C6  UNL     1      -7.154   7.741  15.750  1.00  0.00     0.010 C 
HETATM    5  C7  UNL     1      -5.754   6.145  14.334  1.00  0.00     0.027 C 
HETATM    6  C8  UNL     1      -5.855   5.041  13.241  1.00  0.00     0.130 C 
HETATM    7  C9  UNL     1      -4.553   5.110  12.425  1.00  0.00     0.042 C 
HETATM    8  C10 UNL     1      -3.544   5.776  13.379  1.00  0.00    -0.029 C 
HETATM    9  C11 UNL     1      -3.090   4.692  14.407  1.00  0.00     0.016 C 
HETATM   10  C12 UNL     1      -2.310   6.404  12.681  1.00  0.00     0.006 C 
HETATM   11  C13 UNL     1      -1.358   5.372  12.073  1.00  0.00     0.038 C 
HETATM   12  C14 UNL     1      -0.120   6.019  11.440  1.00  0.00     0.124 C 
HETATM   13  C15 UNL     1       0.751   6.652  12.547  1.00  0.00     0.034 C 
HETATM   14  C16 UNL     1       2.119   7.308  12.126  1.00  0.00    -0.015 C 
HETATM   15  C17 UNL     1       2.960   6.403  11.195  1.00  0.00     0.018 C 
HETATM   16  C18 UNL     1       1.904   8.626  11.349  1.00  0.00     0.018 C 
HETATM   17  C19 UNL     1       2.975   7.518  13.431  1.00  0.00     0.133 C 
HETATM   18  C26 UNL     1       2.151   7.593  14.726  1.00  0.00     0.034 C 
HETATM   19  C27 UNL     1       0.806   8.275  14.539  1.00  0.00     0.013 C 
HETATM   20  C28 UNL     1      -0.044   7.637  13.436  1.00  0.00    -0.025 A 
HETATM   21  C29 UNL     1      -1.031   8.609  12.828  1.00  0.00     0.021 A 
HETATM   22  C30 UNL     1      -1.583   7.425  13.591  1.00  0.00    -0.027 A 
HETATM   23  C31 UNL     1      -2.180   7.706  14.979  1.00  0.00     0.011 C 
HETATM   24  C32 UNL     1      -3.689   7.501  15.195  1.00  0.00     0.011 C 
HETATM   25  C33 UNL     1      -4.433   6.912  13.993  1.00  0.00    -0.030 C 
HETATM   26  C34 UNL     1      -4.744   8.082  13.016  1.00  0.00     0.016 C 
HETATM   27  O9  UNL     1      -6.973   5.238  12.387  1.00  0.00    -0.356 OA
ENDROOT
BRANCH  17  28
HETATM   28  O3  UNL     1       3.770   8.707  13.318  1.00  0.00    -0.352 OA
BRANCH  28  29
HETATM   29  C20 UNL     1       5.164   8.442  13.121  1.00  0.00     0.292 C 
HETATM   30  O4  UNL     1       5.864   8.641  14.351  1.00  0.00    -0.348 OA
HETATM   31  C21 UNL     1       7.268   8.369  14.246  1.00  0.00     0.179 C 
HETATM   32  C23 UNL     1       7.900   9.405  13.299  1.00  0.00     0.180 C 
HETATM   33  C24 UNL     1       7.212   9.313  11.934  1.00  0.00     0.183 C 
HETATM   34  C25 UNL     1       5.689   9.411  12.041  1.00  0.00     0.204 C 
BRANCH  31  35
HETATM   35  C22 UNL     1       7.862   8.429  15.660  1.00  0.00     0.198 C 
BRANCH  35  36
HETATM   36  O5  UNL     1       6.938   7.951  16.630  1.00  0.00    -0.398 OA
HETATM   37  H37 UNL     1       7.408   7.912  17.480  1.00  0.00     0.209 HD
ENDBRANCH  35  36
ENDBRANCH  31  35
BRANCH  32  38
HETATM   38  O6  UNL     1       9.301   9.213  13.121  1.00  0.00    -0.390 OA
HETATM   39  H39 UNL     1       9.550   9.669  12.294  1.00  0.00     0.210 HD
ENDBRANCH  32  38
BRANCH  33  40
HETATM   40  O7  UNL     1       7.711  10.351  11.066  1.00  0.00    -0.390 OA
HETATM   41  H41 UNL     1       7.461  11.213  11.448  1.00  0.00     0.210 HD
ENDBRANCH  33  40
BRANCH  34  42
HETATM   42  O8  UNL     1       5.124   9.130  10.749  1.00  0.00    -0.388 OA
HETATM   43  H43 UNL     1       5.686   9.591  10.098  1.00  0.00     0.210 HD
ENDBRANCH  34  42
ENDBRANCH  28  29
ENDBRANCH  17  28
BRANCH  12  44
HETATM   44  O2  UNL     1       0.588   4.964  10.788  1.00  0.00    -0.395 OA
HETATM   45  H24 UNL     1       0.027   4.644  10.058  1.00  0.00     0.210 HD
ENDBRANCH  12  44
BRANCH   1  46
HETATM   46  O1  UNL     1      -8.544   3.764  13.371  1.00  0.00    -0.362 OA
BRANCH  46  47
HETATM   47  C2  UNL     1      -7.417   2.901  13.500  1.00  0.00     0.166 C 
HETATM   48  C1  UNL     1      -7.415   1.774  12.484  1.00  0.00     0.033 C 
ENDBRANCH  46  47
ENDBRANCH   1  46
TORSDOF 10
ENDMDL
MODEL 6
REMARK minimizedAffinity -7.7543664
REMARK CNNscore 0.341403574
REMARK CNNaffinity 6.27287245
REMARK  10 active torsions:
REMARK  status: ('A' for Active; 'I' for Inactive)
REMARK    1  A    between atoms: C2_2  and  O1_3 
REMARK    2  A    between atoms: O1_3  and  C3_4 
REMARK    3  A    between atoms: C14_15  and  O2_16 
REMARK    4  A    between atoms: C19_21  and  O3_22 
REMARK    5  A    between atoms: O3_22  and  C20_23 
REMARK    6  A    between atoms: C21_25  and  C22_26 
REMARK    7  A    between atoms: C22_26  and  O5_27 
REMARK    8  A    between atoms: C23_28  and  O6_29 
REMARK    9  A    between atoms: C24_30  and  O7_31 
REMARK   10  A    between atoms: C25_32  and  O8_33 
ROOT
HETATM    1  C3  UNL     1      -1.323   6.460  13.449  1.00  0.00     0.260 C 
HETATM    2  C4  UNL     1      -1.353   7.255  12.130  1.00  0.00     0.065 C 
HETATM    3  C5  UNL     1       0.039   7.350  11.493  1.00  0.00    -0.007 C 
HETATM    4  C6  UNL     1      -0.033   8.078  10.153  1.00  0.00     0.010 C 
HETATM    5  C7  UNL     1       0.967   8.060  12.502  1.00  0.00     0.027 C 
HETATM    6  C8  UNL     1       0.726   7.540  13.949  1.00  0.00     0.130 C 
HETATM    7  C9  UNL     1       2.114   7.333  14.578  1.00  0.00     0.042 C 
HETATM    8  C10 UNL     1       3.039   8.258  13.766  1.00  0.00    -0.029 C 
HETATM    9  C11 UNL     1       2.797   9.717  14.267  1.00  0.00     0.016 C 
HETATM   10  C12 UNL     1       4.546   7.905  13.851  1.00  0.00     0.006 C 
HETATM   11  C13 UNL     1       5.161   8.168  15.227  1.00  0.00     0.038 C 
HETATM   12  C14 UNL     1       6.663   7.863  15.265  1.00  0.00     0.124 C 
HETATM   13  C15 UNL     1       7.415   8.875  14.374  1.00  0.00     0.034 C 
HETATM   14  C16 UNL     1       8.987   8.795  14.328  1.00  0.00    -0.015 C 
HETATM   15  C17 UNL     1       9.627   8.695  15.733  1.00  0.00     0.018 C 
HETATM   16  C18 UNL     1       9.471   7.545  13.557  1.00  0.00     0.018 C 
HETATM   17  C19 UNL     1       9.521  10.133  13.692  1.00  0.00     0.133 C 
HETATM   18  C26 UNL     1       8.500  10.867  12.809  1.00  0.00     0.034 C 
HETATM   19  C27 UNL     1       7.594   9.925  12.035  1.00  0.00     0.013 C 
HETATM   20  C28 UNL     1       6.857   8.926  12.933  1.00  0.00    -0.025 A 
HETATM   21  C29 UNL     1       6.480   7.657  12.201  1.00  0.00     0.021 A 
HETATM   22  C30 UNL     1       5.361   8.546  12.700  1.00  0.00    -0.027 A 
HETATM   23  C31 UNL     1       4.598   9.365  11.647  1.00  0.00     0.011 C 
HETATM   24  C32 UNL     1       3.117   9.044  11.384  1.00  0.00     0.011 C 
HETATM   25  C33 UNL     1       2.518   7.984  12.312  1.00  0.00    -0.030 C 
HETATM   26  C34 UNL     1       2.909   6.589  11.745  1.00  0.00     0.016 C 
HETATM   27  O9  UNL     1       0.001   6.318  13.963  1.00  0.00    -0.356 OA
ENDROOT
BRANCH  17  28
HETATM   28  O3  UNL     1      10.704   9.878  12.921  1.00  0.00    -0.352 OA
BRANCH  28  29
HETATM   29  C20 UNL     1      11.859  10.570  13.408  1.00  0.00     0.292 C 
HETATM   30  O4  UNL     1      11.562  11.158  14.676  1.00  0.00    -0.348 OA
HETATM   31  C21 UNL     1      12.681  11.851  15.248  1.00  0.00     0.179 C 
HETATM   32  C23 UNL     1      13.017  13.060  14.359  1.00  0.00     0.180 C 
HETATM   33  C24 UNL     1      13.334  12.565  12.945  1.00  0.00     0.183 C 
HETATM   34  C25 UNL     1      12.233  11.663  12.384  1.00  0.00     0.204 C 
BRANCH  31  35
HETATM   35  C22 UNL     1      12.295  12.262  16.676  1.00  0.00     0.198 C 
BRANCH  35  36
HETATM   36  O5  UNL     1      12.060  11.124  17.496  1.00  0.00    -0.398 OA
HETATM   37  H37 UNL     1      11.929  11.445  18.404  1.00  0.00     0.209 HD
ENDBRANCH  35  36
ENDBRANCH  31  35
BRANCH  32  38
HETATM   38  O6  UNL     1      14.128  13.813  14.841  1.00  0.00    -0.390 OA
HETATM   39  H39 UNL     1      14.471  14.331  14.088  1.00  0.00     0.210 HD
ENDBRANCH  32  38
BRANCH  33  40
HETATM   40  O7  UNL     1      13.541  13.690  12.068  1.00  0.00    -0.390 OA
HETATM   41  H41 UNL     1      12.704  14.188  12.010  1.00  0.00     0.210 HD
ENDBRANCH  33  40
BRANCH  34  42
HETATM   42  O8  UNL     1      12.695  11.099  11.144  1.00  0.00    -0.388 OA
HETATM   43  H43 UNL     1      13.148  11.819  10.667  1.00  0.00     0.210 HD
ENDBRANCH  34  42
ENDBRANCH  28  29
ENDBRANCH  17  28
BRANCH  12  44
HETATM   44  O2  UNL     1       7.062   8.004  16.629  1.00  0.00    -0.395 OA
HETATM   45  H24 UNL     1       6.613   7.304  17.138  1.00  0.00     0.210 HD
ENDBRANCH  12  44
BRANCH   1  46
HETATM   46  O1  UNL     1      -2.192   7.113  14.375  1.00  0.00    -0.362 OA
BRANCH  46  47
HETATM   47  C2  UNL     1      -3.287   6.316  14.818  1.00  0.00     0.166 C 
HETATM   48  C1  UNL     1      -3.564   5.133  13.909  1.00  0.00     0.033 C 
ENDBRANCH  46  47
ENDBRANCH   1  46
TORSDOF 10
ENDMDL
MODEL 7
REMARK minimizedAffinity -10.3382072
REMARK CNNscore 0.326369375
REMARK CNNaffinity 6.79912186
REMARK  10 active torsions:
REMARK  status: ('A' for Active; 'I' for Inactive)
REMARK    1  A    between atoms: C2_2  and  O1_3 
REMARK    2  A    between atoms: O1_3  and  C3_4 
REMARK    3  A    between atoms: C14_15  and  O2_16 
REMARK    4  A    between atoms: C19_21  and  O3_22 
REMARK    5  A    between atoms: O3_22  and  C20_23 
REMARK    6  A    between atoms: C21_25  and  C22_26 
REMARK    7  A    between atoms: C22_26  and  O5_27 
REMARK    8  A    between atoms: C23_28  and  O6_29 
REMARK    9  A    between atoms: C24_30  and  O7_31 
REMARK   10  A    between atoms: C25_32  and  O8_33 
ROOT
HETATM    1  C3  UNL     1      -6.774   5.736  13.731  1.00  0.00     0.260 C 
HETATM    2  C4  UNL     1      -6.631   6.842  14.793  1.00  0.00     0.065 C 
HETATM    3  C5  UNL     1      -5.469   7.790  14.470  1.00  0.00    -0.007 C 
HETATM    4  C6  UNL     1      -5.396   8.918  15.497  1.00  0.00     0.010 C 
HETATM    5  C7  UNL     1      -4.176   6.948  14.425  1.00  0.00     0.027 C 
HETATM    6  C8  UNL     1      -4.409   5.601  13.680  1.00  0.00     0.130 C 
HETATM    7  C9  UNL     1      -3.200   5.398  12.751  1.00  0.00     0.042 C 
HETATM    8  C10 UNL     1      -2.086   6.247  13.390  1.00  0.00    -0.029 C 
HETATM    9  C11 UNL     1      -1.542   5.454  14.620  1.00  0.00     0.016 C 
HETATM   10  C12 UNL     1      -0.923   6.617  12.434  1.00  0.00     0.006 C 
HETATM   11  C13 UNL     1      -0.056   5.423  12.031  1.00  0.00     0.038 C 
HETATM   12  C14 UNL     1       1.117   5.828  11.132  1.00  0.00     0.124 C 
HETATM   13  C15 UNL     1       2.110   6.692  11.940  1.00  0.00     0.034 C 
HETATM   14  C16 UNL     1       3.436   7.156  11.229  1.00  0.00    -0.015 C 
HETATM   15  C17 UNL     1       4.160   6.004  10.494  1.00  0.00     0.018 C 
HETATM   16  C18 UNL     1       3.159   8.232  10.154  1.00  0.00     0.018 C 
HETATM   17  C19 UNL     1       4.428   7.664  12.341  1.00  0.00     0.133 C 
HETATM   18  C26 UNL     1       3.746   8.111  13.643  1.00  0.00     0.034 C 
HETATM   19  C27 UNL     1       2.400   8.777  13.415  1.00  0.00     0.013 C 
HETATM   20  C28 UNL     1       1.428   7.908  12.610  1.00  0.00    -0.025 A 
HETATM   21  C29 UNL     1       0.397   8.728  11.864  1.00  0.00     0.021 A 
HETATM   22  C30 UNL     1      -0.088   7.810  12.965  1.00  0.00    -0.027 A 
HETATM   23  C31 UNL     1      -0.532   8.470  14.280  1.00  0.00     0.011 C 
HETATM   24  C32 UNL     1      -2.013   8.394  14.689  1.00  0.00     0.011 C 
HETATM   25  C33 UNL     1      -2.888   7.542  13.766  1.00  0.00    -0.030 C 
HETATM   26  C34 UNL     1      -3.282   8.426  12.548  1.00  0.00     0.016 C 
HETATM   27  O9  UNL     1      -5.608   5.614  12.917  1.00  0.00    -0.356 OA
ENDROOT
BRANCH  17  28
HETATM   28  O3  UNL     1       5.224   8.747  11.839  1.00  0.00    -0.352 OA
BRANCH  28  29
HETATM   29  C20 UNL     1       6.489   8.875  12.498  1.00  0.00     0.292 C 
HETATM   30  O4  UNL     1       6.278   9.105  13.893  1.00  0.00    -0.348 OA
HETATM   31  C21 UNL     1       7.501   9.219  14.633  1.00  0.00     0.179 C 
HETATM   32  C23 UNL     1       8.242  10.484  14.167  1.00  0.00     0.180 C 
HETATM   33  C24 UNL     1       8.510  10.376  12.663  1.00  0.00     0.183 C 
HETATM   34  C25 UNL     1       7.242  10.065  11.866  1.00  0.00     0.204 C 
BRANCH  31  35
HETATM   35  C22 UNL     1       7.142   9.266  16.125  1.00  0.00     0.198 C 
BRANCH  35  36
HETATM   36  O5  UNL     1       7.384   8.014  16.755  1.00  0.00    -0.398 OA
HETATM   37  H37 UNL     1       7.242   8.140  17.709  1.00  0.00     0.209 HD
ENDBRANCH  35  36
ENDBRANCH  31  35
BRANCH  32  38
HETATM   38  O6  UNL     1       9.482  10.681  14.841  1.00  0.00    -0.390 OA
HETATM   39  H39 UNL     1      10.019  11.278  14.284  1.00  0.00     0.210 HD
ENDBRANCH  32  38
BRANCH  33  40
HETATM   40  O7  UNL     1       9.103  11.600  12.183  1.00  0.00    -0.390 OA
HETATM   41  H41 UNL     1       8.454  12.318  12.302  1.00  0.00     0.210 HD
ENDBRANCH  33  40
BRANCH  34  42
HETATM   42  O8  UNL     1       7.616   9.798  10.503  1.00  0.00    -0.388 OA
HETATM   43  H43 UNL     1       8.294  10.460  10.270  1.00  0.00     0.210 HD
ENDBRANCH  34  42
ENDBRANCH  28  29
ENDBRANCH  17  28
BRANCH  12  44
HETATM   44  O2  UNL     1       1.737   4.610  10.717  1.00  0.00    -0.395 OA
HETATM   45  H24 UNL     1       1.097   4.134  10.157  1.00  0.00     0.210 HD
ENDBRANCH  12  44
BRANCH   1  46
HETATM   46  O1  UNL     1      -7.088   4.517  14.406  1.00  0.00    -0.362 OA
BRANCH  46  47
HETATM   47  C2  UNL     1      -7.807   3.574  13.616  1.00  0.00     0.166 C 
HETATM   48  C1  UNL     1      -6.919   2.815  12.647  1.00  0.00     0.033 C 
ENDBRANCH  46  47
ENDBRANCH   1  46
TORSDOF 10
ENDMDL
MODEL 8
REMARK minimizedAffinity -7.65485573
REMARK CNNscore 0.31756258
REMARK CNNaffinity 6.42198801
REMARK  10 active torsions:
REMARK  status: ('A' for Active; 'I' for Inactive)
REMARK    1  A    between atoms: C2_2  and  O1_3 
REMARK    2  A    between atoms: O1_3  and  C3_4 
REMARK    3  A    between atoms: C14_15  and  O2_16 
REMARK    4  A    between atoms: C19_21  and  O3_22 
REMARK    5  A    between atoms: O3_22  and  C20_23 
REMARK    6  A    between atoms: C21_25  and  C22_26 
REMARK    7  A    between atoms: C22_26  and  O5_27 
REMARK    8  A    between atoms: C23_28  and  O6_29 
REMARK    9  A    between atoms: C24_30  and  O7_31 
REMARK   10  A    between atoms: C25_32  and  O8_33 
ROOT
HETATM    1  C3  UNL     1      -1.307  16.492  19.709  1.00  0.00     0.260 C 
HETATM    2  C4  UNL     1      -2.539  16.962  18.914  1.00  0.00     0.065 C 
HETATM    3  C5  UNL     1      -3.419  15.782  18.483  1.00  0.00    -0.007 C 
HETATM    4  C6  UNL     1      -4.669  16.282  17.762  1.00  0.00     0.010 C 
HETATM    5  C7  UNL     1      -2.558  14.856  17.599  1.00  0.00     0.027 C 
HETATM    6  C8  UNL     1      -1.130  14.680  18.193  1.00  0.00     0.130 C 
HETATM    7  C9  UNL     1      -0.789  13.184  18.084  1.00  0.00     0.042 C 
HETATM    8  C10 UNL     1      -1.697  12.671  16.950  1.00  0.00    -0.029 C 
HETATM    9  C11 UNL     1      -1.061  13.130  15.601  1.00  0.00     0.016 C 
HETATM   10  C12 UNL     1      -1.922  11.138  16.944  1.00  0.00     0.006 C 
HETATM   11  C13 UNL     1      -0.672  10.335  16.576  1.00  0.00     0.038 C 
HETATM   12  C14 UNL     1      -0.939   8.827  16.523  1.00  0.00     0.124 C 
HETATM   13  C15 UNL     1      -1.885   8.514  15.343  1.00  0.00     0.034 C 
HETATM   14  C16 UNL     1      -2.232   7.006  15.053  1.00  0.00    -0.015 C 
HETATM   15  C17 UNL     1      -0.984   6.093  15.032  1.00  0.00     0.018 C 
HETATM   16  C18 UNL     1      -3.164   6.417  16.138  1.00  0.00     0.018 C 
HETATM   17  C19 UNL     1      -2.866   6.923  13.614  1.00  0.00     0.133 C 
HETATM   18  C26 UNL     1      -3.488   8.238  13.119  1.00  0.00     0.034 C 
HETATM   19  C27 UNL     1      -4.139   9.046  14.228  1.00  0.00     0.013 C 
HETATM   20  C28 UNL     1      -3.188   9.346  15.392  1.00  0.00    -0.025 A 
HETATM   21  C29 UNL     1      -3.920   9.566  16.697  1.00  0.00     0.021 A 
HETATM   22  C30 UNL     1      -3.160  10.733  16.105  1.00  0.00    -0.027 A 
HETATM   23  C31 UNL     1      -3.992  11.855  15.463  1.00  0.00     0.011 C 
HETATM   24  C32 UNL     1      -3.992  13.248  16.116  1.00  0.00     0.011 C 
HETATM   25  C33 UNL     1      -3.042  13.397  17.306  1.00  0.00    -0.030 C 
HETATM   26  C34 UNL     1      -3.766  12.824  18.558  1.00  0.00     0.016 C 
HETATM   27  O9  UNL     1      -1.062  15.095  19.550  1.00  0.00    -0.356 OA
ENDROOT
BRANCH  17  28
HETATM   28  O3  UNL     1      -3.862   5.892  13.568  1.00  0.00    -0.352 OA
BRANCH  28  29
HETATM   29  C20 UNL     1      -3.405   4.689  12.939  1.00  0.00     0.292 C 
HETATM   30  O4  UNL     1      -2.048   4.856  12.522  1.00  0.00    -0.348 OA
HETATM   31  C21 UNL     1      -1.505   3.682  11.903  1.00  0.00     0.179 C 
HETATM   32  C23 UNL     1      -2.258   3.425  10.587  1.00  0.00     0.180 C 
HETATM   33  C24 UNL     1      -3.748   3.253  10.893  1.00  0.00     0.183 C 
HETATM   34  C25 UNL     1      -4.310   4.410  11.721  1.00  0.00     0.204 C 
BRANCH  31  35
HETATM   35  C22 UNL     1      -0.004   3.922  11.683  1.00  0.00     0.198 C 
BRANCH  35  36
HETATM   36  O5  UNL     1       0.221   4.855  10.633  1.00  0.00    -0.398 OA
HETATM   37  H37 UNL     1       1.175   5.045  10.617  1.00  0.00     0.209 HD
ENDBRANCH  35  36
ENDBRANCH  31  35
BRANCH  32  38
HETATM   38  O6  UNL     1      -1.794   2.267   9.897  1.00  0.00    -0.390 OA
HETATM   39  H39 UNL     1      -2.504   1.996   9.284  1.00  0.00     0.210 HD
ENDBRANCH  32  38
BRANCH  33  40
HETATM   40  O7  UNL     1      -4.488   3.124   9.663  1.00  0.00    -0.390 OA
HETATM   41  H41 UNL     1      -4.399   3.959   9.166  1.00  0.00     0.210 HD
ENDBRANCH  33  40
BRANCH  34  42
HETATM   42  O8  UNL     1      -5.652   4.076  12.116  1.00  0.00    -0.388 OA
HETATM   43  H43 UNL     1      -6.074   3.667  11.338  1.00  0.00     0.210 HD
ENDBRANCH  34  42
ENDBRANCH  28  29
ENDBRANCH  17  28
BRANCH  12  44
HETATM   44  O2  UNL     1       0.332   8.207  16.323  1.00  0.00    -0.395 OA
HETATM   45  H24 UNL     1       0.867   8.376  17.120  1.00  0.00     0.210 HD
ENDBRANCH  12  44
BRANCH   1  46
HETATM   46  O1  UNL     1      -0.191  17.283  19.299  1.00  0.00    -0.362 OA
BRANCH  46  47
HETATM   47  C2  UNL     1       0.997  17.064  20.055  1.00  0.00     0.166 C 
HETATM   48  C1  UNL     1       1.481  18.311  20.770  1.00  0.00     0.033 C 
ENDBRANCH  46  47
ENDBRANCH   1  46
TORSDOF 10
ENDMDL
MODEL 9
REMARK minimizedAffinity -8.07113552
REMARK CNNscore 0.303760648
REMARK CNNaffinity 6.34143019
REMARK  10 active torsions:
REMARK  status: ('A' for Active; 'I' for Inactive)
REMARK    1  A    between atoms: C2_2  and  O1_3 
REMARK    2  A    between atoms: O1_3  and  C3_4 
REMARK    3  A    between atoms: C14_15  and  O2_16 
REMARK    4  A    between atoms: C19_21  and  O3_22 
REMARK    5  A    between atoms: O3_22  and  C20_23 
REMARK    6  A    between atoms: C21_25  and  C22_26 
REMARK    7  A    between atoms: C22_26  and  O5_27 
REMARK    8  A    between atoms: C23_28  and  O6_29 
REMARK    9  A    between atoms: C24_30  and  O7_31 
REMARK   10  A    between atoms: C25_32  and  O8_33 
ROOT
HETATM    1  C3  UNL     1      -1.272   6.265  13.294  1.00  0.00     0.260 C 
HETATM    2  C4  UNL     1      -1.286   6.973  11.926  1.00  0.00     0.065 C 
HETATM    3  C5  UNL     1       0.123   7.078  11.328  1.00  0.00    -0.007 C 
HETATM    4  C6  UNL     1       0.071   7.716   9.942  1.00  0.00     0.010 C 
HETATM    5  C7  UNL     1       0.992   7.884  12.317  1.00  0.00     0.027 C 
HETATM    6  C8  UNL     1       0.720   7.449  13.787  1.00  0.00     0.130 C 
HETATM    7  C9  UNL     1       2.093   7.332  14.471  1.00  0.00     0.042 C 
HETATM    8  C10 UNL     1       3.013   8.237  13.630  1.00  0.00    -0.029 C 
HETATM    9  C11 UNL     1       2.704   9.715  14.028  1.00  0.00     0.016 C 
HETATM   10  C12 UNL     1       4.527   7.945  13.785  1.00  0.00     0.006 C 
HETATM   11  C13 UNL     1       5.087   8.317  15.159  1.00  0.00     0.038 C 
HETATM   12  C14 UNL     1       6.596   8.070  15.264  1.00  0.00     0.124 C 
HETATM   13  C15 UNL     1       7.342   9.050  14.333  1.00  0.00     0.034 C 
HETATM   14  C16 UNL     1       8.917   9.024  14.341  1.00  0.00    -0.015 C 
HETATM   15  C17 UNL     1       9.512   9.037  15.769  1.00  0.00     0.018 C 
HETATM   16  C18 UNL     1       9.469   7.746  13.668  1.00  0.00     0.018 C 
HETATM   17  C19 UNL     1       9.426  10.337  13.637  1.00  0.00     0.133 C 
HETATM   18  C26 UNL     1       8.410  10.975  12.677  1.00  0.00     0.034 C 
HETATM   19  C27 UNL     1       7.563   9.954  11.937  1.00  0.00     0.013 C 
HETATM   20  C28 UNL     1       6.831   8.989  12.875  1.00  0.00    -0.025 A 
HETATM   21  C29 UNL     1       6.522   7.662  12.216  1.00  0.00     0.021 A 
HETATM   22  C30 UNL     1       5.358   8.540  12.620  1.00  0.00    -0.027 A 
HETATM   23  C31 UNL     1       4.603   9.262  11.493  1.00  0.00     0.011 C 
HETATM   24  C32 UNL     1       3.143   8.871  11.205  1.00  0.00     0.011 C 
HETATM   25  C33 UNL     1       2.550   7.852  12.181  1.00  0.00    -0.030 C 
HETATM   26  C34 UNL     1       3.007   6.439  11.718  1.00  0.00     0.016 C 
HETATM   27  O9  UNL     1       0.038   6.205  13.858  1.00  0.00    -0.356 OA
ENDROOT
BRANCH  17  28
HETATM   28  O3  UNL     1      10.641  10.077  12.921  1.00  0.00    -0.352 OA
BRANCH  28  29
HETATM   29  C20 UNL     1      11.085  11.187  12.132  1.00  0.00     0.292 C 
HETATM   30  O4  UNL     1      11.261  10.766  10.777  1.00  0.00    -0.348 OA
HETATM   31  C21 UNL     1      11.680  11.830   9.911  1.00  0.00     0.179 C 
HETATM   32  C23 UNL     1      13.088  12.284  10.335  1.00  0.00     0.180 C 
HETATM   33  C24 UNL     1      13.043  12.741  11.796  1.00  0.00     0.183 C 
HETATM   34  C25 UNL     1      12.421  11.689  12.716  1.00  0.00     0.204 C 
BRANCH  31  35
HETATM   35  C22 UNL     1      11.644  11.301   8.470  1.00  0.00     0.198 C 
BRANCH  35  36
HETATM   36  O5  UNL     1      10.488  10.506   8.240  1.00  0.00    -0.398 OA
HETATM   37  H37 UNL     1      10.467  10.294   7.292  1.00  0.00     0.209 HD
ENDBRANCH  35  36
ENDBRANCH  31  35
BRANCH  32  38
HETATM   38  O6  UNL     1      13.592  13.351   9.536  1.00  0.00    -0.390 OA
HETATM   39  H39 UNL     1      14.301  13.784  10.049  1.00  0.00     0.210 HD
ENDBRANCH  32  38
BRANCH  33  40
HETATM   40  O7  UNL     1      14.373  13.064  12.248  1.00  0.00    -0.390 OA
HETATM   41  H41 UNL     1      14.908  12.249  12.225  1.00  0.00     0.210 HD
ENDBRANCH  33  40
BRANCH  34  42
HETATM   42  O8  UNL     1      12.250  12.272  14.020  1.00  0.00    -0.388 OA
HETATM   43  H43 UNL     1      13.058  12.787  14.199  1.00  0.00     0.210 HD
ENDBRANCH  34  42
ENDBRANCH  28  29
ENDBRANCH  17  28
BRANCH  12  44
HETATM   44  O2  UNL     1       6.944   8.312  16.628  1.00  0.00    -0.395 OA
HETATM   45  H24 UNL     1       6.503   7.629  17.166  1.00  0.00     0.210 HD
ENDBRANCH  12  44
BRANCH   1  46
HETATM   46  O1  UNL     1      -2.194   6.944  14.149  1.00  0.00    -0.362 OA
BRANCH  46  47
HETATM   47  C2  UNL     1      -3.185   6.103  14.732  1.00  0.00     0.166 C 
HETATM   48  C1  UNL     1      -3.888   5.224  13.715  1.00  0.00     0.033 C 
ENDBRANCH  46  47
ENDBRANCH   1  46
TORSDOF 10
ENDMDL
