MODEL 1
REMARK minimizedAffinity -7.79666281
REMARK CNNscore 0.0973017663
REMARK CNNaffinity 5.57358694
REMARK  10 active torsions:
REMARK  status: ('A' for Active; 'I' for Inactive)
REMARK    1  A    between atoms: C16_18  and  C17_19 
REMARK    2  A    between atoms: C26_30  and  C27_31 
REMARK    3  A    between atoms: C27_31  and  O1_33 
REMARK    4  A    between atoms: C30_35  and  C31_36 
REMARK    5  A    between atoms: C31_36  and  O3_38 
REMARK    6  A    between atoms: C37_44  and  O4_45 
REMARK    7  A    between atoms: C41_49  and  C42_50 
REMARK    8  A    between atoms: C41_49  and  C43_52 
REMARK    9  A    between atoms: C42_50  and  O5_51 
REMARK   10  A    between atoms: C43_52  and  O7_54 
ROOT
HETATM    1  C17 UNL     1     -14.192  43.094 -25.347  1.00  0.00     0.013 A 
HETATM    2  C18 UNL     1     -13.106  43.663 -26.059  1.00  0.00     0.053 A 
HETATM    3  N3  UNL     1     -12.917  44.956 -26.488  1.00  0.00    -0.357 N 
HETATM    4  C19 UNL     1     -11.708  45.097 -27.130  1.00  0.00     0.038 A 
HETATM    5  C20 UNL     1     -11.106  43.849 -27.148  1.00  0.00    -0.020 A 
HETATM    6  C21 UNL     1      -9.775  43.524 -27.742  1.00  0.00     0.072 C 
HETATM    7  C22 UNL     1      -9.625  43.978 -29.203  1.00  0.00     0.277 C 
HETATM    8  N4  UNL     1      -9.872  45.390 -29.527  1.00  0.00     0.096 N 
HETATM    9  C23 UNL     1     -11.051  45.591 -30.387  1.00  0.00     0.277 C 
HETATM   10  C24 UNL     1     -11.647  46.991 -30.130  1.00  0.00     0.016 C 
HETATM   11  C25 UNL     1     -10.515  48.026 -30.194  1.00  0.00     0.015 C 
HETATM   12  C26 UNL     1      -9.514  47.753 -29.051  1.00  0.00     0.049 C 
HETATM   13  C29 UNL     1      -9.842  46.362 -28.406  1.00  0.00     0.253 C 
HETATM   14  C30 UNL     1     -11.239  46.450 -27.669  1.00  0.00     0.122 C 
HETATM   15  C33 UNL     1     -12.267  47.004 -28.717  1.00  0.00     0.035 C 
HETATM   16  C34 UNL     1     -11.986  42.945 -26.467  1.00  0.00    -0.000 A 
HETATM   17  C35 UNL     1     -11.920  41.577 -26.161  1.00  0.00     0.017 A 
HETATM   18  C36 UNL     1     -12.962  40.973 -25.453  1.00  0.00     0.038 A 
HETATM   19  C37 UNL     1     -14.079  41.709 -25.048  1.00  0.00     0.077 A 
HETATM   20  H19 UNL     1     -13.583  45.704 -26.347  1.00  0.00     0.166 HD
ENDROOT
BRANCH   1  21
HETATM   21  C16 UNL     1     -15.431  43.894 -24.903  1.00  0.00     0.075 C 
HETATM   22  C9  UNL     1     -15.576  43.905 -23.394  1.00  0.00     0.025 A 
HETATM   23  C8  UNL     1     -16.606  43.586 -22.516  1.00  0.00    -0.020 A 
HETATM   24  N2  UNL     1     -14.531  44.376 -22.626  1.00  0.00    -0.358 N 
HETATM   25  C7  UNL     1     -17.933  42.986 -22.858  1.00  0.00     0.079 C 
HETATM   26  C15 UNL     1     -16.184  43.964 -21.203  1.00  0.00    -0.001 A 
HETATM   27  C6  UNL     1     -19.003  43.939 -23.457  1.00  0.00     0.248 C 
HETATM   28  N1  UNL     1     -20.118  43.180 -24.104  1.00  0.00     0.094 N 
HETATM   29  C41 UNL     1     -18.524  45.025 -24.482  1.00  0.00     0.107 C 
HETATM   30  C4  UNL     1     -19.741  42.521 -25.366  1.00  0.00     0.306 C 
HETATM   31  C5  UNL     1     -20.789  42.248 -23.203  1.00  0.00     0.310 C 
HETATM   32  C3  UNL     1     -19.064  43.468 -26.349  1.00  0.00    -0.051 C 
HETATM   33  C2  UNL     1     -19.399  43.614 -27.646  1.00  0.00    -0.026 C 
HETATM   34  C40 UNL     1     -17.935  44.326 -25.749  1.00  0.00     0.039 C 
HETATM   35  C1  UNL     1     -20.462  42.897 -28.417  1.00  0.00     0.036 C 
HETATM   36  C39 UNL     1     -16.674  43.407 -25.666  1.00  0.00     0.026 C 
HETATM   37  C10 UNL     1     -14.876  44.438 -21.303  1.00  0.00     0.043 A 
HETATM   38  C14 UNL     1     -16.805  43.954 -19.937  1.00  0.00     0.014 A 
HETATM   39  C11 UNL     1     -14.146  44.893 -20.196  1.00  0.00     0.030 A 
HETATM   40  C12 UNL     1     -14.783  44.874 -18.950  1.00  0.00     0.002 A 
HETATM   41  C13 UNL     1     -16.098  44.419 -18.821  1.00  0.00     0.001 A 
HETATM   42  H13 UNL     1     -13.647  44.697 -23.005  1.00  0.00     0.166 HD
BRANCH  29  43
HETATM   43  C42 UNL     1     -19.770  45.923 -24.858  1.00  0.00     0.186 C 
BRANCH  43  44
HETATM   44  O5  UNL     1     -19.468  47.316 -24.914  1.00  0.00    -0.399 OA
HETATM   45  H51 UNL     1     -18.977  47.468 -25.739  1.00  0.00     0.209 HD
ENDBRANCH  43  44
ENDBRANCH  29  43
BRANCH  29  46
HETATM   46  C43 UNL     1     -17.593  46.099 -23.901  1.00  0.00     0.272 C 
HETATM   47  O6  UNL     1     -17.563  46.429 -22.720  1.00  0.00    -0.264 OA
BRANCH  46  48
HETATM   48  O7  UNL     1     -16.737  46.596 -24.851  1.00  0.00    -0.326 OA
HETATM   49  C44 UNL     1     -15.729  47.460 -24.331  1.00  0.00     0.213 C 
ENDBRANCH  46  48
ENDBRANCH  29  46
ENDBRANCH   1  21
BRANCH  19  50
HETATM   50  O4  UNL     1     -15.124  41.167 -24.340  1.00  0.00    -0.355 OA
HETATM   51  C38 UNL     1     -14.825  40.277 -23.273  1.00  0.00     0.210 C 
ENDBRANCH  19  50
BRANCH  14  52
HETATM   52  C31 UNL     1     -11.176  47.390 -26.440  1.00  0.00     0.275 C 
HETATM   53  O2  UNL     1     -11.670  48.515 -26.419  1.00  0.00    -0.264 OA
BRANCH  52  54
HETATM   54  O3  UNL     1     -10.574  46.793 -25.371  1.00  0.00    -0.326 OA
HETATM   55  C32 UNL     1      -9.458  47.511 -24.838  1.00  0.00     0.213 C 
ENDBRANCH  52  54
ENDBRANCH  14  52
BRANCH  12  56
HETATM   56  C27 UNL     1      -8.049  47.985 -29.480  1.00  0.00     0.120 C 
HETATM   57  C28 UNL     1      -6.972  47.764 -28.428  1.00  0.00     0.040 C 
BRANCH  56  58
HETATM   58  O1  UNL     1      -7.912  49.316 -29.993  1.00  0.00    -0.396 OA
HETATM   59  H34 UNL     1      -7.959  49.930 -29.246  1.00  0.00     0.210 HD
ENDBRANCH  56  58
ENDBRANCH  12  56
TORSDOF 10
ENDMDL
MODEL 2
REMARK minimizedAffinity -7.55936337
REMARK CNNscore 0.0900395066
REMARK CNNaffinity 5.90908623
REMARK  10 active torsions:
REMARK  status: ('A' for Active; 'I' for Inactive)
REMARK    1  A    between atoms: C16_18  and  C17_19 
REMARK    2  A    between atoms: C26_30  and  C27_31 
REMARK    3  A    between atoms: C27_31  and  O1_33 
REMARK    4  A    between atoms: C30_35  and  C31_36 
REMARK    5  A    between atoms: C31_36  and  O3_38 
REMARK    6  A    between atoms: C37_44  and  O4_45 
REMARK    7  A    between atoms: C41_49  and  C42_50 
REMARK    8  A    between atoms: C41_49  and  C43_52 
REMARK    9  A    between atoms: C42_50  and  O5_51 
REMARK   10  A    between atoms: C43_52  and  O7_54 
ROOT
HETATM    1  C17 UNL     1     -12.807  42.594 -28.437  1.00  0.00     0.013 A 
HETATM    2  C18 UNL     1     -11.618  43.283 -28.786  1.00  0.00     0.053 A 
HETATM    3  N3  UNL     1     -11.282  44.605 -28.603  1.00  0.00    -0.357 N 
HETATM    4  C19 UNL     1     -10.014  44.867 -29.069  1.00  0.00     0.038 A 
HETATM    5  C20 UNL     1      -9.522  43.685 -29.602  1.00  0.00    -0.020 A 
HETATM    6  C21 UNL     1      -8.176  43.496 -30.222  1.00  0.00     0.072 C 
HETATM    7  C22 UNL     1      -7.862  44.510 -31.333  1.00  0.00     0.277 C 
HETATM    8  N4  UNL     1      -7.958  45.943 -31.023  1.00  0.00     0.096 N 
HETATM    9  C23 UNL     1      -9.036  46.625 -31.759  1.00  0.00     0.277 C 
HETATM   10  C24 UNL     1      -9.530  47.839 -30.945  1.00  0.00     0.016 C 
HETATM   11  C25 UNL     1      -8.312  48.666 -30.506  1.00  0.00     0.015 C 
HETATM   12  C26 UNL     1      -7.443  47.817 -29.554  1.00  0.00     0.049 C 
HETATM   13  C29 UNL     1      -7.943  46.332 -29.591  1.00  0.00     0.253 C 
HETATM   14  C30 UNL     1      -9.387  46.257 -28.947  1.00  0.00     0.122 C 
HETATM   15  C33 UNL     1     -10.268  47.318 -29.693  1.00  0.00     0.035 C 
HETATM   16  C34 UNL     1     -10.531  42.686 -29.418  1.00  0.00    -0.000 A 
HETATM   17  C35 UNL     1     -10.610  41.321 -29.733  1.00  0.00     0.017 A 
HETATM   18  C36 UNL     1     -11.758  40.596 -29.401  1.00  0.00     0.038 A 
HETATM   19  C37 UNL     1     -12.838  41.211 -28.765  1.00  0.00     0.077 A 
HETATM   20  H19 UNL     1     -11.892  45.292 -28.180  1.00  0.00     0.166 HD
ENDROOT
BRANCH   1  21
HETATM   21  C16 UNL     1     -14.007  43.264 -27.742  1.00  0.00     0.075 C 
HETATM   22  C9  UNL     1     -14.000  43.008 -26.248  1.00  0.00     0.025 A 
HETATM   23  C8  UNL     1     -14.931  42.508 -25.345  1.00  0.00    -0.020 A 
HETATM   24  N2  UNL     1     -12.890  43.373 -25.514  1.00  0.00    -0.358 N 
HETATM   25  C7  UNL     1     -16.277  41.933 -25.658  1.00  0.00     0.079 C 
HETATM   26  C15 UNL     1     -14.385  42.666 -24.033  1.00  0.00    -0.001 A 
HETATM   27  C6  UNL     1     -17.415  42.941 -25.974  1.00  0.00     0.248 C 
HETATM   28  N1  UNL     1     -18.578  42.270 -26.635  1.00  0.00     0.094 N 
HETATM   29  C41 UNL     1     -17.058  44.204 -26.833  1.00  0.00     0.107 C 
HETATM   30  C4  UNL     1     -18.320  41.853 -28.023  1.00  0.00     0.306 C 
HETATM   31  C5  UNL     1     -19.141  41.175 -25.851  1.00  0.00     0.310 C 
HETATM   32  C3  UNL     1     -17.760  42.978 -28.884  1.00  0.00    -0.051 C 
HETATM   33  C2  UNL     1     -18.225  43.335 -30.097  1.00  0.00    -0.026 C 
HETATM   34  C40 UNL     1     -16.589  43.755 -28.254  1.00  0.00     0.039 C 
HETATM   35  C1  UNL     1     -19.349  42.729 -30.876  1.00  0.00     0.036 C 
HETATM   36  C39 UNL     1     -15.313  42.876 -28.456  1.00  0.00     0.026 C 
HETATM   37  C10 UNL     1     -13.101  43.192 -24.173  1.00  0.00     0.043 A 
HETATM   38  C14 UNL     1     -14.875  42.416 -22.734  1.00  0.00     0.014 A 
HETATM   39  C11 UNL     1     -12.271  43.472 -23.079  1.00  0.00     0.030 A 
HETATM   40  C12 UNL     1     -12.779  43.216 -21.801  1.00  0.00     0.002 A 
HETATM   41  C13 UNL     1     -14.067  42.703 -21.627  1.00  0.00     0.001 A 
HETATM   42  H13 UNL     1     -12.053  43.783 -25.913  1.00  0.00     0.166 HD
BRANCH  29  43
HETATM   43  C42 UNL     1     -18.349  45.112 -26.924  1.00  0.00     0.186 C 
BRANCH  43  44
HETATM   44  O5  UNL     1     -18.536  45.946 -25.781  1.00  0.00    -0.399 OA
HETATM   45  H51 UNL     1     -17.894  46.671 -25.850  1.00  0.00     0.209 HD
ENDBRANCH  43  44
ENDBRANCH  29  43
BRANCH  29  46
HETATM   46  C43 UNL     1     -16.090  45.190 -26.164  1.00  0.00     0.272 C 
HETATM   47  O6  UNL     1     -15.959  45.323 -24.952  1.00  0.00    -0.264 OA
BRANCH  46  48
HETATM   48  O7  UNL     1     -15.327  45.856 -27.089  1.00  0.00    -0.326 OA
HETATM   49  C44 UNL     1     -14.293  46.657 -26.522  1.00  0.00     0.213 C 
ENDBRANCH  46  48
ENDBRANCH  29  46
ENDBRANCH   1  21
BRANCH  19  50
HETATM   50  O4  UNL     1     -13.983  40.542 -28.406  1.00  0.00    -0.355 OA
HETATM   51  C38 UNL     1     -13.905  39.140 -28.191  1.00  0.00     0.210 C 
ENDBRANCH  19  50
BRANCH  14  52
HETATM   52  C31 UNL     1      -9.351  46.568 -27.431  1.00  0.00     0.275 C 
HETATM   53  O2  UNL     1      -8.383  46.333 -26.712  1.00  0.00    -0.264 OA
BRANCH  52  54
HETATM   54  O3  UNL     1     -10.488  47.194 -27.011  1.00  0.00    -0.326 OA
HETATM   55  C32 UNL     1     -10.679  47.196 -25.594  1.00  0.00     0.213 C 
ENDBRANCH  52  54
ENDBRANCH  14  52
BRANCH  12  56
HETATM   56  C27 UNL     1      -5.931  48.041 -29.779  1.00  0.00     0.120 C 
HETATM   57  C28 UNL     1      -5.056  48.173 -28.541  1.00  0.00     0.040 C 
BRANCH  56  58
HETATM   58  O1  UNL     1      -5.741  49.206 -30.591  1.00  0.00    -0.396 OA
HETATM   59  H34 UNL     1      -5.938  49.983 -30.050  1.00  0.00     0.210 HD
ENDBRANCH  56  58
ENDBRANCH  12  56
TORSDOF 10
ENDMDL
MODEL 3
REMARK minimizedAffinity -7.73008966
REMARK CNNscore 0.0844792724
REMARK CNNaffinity 7.20256567
REMARK  10 active torsions:
REMARK  status: ('A' for Active; 'I' for Inactive)
REMARK    1  A    between atoms: C16_18  and  C17_19 
REMARK    2  A    between atoms: C26_30  and  C27_31 
REMARK    3  A    between atoms: C27_31  and  O1_33 
REMARK    4  A    between atoms: C30_35  and  C31_36 
REMARK    5  A    between atoms: C31_36  and  O3_38 
REMARK    6  A    between atoms: C37_44  and  O4_45 
REMARK    7  A    between atoms: C41_49  and  C42_50 
REMARK    8  A    between atoms: C41_49  and  C43_52 
REMARK    9  A    between atoms: C42_50  and  O5_51 
REMARK   10  A    between atoms: C43_52  and  O7_54 
ROOT
HETATM    1  C17 UNL     1      -0.831  51.444 -19.429  1.00  0.00     0.013 A 
HETATM    2  C18 UNL     1      -0.692  51.247 -18.032  1.00  0.00     0.053 A 
HETATM    3  N3  UNL     1      -1.556  50.659 -17.137  1.00  0.00    -0.357 N 
HETATM    4  C19 UNL     1      -1.027  50.651 -15.866  1.00  0.00     0.038 A 
HETATM    5  C20 UNL     1       0.205  51.282 -15.931  1.00  0.00    -0.020 A 
HETATM    6  C21 UNL     1       1.139  51.502 -14.787  1.00  0.00     0.072 C 
HETATM    7  C22 UNL     1       0.484  52.191 -13.579  1.00  0.00     0.277 C 
HETATM    8  N4  UNL     1      -0.722  51.586 -12.996  1.00  0.00     0.096 N 
HETATM    9  C23 UNL     1      -1.925  52.422 -13.156  1.00  0.00     0.277 C 
HETATM   10  C24 UNL     1      -3.179  51.523 -13.183  1.00  0.00     0.016 C 
HETATM   11  C25 UNL     1      -3.117  50.557 -11.990  1.00  0.00     0.015 C 
HETATM   12  C26 UNL     1      -1.899  49.625 -12.159  1.00  0.00     0.049 C 
HETATM   13  C29 UNL     1      -0.997  50.165 -13.322  1.00  0.00     0.253 C 
HETATM   14  C30 UNL     1      -1.776  50.017 -14.691  1.00  0.00     0.122 C 
HETATM   15  C33 UNL     1      -3.168  50.711 -14.495  1.00  0.00     0.035 C 
HETATM   16  C34 UNL     1       0.419  51.653 -17.298  1.00  0.00    -0.000 A 
HETATM   17  C35 UNL     1       1.466  52.297 -17.973  1.00  0.00     0.017 A 
HETATM   18  C36 UNL     1       1.380  52.506 -19.352  1.00  0.00     0.038 A 
HETATM   19  C37 UNL     1       0.259  52.089 -20.074  1.00  0.00     0.077 A 
HETATM   20  H19 UNL     1      -2.461  50.283 -17.385  1.00  0.00     0.166 HD
ENDROOT
BRANCH   1  21
HETATM   21  C16 UNL     1      -2.065  50.995 -20.233  1.00  0.00     0.075 C 
HETATM   22  C9  UNL     1      -2.363  49.524 -20.023  1.00  0.00     0.025 A 
HETATM   23  C8  UNL     1      -2.558  48.442 -20.875  1.00  0.00    -0.020 A 
HETATM   24  N2  UNL     1      -2.564  49.060 -18.739  1.00  0.00    -0.358 N 
HETATM   25  C7  UNL     1      -2.402  48.422 -22.362  1.00  0.00     0.079 C 
HETATM   26  C15 UNL     1      -2.971  47.333 -20.071  1.00  0.00    -0.001 A 
HETATM   27  C6  UNL     1      -3.556  49.038 -23.199  1.00  0.00     0.248 C 
HETATM   28  N1  UNL     1      -3.132  49.310 -24.607  1.00  0.00     0.094 N 
HETATM   29  C41 UNL     1      -4.237  50.343 -22.658  1.00  0.00     0.107 C 
HETATM   30  C4  UNL     1      -2.194  50.437 -24.744  1.00  0.00     0.306 C 
HETATM   31  C5  UNL     1      -2.641  48.126 -25.307  1.00  0.00     0.310 C 
HETATM   32  C3  UNL     1      -2.684  51.702 -24.053  1.00  0.00    -0.051 C 
HETATM   33  C2  UNL     1      -2.729  52.928 -24.612  1.00  0.00    -0.026 C 
HETATM   34  C40 UNL     1      -3.188  51.500 -22.612  1.00  0.00     0.039 C 
HETATM   35  C1  UNL     1      -2.307  53.336 -25.987  1.00  0.00     0.036 C 
HETATM   36  C39 UNL     1      -1.919  51.419 -21.704  1.00  0.00     0.026 C 
HETATM   37  C10 UNL     1      -2.948  47.747 -18.740  1.00  0.00     0.043 A 
HETATM   38  C14 UNL     1      -3.374  46.013 -20.363  1.00  0.00     0.014 A 
HETATM   39  C11 UNL     1      -3.295  46.902 -17.676  1.00  0.00     0.030 A 
HETATM   40  C12 UNL     1      -3.692  45.598 -17.989  1.00  0.00     0.002 A 
HETATM   41  C13 UNL     1      -3.740  45.158 -19.315  1.00  0.00     0.001 A 
HETATM   42  H13 UNL     1      -2.499  49.639 -17.909  1.00  0.00     0.166 HD
BRANCH  29  43
HETATM   43  C42 UNL     1      -5.435  50.704 -23.625  1.00  0.00     0.186 C 
BRANCH  43  44
HETATM   44  O5  UNL     1      -6.114  51.905 -23.261  1.00  0.00    -0.399 OA
HETATM   45  H51 UNL     1      -5.542  52.645 -23.524  1.00  0.00     0.209 HD
ENDBRANCH  43  44
ENDBRANCH  29  43
BRANCH  29  46
HETATM   46  C43 UNL     1      -5.006  50.175 -21.340  1.00  0.00     0.272 C 
HETATM   47  O6  UNL     1      -5.109  51.042 -20.478  1.00  0.00    -0.264 OA
BRANCH  46  48
HETATM   48  O7  UNL     1      -5.636  48.958 -21.273  1.00  0.00    -0.326 OA
HETATM   49  C44 UNL     1      -6.365  48.746 -20.066  1.00  0.00     0.213 C 
ENDBRANCH  46  48
ENDBRANCH  29  46
ENDBRANCH   1  21
BRANCH  19  50
HETATM   50  O4  UNL     1       0.129  52.259 -21.431  1.00  0.00    -0.355 OA
HETATM   51  C38 UNL     1       0.965  53.212 -22.074  1.00  0.00     0.210 C 
ENDBRANCH  19  50
BRANCH  14  52
HETATM   52  C31 UNL     1      -1.973  48.530 -15.075  1.00  0.00     0.275 C 
HETATM   53  O2  UNL     1      -1.079  47.822 -15.532  1.00  0.00    -0.264 OA
BRANCH  52  54
HETATM   54  O3  UNL     1      -3.230  48.089 -14.780  1.00  0.00    -0.326 OA
HETATM   55  C32 UNL     1      -3.273  46.895 -13.993  1.00  0.00     0.213 C 
ENDBRANCH  52  54
ENDBRANCH  14  52
BRANCH  12  56
HETATM   56  C27 UNL     1      -1.191  49.330 -10.818  1.00  0.00     0.120 C 
HETATM   57  C28 UNL     1      -1.291  50.389  -9.730  1.00  0.00     0.040 C 
BRANCH  56  58
HETATM   58  O1  UNL     1       0.195  49.064 -11.063  1.00  0.00    -0.396 OA
HETATM   59  H34 UNL     1       0.624  49.902 -11.288  1.00  0.00     0.210 HD
ENDBRANCH  56  58
ENDBRANCH  12  56
TORSDOF 10
ENDMDL
MODEL 4
REMARK minimizedAffinity -7.45033598
REMARK CNNscore 0.08381024
REMARK CNNaffinity 5.37924051
REMARK  10 active torsions:
REMARK  status: ('A' for Active; 'I' for Inactive)
REMARK    1  A    between atoms: C16_18  and  C17_19 
REMARK    2  A    between atoms: C26_30  and  C27_31 
REMARK    3  A    between atoms: C27_31  and  O1_33 
REMARK    4  A    between atoms: C30_35  and  C31_36 
REMARK    5  A    between atoms: C31_36  and  O3_38 
REMARK    6  A    between atoms: C37_44  and  O4_45 
REMARK    7  A    between atoms: C41_49  and  C42_50 
REMARK    8  A    between atoms: C41_49  and  C43_52 
REMARK    9  A    between atoms: C42_50  and  O5_51 
REMARK   10  A    between atoms: C43_52  and  O7_54 
ROOT
HETATM    1  C17 UNL     1      -7.352  43.719 -22.215  1.00  0.00     0.013 A 
HETATM    2  C18 UNL     1      -7.910  44.140 -23.449  1.00  0.00     0.053 A 
HETATM    3  N3  UNL     1      -8.283  45.398 -23.862  1.00  0.00    -0.357 N 
HETATM    4  C19 UNL     1      -8.766  45.378 -25.151  1.00  0.00     0.038 A 
HETATM    5  C20 UNL     1      -8.736  44.060 -25.577  1.00  0.00    -0.020 A 
HETATM    6  C21 UNL     1      -9.167  43.561 -26.918  1.00  0.00     0.072 C 
HETATM    7  C22 UNL     1     -10.587  43.999 -27.311  1.00  0.00     0.277 C 
HETATM    8  N4  UNL     1     -10.907  45.434 -27.298  1.00  0.00     0.096 N 
HETATM    9  C23 UNL     1     -11.903  45.797 -26.275  1.00  0.00     0.277 C 
HETATM   10  C24 UNL     1     -11.690  47.263 -25.843  1.00  0.00     0.016 C 
HETATM   11  C25 UNL     1     -11.589  48.136 -27.103  1.00  0.00     0.015 C 
HETATM   12  C26 UNL     1     -10.337  47.723 -27.905  1.00  0.00     0.049 C 
HETATM   13  C29 UNL     1      -9.770  46.386 -27.315  1.00  0.00     0.253 C 
HETATM   14  C30 UNL     1      -9.211  46.658 -25.860  1.00  0.00     0.122 C 
HETATM   15  C33 UNL     1     -10.366  47.352 -25.056  1.00  0.00     0.035 C 
HETATM   16  C34 UNL     1      -8.191  43.280 -24.506  1.00  0.00    -0.000 A 
HETATM   17  C35 UNL     1      -7.911  41.914 -24.349  1.00  0.00     0.017 A 
HETATM   18  C36 UNL     1      -7.352  41.452 -23.154  1.00  0.00     0.038 A 
HETATM   19  C37 UNL     1      -7.073  42.330 -22.104  1.00  0.00     0.077 A 
HETATM   20  H19 UNL     1      -8.209  46.229 -23.289  1.00  0.00     0.166 HD
ENDROOT
BRANCH   1  21
HETATM   21  C16 UNL     1      -7.048  44.677 -21.048  1.00  0.00     0.075 C 
HETATM   22  C9  UNL     1      -8.270  45.484 -20.657  1.00  0.00     0.025 A 
HETATM   23  C8  UNL     1      -8.527  46.841 -20.496  1.00  0.00    -0.020 A 
HETATM   24  N2  UNL     1      -9.425  44.816 -20.302  1.00  0.00    -0.358 N 
HETATM   25  C7  UNL     1      -7.605  47.979 -20.802  1.00  0.00     0.079 C 
HETATM   26  C15 UNL     1      -9.842  46.967 -19.947  1.00  0.00    -0.001 A 
HETATM   27  C6  UNL     1      -6.479  48.269 -19.773  1.00  0.00     0.248 C 
HETATM   28  N1  UNL     1      -5.414  49.145 -20.353  1.00  0.00     0.094 N 
HETATM   29  C41 UNL     1      -5.762  47.044 -19.107  1.00  0.00     0.107 C 
HETATM   30  C4  UNL     1      -4.568  48.476 -21.355  1.00  0.00     0.306 C 
HETATM   31  C5  UNL     1      -5.917  50.421 -20.853  1.00  0.00     0.310 C 
HETATM   32  C3  UNL     1      -3.998  47.154 -20.861  1.00  0.00    -0.051 C 
HETATM   33  C2  UNL     1      -2.703  46.787 -20.936  1.00  0.00    -0.026 C 
HETATM   34  C40 UNL     1      -5.022  46.211 -20.202  1.00  0.00     0.039 C 
HETATM   35  C1  UNL     1      -1.555  47.550 -21.517  1.00  0.00     0.036 C 
HETATM   36  C39 UNL     1      -5.799  45.516 -21.366  1.00  0.00     0.026 C 
HETATM   37  C10 UNL     1     -10.383  45.685 -19.854  1.00  0.00     0.043 A 
HETATM   38  C14 UNL     1     -10.616  48.062 -19.510  1.00  0.00     0.014 A 
HETATM   39  C11 UNL     1     -11.671  45.439 -19.358  1.00  0.00     0.030 A 
HETATM   40  C12 UNL     1     -12.420  46.540 -18.930  1.00  0.00     0.002 A 
HETATM   41  C13 UNL     1     -11.900  47.835 -18.996  1.00  0.00     0.001 A 
HETATM   42  H13 UNL     1      -9.524  43.808 -20.310  1.00  0.00     0.166 HD
BRANCH  29  43
HETATM   43  C42 UNL     1      -4.742  47.600 -18.034  1.00  0.00     0.186 C 
BRANCH  43  44
HETATM   44  O5  UNL     1      -5.123  47.313 -16.689  1.00  0.00    -0.399 OA
HETATM   45  H51 UNL     1      -4.934  46.373 -16.535  1.00  0.00     0.209 HD
ENDBRANCH  43  44
ENDBRANCH  29  43
BRANCH  29  46
HETATM   46  C43 UNL     1      -6.655  46.185 -18.199  1.00  0.00     0.272 C 
HETATM   47  O6  UNL     1      -7.680  46.580 -17.656  1.00  0.00    -0.264 OA
BRANCH  46  48
HETATM   48  O7  UNL     1      -6.209  44.889 -18.131  1.00  0.00    -0.326 OA
HETATM   49  C44 UNL     1      -7.060  44.019 -17.388  1.00  0.00     0.213 C 
ENDBRANCH  46  48
ENDBRANCH  29  46
ENDBRANCH   1  21
BRANCH  19  50
HETATM   50  O4  UNL     1      -6.514  41.931 -20.915  1.00  0.00    -0.355 OA
HETATM   51  C38 UNL     1      -7.230  41.003 -20.111  1.00  0.00     0.210 C 
ENDBRANCH  19  50
BRANCH  14  52
HETATM   52  C31 UNL     1      -7.963  47.574 -25.892  1.00  0.00     0.275 C 
HETATM   53  O2  UNL     1      -7.097  47.512 -26.762  1.00  0.00    -0.264 OA
BRANCH  52  54
HETATM   54  O3  UNL     1      -7.980  48.496 -24.887  1.00  0.00    -0.326 OA
HETATM   55  C32 UNL     1      -6.702  48.770 -24.307  1.00  0.00     0.213 C 
ENDBRANCH  52  54
ENDBRANCH  14  52
BRANCH  12  56
HETATM   56  C27 UNL     1     -10.575  47.758 -29.430  1.00  0.00     0.120 C 
HETATM   57  C28 UNL     1      -9.499  48.407 -30.288  1.00  0.00     0.040 C 
BRANCH  56  58
HETATM   58  O1  UNL     1     -11.821  48.411 -29.700  1.00  0.00    -0.396 OA
HETATM   59  H34 UNL     1     -11.704  49.357 -29.535  1.00  0.00     0.210 HD
ENDBRANCH  56  58
ENDBRANCH  12  56
TORSDOF 10
ENDMDL
MODEL 5
REMARK minimizedAffinity -7.331635
REMARK CNNscore 0.0797136575
REMARK CNNaffinity 5.05860472
REMARK  10 active torsions:
REMARK  status: ('A' for Active; 'I' for Inactive)
REMARK    1  A    between atoms: C16_18  and  C17_19 
REMARK    2  A    between atoms: C26_30  and  C27_31 
REMARK    3  A    between atoms: C27_31  and  O1_33 
REMARK    4  A    between atoms: C30_35  and  C31_36 
REMARK    5  A    between atoms: C31_36  and  O3_38 
REMARK    6  A    between atoms: C37_44  and  O4_45 
REMARK    7  A    between atoms: C41_49  and  C42_50 
REMARK    8  A    between atoms: C41_49  and  C43_52 
REMARK    9  A    between atoms: C42_50  and  O5_51 
REMARK   10  A    between atoms: C43_52  and  O7_54 
ROOT
HETATM    1  C17 UNL     1     -17.450  44.686 -25.519  1.00  0.00     0.013 A 
HETATM    2  C18 UNL     1     -17.306  45.226 -24.216  1.00  0.00     0.053 A 
HETATM    3  N3  UNL     1     -16.206  45.248 -23.390  1.00  0.00    -0.357 N 
HETATM    4  C19 UNL     1     -16.483  45.894 -22.206  1.00  0.00     0.038 A 
HETATM    5  C20 UNL     1     -17.814  46.275 -22.251  1.00  0.00    -0.020 A 
HETATM    6  C21 UNL     1     -18.553  47.010 -21.180  1.00  0.00     0.072 C 
HETATM    7  C22 UNL     1     -18.450  46.349 -19.796  1.00  0.00     0.277 C 
HETATM    8  N4  UNL     1     -17.115  46.081 -19.245  1.00  0.00     0.096 N 
HETATM    9  C23 UNL     1     -16.823  44.644 -19.106  1.00  0.00     0.277 C 
HETATM   10  C24 UNL     1     -15.300  44.414 -19.207  1.00  0.00     0.016 C 
HETATM   11  C25 UNL     1     -14.591  45.395 -18.261  1.00  0.00     0.015 C 
HETATM   12  C26 UNL     1     -14.855  46.838 -18.740  1.00  0.00     0.049 C 
HETATM   13  C29 UNL     1     -15.972  46.816 -19.841  1.00  0.00     0.253 C 
HETATM   14  C30 UNL     1     -15.413  46.088 -21.130  1.00  0.00     0.122 C 
HETATM   15  C33 UNL     1     -14.858  44.699 -20.657  1.00  0.00     0.035 C 
HETATM   16  C34 UNL     1     -18.331  45.860 -23.521  1.00  0.00    -0.000 A 
HETATM   17  C35 UNL     1     -19.587  45.972 -24.138  1.00  0.00     0.017 A 
HETATM   18  C36 UNL     1     -19.776  45.463 -25.426  1.00  0.00     0.038 A 
HETATM   19  C37 UNL     1     -18.734  44.833 -26.110  1.00  0.00     0.077 A 
HETATM   20  H19 UNL     1     -15.310  44.840 -23.626  1.00  0.00     0.166 HD
ENDROOT
BRANCH   1  21
HETATM   21  C16 UNL     1     -16.311  43.982 -26.279  1.00  0.00     0.075 C 
HETATM   22  C9  UNL     1     -15.791  42.780 -25.516  1.00  0.00     0.025 A 
HETATM   23  C8  UNL     1     -14.530  42.366 -25.098  1.00  0.00    -0.020 A 
HETATM   24  N2  UNL     1     -16.675  41.782 -25.159  1.00  0.00    -0.358 N 
HETATM   25  C7  UNL     1     -13.247  43.125 -25.208  1.00  0.00     0.079 C 
HETATM   26  C15 UNL     1     -14.668  41.048 -24.560  1.00  0.00    -0.001 A 
HETATM   27  C6  UNL     1     -12.561  43.152 -26.602  1.00  0.00     0.248 C 
HETATM   28  N1  UNL     1     -11.527  44.229 -26.687  1.00  0.00     0.094 N 
HETATM   29  C41 UNL     1     -13.479  43.287 -27.866  1.00  0.00     0.107 C 
HETATM   30  C4  UNL     1     -12.083  45.591 -26.738  1.00  0.00     0.306 C 
HETATM   31  C5  UNL     1     -10.487  44.121 -25.668  1.00  0.00     0.310 C 
HETATM   32  C3  UNL     1     -13.151  45.755 -27.811  1.00  0.00    -0.051 C 
HETATM   33  C2  UNL     1     -13.191  46.743 -28.727  1.00  0.00    -0.026 C 
HETATM   34  C40 UNL     1     -14.230  44.656 -27.825  1.00  0.00     0.039 C 
HETATM   35  C1  UNL     1     -12.245  47.889 -28.897  1.00  0.00     0.036 C 
HETATM   36  C39 UNL     1     -15.234  45.005 -26.679  1.00  0.00     0.026 C 
HETATM   37  C10 UNL     1     -16.023  40.718 -24.596  1.00  0.00     0.043 A 
HETATM   38  C14 UNL     1     -13.754  40.100 -24.055  1.00  0.00     0.014 A 
HETATM   39  C11 UNL     1     -16.518  39.490 -24.138  1.00  0.00     0.030 A 
HETATM   40  C12 UNL     1     -15.593  38.565 -23.641  1.00  0.00     0.002 A 
HETATM   41  C13 UNL     1     -14.228  38.860 -23.606  1.00  0.00     0.001 A 
HETATM   42  H13 UNL     1     -17.670  41.809 -25.351  1.00  0.00     0.166 HD
BRANCH  29  43
HETATM   43  C42 UNL     1     -12.559  43.184 -29.148  1.00  0.00     0.186 C 
BRANCH  43  44
HETATM   44  O5  UNL     1     -11.721  42.030 -29.153  1.00  0.00    -0.399 OA
HETATM   45  H51 UNL     1     -12.285  41.269 -29.369  1.00  0.00     0.209 HD
ENDBRANCH  43  44
ENDBRANCH  29  43
BRANCH  29  46
HETATM   46  C43 UNL     1     -14.414  42.095 -28.119  1.00  0.00     0.272 C 
HETATM   47  O6  UNL     1     -15.549  42.185 -28.575  1.00  0.00    -0.264 OA
BRANCH  46  48
HETATM   48  O7  UNL     1     -13.797  40.900 -27.847  1.00  0.00    -0.326 OA
HETATM   49  C44 UNL     1     -14.644  39.762 -27.986  1.00  0.00     0.213 C 
ENDBRANCH  46  48
ENDBRANCH  29  46
ENDBRANCH   1  21
BRANCH  19  50
HETATM   50  O4  UNL     1     -18.863  44.326 -27.380  1.00  0.00    -0.355 OA
HETATM   51  C38 UNL     1     -19.801  43.280 -27.596  1.00  0.00     0.210 C 
ENDBRANCH  19  50
BRANCH  14  52
HETATM   52  C31 UNL     1     -14.286  46.908 -21.804  1.00  0.00     0.275 C 
HETATM   53  O2  UNL     1     -14.055  48.087 -21.543  1.00  0.00    -0.264 OA
BRANCH  52  54
HETATM   54  O3  UNL     1     -13.544  46.149 -22.660  1.00  0.00    -0.326 OA
HETATM   55  C32 UNL     1     -12.197  46.595 -22.838  1.00  0.00     0.213 C 
ENDBRANCH  52  54
ENDBRANCH  14  52
BRANCH  12  56
HETATM   56  C27 UNL     1     -15.061  47.821 -17.568  1.00  0.00     0.120 C 
HETATM   57  C28 UNL     1     -15.532  49.227 -17.913  1.00  0.00     0.040 C 
BRANCH  56  58
HETATM   58  O1  UNL     1     -13.845  47.925 -16.817  1.00  0.00    -0.396 OA
HETATM   59  H34 UNL     1     -13.213  48.434 -17.343  1.00  0.00     0.210 HD
ENDBRANCH  56  58
ENDBRANCH  12  56
TORSDOF 10
ENDMDL
MODEL 6
REMARK minimizedAffinity -8.22586823
REMARK CNNscore 0.0728523657
REMARK CNNaffinity 5.81002045
REMARK  10 active torsions:
REMARK  status: ('A' for Active; 'I' for Inactive)
REMARK    1  A    between atoms: C16_18  and  C17_19 
REMARK    2  A    between atoms: C26_30  and  C27_31 
REMARK    3  A    between atoms: C27_31  and  O1_33 
REMARK    4  A    between atoms: C30_35  and  C31_36 
REMARK    5  A    between atoms: C31_36  and  O3_38 
REMARK    6  A    between atoms: C37_44  and  O4_45 
REMARK    7  A    between atoms: C41_49  and  C42_50 
REMARK    8  A    between atoms: C41_49  and  C43_52 
REMARK    9  A    between atoms: C42_50  and  O5_51 
REMARK   10  A    between atoms: C43_52  and  O7_54 
ROOT
HETATM    1  C17 UNL     1      -8.116  44.684 -24.214  1.00  0.00     0.013 A 
HETATM    2  C18 UNL     1      -7.337  45.097 -23.104  1.00  0.00     0.053 A 
HETATM    3  N3  UNL     1      -6.964  46.363 -22.713  1.00  0.00    -0.357 N 
HETATM    4  C19 UNL     1      -6.219  46.329 -21.556  1.00  0.00     0.038 A 
HETATM    5  C20 UNL     1      -6.076  44.997 -21.201  1.00  0.00    -0.020 A 
HETATM    6  C21 UNL     1      -5.342  44.482 -20.006  1.00  0.00     0.072 C 
HETATM    7  C22 UNL     1      -3.901  45.004 -19.896  1.00  0.00     0.277 C 
HETATM    8  N4  UNL     1      -3.680  46.457 -19.902  1.00  0.00     0.096 N 
HETATM    9  C23 UNL     1      -2.946  46.927 -21.090  1.00  0.00     0.277 C 
HETATM   10  C24 UNL     1      -3.336  48.390 -21.393  1.00  0.00     0.016 C 
HETATM   11  C25 UNL     1      -3.222  49.207 -20.097  1.00  0.00     0.015 C 
HETATM   12  C26 UNL     1      -4.249  48.677 -19.074  1.00  0.00     0.049 C 
HETATM   13  C29 UNL     1      -4.845  47.325 -19.600  1.00  0.00     0.253 C 
HETATM   14  C30 UNL     1      -5.714  47.611 -20.891  1.00  0.00     0.122 C 
HETATM   15  C33 UNL     1      -4.799  48.413 -21.881  1.00  0.00     0.035 C 
HETATM   16  C34 UNL     1      -6.786  44.221 -22.173  1.00  0.00    -0.000 A 
HETATM   17  C35 UNL     1      -7.009  42.845 -22.338  1.00  0.00     0.017 A 
HETATM   18  C36 UNL     1      -7.778  42.390 -23.412  1.00  0.00     0.038 A 
HETATM   19  C37 UNL     1      -8.325  43.283 -24.335  1.00  0.00     0.077 A 
HETATM   20  H19 UNL     1      -7.207  47.207 -23.216  1.00  0.00     0.166 HD
ENDROOT
BRANCH   1  21
HETATM   21  C16 UNL     1      -8.717  45.661 -25.242  1.00  0.00     0.075 C 
HETATM   22  C9  UNL     1     -10.215  45.810 -25.058  1.00  0.00     0.025 A 
HETATM   23  C8  UNL     1     -11.313  45.688 -25.903  1.00  0.00    -0.020 A 
HETATM   24  N2  UNL     1     -10.700  46.212 -23.831  1.00  0.00    -0.358 N 
HETATM   25  C7  UNL     1     -11.313  45.227 -27.326  1.00  0.00     0.079 C 
HETATM   26  C15 UNL     1     -12.466  46.117 -25.172  1.00  0.00    -0.001 A 
HETATM   27  C6  UNL     1     -10.849  46.251 -28.397  1.00  0.00     0.248 C 
HETATM   28  N1  UNL     1     -10.525  45.582 -29.696  1.00  0.00     0.094 N 
HETATM   29  C41 UNL     1      -9.641  47.186 -28.042  1.00  0.00     0.107 C 
HETATM   30  C4  UNL     1      -9.288  44.783 -29.667  1.00  0.00     0.306 C 
HETATM   31  C5  UNL     1     -11.637  44.813 -30.249  1.00  0.00     0.310 C 
HETATM   32  C3  UNL     1      -8.095  45.560 -29.125  1.00  0.00    -0.051 C 
HETATM   33  C2  UNL     1      -6.886  45.640 -29.713  1.00  0.00    -0.026 C 
HETATM   34  C40 UNL     1      -8.360  46.322 -27.813  1.00  0.00     0.039 C 
HETATM   35  C1  UNL     1      -6.427  44.997 -30.983  1.00  0.00     0.036 C 
HETATM   36  C39 UNL     1      -8.279  45.267 -26.662  1.00  0.00     0.026 C 
HETATM   37  C10 UNL     1     -12.052  46.421 -23.875  1.00  0.00     0.043 A 
HETATM   38  C14 UNL     1     -13.826  46.284 -25.505  1.00  0.00     0.014 A 
HETATM   39  C11 UNL     1     -12.934  46.872 -22.884  1.00  0.00     0.030 A 
HETATM   40  C12 UNL     1     -14.278  47.030 -23.237  1.00  0.00     0.002 A 
HETATM   41  C13 UNL     1     -14.720  46.748 -24.532  1.00  0.00     0.001 A 
HETATM   42  H13 UNL     1     -10.118  46.393 -23.021  1.00  0.00     0.166 HD
BRANCH  29  43
HETATM   43  C42 UNL     1      -9.436  48.194 -29.243  1.00  0.00     0.186 C 
BRANCH  43  44
HETATM   44  O5  UNL     1      -8.589  49.295 -28.919  1.00  0.00    -0.399 OA
HETATM   45  H51 UNL     1      -7.678  48.960 -28.908  1.00  0.00     0.209 HD
ENDBRANCH  43  44
ENDBRANCH  29  43
BRANCH  29  46
HETATM   46  C43 UNL     1      -9.906  48.183 -26.905  1.00  0.00     0.272 C 
HETATM   47  O6  UNL     1     -11.017  48.586 -26.577  1.00  0.00    -0.264 OA
BRANCH  46  48
HETATM   48  O7  UNL     1      -8.751  48.514 -26.243  1.00  0.00    -0.326 OA
HETATM   49  C44 UNL     1      -8.961  49.236 -25.032  1.00  0.00     0.213 C 
ENDBRANCH  46  48
ENDBRANCH  29  46
ENDBRANCH   1  21
BRANCH  19  50
HETATM   50  O4  UNL     1      -9.098  42.890 -25.400  1.00  0.00    -0.355 OA
HETATM   51  C38 UNL     1     -10.182  42.003 -25.156  1.00  0.00     0.210 C 
ENDBRANCH  19  50
BRANCH  14  52
HETATM   52  C31 UNL     1      -6.981  48.434 -20.553  1.00  0.00     0.275 C 
HETATM   53  O2  UNL     1      -7.392  49.363 -21.244  1.00  0.00    -0.264 OA
BRANCH  52  54
HETATM   54  O3  UNL     1      -7.618  47.958 -19.445  1.00  0.00    -0.326 OA
HETATM   55  C32 UNL     1      -8.107  48.968 -18.558  1.00  0.00     0.213 C 
ENDBRANCH  52  54
ENDBRANCH  14  52
BRANCH  12  56
HETATM   56  C27 UNL     1      -3.697  48.672 -17.632  1.00  0.00     0.120 C 
HETATM   57  C28 UNL     1      -2.239  48.278 -17.446  1.00  0.00     0.040 C 
BRANCH  56  58
HETATM   58  O1  UNL     1      -4.504  47.810 -16.820  1.00  0.00    -0.396 OA
HETATM   59  H34 UNL     1      -4.307  46.896 -17.068  1.00  0.00     0.210 HD
ENDBRANCH  56  58
ENDBRANCH  12  56
TORSDOF 10
ENDMDL
MODEL 7
REMARK minimizedAffinity -7.68550873
REMARK CNNscore 0.0565512851
REMARK CNNaffinity 4.89052725
REMARK  10 active torsions:
REMARK  status: ('A' for Active; 'I' for Inactive)
REMARK    1  A    between atoms: C16_18  and  C17_19 
REMARK    2  A    between atoms: C26_30  and  C27_31 
REMARK    3  A    between atoms: C27_31  and  O1_33 
REMARK    4  A    between atoms: C30_35  and  C31_36 
REMARK    5  A    between atoms: C31_36  and  O3_38 
REMARK    6  A    between atoms: C37_44  and  O4_45 
REMARK    7  A    between atoms: C41_49  and  C42_50 
REMARK    8  A    between atoms: C41_49  and  C43_52 
REMARK    9  A    between atoms: C42_50  and  O5_51 
REMARK   10  A    between atoms: C43_52  and  O7_54 
ROOT
HETATM    1  C17 UNL     1      -7.667  44.909 -22.789  1.00  0.00     0.013 A 
HETATM    2  C18 UNL     1      -8.226  44.979 -24.090  1.00  0.00     0.053 A 
HETATM    3  N3  UNL     1      -8.867  46.023 -24.717  1.00  0.00    -0.357 N 
HETATM    4  C19 UNL     1      -9.241  45.682 -25.997  1.00  0.00     0.038 A 
HETATM    5  C20 UNL     1      -8.861  44.365 -26.198  1.00  0.00    -0.020 A 
HETATM    6  C21 UNL     1      -9.065  43.573 -27.448  1.00  0.00     0.072 C 
HETATM    7  C22 UNL     1     -10.519  43.572 -27.946  1.00  0.00     0.277 C 
HETATM    8  N4  UNL     1     -11.181  44.863 -28.181  1.00  0.00     0.096 N 
HETATM    9  C23 UNL     1     -12.302  45.115 -27.260  1.00  0.00     0.277 C 
HETATM   10  C24 UNL     1     -12.485  46.636 -27.072  1.00  0.00     0.016 C 
HETATM   11  C25 UNL     1     -12.516  47.302 -28.456  1.00  0.00     0.015 C 
HETATM   12  C26 UNL     1     -11.149  47.100 -29.144  1.00  0.00     0.049 C 
HETATM   13  C29 UNL     1     -10.312  46.057 -28.325  1.00  0.00     0.253 C 
HETATM   14  C30 UNL     1      -9.938  46.683 -26.921  1.00  0.00     0.122 C 
HETATM   15  C33 UNL     1     -11.279  47.177 -26.276  1.00  0.00     0.035 C 
HETATM   16  C34 UNL     1      -8.215  43.923 -24.997  1.00  0.00    -0.000 A 
HETATM   17  C35 UNL     1      -7.620  42.714 -24.608  1.00  0.00     0.017 A 
HETATM   18  C36 UNL     1      -7.047  42.599 -23.338  1.00  0.00     0.038 A 
HETATM   19  C37 UNL     1      -7.064  43.669 -22.441  1.00  0.00     0.077 A 
HETATM   20  H19 UNL     1      -9.038  46.923 -24.289  1.00  0.00     0.166 HD
ENDROOT
BRANCH   1  21
HETATM   21  C16 UNL     1      -7.687  46.080 -21.790  1.00  0.00     0.075 C 
HETATM   22  C9  UNL     1      -6.313  46.336 -21.203  1.00  0.00     0.025 A 
HETATM   23  C8  UNL     1      -5.815  46.445 -19.910  1.00  0.00    -0.020 A 
HETATM   24  N2  UNL     1      -5.259  46.591 -22.058  1.00  0.00    -0.358 N 
HETATM   25  C7  UNL     1      -6.556  46.207 -18.632  1.00  0.00     0.079 C 
HETATM   26  C15 UNL     1      -4.451  46.862 -20.009  1.00  0.00    -0.001 A 
HETATM   27  C6  UNL     1      -7.509  47.335 -18.151  1.00  0.00     0.248 C 
HETATM   28  N1  UNL     1      -8.462  46.843 -17.107  1.00  0.00     0.094 N 
HETATM   29  C41 UNL     1      -8.355  48.090 -19.234  1.00  0.00     0.107 C 
HETATM   30  C4  UNL     1      -9.504  45.940 -17.624  1.00  0.00     0.306 C 
HETATM   31  C5  UNL     1      -7.801  46.272 -15.937  1.00  0.00     0.310 C 
HETATM   32  C3  UNL     1     -10.240  46.513 -18.828  1.00  0.00    -0.051 C 
HETATM   33  C2  UNL     1     -11.579  46.571 -18.968  1.00  0.00    -0.026 C 
HETATM   34  C40 UNL     1      -9.330  47.088 -19.930  1.00  0.00     0.039 C 
HETATM   35  C1  UNL     1     -12.632  46.088 -18.022  1.00  0.00     0.036 C 
HETATM   36  C39 UNL     1      -8.801  45.868 -20.751  1.00  0.00     0.026 C 
HETATM   37  C10 UNL     1      -4.128  46.927 -21.364  1.00  0.00     0.043 A 
HETATM   38  C14 UNL     1      -3.462  47.201 -19.061  1.00  0.00     0.014 A 
HETATM   39  C11 UNL     1      -2.859  47.301 -21.826  1.00  0.00     0.030 A 
HETATM   40  C12 UNL     1      -1.895  47.633 -20.868  1.00  0.00     0.002 A 
HETATM   41  C13 UNL     1      -2.192  47.593 -19.503  1.00  0.00     0.001 A 
HETATM   42  H13 UNL     1      -5.335  46.593 -23.069  1.00  0.00     0.166 HD
BRANCH  29  43
HETATM   43  C42 UNL     1      -9.155  49.246 -18.508  1.00  0.00     0.186 C 
BRANCH  43  44
HETATM   44  O5  UNL     1      -8.983  49.249 -17.091  1.00  0.00    -0.399 OA
HETATM   45  H51 UNL     1      -8.098  49.608 -16.913  1.00  0.00     0.209 HD
ENDBRANCH  43  44
ENDBRANCH  29  43
BRANCH  29  46
HETATM   46  C43 UNL     1      -7.537  48.924 -20.230  1.00  0.00     0.272 C 
HETATM   47  O6  UNL     1      -7.834  49.091 -21.408  1.00  0.00    -0.264 OA
BRANCH  46  48
HETATM   48  O7  UNL     1      -6.467  49.531 -19.623  1.00  0.00    -0.326 OA
HETATM   49  C44 UNL     1      -5.687  50.345 -20.496  1.00  0.00     0.213 C 
ENDBRANCH  46  48
ENDBRANCH  29  46
ENDBRANCH   1  21
BRANCH  19  50
HETATM   50  O4  UNL     1      -6.506  43.613 -21.188  1.00  0.00    -0.355 OA
HETATM   51  C38 UNL     1      -6.816  42.498 -20.362  1.00  0.00     0.210 C 
ENDBRANCH  19  50
BRANCH  14  52
HETATM   52  C31 UNL     1      -8.953  47.869 -27.071  1.00  0.00     0.275 C 
HETATM   53  O2  UNL     1      -8.975  48.866 -26.354  1.00  0.00    -0.264 OA
BRANCH  52  54
HETATM   54  O3  UNL     1      -8.022  47.639 -28.042  1.00  0.00    -0.326 OA
HETATM   55  C32 UNL     1      -6.689  47.456 -27.558  1.00  0.00     0.213 C 
ENDBRANCH  52  54
ENDBRANCH  14  52
BRANCH  12  56
HETATM   56  C27 UNL     1     -11.284  46.838 -30.660  1.00  0.00     0.120 C 
HETATM   57  C28 UNL     1     -10.133  47.285 -31.549  1.00  0.00     0.040 C 
BRANCH  56  58
HETATM   58  O1  UNL     1     -12.488  47.449 -31.141  1.00  0.00    -0.396 OA
HETATM   59  H34 UNL     1     -12.350  48.406 -31.156  1.00  0.00     0.210 HD
ENDBRANCH  56  58
ENDBRANCH  12  56
TORSDOF 10
ENDMDL
MODEL 8
REMARK minimizedAffinity -7.40447903
REMARK CNNscore 0.0557427295
REMARK CNNaffinity 6.61216974
REMARK  10 active torsions:
REMARK  status: ('A' for Active; 'I' for Inactive)
REMARK    1  A    between atoms: C16_18  and  C17_19 
REMARK    2  A    between atoms: C26_30  and  C27_31 
REMARK    3  A    between atoms: C27_31  and  O1_33 
REMARK    4  A    between atoms: C30_35  and  C31_36 
REMARK    5  A    between atoms: C31_36  and  O3_38 
REMARK    6  A    between atoms: C37_44  and  O4_45 
REMARK    7  A    between atoms: C41_49  and  C42_50 
REMARK    8  A    between atoms: C41_49  and  C43_52 
REMARK    9  A    between atoms: C42_50  and  O5_51 
REMARK   10  A    between atoms: C43_52  and  O7_54 
ROOT
HETATM    1  C17 UNL     1      -1.598  52.486 -11.335  1.00  0.00     0.013 A 
HETATM    2  C18 UNL     1      -0.845  53.316 -10.466  1.00  0.00     0.053 A 
HETATM    3  N3  UNL     1       0.475  53.227 -10.089  1.00  0.00    -0.357 N 
HETATM    4  C19 UNL     1       0.822  54.252  -9.240  1.00  0.00     0.038 A 
HETATM    5  C20 UNL     1      -0.317  55.014  -9.032  1.00  0.00    -0.020 A 
HETATM    6  C21 UNL     1      -0.412  56.235  -8.177  1.00  0.00     0.072 C 
HETATM    7  C22 UNL     1       0.106  56.027  -6.745  1.00  0.00     0.277 C 
HETATM    8  N4  UNL     1       1.472  55.518  -6.561  1.00  0.00     0.096 N 
HETATM    9  C23 UNL     1       1.515  54.177  -5.953  1.00  0.00     0.277 C 
HETATM   10  C24 UNL     1       2.797  53.445  -6.405  1.00  0.00     0.016 C 
HETATM   11  C25 UNL     1       3.997  54.379  -6.191  1.00  0.00     0.015 C 
HETATM   12  C26 UNL     1       3.845  55.614  -7.104  1.00  0.00     0.049 C 
HETATM   13  C29 UNL     1       2.401  55.626  -7.713  1.00  0.00     0.253 C 
HETATM   14  C30 UNL     1       2.248  54.403  -8.706  1.00  0.00     0.122 C 
HETATM   15  C33 UNL     1       2.668  53.120  -7.908  1.00  0.00     0.035 C 
HETATM   16  C34 UNL     1      -1.366  54.427  -9.810  1.00  0.00    -0.000 A 
HETATM   17  C35 UNL     1      -2.717  54.750 -10.014  1.00  0.00     0.017 A 
HETATM   18  C36 UNL     1      -3.497  53.967 -10.868  1.00  0.00     0.038 A 
HETATM   19  C37 UNL     1      -2.957  52.857 -11.521  1.00  0.00     0.077 A 
HETATM   20  H19 UNL     1       1.106  52.499 -10.399  1.00  0.00     0.166 HD
ENDROOT
BRANCH   1  21
HETATM   21  C16 UNL     1      -1.013  51.255 -12.054  1.00  0.00     0.075 C 
HETATM   22  C9  UNL     1      -0.422  50.264 -11.071  1.00  0.00     0.025 A 
HETATM   23  C8  UNL     1       0.812  49.634 -10.951  1.00  0.00    -0.020 A 
HETATM   24  N2  UNL     1      -1.223  49.764 -10.064  1.00  0.00    -0.358 N 
HETATM   25  C7  UNL     1       2.034  49.875 -11.778  1.00  0.00     0.079 C 
HETATM   26  C15 UNL     1       0.702  48.673  -9.897  1.00  0.00    -0.001 A 
HETATM   27  C6  UNL     1       2.064  49.235 -13.193  1.00  0.00     0.248 C 
HETATM   28  N1  UNL     1       3.125  49.846 -14.052  1.00  0.00     0.094 N 
HETATM   29  C41 UNL     1       0.735  49.236 -14.025  1.00  0.00     0.107 C 
HETATM   30  C4  UNL     1       2.828  51.221 -14.487  1.00  0.00     0.306 C 
HETATM   31  C5  UNL     1       4.465  49.752 -13.480  1.00  0.00     0.310 C 
HETATM   32  C3  UNL     1       1.449  51.356 -15.120  1.00  0.00    -0.051 C 
HETATM   33  C2  UNL     1       1.188  51.956 -16.298  1.00  0.00    -0.026 C 
HETATM   34  C40 UNL     1       0.303  50.707 -14.321  1.00  0.00     0.039 C 
HETATM   35  C1  UNL     1       2.146  52.629 -17.229  1.00  0.00     0.036 C 
HETATM   36  C39 UNL     1      -0.056  51.703 -13.171  1.00  0.00     0.026 C 
HETATM   37  C10 UNL     1      -0.576  48.792  -9.351  1.00  0.00     0.043 A 
HETATM   38  C14 UNL     1       1.578  47.703  -9.367  1.00  0.00     0.014 A 
HETATM   39  C11 UNL     1      -1.023  47.997  -8.287  1.00  0.00     0.030 A 
HETATM   40  C12 UNL     1      -0.138  47.041  -7.777  1.00  0.00     0.002 A 
HETATM   41  C13 UNL     1       1.143  46.888  -8.313  1.00  0.00     0.001 A 
HETATM   42  H13 UNL     1      -2.188  50.038  -9.916  1.00  0.00     0.166 HD
BRANCH  29  43
HETATM   43  C42 UNL     1       1.000  48.443 -15.367  1.00  0.00     0.186 C 
BRANCH  43  44
HETATM   44  O5  UNL     1       1.411  47.093 -15.156  1.00  0.00    -0.399 OA
HETATM   45  H51 UNL     1       0.620  46.593 -14.895  1.00  0.00     0.209 HD
ENDBRANCH  43  44
ENDBRANCH  29  43
BRANCH  29  46
HETATM   46  C43 UNL     1      -0.398  48.383 -13.437  1.00  0.00     0.272 C 
HETATM   47  O6  UNL     1      -1.593  48.625 -13.570  1.00  0.00    -0.264 OA
BRANCH  46  48
HETATM   48  O7  UNL     1       0.085  47.264 -12.807  1.00  0.00    -0.326 OA
HETATM   49  C44 UNL     1      -0.928  46.404 -12.289  1.00  0.00     0.213 C 
ENDBRANCH  46  48
ENDBRANCH  29  46
ENDBRANCH   1  21
BRANCH  19  50
HETATM   50  O4  UNL     1      -3.676  52.062 -12.380  1.00  0.00    -0.355 OA
HETATM   51  C38 UNL     1      -3.691  52.402 -13.760  1.00  0.00     0.210 C 
ENDBRANCH  19  50
BRANCH  14  52
HETATM   52  C31 UNL     1       3.147  54.569  -9.955  1.00  0.00     0.275 C 
HETATM   53  O2  UNL     1       2.922  55.379 -10.851  1.00  0.00    -0.264 OA
BRANCH  52  54
HETATM   54  O3  UNL     1       4.246  53.762  -9.904  1.00  0.00    -0.326 OA
HETATM   55  C32 UNL     1       5.493  54.458  -9.828  1.00  0.00     0.213 C 
ENDBRANCH  52  54
ENDBRANCH  14  52
BRANCH  12  56
HETATM   56  C27 UNL     1       4.316  56.916  -6.420  1.00  0.00     0.120 C 
HETATM   57  C28 UNL     1       3.395  58.123  -6.514  1.00  0.00     0.040 C 
BRANCH  56  58
HETATM   58  O1  UNL     1       5.599  57.286  -6.939  1.00  0.00    -0.396 OA
HETATM   59  H34 UNL     1       5.472  57.616  -7.840  1.00  0.00     0.210 HD
ENDBRANCH  56  58
ENDBRANCH  12  56
TORSDOF 10
ENDMDL
MODEL 9
REMARK minimizedAffinity -7.53123522
REMARK CNNscore 0.053765092
REMARK CNNaffinity 6.1257987
REMARK  10 active torsions:
REMARK  status: ('A' for Active; 'I' for Inactive)
REMARK    1  A    between atoms: C16_18  and  C17_19 
REMARK    2  A    between atoms: C26_30  and  C27_31 
REMARK    3  A    between atoms: C27_31  and  O1_33 
REMARK    4  A    between atoms: C30_35  and  C31_36 
REMARK    5  A    between atoms: C31_36  and  O3_38 
REMARK    6  A    between atoms: C37_44  and  O4_45 
REMARK    7  A    between atoms: C41_49  and  C42_50 
REMARK    8  A    between atoms: C41_49  and  C43_52 
REMARK    9  A    between atoms: C42_50  and  O5_51 
REMARK   10  A    between atoms: C43_52  and  O7_54 
ROOT
HETATM    1  C17 UNL     1      -0.358  52.814 -10.690  1.00  0.00     0.013 A 
HETATM    2  C18 UNL     1       0.569  53.517  -9.879  1.00  0.00     0.053 A 
HETATM    3  N3  UNL     1       1.824  53.145  -9.454  1.00  0.00    -0.357 N 
HETATM    4  C19 UNL     1       2.406  54.134  -8.693  1.00  0.00     0.038 A 
HETATM    5  C20 UNL     1       1.488  55.167  -8.594  1.00  0.00    -0.020 A 
HETATM    6  C21 UNL     1       1.690  56.453  -7.861  1.00  0.00     0.072 C 
HETATM    7  C22 UNL     1       2.129  56.267  -6.400  1.00  0.00     0.277 C 
HETATM    8  N4  UNL     1       3.326  55.461  -6.125  1.00  0.00     0.096 N 
HETATM    9  C23 UNL     1       3.032  54.216  -5.394  1.00  0.00     0.277 C 
HETATM   10  C24 UNL     1       4.098  53.153  -5.733  1.00  0.00     0.016 C 
HETATM   11  C25 UNL     1       5.489  53.782  -5.569  1.00  0.00     0.015 C 
HETATM   12  C26 UNL     1       5.654  54.919  -6.599  1.00  0.00     0.049 C 
HETATM   13  C29 UNL     1       4.262  55.224  -7.252  1.00  0.00     0.253 C 
HETATM   14  C30 UNL     1       3.820  53.983  -8.130  1.00  0.00     0.122 C 
HETATM   15  C33 UNL     1       3.905  52.722  -7.202  1.00  0.00     0.035 C 
HETATM   16  C34 UNL     1       0.332  54.781  -9.347  1.00  0.00    -0.000 A 
HETATM   17  C35 UNL     1      -0.895  55.402  -9.623  1.00  0.00     0.017 A 
HETATM   18  C36 UNL     1      -1.838  54.753 -10.426  1.00  0.00     0.038 A 
HETATM   19  C37 UNL     1      -1.582  53.486 -10.954  1.00  0.00     0.077 A 
HETATM   20  H19 UNL     1       2.258  52.259  -9.674  1.00  0.00     0.166 HD
ENDROOT
BRANCH   1  21
HETATM   21  C16 UNL     1      -0.089  51.413 -11.271  1.00  0.00     0.075 C 
HETATM   22  C9  UNL     1      -0.069  51.433 -12.787  1.00  0.00     0.025 A 
HETATM   23  C8  UNL     1      -0.727  50.711 -13.776  1.00  0.00    -0.020 A 
HETATM   24  N2  UNL     1       0.810  52.281 -13.432  1.00  0.00    -0.358 N 
HETATM   25  C7  UNL     1      -1.814  49.701 -13.587  1.00  0.00     0.079 C 
HETATM   26  C15 UNL     1      -0.155  51.083 -15.033  1.00  0.00    -0.001 A 
HETATM   27  C6  UNL     1      -1.385  48.286 -13.112  1.00  0.00     0.248 C 
HETATM   28  N1  UNL     1      -2.549  47.501 -12.595  1.00  0.00     0.094 N 
HETATM   29  C41 UNL     1      -0.245  48.187 -12.039  1.00  0.00     0.107 C 
HETATM   30  C4  UNL     1      -3.063  47.974 -11.299  1.00  0.00     0.306 C 
HETATM   31  C5  UNL     1      -3.628  47.350 -13.567  1.00  0.00     0.310 C 
HETATM   32  C3  UNL     1      -1.971  48.115 -10.246  1.00  0.00    -0.051 C 
HETATM   33  C2  UNL     1      -2.027  47.618  -8.995  1.00  0.00    -0.026 C 
HETATM   34  C40 UNL     1      -0.713  48.869 -10.714  1.00  0.00     0.039 C 
HETATM   35  C1  UNL     1      -3.137  46.851  -8.349  1.00  0.00     0.036 C 
HETATM   36  C39 UNL     1      -1.059  50.392 -10.654  1.00  0.00     0.026 C 
HETATM   37  C10 UNL     1       0.790  52.079 -14.785  1.00  0.00     0.043 A 
HETATM   38  C14 UNL     1      -0.351  50.652 -16.361  1.00  0.00     0.014 A 
HETATM   39  C11 UNL     1       1.544  52.680 -15.803  1.00  0.00     0.030 A 
HETATM   40  C12 UNL     1       1.333  52.236 -17.112  1.00  0.00     0.002 A 
HETATM   41  C13 UNL     1       0.404  51.230 -17.390  1.00  0.00     0.001 A 
HETATM   42  H13 UNL     1       1.434  52.922 -12.956  1.00  0.00     0.166 HD
BRANCH  29  43
HETATM   43  C42 UNL     1       0.073  46.656 -11.806  1.00  0.00     0.186 C 
BRANCH  43  44
HETATM   44  O5  UNL     1       0.617  46.010 -12.956  1.00  0.00    -0.399 OA
HETATM   45  H51 UNL     1       1.542  46.298 -13.033  1.00  0.00     0.209 HD
ENDBRANCH  43  44
ENDBRANCH  29  43
BRANCH  29  46
HETATM   46  C43 UNL     1       1.133  48.673 -12.512  1.00  0.00     0.272 C 
HETATM   47  O6  UNL     1       1.504  48.685 -13.681  1.00  0.00    -0.264 OA
BRANCH  46  48
HETATM   48  O7  UNL     1       1.879  49.169 -11.472  1.00  0.00    -0.326 OA
HETATM   49  C44 UNL     1       3.280  48.941 -11.601  1.00  0.00     0.213 C 
ENDBRANCH  46  48
ENDBRANCH  29  46
ENDBRANCH   1  21
BRANCH  19  50
HETATM   50  O4  UNL     1      -2.468  52.810 -11.757  1.00  0.00    -0.355 OA
HETATM   51  C38 UNL     1      -3.859  53.028 -11.558  1.00  0.00     0.210 C 
ENDBRANCH  19  50
BRANCH  14  52
HETATM   52  C31 UNL     1       4.742  53.800  -9.361  1.00  0.00     0.275 C 
HETATM   53  O2  UNL     1       5.069  54.719 -10.108  1.00  0.00    -0.264 OA
BRANCH  52  54
HETATM   54  O3  UNL     1       5.200  52.520  -9.469  1.00  0.00    -0.326 OA
HETATM   55  C32 UNL     1       6.617  52.380  -9.333  1.00  0.00     0.213 C 
ENDBRANCH  52  54
ENDBRANCH  14  52
BRANCH  12  56
HETATM   56  C27 UNL     1       6.425  56.128  -6.025  1.00  0.00     0.120 C 
HETATM   57  C28 UNL     1       5.970  57.514  -6.459  1.00  0.00     0.040 C 
BRANCH  56  58
HETATM   58  O1  UNL     1       7.817  55.992  -6.337  1.00  0.00    -0.396 OA
HETATM   59  H34 UNL     1       7.929  56.166  -7.282  1.00  0.00     0.210 HD
ENDBRANCH  56  58
ENDBRANCH  12  56
TORSDOF 10
ENDMDL
