MODEL 1
REMARK minimizedAffinity -6.76626205
REMARK CNNscore 0.546633542
REMARK CNNaffinity 6.44572306
REMARK  9 active torsions:
REMARK  status: ('A' for Active; 'I' for Inactive)
REMARK    1  A    between atoms: C2_2  and  C3_3 
REMARK    2  A    between atoms: C2_2  and  C9_12 
REMARK    3  A    between atoms: C3_3  and  C4_4 
REMARK    4  A    between atoms: C4_4  and  C5_5 
REMARK    5  A    between atoms: C5_5  and  O1_6 
REMARK    6  A    between atoms: C5_5  and  C6_7 
REMARK    7  A    between atoms: C6_7  and  O2_9 
REMARK    8  A    between atoms: C6_7  and  C8_10 
REMARK    9  A    between atoms: C8_10  and  O3_11 
ROOT
HETATM    1  C9  UNL     1     -14.984  -4.159  13.054  1.00  0.00    -0.002 C 
HETATM    2  C10 UNL     1     -13.787  -4.005  14.032  1.00  0.00     0.007 C 
HETATM    3  C11 UNL     1     -13.949  -2.645  14.735  1.00  0.00     0.015 C 
HETATM    4  C12 UNL     1     -15.416  -2.240  14.491  1.00  0.00    -0.005 C 
HETATM    5  C13 UNL     1     -16.282  -3.007  15.541  1.00  0.00     0.021 C 
HETATM    6  C14 UNL     1     -15.858  -0.787  14.626  1.00  0.00    -0.000 C 
HETATM    7  C15 UNL     1     -16.889  -0.292  13.890  1.00  0.00    -0.060 C 
HETATM    8  C16 UNL     1     -17.609  -1.184  12.862  1.00  0.00     0.036 C 
HETATM    9  C17 UNL     1     -17.080  -2.621  12.659  1.00  0.00     0.015 C 
HETATM   10  C18 UNL     1     -15.587  -2.722  12.995  1.00  0.00    -0.028 C 
HETATM   11  C19 UNL     1     -14.793  -1.848  11.981  1.00  0.00     0.016 C 
HETATM   12  C20 UNL     1     -17.411   1.165  14.020  1.00  0.00    -0.014 C 
HETATM   13  C21 UNL     1     -18.732   1.099  14.821  1.00  0.00     0.020 C 
HETATM   14  C22 UNL     1     -17.687   1.773  12.613  1.00  0.00     0.021 C 
HETATM   15  C23 UNL     1     -17.693   3.296  12.518  1.00  0.00     0.080 C 
HETATM   16  C24 UNL     1     -17.789   3.974  13.859  1.00  0.00     0.135 C 
HETATM   17  O4  UNL     1     -18.612   4.871  14.044  1.00  0.00    -0.297 OA
HETATM   18  C25 UNL     1     -16.764   3.564  14.924  1.00  0.00     0.018 C 
HETATM   19  C26 UNL     1     -17.351   3.849  16.323  1.00  0.00     0.023 C 
HETATM   20  C27 UNL     1     -15.542   4.486  14.738  1.00  0.00     0.023 C 
HETATM   21  C28 UNL     1     -16.334   2.070  14.706  1.00  0.00     0.020 C 
HETATM   22  C29 UNL     1     -15.791   1.415  15.976  1.00  0.00     0.090 C 
HETATM   23  C30 UNL     1     -15.215   0.053  15.686  1.00  0.00     0.157 C 
HETATM   24  O5  UNL     1     -14.280  -0.371  16.362  1.00  0.00    -0.293 OA
ENDROOT
BRANCH   1  25
HETATM   25  C2  UNL     1     -14.645  -5.002  11.787  1.00  0.00    -0.014 C 
HETATM   26  C1  UNL     1     -13.591  -6.106  11.954  1.00  0.00     0.010 C 
BRANCH  25  27
HETATM   27  C3  UNL     1     -14.306  -4.096  10.581  1.00  0.00     0.007 C 
BRANCH  27  28
HETATM   28  C4  UNL     1     -14.934  -4.481   9.232  1.00  0.00     0.035 C 
BRANCH  28  29
HETATM   29  C5  UNL     1     -14.170  -4.143   7.936  1.00  0.00     0.154 C 
BRANCH  29  30
HETATM   30  O1  UNL     1     -12.843  -3.704   8.254  1.00  0.00    -0.392 OA
HETATM   31  H10 UNL     1     -12.346  -4.520   8.462  1.00  0.00     0.210 HD
ENDBRANCH  29  30
BRANCH  29  32
HETATM   32  C6  UNL     1     -14.085  -5.240   6.835  1.00  0.00     0.101 C 
HETATM   33  C7  UNL     1     -13.233  -4.812   5.641  1.00  0.00     0.051 C 
BRANCH  32  34
HETATM   34  O2  UNL     1     -15.421  -5.519   6.369  1.00  0.00    -0.385 OA
HETATM   35  H14 UNL     1     -15.664  -6.396   6.733  1.00  0.00     0.210 HD
ENDBRANCH  32  34
BRANCH  32  36
HETATM   36  C8  UNL     1     -13.515  -6.553   7.429  1.00  0.00     0.204 C 
BRANCH  36  37
HETATM   37  O3  UNL     1     -12.087  -6.503   7.467  1.00  0.00    -0.398 OA
HETATM   38  H17 UNL     1     -11.785  -6.320   6.552  1.00  0.00     0.209 HD
ENDBRANCH  36  37
ENDBRANCH  32  36
ENDBRANCH  29  32
ENDBRANCH  28  29
ENDBRANCH  27  28
ENDBRANCH  25  27
ENDBRANCH   1  25
TORSDOF 9
ENDMDL
MODEL 2
REMARK minimizedAffinity -6.56619215
REMARK CNNscore 0.495447397
REMARK CNNaffinity 6.29988909
REMARK  9 active torsions:
REMARK  status: ('A' for Active; 'I' for Inactive)
REMARK    1  A    between atoms: C2_2  and  C3_3 
REMARK    2  A    between atoms: C2_2  and  C9_12 
REMARK    3  A    between atoms: C3_3  and  C4_4 
REMARK    4  A    between atoms: C4_4  and  C5_5 
REMARK    5  A    between atoms: C5_5  and  O1_6 
REMARK    6  A    between atoms: C5_5  and  C6_7 
REMARK    7  A    between atoms: C6_7  and  O2_9 
REMARK    8  A    between atoms: C6_7  and  C8_10 
REMARK    9  A    between atoms: C8_10  and  O3_11 
ROOT
HETATM    1  C9  UNL     1      -7.174 -10.631  -1.217  1.00  0.00    -0.002 C 
HETATM    2  C10 UNL     1      -5.747 -10.187  -1.643  1.00  0.00     0.007 C 
HETATM    3  C11 UNL     1      -4.854 -10.275  -0.392  1.00  0.00     0.015 C 
HETATM    4  C12 UNL     1      -5.638 -11.158   0.599  1.00  0.00    -0.005 C 
HETATM    5  C13 UNL     1      -5.388 -12.643   0.184  1.00  0.00     0.021 C 
HETATM    6  C14 UNL     1      -5.324 -11.125   2.091  1.00  0.00    -0.000 C 
HETATM    7  C15 UNL     1      -6.288 -11.371   3.019  1.00  0.00    -0.060 C 
HETATM    8  C16 UNL     1      -7.738 -11.646   2.581  1.00  0.00     0.036 C 
HETATM    9  C17 UNL     1      -8.062 -11.569   1.073  1.00  0.00     0.015 C 
HETATM   10  C18 UNL     1      -7.103 -10.623   0.341  1.00  0.00    -0.028 C 
HETATM   11  C19 UNL     1      -7.327  -9.180   0.880  1.00  0.00     0.016 C 
HETATM   12  C20 UNL     1      -6.015 -11.397   4.548  1.00  0.00    -0.014 C 
HETATM   13  C21 UNL     1      -5.992 -12.883   4.975  1.00  0.00     0.020 C 
HETATM   14  C22 UNL     1      -7.148 -10.655   5.316  1.00  0.00     0.021 C 
HETATM   15  C23 UNL     1      -6.800 -10.135   6.709  1.00  0.00     0.080 C 
HETATM   16  C24 UNL     1      -5.535 -10.732   7.266  1.00  0.00     0.135 C 
HETATM   17  O4  UNL     1      -5.518 -11.196   8.407  1.00  0.00    -0.297 OA
HETATM   18  C25 UNL     1      -4.278 -10.644   6.393  1.00  0.00     0.018 C 
HETATM   19  C26 UNL     1      -3.308 -11.777   6.793  1.00  0.00     0.023 C 
HETATM   20  C27 UNL     1      -3.594  -9.306   6.739  1.00  0.00     0.023 C 
HETATM   21  C28 UNL     1      -4.677 -10.654   4.875  1.00  0.00     0.020 C 
HETATM   22  C29 UNL     1      -3.546 -11.128   3.964  1.00  0.00     0.090 C 
HETATM   23  C30 UNL     1      -3.899 -10.944   2.511  1.00  0.00     0.157 C 
HETATM   24  O5  UNL     1      -3.012 -10.718   1.690  1.00  0.00    -0.293 OA
ENDROOT
BRANCH   1  25
HETATM   25  C2  UNL     1      -8.308  -9.936  -2.031  1.00  0.00    -0.014 C 
HETATM   26  C1  UNL     1      -8.988 -10.773  -3.123  1.00  0.00     0.010 C 
BRANCH  25  27
HETATM   27  C3  UNL     1      -7.844  -8.573  -2.592  1.00  0.00     0.007 C 
BRANCH  27  28
HETATM   28  C4  UNL     1      -8.523  -8.092  -3.885  1.00  0.00     0.035 C 
BRANCH  28  29
HETATM   29  C5  UNL     1      -9.558  -6.953  -3.799  1.00  0.00     0.154 C 
BRANCH  29  30
HETATM   30  O1  UNL     1      -9.310  -6.157  -2.632  1.00  0.00    -0.392 OA
HETATM   31  H10 UNL     1      -8.547  -5.591  -2.865  1.00  0.00     0.210 HD
ENDBRANCH  29  30
BRANCH  29  32
HETATM   32  C6  UNL     1      -9.705  -6.009  -5.028  1.00  0.00     0.101 C 
HETATM   33  C7  UNL     1     -11.098  -6.066  -5.652  1.00  0.00     0.051 C 
BRANCH  32  34
HETATM   34  O2  UNL     1      -8.740  -6.407  -6.023  1.00  0.00    -0.385 OA
HETATM   35  H14 UNL     1      -8.040  -5.721  -6.019  1.00  0.00     0.210 HD
ENDBRANCH  32  34
BRANCH  32  36
HETATM   36  C8  UNL     1      -9.382  -4.548  -4.623  1.00  0.00     0.204 C 
BRANCH  36  37
HETATM   37  O3  UNL     1     -10.534  -3.924  -4.051  1.00  0.00    -0.398 OA
HETATM   38  H17 UNL     1     -11.255  -4.000  -4.712  1.00  0.00     0.209 HD
ENDBRANCH  36  37
ENDBRANCH  32  36
ENDBRANCH  29  32
ENDBRANCH  28  29
ENDBRANCH  27  28
ENDBRANCH  25  27
ENDBRANCH   1  25
TORSDOF 9
ENDMDL
MODEL 3
REMARK minimizedAffinity -7.13742876
REMARK CNNscore 0.45873341
REMARK CNNaffinity 6.99515104
REMARK  9 active torsions:
REMARK  status: ('A' for Active; 'I' for Inactive)
REMARK    1  A    between atoms: C2_2  and  C3_3 
REMARK    2  A    between atoms: C2_2  and  C9_12 
REMARK    3  A    between atoms: C3_3  and  C4_4 
REMARK    4  A    between atoms: C4_4  and  C5_5 
REMARK    5  A    between atoms: C5_5  and  O1_6 
REMARK    6  A    between atoms: C5_5  and  C6_7 
REMARK    7  A    between atoms: C6_7  and  O2_9 
REMARK    8  A    between atoms: C6_7  and  C8_10 
REMARK    9  A    between atoms: C8_10  and  O3_11 
ROOT
HETATM    1  C9  UNL     1      -9.348  -7.912  -3.800  1.00  0.00    -0.002 C 
HETATM    2  C10 UNL     1      -7.973  -7.905  -4.523  1.00  0.00     0.007 C 
HETATM    3  C11 UNL     1      -6.959  -8.567  -3.572  1.00  0.00     0.015 C 
HETATM    4  C12 UNL     1      -7.815  -9.319  -2.534  1.00  0.00    -0.005 C 
HETATM    5  C13 UNL     1      -8.245 -10.670  -3.190  1.00  0.00     0.021 C 
HETATM    6  C14 UNL     1      -7.230  -9.724  -1.185  1.00  0.00    -0.000 C 
HETATM    7  C15 UNL     1      -8.014  -9.820  -0.078  1.00  0.00    -0.060 C 
HETATM    8  C16 UNL     1      -9.513  -9.475  -0.153  1.00  0.00     0.036 C 
HETATM    9  C17 UNL     1     -10.067  -8.963  -1.500  1.00  0.00     0.015 C 
HETATM   10  C18 UNL     1      -8.979  -8.269  -2.328  1.00  0.00    -0.028 C 
HETATM   11  C19 UNL     1      -8.517  -6.993  -1.565  1.00  0.00     0.016 C 
HETATM   12  C20 UNL     1      -7.481 -10.272   1.310  1.00  0.00    -0.014 C 
HETATM   13  C21 UNL     1      -7.952 -11.730   1.518  1.00  0.00     0.020 C 
HETATM   14  C22 UNL     1      -8.067  -9.372   2.438  1.00  0.00     0.021 C 
HETATM   15  C23 UNL     1      -7.282  -9.323   3.746  1.00  0.00     0.080 C 
HETATM   16  C24 UNL     1      -6.264 -10.426   3.870  1.00  0.00     0.135 C 
HETATM   17  O4  UNL     1      -6.207 -11.105   4.896  1.00  0.00    -0.297 OA
HETATM   18  C25 UNL     1      -5.266 -10.588   2.718  1.00  0.00     0.018 C 
HETATM   19  C26 UNL     1      -4.753 -12.043   2.698  1.00  0.00     0.023 C 
HETATM   20  C27 UNL     1      -4.064  -9.678   3.044  1.00  0.00     0.023 C 
HETATM   21  C28 UNL     1      -5.924 -10.127   1.369  1.00  0.00     0.020 C 
HETATM   22  C29 UNL     1      -5.264 -10.750   0.140  1.00  0.00     0.090 C 
HETATM   23  C30 UNL     1      -5.794 -10.142  -1.133  1.00  0.00     0.157 C 
HETATM   24  O5  UNL     1      -5.066 -10.062  -2.121  1.00  0.00    -0.293 OA
ENDROOT
BRANCH   1  25
HETATM   25  C2  UNL     1     -10.259  -6.707  -4.190  1.00  0.00    -0.014 C 
HETATM   26  C1  UNL     1     -11.670  -7.044  -4.693  1.00  0.00     0.010 C 
BRANCH  25  27
HETATM   27  C3  UNL     1      -9.540  -5.751  -5.169  1.00  0.00     0.007 C 
BRANCH  27  28
HETATM   28  C4  UNL     1     -10.417  -4.712  -5.886  1.00  0.00     0.035 C 
BRANCH  28  29
HETATM   29  C5  UNL     1      -9.926  -3.253  -5.961  1.00  0.00     0.154 C 
BRANCH  29  30
HETATM   30  O1  UNL     1      -9.791  -2.854  -7.332  1.00  0.00    -0.392 OA
HETATM   31  H10 UNL     1     -10.704  -2.675  -7.637  1.00  0.00     0.210 HD
ENDBRANCH  29  30
BRANCH  29  32
HETATM   32  C6  UNL     1     -10.744  -2.169  -5.201  1.00  0.00     0.101 C 
HETATM   33  C7  UNL     1     -10.002  -0.839  -5.089  1.00  0.00     0.051 C 
BRANCH  32  34
HETATM   34  O2  UNL     1     -11.016  -2.656  -3.871  1.00  0.00    -0.385 OA
HETATM   35  H14 UNL     1     -11.967  -2.891  -3.851  1.00  0.00     0.210 HD
ENDBRANCH  32  34
BRANCH  32  36
HETATM   36  C8  UNL     1     -12.108  -1.940  -5.901  1.00  0.00     0.204 C 
BRANCH  36  37
HETATM   37  O3  UNL     1     -13.138  -2.676  -5.237  1.00  0.00    -0.398 OA
HETATM   38  H17 UNL     1     -12.853  -3.615  -5.225  1.00  0.00     0.209 HD
ENDBRANCH  36  37
ENDBRANCH  32  36
ENDBRANCH  29  32
ENDBRANCH  28  29
ENDBRANCH  27  28
ENDBRANCH  25  27
ENDBRANCH   1  25
TORSDOF 9
ENDMDL
MODEL 4
REMARK minimizedAffinity -6.69957209
REMARK CNNscore 0.389885604
REMARK CNNaffinity 6.05668783
REMARK  9 active torsions:
REMARK  status: ('A' for Active; 'I' for Inactive)
REMARK    1  A    between atoms: C2_2  and  C3_3 
REMARK    2  A    between atoms: C2_2  and  C9_12 
REMARK    3  A    between atoms: C3_3  and  C4_4 
REMARK    4  A    between atoms: C4_4  and  C5_5 
REMARK    5  A    between atoms: C5_5  and  O1_6 
REMARK    6  A    between atoms: C5_5  and  C6_7 
REMARK    7  A    between atoms: C6_7  and  O2_9 
REMARK    8  A    between atoms: C6_7  and  C8_10 
REMARK    9  A    between atoms: C8_10  and  O3_11 
ROOT
HETATM    1  C9  UNL     1     -10.208  -9.682   6.982  1.00  0.00    -0.002 C 
HETATM    2  C10 UNL     1     -11.031  -8.370   7.099  1.00  0.00     0.007 C 
HETATM    3  C11 UNL     1     -11.332  -7.894   5.666  1.00  0.00     0.015 C 
HETATM    4  C12 UNL     1     -11.071  -9.123   4.773  1.00  0.00    -0.005 C 
HETATM    5  C13 UNL     1     -12.344 -10.026   4.856  1.00  0.00     0.021 C 
HETATM    6  C14 UNL     1     -10.819  -8.963   3.278  1.00  0.00    -0.000 C 
HETATM    7  C15 UNL     1     -10.035  -9.842   2.597  1.00  0.00    -0.060 C 
HETATM    8  C16 UNL     1      -9.344 -11.003   3.337  1.00  0.00     0.036 C 
HETATM    9  C17 UNL     1      -9.522 -11.088   4.869  1.00  0.00     0.015 C 
HETATM   10  C18 UNL     1      -9.784  -9.707   5.481  1.00  0.00    -0.028 C 
HETATM   11  C19 UNL     1      -8.519  -8.824   5.266  1.00  0.00     0.016 C 
HETATM   12  C20 UNL     1      -9.782  -9.754   1.067  1.00  0.00    -0.014 C 
HETATM   13  C21 UNL     1     -10.645 -10.853   0.405  1.00  0.00     0.020 C 
HETATM   14  C22 UNL     1      -8.280 -10.014   0.748  1.00  0.00     0.021 C 
HETATM   15  C23 UNL     1      -7.761  -9.467  -0.580  1.00  0.00     0.080 C 
HETATM   16  C24 UNL     1      -8.861  -9.080  -1.532  1.00  0.00     0.135 C 
HETATM   17  O4  UNL     1      -8.835  -9.467  -2.701  1.00  0.00    -0.297 OA
HETATM   18  C25 UNL     1      -9.935  -8.121  -1.005  1.00  0.00     0.018 C 
HETATM   19  C26 UNL     1     -11.230  -8.319  -1.822  1.00  0.00     0.023 C 
HETATM   20  C27 UNL     1      -9.426  -6.692  -1.284  1.00  0.00     0.023 C 
HETATM   21  C28 UNL     1     -10.121  -8.321   0.540  1.00  0.00     0.020 C 
HETATM   22  C29 UNL     1     -11.489  -7.858   1.041  1.00  0.00     0.090 C 
HETATM   23  C30 UNL     1     -11.559  -7.888   2.546  1.00  0.00     0.157 C 
HETATM   24  O5  UNL     1     -12.271  -7.080   3.140  1.00  0.00    -0.293 OA
ENDROOT
BRANCH   1  25
HETATM   25  C2  UNL     1      -9.211  -9.896   8.162  1.00  0.00    -0.014 C 
HETATM   26  C1  UNL     1      -9.480 -11.092   9.085  1.00  0.00     0.010 C 
BRANCH  25  27
HETATM   27  C3  UNL     1      -9.022  -8.600   8.982  1.00  0.00     0.007 C 
BRANCH  27  28
HETATM   28  C4  UNL     1      -7.664  -8.416   9.679  1.00  0.00     0.035 C 
BRANCH  28  29
HETATM   29  C5  UNL     1      -7.625  -8.348  11.218  1.00  0.00     0.154 C 
BRANCH  29  30
HETATM   30  O1  UNL     1      -8.888  -8.760  11.756  1.00  0.00    -0.392 OA
HETATM   31  H10 UNL     1      -8.888  -9.737  11.691  1.00  0.00     0.210 HD
ENDBRANCH  29  30
BRANCH  29  32
HETATM   32  C6  UNL     1      -6.491  -9.122  11.952  1.00  0.00     0.101 C 
HETATM   33  C7  UNL     1      -6.896 -10.547  12.326  1.00  0.00     0.051 C 
BRANCH  32  34
HETATM   34  O2  UNL     1      -6.163  -8.406  13.160  1.00  0.00    -0.385 OA
HETATM   35  H14 UNL     1      -5.294  -7.981  13.001  1.00  0.00     0.210 HD
ENDBRANCH  32  34
BRANCH  32  36
HETATM   36  C8  UNL     1      -5.215  -9.164  11.073  1.00  0.00     0.204 C 
BRANCH  36  37
HETATM   37  O3  UNL     1      -4.078  -9.518  11.863  1.00  0.00    -0.398 OA
HETATM   38  H17 UNL     1      -4.030  -8.870  12.598  1.00  0.00     0.209 HD
ENDBRANCH  36  37
ENDBRANCH  32  36
ENDBRANCH  29  32
ENDBRANCH  28  29
ENDBRANCH  27  28
ENDBRANCH  25  27
ENDBRANCH   1  25
TORSDOF 9
ENDMDL
MODEL 5
REMARK minimizedAffinity -8.49535465
REMARK CNNscore 0.365323603
REMARK CNNaffinity 6.70313597
REMARK  9 active torsions:
REMARK  status: ('A' for Active; 'I' for Inactive)
REMARK    1  A    between atoms: C2_2  and  C3_3 
REMARK    2  A    between atoms: C2_2  and  C9_12 
REMARK    3  A    between atoms: C3_3  and  C4_4 
REMARK    4  A    between atoms: C4_4  and  C5_5 
REMARK    5  A    between atoms: C5_5  and  O1_6 
REMARK    6  A    between atoms: C5_5  and  C6_7 
REMARK    7  A    between atoms: C6_7  and  O2_9 
REMARK    8  A    between atoms: C6_7  and  C8_10 
REMARK    9  A    between atoms: C8_10  and  O3_11 
ROOT
HETATM    1  C9  UNL     1      -0.213   7.874  14.039  1.00  0.00    -0.002 C 
HETATM    2  C10 UNL     1      -0.722   9.305  13.711  1.00  0.00     0.007 C 
HETATM    3  C11 UNL     1      -2.255   9.225  13.592  1.00  0.00     0.015 C 
HETATM    4  C12 UNL     1      -2.639   7.892  14.264  1.00  0.00    -0.005 C 
HETATM    5  C13 UNL     1      -2.664   8.147  15.805  1.00  0.00     0.021 C 
HETATM    6  C14 UNL     1      -3.979   7.227  13.969  1.00  0.00    -0.000 C 
HETATM    7  C15 UNL     1      -4.123   5.875  14.023  1.00  0.00    -0.060 C 
HETATM    8  C16 UNL     1      -2.913   4.976  14.340  1.00  0.00     0.036 C 
HETATM    9  C17 UNL     1      -1.540   5.657  14.529  1.00  0.00     0.015 C 
HETATM   10  C18 UNL     1      -1.456   6.977  13.751  1.00  0.00    -0.028 C 
HETATM   11  C19 UNL     1      -1.548   6.660  12.230  1.00  0.00     0.016 C 
HETATM   12  C20 UNL     1      -5.474   5.148  13.778  1.00  0.00    -0.014 C 
HETATM   13  C21 UNL     1      -6.005   4.711  15.163  1.00  0.00     0.020 C 
HETATM   14  C22 UNL     1      -5.262   3.891  12.885  1.00  0.00     0.021 C 
HETATM   15  C23 UNL     1      -6.485   3.377  12.130  1.00  0.00     0.080 C 
HETATM   16  C24 UNL     1      -7.781   3.944  12.645  1.00  0.00     0.135 C 
HETATM   17  O4  UNL     1      -8.729   3.199  12.896  1.00  0.00    -0.297 OA
HETATM   18  C25 UNL     1      -7.885   5.471  12.744  1.00  0.00     0.018 C 
HETATM   19  C26 UNL     1      -8.943   5.835  13.808  1.00  0.00     0.023 C 
HETATM   20  C27 UNL     1      -8.410   5.966  11.382  1.00  0.00     0.023 C 
HETATM   21  C28 UNL     1      -6.468   6.088  13.019  1.00  0.00     0.020 C 
HETATM   22  C29 UNL     1      -6.534   7.467  13.674  1.00  0.00     0.090 C 
HETATM   23  C30 UNL     1      -5.172   8.105  13.747  1.00  0.00     0.157 C 
HETATM   24  O5  UNL     1      -5.066   9.329  13.693  1.00  0.00    -0.293 OA
ENDROOT
BRANCH   1  25
HETATM   25  C2  UNL     1       1.211   7.579  13.476  1.00  0.00    -0.014 C 
HETATM   26  C1  UNL     1       2.320   7.321  14.506  1.00  0.00     0.010 C 
BRANCH  25  27
HETATM   27  C3  UNL     1       1.647   8.653  12.454  1.00  0.00     0.007 C 
BRANCH  27  28
HETATM   28  C4  UNL     1       1.555   8.268  10.968  1.00  0.00     0.035 C 
BRANCH  28  29
HETATM   29  C5  UNL     1       2.758   7.563  10.310  1.00  0.00     0.154 C 
BRANCH  29  30
HETATM   30  O1  UNL     1       3.761   7.287  11.298  1.00  0.00    -0.392 OA
HETATM   31  H10 UNL     1       3.431   6.505  11.785  1.00  0.00     0.210 HD
ENDBRANCH  29  30
BRANCH  29  32
HETATM   32  C6  UNL     1       2.484   6.265   9.497  1.00  0.00     0.101 C 
HETATM   33  C7  UNL     1       2.370   6.522   7.995  1.00  0.00     0.051 C 
BRANCH  32  34
HETATM   34  O2  UNL     1       1.244   5.693   9.960  1.00  0.00    -0.385 OA
HETATM   35  H14 UNL     1       1.484   4.899  10.483  1.00  0.00     0.210 HD
ENDBRANCH  32  34
BRANCH  32  36
HETATM   36  C8  UNL     1       3.603   5.225   9.757  1.00  0.00     0.204 C 
BRANCH  36  37
HETATM   37  O3  UNL     1       3.035   3.945  10.045  1.00  0.00    -0.398 OA
HETATM   38  H17 UNL     1       2.427   4.068  10.804  1.00  0.00     0.209 HD
ENDBRANCH  36  37
ENDBRANCH  32  36
ENDBRANCH  29  32
ENDBRANCH  28  29
ENDBRANCH  27  28
ENDBRANCH  25  27
ENDBRANCH   1  25
TORSDOF 9
ENDMDL
MODEL 6
REMARK minimizedAffinity -6.81278419
REMARK CNNscore 0.363511384
REMARK CNNaffinity 6.29328156
REMARK  9 active torsions:
REMARK  status: ('A' for Active; 'I' for Inactive)
REMARK    1  A    between atoms: C2_2  and  C3_3 
REMARK    2  A    between atoms: C2_2  and  C9_12 
REMARK    3  A    between atoms: C3_3  and  C4_4 
REMARK    4  A    between atoms: C4_4  and  C5_5 
REMARK    5  A    between atoms: C5_5  and  O1_6 
REMARK    6  A    between atoms: C5_5  and  C6_7 
REMARK    7  A    between atoms: C6_7  and  O2_9 
REMARK    8  A    between atoms: C6_7  and  C8_10 
REMARK    9  A    between atoms: C8_10  and  O3_11 
ROOT
HETATM    1  C9  UNL     1     -13.652   7.577  23.394  1.00  0.00    -0.002 C 
HETATM    2  C10 UNL     1     -14.064   7.882  24.861  1.00  0.00     0.007 C 
HETATM    3  C11 UNL     1     -13.576   9.307  25.181  1.00  0.00     0.015 C 
HETATM    4  C12 UNL     1     -13.291   9.950  23.811  1.00  0.00    -0.005 C 
HETATM    5  C13 UNL     1     -14.662  10.433  23.238  1.00  0.00     0.021 C 
HETATM    6  C14 UNL     1     -12.383  11.170  23.695  1.00  0.00    -0.000 C 
HETATM    7  C15 UNL     1     -11.646  11.396  22.574  1.00  0.00    -0.060 C 
HETATM    8  C16 UNL     1     -11.678  10.393  21.406  1.00  0.00     0.036 C 
HETATM    9  C17 UNL     1     -12.518   9.108  21.582  1.00  0.00     0.015 C 
HETATM   10  C18 UNL     1     -12.643   8.718  23.060  1.00  0.00    -0.028 C 
HETATM   11  C19 UNL     1     -11.227   8.357  23.597  1.00  0.00     0.016 C 
HETATM   12  C20 UNL     1     -10.741  12.644  22.383  1.00  0.00    -0.014 C 
HETATM   13  C21 UNL     1     -11.489  13.598  21.423  1.00  0.00     0.020 C 
HETATM   14  C22 UNL     1      -9.377  12.237  21.750  1.00  0.00     0.021 C 
HETATM   15  C23 UNL     1      -8.211  13.197  21.971  1.00  0.00     0.080 C 
HETATM   16  C24 UNL     1      -8.643  14.555  22.455  1.00  0.00     0.135 C 
HETATM   17  O4  UNL     1      -8.217  15.573  21.909  1.00  0.00    -0.297 OA
HETATM   18  C25 UNL     1      -9.543  14.601  23.695  1.00  0.00     0.018 C 
HETATM   19  C26 UNL     1     -10.356  15.912  23.678  1.00  0.00     0.023 C 
HETATM   20  C27 UNL     1      -8.605  14.655  24.918  1.00  0.00     0.023 C 
HETATM   21  C28 UNL     1     -10.425  13.305  23.765  1.00  0.00     0.020 C 
HETATM   22  C29 UNL     1     -11.698  13.494  24.590  1.00  0.00     0.090 C 
HETATM   23  C30 UNL     1     -12.419  12.187  24.792  1.00  0.00     0.157 C 
HETATM   24  O5  UNL     1     -13.076  12.003  25.816  1.00  0.00    -0.293 OA
ENDROOT
BRANCH   1  25
HETATM   25  C2  UNL     1     -13.361   6.068  23.133  1.00  0.00    -0.014 C 
HETATM   26  C1  UNL     1     -13.846   5.492  21.795  1.00  0.00     0.010 C 
BRANCH  25  27
HETATM   27  C3  UNL     1     -13.835   5.190  24.314  1.00  0.00     0.007 C 
BRANCH  27  28
HETATM   28  C4  UNL     1     -14.314   3.770  23.969  1.00  0.00     0.035 C 
BRANCH  28  29
HETATM   29  C5  UNL     1     -14.196   2.668  25.039  1.00  0.00     0.154 C 
BRANCH  29  30
HETATM   30  O1  UNL     1     -15.308   1.767  24.936  1.00  0.00    -0.392 OA
HETATM   31  H10 UNL     1     -15.102   1.195  24.169  1.00  0.00     0.210 HD
ENDBRANCH  29  30
BRANCH  29  32
HETATM   32  C6  UNL     1     -12.881   1.838  25.087  1.00  0.00     0.101 C 
HETATM   33  C7  UNL     1     -11.767   2.447  24.237  1.00  0.00     0.051 C 
BRANCH  32  34
HETATM   34  O2  UNL     1     -13.163   0.513  24.592  1.00  0.00    -0.385 OA
HETATM   35  H14 UNL     1     -13.156  -0.081  25.372  1.00  0.00     0.210 HD
ENDBRANCH  32  34
BRANCH  32  36
HETATM   36  C8  UNL     1     -12.391   1.695  26.550  1.00  0.00     0.204 C 
BRANCH  36  37
HETATM   37  O3  UNL     1     -13.500   1.726  27.451  1.00  0.00    -0.398 OA
HETATM   38  H17 UNL     1     -13.983   2.562  27.277  1.00  0.00     0.209 HD
ENDBRANCH  36  37
ENDBRANCH  32  36
ENDBRANCH  29  32
ENDBRANCH  28  29
ENDBRANCH  27  28
ENDBRANCH  25  27
ENDBRANCH   1  25
TORSDOF 9
ENDMDL
MODEL 7
REMARK minimizedAffinity -8.66811275
REMARK CNNscore 0.361902773
REMARK CNNaffinity 6.7797904
REMARK  9 active torsions:
REMARK  status: ('A' for Active; 'I' for Inactive)
REMARK    1  A    between atoms: C2_2  and  C3_3 
REMARK    2  A    between atoms: C2_2  and  C9_12 
REMARK    3  A    between atoms: C3_3  and  C4_4 
REMARK    4  A    between atoms: C4_4  and  C5_5 
REMARK    5  A    between atoms: C5_5  and  O1_6 
REMARK    6  A    between atoms: C5_5  and  C6_7 
REMARK    7  A    between atoms: C6_7  and  O2_9 
REMARK    8  A    between atoms: C6_7  and  C8_10 
REMARK    9  A    between atoms: C8_10  and  O3_11 
ROOT
HETATM    1  C9  UNL     1      -5.345   4.962  13.604  1.00  0.00    -0.002 C 
HETATM    2  C10 UNL     1      -4.800   5.578  14.922  1.00  0.00     0.007 C 
HETATM    3  C11 UNL     1      -5.953   6.377  15.558  1.00  0.00     0.015 C 
HETATM    4  C12 UNL     1      -7.227   5.869  14.856  1.00  0.00    -0.005 C 
HETATM    5  C13 UNL     1      -7.629   4.529  15.552  1.00  0.00     0.021 C 
HETATM    6  C14 UNL     1      -8.507   6.698  14.866  1.00  0.00    -0.000 C 
HETATM    7  C15 UNL     1      -9.400   6.628  13.842  1.00  0.00    -0.060 C 
HETATM    8  C16 UNL     1      -9.114   5.736  12.620  1.00  0.00     0.036 C 
HETATM    9  C17 UNL     1      -7.764   4.987  12.575  1.00  0.00     0.015 C 
HETATM   10  C18 UNL     1      -6.686   5.725  13.377  1.00  0.00    -0.028 C 
HETATM   11  C19 UNL     1      -6.414   7.097  12.694  1.00  0.00     0.016 C 
HETATM   12  C20 UNL     1     -10.740   7.413  13.822  1.00  0.00    -0.014 C 
HETATM   13  C21 UNL     1     -11.861   6.398  14.146  1.00  0.00     0.020 C 
HETATM   14  C22 UNL     1     -10.990   8.028  12.413  1.00  0.00     0.021 C 
HETATM   15  C23 UNL     1     -11.939   9.221  12.349  1.00  0.00     0.080 C 
HETATM   16  C24 UNL     1     -12.763   9.392  13.597  1.00  0.00     0.135 C 
HETATM   17  O4  UNL     1     -13.982   9.553  13.520  1.00  0.00    -0.297 OA
HETATM   18  C25 UNL     1     -12.008   9.451  14.930  1.00  0.00     0.018 C 
HETATM   19  C26 UNL     1     -12.957   9.013  16.066  1.00  0.00     0.023 C 
HETATM   20  C27 UNL     1     -11.652  10.932  15.170  1.00  0.00     0.023 C 
HETATM   21  C28 UNL     1     -10.691   8.602  14.838  1.00  0.00     0.020 C 
HETATM   22  C29 UNL     1     -10.182   8.140  16.203  1.00  0.00     0.090 C 
HETATM   23  C30 UNL     1      -8.825   7.496  16.092  1.00  0.00     0.157 C 
HETATM   24  O5  UNL     1      -8.032   7.576  17.029  1.00  0.00    -0.293 OA
ENDROOT
BRANCH   1  25
HETATM   25  C2  UNL     1      -4.254   4.793  12.502  1.00  0.00    -0.014 C 
HETATM   26  C1  UNL     1      -4.451   3.640  11.507  1.00  0.00     0.010 C 
BRANCH  25  27
HETATM   27  C3  UNL     1      -2.836   4.755  13.114  1.00  0.00     0.007 C 
BRANCH  27  28
HETATM   28  C4  UNL     1      -2.534   5.781  14.219  1.00  0.00     0.035 C 
BRANCH  28  29
HETATM   29  C5  UNL     1      -1.148   5.760  14.890  1.00  0.00     0.154 C 
BRANCH  29  30
HETATM   30  O1  UNL     1      -0.215   5.054  14.060  1.00  0.00    -0.392 OA
HETATM   31  H10 UNL     1       0.020   5.683  13.348  1.00  0.00     0.210 HD
ENDBRANCH  29  30
BRANCH  29  32
HETATM   32  C6  UNL     1      -0.519   7.123  15.304  1.00  0.00     0.101 C 
HETATM   33  C7  UNL     1       0.175   7.830  14.141  1.00  0.00     0.051 C 
BRANCH  32  34
HETATM   34  O2  UNL     1       0.456   6.876  16.338  1.00  0.00    -0.385 OA
HETATM   35  H14 UNL     1       0.061   7.201  17.174  1.00  0.00     0.210 HD
ENDBRANCH  32  34
BRANCH  32  36
HETATM   36  C8  UNL     1      -1.604   8.055  15.900  1.00  0.00     0.204 C 
BRANCH  36  37
HETATM   37  O3  UNL     1      -2.234   7.431  17.021  1.00  0.00    -0.398 OA
HETATM   38  H17 UNL     1      -2.582   6.570  16.708  1.00  0.00     0.209 HD
ENDBRANCH  36  37
ENDBRANCH  32  36
ENDBRANCH  29  32
ENDBRANCH  28  29
ENDBRANCH  27  28
ENDBRANCH  25  27
ENDBRANCH   1  25
TORSDOF 9
ENDMDL
MODEL 8
REMARK minimizedAffinity -7.34255028
REMARK CNNscore 0.328719646
REMARK CNNaffinity 5.49871111
REMARK  9 active torsions:
REMARK  status: ('A' for Active; 'I' for Inactive)
REMARK    1  A    between atoms: C2_2  and  C3_3 
REMARK    2  A    between atoms: C2_2  and  C9_12 
REMARK    3  A    between atoms: C3_3  and  C4_4 
REMARK    4  A    between atoms: C4_4  and  C5_5 
REMARK    5  A    between atoms: C5_5  and  O1_6 
REMARK    6  A    between atoms: C5_5  and  C6_7 
REMARK    7  A    between atoms: C6_7  and  O2_9 
REMARK    8  A    between atoms: C6_7  and  C8_10 
REMARK    9  A    between atoms: C8_10  and  O3_11 
ROOT
HETATM    1  C9  UNL     1      -9.287 -10.130  12.877  1.00  0.00    -0.002 C 
HETATM    2  C10 UNL     1      -8.067 -10.536  13.749  1.00  0.00     0.007 C 
HETATM    3  C11 UNL     1      -6.836 -10.554  12.824  1.00  0.00     0.015 C 
HETATM    4  C12 UNL     1      -7.263  -9.759  11.575  1.00  0.00    -0.005 C 
HETATM    5  C13 UNL     1      -7.112  -8.244  11.924  1.00  0.00     0.021 C 
HETATM    6  C14 UNL     1      -6.515  -9.919  10.255  1.00  0.00    -0.000 C 
HETATM    7  C15 UNL     1      -7.147  -9.752   9.062  1.00  0.00    -0.060 C 
HETATM    8  C16 UNL     1      -8.655  -9.441   9.017  1.00  0.00     0.036 C 
HETATM    9  C17 UNL     1      -9.420  -9.390  10.358  1.00  0.00     0.015 C 
HETATM   10  C18 UNL     1      -8.751 -10.271  11.420  1.00  0.00    -0.028 C 
HETATM   11  C19 UNL     1      -8.838 -11.755  10.957  1.00  0.00     0.016 C 
HETATM   12  C20 UNL     1      -6.425  -9.856   7.691  1.00  0.00    -0.014 C 
HETATM   13  C21 UNL     1      -6.237  -8.412   7.172  1.00  0.00     0.020 C 
HETATM   14  C22 UNL     1      -7.293 -10.661   6.678  1.00  0.00     0.021 C 
HETATM   15  C23 UNL     1      -6.555 -11.296   5.503  1.00  0.00     0.080 C 
HETATM   16  C24 UNL     1      -5.166 -10.749   5.308  1.00  0.00     0.135 C 
HETATM   17  O4  UNL     1      -4.794 -10.383   4.193  1.00  0.00    -0.297 OA
HETATM   18  C25 UNL     1      -4.233 -10.762   6.524  1.00  0.00     0.018 C 
HETATM   19  C26 UNL     1      -3.160  -9.667   6.347  1.00  0.00     0.023 C 
HETATM   20  C27 UNL     1      -3.511 -12.124   6.511  1.00  0.00     0.023 C 
HETATM   21  C28 UNL     1      -5.071 -10.623   7.844  1.00  0.00     0.020 C 
HETATM   22  C29 UNL     1      -4.255 -10.074   9.014  1.00  0.00     0.090 C 
HETATM   23  C30 UNL     1      -5.034 -10.134  10.302  1.00  0.00     0.157 C 
HETATM   24  O5  UNL     1      -4.442 -10.290  11.368  1.00  0.00    -0.293 OA
ENDROOT
BRANCH   1  25
HETATM   25  C2  UNL     1     -10.631 -10.754  13.363  1.00  0.00    -0.014 C 
HETATM   26  C1  UNL     1     -11.848  -9.819  13.417  1.00  0.00     0.010 C 
BRANCH  25  27
HETATM   27  C3  UNL     1     -10.453 -11.502  14.704  1.00  0.00     0.007 C 
BRANCH  27  28
HETATM   28  C4  UNL     1     -11.037 -10.825  15.955  1.00  0.00     0.035 C 
BRANCH  28  29
HETATM   29  C5  UNL     1     -10.068 -10.216  16.987  1.00  0.00     0.154 C 
BRANCH  29  30
HETATM   30  O1  UNL     1      -9.308  -9.162  16.380  1.00  0.00    -0.392 OA
HETATM   31  H10 UNL     1      -9.917  -8.397  16.340  1.00  0.00     0.210 HD
ENDBRANCH  29  30
BRANCH  29  32
HETATM   32  C6  UNL     1     -10.665  -9.695  18.327  1.00  0.00     0.101 C 
HETATM   33  C7  UNL     1     -11.044 -10.824  19.283  1.00  0.00     0.051 C 
BRANCH  32  34
HETATM   34  O2  UNL     1     -11.851  -8.930  18.027  1.00  0.00    -0.385 OA
HETATM   35  H14 UNL     1     -11.616  -7.989  18.168  1.00  0.00     0.210 HD
ENDBRANCH  32  34
BRANCH  32  36
HETATM   36  C8  UNL     1      -9.662  -8.743  19.026  1.00  0.00     0.204 C 
BRANCH  36  37
HETATM   37  O3  UNL     1      -8.391  -9.380  19.171  1.00  0.00    -0.398 OA
HETATM   38  H17 UNL     1      -8.546 -10.217  19.659  1.00  0.00     0.209 HD
ENDBRANCH  36  37
ENDBRANCH  32  36
ENDBRANCH  29  32
ENDBRANCH  28  29
ENDBRANCH  27  28
ENDBRANCH  25  27
ENDBRANCH   1  25
TORSDOF 9
ENDMDL
MODEL 9
REMARK minimizedAffinity -6.4492569
REMARK CNNscore 0.312046915
REMARK CNNaffinity 5.86776543
REMARK  9 active torsions:
REMARK  status: ('A' for Active; 'I' for Inactive)
REMARK    1  A    between atoms: C2_2  and  C3_3 
REMARK    2  A    between atoms: C2_2  and  C9_12 
REMARK    3  A    between atoms: C3_3  and  C4_4 
REMARK    4  A    between atoms: C4_4  and  C5_5 
REMARK    5  A    between atoms: C5_5  and  O1_6 
REMARK    6  A    between atoms: C5_5  and  C6_7 
REMARK    7  A    between atoms: C6_7  and  O2_9 
REMARK    8  A    between atoms: C6_7  and  C8_10 
REMARK    9  A    between atoms: C8_10  and  O3_11 
ROOT
HETATM    1  C9  UNL     1      -5.497 -10.490   5.138  1.00  0.00    -0.002 C 
HETATM    2  C10 UNL     1      -5.075 -11.489   4.025  1.00  0.00     0.007 C 
HETATM    3  C11 UNL     1      -6.242 -11.570   3.023  1.00  0.00     0.015 C 
HETATM    4  C12 UNL     1      -7.110 -10.331   3.320  1.00  0.00    -0.005 C 
HETATM    5  C13 UNL     1      -6.436  -9.119   2.601  1.00  0.00     0.021 C 
HETATM    6  C14 UNL     1      -8.567 -10.274   2.871  1.00  0.00    -0.000 C 
HETATM    7  C15 UNL     1      -9.491  -9.561   3.569  1.00  0.00    -0.060 C 
HETATM    8  C16 UNL     1      -9.093  -8.827   4.864  1.00  0.00     0.036 C 
HETATM    9  C17 UNL     1      -7.640  -8.984   5.363  1.00  0.00     0.015 C 
HETATM   10  C18 UNL     1      -7.028 -10.311   4.899  1.00  0.00    -0.028 C 
HETATM   11  C19 UNL     1      -7.815 -11.477   5.563  1.00  0.00     0.016 C 
HETATM   12  C20 UNL     1     -10.977  -9.429   3.134  1.00  0.00    -0.014 C 
HETATM   13  C21 UNL     1     -11.144  -8.016   2.529  1.00  0.00     0.020 C 
HETATM   14  C22 UNL     1     -11.921  -9.582   4.363  1.00  0.00     0.021 C 
HETATM   15  C23 UNL     1     -13.360  -9.997   4.069  1.00  0.00     0.080 C 
HETATM   16  C24 UNL     1     -13.737  -9.845   2.620  1.00  0.00     0.135 C 
HETATM   17  O4  UNL     1     -14.780  -9.270   2.307  1.00  0.00    -0.297 OA
HETATM   18  C25 UNL     1     -12.824 -10.515   1.586  1.00  0.00     0.018 C 
HETATM   19  C26 UNL     1     -12.972  -9.783   0.235  1.00  0.00     0.023 C 
HETATM   20  C27 UNL     1     -13.354 -11.950   1.394  1.00  0.00     0.023 C 
HETATM   21  C28 UNL     1     -11.351 -10.565   2.125  1.00  0.00     0.020 C 
HETATM   22  C29 UNL     1     -10.312 -10.678   1.010  1.00  0.00     0.090 C 
HETATM   23  C30 UNL     1      -8.933 -10.914   1.569  1.00  0.00     0.157 C 
HETATM   24  O5  UNL     1      -8.115 -11.565   0.922  1.00  0.00    -0.293 OA
ENDROOT
BRANCH   1  25
HETATM   25  C2  UNL     1      -4.877 -10.817   6.531  1.00  0.00    -0.014 C 
HETATM   26  C1  UNL     1      -4.237 -12.203   6.695  1.00  0.00     0.010 C 
BRANCH  25  27
HETATM   27  C3  UNL     1      -5.878 -10.535   7.674  1.00  0.00     0.007 C 
BRANCH  27  28
HETATM   28  C4  UNL     1      -5.688  -9.220   8.449  1.00  0.00     0.035 C 
BRANCH  28  29
HETATM   29  C5  UNL     1      -6.279  -9.105   9.867  1.00  0.00     0.154 C 
BRANCH  29  30
HETATM   30  O1  UNL     1      -7.546  -9.775   9.924  1.00  0.00    -0.392 OA
HETATM   31  H10 UNL     1      -7.330 -10.728   9.974  1.00  0.00     0.210 HD
ENDBRANCH  29  30
BRANCH  29  32
HETATM   32  C6  UNL     1      -5.404  -9.587  11.061  1.00  0.00     0.101 C 
HETATM   33  C7  UNL     1      -5.808 -10.971  11.568  1.00  0.00     0.051 C 
BRANCH  32  34
HETATM   34  O2  UNL     1      -5.551  -8.642  12.141  1.00  0.00    -0.385 OA
HETATM   35  H14 UNL     1      -4.712  -8.136  12.182  1.00  0.00     0.210 HD
ENDBRANCH  32  34
BRANCH  32  36
HETATM   36  C8  UNL     1      -3.908  -9.603  10.657  1.00  0.00     0.204 C 
BRANCH  36  37
HETATM   37  O3  UNL     1      -3.089  -9.233  11.768  1.00  0.00    -0.398 OA
HETATM   38  H17 UNL     1      -3.405  -8.357  12.074  1.00  0.00     0.209 HD
ENDBRANCH  36  37
ENDBRANCH  32  36
ENDBRANCH  29  32
ENDBRANCH  28  29
ENDBRANCH  27  28
ENDBRANCH  25  27
ENDBRANCH   1  25
TORSDOF 9
ENDMDL
