MODEL 1
REMARK minimizedAffinity -8.35613823
REMARK  9 active torsions:
REMARK  status: ('A' for Active; 'I' for Inactive)
REMARK    1  A    between atoms: C2_2  and  C3_3 
REMARK    2  A    between atoms: C3_3  and  C5_5 
REMARK    3  A    between atoms: C5_5  and  C6_6 
REMARK    4  A    between atoms: C6_6  and  O2_8 
REMARK    5  A    between atoms: O2_8  and  C7_9 
REMARK    6  A    between atoms: C7_9  and  C8_10 
REMARK    7  A    between atoms: C20_22  and  O3_23 
REMARK    8  A    between atoms: C20_22  and  C21_24 
REMARK    9  A    between atoms: C21_24  and  O4_25 
ROOT
HETATM    1  C8  UNL     1      -2.059   7.885  13.226  1.00  0.00    -0.018 C 
HETATM    2  C9  UNL     1      -2.464   8.919  12.135  1.00  0.00     0.018 C 
HETATM    3  C10 UNL     1      -1.833   8.676  14.539  1.00  0.00     0.012 C 
HETATM    4  C11 UNL     1      -3.095   9.166  15.243  1.00  0.00     0.002 C 
HETATM    5  C12 UNL     1      -4.355   8.348  14.971  1.00  0.00     0.010 C 
HETATM    6  C13 UNL     1      -4.106   6.862  14.633  1.00  0.00    -0.032 C 
HETATM    7  C14 UNL     1      -3.346   6.202  15.826  1.00  0.00     0.016 C 
HETATM    8  C15 UNL     1      -3.222   6.805  13.337  1.00  0.00     0.005 C 
HETATM    9  C16 UNL     1      -2.818   5.336  13.037  1.00  0.00     0.007 C 
HETATM   10  C17 UNL     1      -3.965   4.328  13.225  1.00  0.00     0.006 C 
HETATM   11  C18 UNL     1      -5.320   5.028  13.187  1.00  0.00    -0.002 C 
HETATM   12  C19 UNL     1      -6.499   4.051  13.077  1.00  0.00     0.045 C 
HETATM   13  C20 UNL     1      -7.836   4.819  13.017  1.00  0.00     0.083 C 
HETATM   14  C22 UNL     1      -7.875   5.953  14.079  1.00  0.00     0.023 C 
HETATM   15  C23 UNL     1      -7.609   5.420  15.493  1.00  0.00     0.008 C 
HETATM   16  C24 UNL     1      -6.083   5.437  15.651  1.00  0.00     0.011 C 
HETATM   17  C25 UNL     1      -5.490   6.081  14.357  1.00  0.00    -0.029 C 
HETATM   18  C26 UNL     1      -6.705   6.944  13.925  1.00  0.00     0.018 C 
ENDROOT
BRANCH   1  19
HETATM   19  C7  UNL     1      -0.701   7.267  12.784  1.00  0.00     0.188 C 
BRANCH  19  20
HETATM   20  O2  UNL     1      -0.528   7.400  11.363  1.00  0.00    -0.321 OA
BRANCH  20  21
HETATM   21  C6  UNL     1       0.581   8.090  10.987  1.00  0.00     0.259 C 
HETATM   22  O1  UNL     1       1.335   8.680  11.749  1.00  0.00    -0.265 OA
BRANCH  21  23
HETATM   23  C5  UNL     1       0.742   8.080   9.486  1.00  0.00     0.115 C 
BRANCH  23  24
HETATM   24  C3  UNL     1       2.150   7.682   9.013  1.00  0.00    -0.010 C 
HETATM   25  C4  UNL     1       2.382   6.191   9.276  1.00  0.00     0.010 C 
BRANCH  24  26
HETATM   26  C2  UNL     1       2.439   8.047   7.541  1.00  0.00     0.000 C 
HETATM   27  C1  UNL     1       1.805   7.133   6.503  1.00  0.00     0.005 C 
ENDBRANCH  24  26
ENDBRANCH  23  24
ENDBRANCH  21  23
ENDBRANCH  20  21
ENDBRANCH  19  20
ENDBRANCH   1  19
BRANCH  13  28
HETATM   28  O3  UNL     1      -8.922   3.906  13.268  1.00  0.00    -0.387 OA
HETATM   29  H34 UNL     1      -8.699   3.363  14.042  1.00  0.00     0.210 HD
ENDBRANCH  13  28
BRANCH  13  30
HETATM   30  C21 UNL     1      -8.100   5.357  11.588  1.00  0.00     0.202 C 
BRANCH  30  31
HETATM   31  O4  UNL     1      -9.291   6.145  11.574  1.00  0.00    -0.398 OA
HETATM   32  H37 UNL     1      -9.935   5.618  12.091  1.00  0.00     0.209 HD
ENDBRANCH  30  31
ENDBRANCH  13  30
TORSDOF 9
ENDMDL
MODEL 2
REMARK minimizedAffinity -8.0373354
REMARK  9 active torsions:
REMARK  status: ('A' for Active; 'I' for Inactive)
REMARK    1  A    between atoms: C2_2  and  C3_3 
REMARK    2  A    between atoms: C3_3  and  C5_5 
REMARK    3  A    between atoms: C5_5  and  C6_6 
REMARK    4  A    between atoms: C6_6  and  O2_8 
REMARK    5  A    between atoms: O2_8  and  C7_9 
REMARK    6  A    between atoms: C7_9  and  C8_10 
REMARK    7  A    between atoms: C20_22  and  O3_23 
REMARK    8  A    between atoms: C20_22  and  C21_24 
REMARK    9  A    between atoms: C21_24  and  O4_25 
ROOT
HETATM    1  C8  UNL     1      -0.559   6.425  12.979  1.00  0.00    -0.018 C 
HETATM    2  C9  UNL     1      -0.223   6.636  14.485  1.00  0.00     0.018 C 
HETATM    3  C10 UNL     1      -1.447   7.615  12.541  1.00  0.00     0.012 C 
HETATM    4  C11 UNL     1      -0.727   8.948  12.358  1.00  0.00     0.002 C 
HETATM    5  C12 UNL     1       0.757   8.847  12.016  1.00  0.00     0.010 C 
HETATM    6  C13 UNL     1       1.166   7.562  11.263  1.00  0.00    -0.032 C 
HETATM    7  C14 UNL     1       0.353   7.488   9.932  1.00  0.00     0.016 C 
HETATM    8  C15 UNL     1       0.812   6.336  12.177  1.00  0.00     0.005 C 
HETATM    9  C16 UNL     1       1.066   5.012  11.407  1.00  0.00     0.007 C 
HETATM   10  C17 UNL     1       2.373   5.009  10.594  1.00  0.00     0.006 C 
HETATM   11  C18 UNL     1       3.334   6.079  11.103  1.00  0.00    -0.002 C 
HETATM   12  C19 UNL     1       4.752   5.934  10.533  1.00  0.00     0.045 C 
HETATM   13  C20 UNL     1       5.681   7.026  11.103  1.00  0.00     0.083 C 
HETATM   14  C22 UNL     1       4.983   8.415  11.082  1.00  0.00     0.023 C 
HETATM   15  C23 UNL     1       4.494   8.787   9.677  1.00  0.00     0.008 C 
HETATM   16  C24 UNL     1       3.092   8.174   9.563  1.00  0.00     0.011 C 
HETATM   17  C25 UNL     1       2.747   7.541  10.949  1.00  0.00    -0.029 C 
HETATM   18  C26 UNL     1       3.652   8.417  11.857  1.00  0.00     0.018 C 
ENDROOT
BRANCH   1  19
HETATM   19  C7  UNL     1      -1.402   5.120  12.881  1.00  0.00     0.188 C 
BRANCH  19  20
HETATM   20  O2  UNL     1      -2.511   5.305  11.985  1.00  0.00    -0.321 OA
BRANCH  20  21
HETATM   21  C6  UNL     1      -3.733   5.090  12.540  1.00  0.00     0.259 C 
HETATM   22  O1  UNL     1      -4.411   5.941  13.101  1.00  0.00    -0.265 OA
BRANCH  21  23
HETATM   23  C5  UNL     1      -4.133   3.639  12.423  1.00  0.00     0.115 C 
BRANCH  23  24
HETATM   24  C3  UNL     1      -5.600   3.429  12.015  1.00  0.00    -0.010 C 
HETATM   25  C4  UNL     1      -5.740   2.106  11.256  1.00  0.00     0.010 C 
BRANCH  24  26
HETATM   26  C2  UNL     1      -6.594   3.512  13.194  1.00  0.00     0.000 C 
HETATM   27  C1  UNL     1      -8.067   3.509  12.809  1.00  0.00     0.005 C 
ENDBRANCH  24  26
ENDBRANCH  23  24
ENDBRANCH  21  23
ENDBRANCH  20  21
ENDBRANCH  19  20
ENDBRANCH   1  19
BRANCH  13  28
HETATM   28  O3  UNL     1       6.881   7.093  10.309  1.00  0.00    -0.387 OA
HETATM   29  H34 UNL     1       6.632   7.098   9.370  1.00  0.00     0.210 HD
ENDBRANCH  13  28
BRANCH  13  30
HETATM   30  C21 UNL     1       6.172   6.647  12.522  1.00  0.00     0.202 C 
BRANCH  30  31
HETATM   31  O4  UNL     1       5.427   7.367  13.506  1.00  0.00    -0.398 OA
HETATM   32  H37 UNL     1       5.395   8.283  13.162  1.00  0.00     0.209 HD
ENDBRANCH  30  31
ENDBRANCH  13  30
TORSDOF 9
ENDMDL
MODEL 3
REMARK minimizedAffinity -7.79360819
REMARK  9 active torsions:
REMARK  status: ('A' for Active; 'I' for Inactive)
REMARK    1  A    between atoms: C2_2  and  C3_3 
REMARK    2  A    between atoms: C3_3  and  C5_5 
REMARK    3  A    between atoms: C5_5  and  C6_6 
REMARK    4  A    between atoms: C6_6  and  O2_8 
REMARK    5  A    between atoms: O2_8  and  C7_9 
REMARK    6  A    between atoms: C7_9  and  C8_10 
REMARK    7  A    between atoms: C20_22  and  O3_23 
REMARK    8  A    between atoms: C20_22  and  C21_24 
REMARK    9  A    between atoms: C21_24  and  O4_25 
ROOT
HETATM    1  C8  UNL     1      -8.675   5.882  12.970  1.00  0.00    -0.018 C 
HETATM    2  C9  UNL     1      -8.594   5.978  11.418  1.00  0.00     0.018 C 
HETATM    3  C10 UNL     1      -8.801   4.380  13.326  1.00  0.00     0.012 C 
HETATM    4  C11 UNL     1      -7.525   3.555  13.181  1.00  0.00     0.002 C 
HETATM    5  C12 UNL     1      -6.222   4.337  13.323  1.00  0.00     0.010 C 
HETATM    6  C13 UNL     1      -6.311   5.595  14.213  1.00  0.00    -0.032 C 
HETATM    7  C14 UNL     1      -6.777   5.162  15.639  1.00  0.00     0.016 C 
HETATM    8  C15 UNL     1      -7.370   6.563  13.575  1.00  0.00     0.005 C 
HETATM    9  C16 UNL     1      -7.607   7.778  14.511  1.00  0.00     0.007 C 
HETATM   10  C17 UNL     1      -6.315   8.353  15.119  1.00  0.00     0.006 C 
HETATM   11  C18 UNL     1      -5.095   7.927  14.310  1.00  0.00    -0.002 C 
HETATM   12  C19 UNL     1      -3.823   8.698  14.690  1.00  0.00     0.045 C 
HETATM   13  C20 UNL     1      -2.631   8.241  13.822  1.00  0.00     0.083 C 
HETATM   14  C22 UNL     1      -2.586   6.692  13.710  1.00  0.00     0.023 C 
HETATM   15  C23 UNL     1      -2.550   6.021  15.089  1.00  0.00     0.008 C 
HETATM   16  C24 UNL     1      -4.021   5.865  15.500  1.00  0.00     0.011 C 
HETATM   17  C25 UNL     1      -4.893   6.357  14.301  1.00  0.00    -0.029 C 
HETATM   18  C26 UNL     1      -3.892   6.105  13.142  1.00  0.00     0.018 C 
ENDROOT
BRANCH   1  19
HETATM   19  C7  UNL     1      -9.986   6.601  13.401  1.00  0.00     0.188 C 
BRANCH  19  20
HETATM   20  O2  UNL     1     -10.711   7.058  12.246  1.00  0.00    -0.321 OA
BRANCH  20  21
HETATM   21  C6  UNL     1     -11.604   8.053  12.492  1.00  0.00     0.259 C 
HETATM   22  O1  UNL     1     -11.635   9.130  11.911  1.00  0.00    -0.265 OA
BRANCH  21  23
HETATM   23  C5  UNL     1     -12.533   7.679  13.622  1.00  0.00     0.115 C 
BRANCH  23  24
HETATM   24  C3  UNL     1     -13.654   6.710  13.212  1.00  0.00    -0.010 C 
HETATM   25  C4  UNL     1     -13.979   5.773  14.379  1.00  0.00     0.010 C 
BRANCH  24  26
HETATM   26  C2  UNL     1     -14.922   7.412  12.680  1.00  0.00     0.000 C 
HETATM   27  C1  UNL     1     -16.203   6.594  12.756  1.00  0.00     0.005 C 
ENDBRANCH  24  26
ENDBRANCH  23  24
ENDBRANCH  21  23
ENDBRANCH  20  21
ENDBRANCH  19  20
ENDBRANCH   1  19
BRANCH  13  28
HETATM   28  O3  UNL     1      -1.403   8.704  14.417  1.00  0.00    -0.387 OA
HETATM   29  H34 UNL     1      -1.425   8.506  15.368  1.00  0.00     0.210 HD
ENDBRANCH  13  28
BRANCH  13  30
HETATM   30  C21 UNL     1      -2.672   8.920  12.430  1.00  0.00     0.202 C 
BRANCH  30  31
HETATM   31  O4  UNL     1      -1.452   9.625  12.195  1.00  0.00    -0.398 OA
HETATM   32  H37 UNL     1      -1.282  10.101  13.034  1.00  0.00     0.209 HD
ENDBRANCH  30  31
ENDBRANCH  13  30
TORSDOF 9
ENDMDL
MODEL 4
REMARK minimizedAffinity -7.49865294
REMARK  9 active torsions:
REMARK  status: ('A' for Active; 'I' for Inactive)
REMARK    1  A    between atoms: C2_2  and  C3_3 
REMARK    2  A    between atoms: C3_3  and  C5_5 
REMARK    3  A    between atoms: C5_5  and  C6_6 
REMARK    4  A    between atoms: C6_6  and  O2_8 
REMARK    5  A    between atoms: O2_8  and  C7_9 
REMARK    6  A    between atoms: C7_9  and  C8_10 
REMARK    7  A    between atoms: C20_22  and  O3_23 
REMARK    8  A    between atoms: C20_22  and  C21_24 
REMARK    9  A    between atoms: C21_24  and  O4_25 
ROOT
HETATM    1  C8  UNL     1      -2.754   6.129  13.221  1.00  0.00    -0.018 C 
HETATM    2  C9  UNL     1      -3.141   4.862  12.401  1.00  0.00     0.018 C 
HETATM    3  C10 UNL     1      -2.447   5.659  14.664  1.00  0.00     0.012 C 
HETATM    4  C11 UNL     1      -1.119   4.932  14.856  1.00  0.00     0.002 C 
HETATM    5  C12 UNL     1      -0.030   5.282  13.847  1.00  0.00     0.010 C 
HETATM    6  C13 UNL     1      -0.130   6.702  13.248  1.00  0.00    -0.032 C 
HETATM    7  C14 UNL     1      -0.065   7.738  14.414  1.00  0.00     0.016 C 
HETATM    8  C15 UNL     1      -1.509   6.816  12.507  1.00  0.00     0.005 C 
HETATM    9  C16 UNL     1      -1.725   8.271  12.013  1.00  0.00     0.007 C 
HETATM   10  C17 UNL     1      -0.469   8.908  11.393  1.00  0.00     0.006 C 
HETATM   11  C18 UNL     1       0.532   7.839  10.968  1.00  0.00    -0.002 C 
HETATM   12  C19 UNL     1       1.663   8.389  10.088  1.00  0.00     0.045 C 
HETATM   13  C20 UNL     1       2.626   7.257   9.671  1.00  0.00     0.083 C 
HETATM   14  C22 UNL     1       2.970   6.346  10.882  1.00  0.00     0.023 C 
HETATM   15  C23 UNL     1       3.541   7.149  12.058  1.00  0.00     0.008 C 
HETATM   16  C24 UNL     1       2.318   7.614  12.860  1.00  0.00     0.011 C 
HETATM   17  C25 UNL     1       1.056   6.981  12.192  1.00  0.00    -0.029 C 
HETATM   18  C26 UNL     1       1.715   5.738  11.536  1.00  0.00     0.018 C 
ENDROOT
BRANCH   1  19
HETATM   19  C7  UNL     1      -4.011   7.046  13.259  1.00  0.00     0.188 C 
BRANCH  19  20
HETATM   20  O2  UNL     1      -5.210   6.254  13.269  1.00  0.00    -0.321 OA
BRANCH  20  21
HETATM   21  C6  UNL     1      -6.000   6.431  14.362  1.00  0.00     0.259 C 
HETATM   22  O1  UNL     1      -5.615   6.386  15.523  1.00  0.00    -0.265 OA
BRANCH  21  23
HETATM   23  C5  UNL     1      -7.439   6.645  13.960  1.00  0.00     0.115 C 
BRANCH  23  24
HETATM   24  C3  UNL     1      -8.178   5.352  13.578  1.00  0.00    -0.010 C 
HETATM   25  C4  UNL     1      -8.457   5.343  12.072  1.00  0.00     0.010 C 
BRANCH  24  26
HETATM   26  C2  UNL     1      -7.454   4.064  14.026  1.00  0.00     0.000 C 
HETATM   27  C1  UNL     1      -7.538   2.895  13.055  1.00  0.00     0.005 C 
ENDBRANCH  24  26
ENDBRANCH  23  24
ENDBRANCH  21  23
ENDBRANCH  20  21
ENDBRANCH  19  20
ENDBRANCH   1  19
BRANCH  13  28
HETATM   28  O3  UNL     1       3.843   7.832   9.158  1.00  0.00    -0.387 OA
HETATM   29  H34 UNL     1       4.136   8.532   9.765  1.00  0.00     0.210 HD
ENDBRANCH  13  28
BRANCH  13  30
HETATM   30  C21 UNL     1       2.045   6.448   8.485  1.00  0.00     0.202 C 
BRANCH  30  31
HETATM   31  O4  UNL     1       2.904   5.349   8.177  1.00  0.00    -0.398 OA
HETATM   32  H37 UNL     1       3.804   5.733   8.191  1.00  0.00     0.209 HD
ENDBRANCH  30  31
ENDBRANCH  13  30
TORSDOF 9
ENDMDL
MODEL 5
REMARK minimizedAffinity -7.46085262
REMARK  9 active torsions:
REMARK  status: ('A' for Active; 'I' for Inactive)
REMARK    1  A    between atoms: C2_2  and  C3_3 
REMARK    2  A    between atoms: C3_3  and  C5_5 
REMARK    3  A    between atoms: C5_5  and  C6_6 
REMARK    4  A    between atoms: C6_6  and  O2_8 
REMARK    5  A    between atoms: O2_8  and  C7_9 
REMARK    6  A    between atoms: C7_9  and  C8_10 
REMARK    7  A    between atoms: C20_22  and  O3_23 
REMARK    8  A    between atoms: C20_22  and  C21_24 
REMARK    9  A    between atoms: C21_24  and  O4_25 
ROOT
HETATM    1  C8  UNL     1      -0.322   5.602  12.432  1.00  0.00    -0.018 C 
HETATM    2  C9  UNL     1       0.120   4.339  13.229  1.00  0.00     0.018 C 
HETATM    3  C10 UNL     1      -1.080   6.521  13.423  1.00  0.00     0.012 C 
HETATM    4  C11 UNL     1      -0.212   7.265  14.433  1.00  0.00     0.002 C 
HETATM    5  C12 UNL     1       1.227   7.522  13.994  1.00  0.00     0.010 C 
HETATM    6  C13 UNL     1       1.432   7.636  12.468  1.00  0.00    -0.032 C 
HETATM    7  C14 UNL     1       0.543   8.803  11.934  1.00  0.00     0.016 C 
HETATM    8  C15 UNL     1       0.980   6.279  11.820  1.00  0.00     0.005 C 
HETATM    9  C16 UNL     1       1.026   6.392  10.272  1.00  0.00     0.007 C 
HETATM   10  C17 UNL     1       2.276   7.115   9.740  1.00  0.00     0.006 C 
HETATM   11  C18 UNL     1       3.388   7.122  10.784  1.00  0.00    -0.002 C 
HETATM   12  C19 UNL     1       4.743   7.565  10.215  1.00  0.00     0.045 C 
HETATM   13  C20 UNL     1       5.830   7.527  11.310  1.00  0.00     0.083 C 
HETATM   14  C22 UNL     1       5.309   8.155  12.632  1.00  0.00     0.023 C 
HETATM   15  C23 UNL     1       4.792   9.584  12.421  1.00  0.00     0.008 C 
HETATM   16  C24 UNL     1       3.321   9.424  12.014  1.00  0.00     0.011 C 
HETATM   17  C25 UNL     1       2.978   7.903  12.099  1.00  0.00    -0.029 C 
HETATM   18  C26 UNL     1       4.033   7.465  13.150  1.00  0.00     0.018 C 
ENDROOT
BRANCH   1  19
HETATM   19  C7  UNL     1      -1.324   5.123  11.342  1.00  0.00     0.188 C 
BRANCH  19  20
HETATM   20  O2  UNL     1      -2.387   4.359  11.937  1.00  0.00    -0.321 OA
BRANCH  20  21
HETATM   21  C6  UNL     1      -3.061   3.554  11.074  1.00  0.00     0.259 C 
HETATM   22  O1  UNL     1      -2.951   3.580   9.855  1.00  0.00    -0.265 OA
BRANCH  21  23
HETATM   23  C5  UNL     1      -4.013   2.645  11.813  1.00  0.00     0.115 C 
BRANCH  23  24
HETATM   24  C3  UNL     1      -5.440   2.639  11.240  1.00  0.00    -0.010 C 
HETATM   25  C4  UNL     1      -6.002   1.214  11.268  1.00  0.00     0.010 C 
BRANCH  24  26
HETATM   26  C2  UNL     1      -6.394   3.636  11.931  1.00  0.00     0.000 C 
HETATM   27  C1  UNL     1      -7.127   3.101  13.153  1.00  0.00     0.005 C 
ENDBRANCH  24  26
ENDBRANCH  23  24
ENDBRANCH  21  23
ENDBRANCH  20  21
ENDBRANCH  19  20
ENDBRANCH   1  19
BRANCH  13  28
HETATM   28  O3  UNL     1       6.983   8.265  10.863  1.00  0.00    -0.387 OA
HETATM   29  H34 UNL     1       6.685   9.113  10.493  1.00  0.00     0.210 HD
ENDBRANCH  13  28
BRANCH  13  30
HETATM   30  C21 UNL     1       6.348   6.083  11.522  1.00  0.00     0.202 C 
BRANCH  30  31
HETATM   31  O4  UNL     1       5.898   5.241  10.460  1.00  0.00    -0.398 OA
HETATM   32  H37 UNL     1       4.953   5.475  10.350  1.00  0.00     0.209 HD
ENDBRANCH  30  31
ENDBRANCH  13  30
TORSDOF 9
ENDMDL
MODEL 6
REMARK minimizedAffinity -7.45666504
REMARK  9 active torsions:
REMARK  status: ('A' for Active; 'I' for Inactive)
REMARK    1  A    between atoms: C2_2  and  C3_3 
REMARK    2  A    between atoms: C3_3  and  C5_5 
REMARK    3  A    between atoms: C5_5  and  C6_6 
REMARK    4  A    between atoms: C6_6  and  O2_8 
REMARK    5  A    between atoms: O2_8  and  C7_9 
REMARK    6  A    between atoms: C7_9  and  C8_10 
REMARK    7  A    between atoms: C20_22  and  O3_23 
REMARK    8  A    between atoms: C20_22  and  C21_24 
REMARK    9  A    between atoms: C21_24  and  O4_25 
ROOT
HETATM    1  C8  UNL     1      -1.241   8.063  14.514  1.00  0.00    -0.018 C 
HETATM    2  C9  UNL     1      -1.100   8.431  16.020  1.00  0.00     0.018 C 
HETATM    3  C10 UNL     1      -0.366   6.809  14.269  1.00  0.00     0.012 C 
HETATM    4  C11 UNL     1      -0.925   5.495  14.807  1.00  0.00     0.002 C 
HETATM    5  C12 UNL     1      -2.445   5.436  14.937  1.00  0.00     0.010 C 
HETATM    6  C13 UNL     1      -3.218   6.336  13.948  1.00  0.00    -0.032 C 
HETATM    7  C14 UNL     1      -2.837   5.915  12.494  1.00  0.00     0.016 C 
HETATM    8  C15 UNL     1      -2.783   7.822  14.207  1.00  0.00     0.005 C 
HETATM    9  C16 UNL     1      -3.419   8.752  13.140  1.00  0.00     0.007 C 
HETATM   10  C17 UNL     1      -4.893   8.429  12.836  1.00  0.00     0.006 C 
HETATM   11  C18 UNL     1      -5.518   7.616  13.965  1.00  0.00    -0.002 C 
HETATM   12  C19 UNL     1      -7.046   7.513  13.858  1.00  0.00     0.045 C 
HETATM   13  C20 UNL     1      -7.619   6.703  15.039  1.00  0.00     0.083 C 
HETATM   14  C22 UNL     1      -6.780   5.420  15.293  1.00  0.00     0.023 C 
HETATM   15  C23 UNL     1      -6.668   4.552  14.033  1.00  0.00     0.008 C 
HETATM   16  C24 UNL     1      -5.451   5.098  13.273  1.00  0.00     0.011 C 
HETATM   17  C25 UNL     1      -4.812   6.212  14.161  1.00  0.00    -0.029 C 
HETATM   18  C26 UNL     1      -5.294   5.731  15.556  1.00  0.00     0.018 C 
ENDROOT
BRANCH   1  19
HETATM   19  C7  UNL     1      -0.641   9.247  13.700  1.00  0.00     0.188 C 
BRANCH  19  20
HETATM   20  O2  UNL     1       0.426   8.785  12.854  1.00  0.00    -0.321 OA
BRANCH  20  21
HETATM   21  C6  UNL     1       0.080   8.600  11.553  1.00  0.00     0.259 C 
HETATM   22  O1  UNL     1      -0.980   8.948  11.049  1.00  0.00    -0.265 OA
BRANCH  21  23
HETATM   23  C5  UNL     1       1.160   7.855  10.807  1.00  0.00     0.115 C 
BRANCH  23  24
HETATM   24  C3  UNL     1       0.755   7.429   9.385  1.00  0.00    -0.010 C 
HETATM   25  C4  UNL     1       0.003   8.573   8.698  1.00  0.00     0.010 C 
BRANCH  24  26
HETATM   26  C2  UNL     1       1.936   6.931   8.524  1.00  0.00     0.000 C 
HETATM   27  C1  UNL     1       2.447   7.916   7.483  1.00  0.00     0.005 C 
ENDBRANCH  24  26
ENDBRANCH  23  24
ENDBRANCH  21  23
ENDBRANCH  20  21
ENDBRANCH  19  20
ENDBRANCH   1  19
BRANCH  13  28
HETATM   28  O3  UNL     1      -8.977   6.323  14.741  1.00  0.00    -0.387 OA
HETATM   29  H34 UNL     1      -9.009   5.968  13.837  1.00  0.00     0.210 HD
ENDBRANCH  13  28
BRANCH  13  30
HETATM   30  C21 UNL     1      -7.730   7.582  16.309  1.00  0.00     0.202 C 
BRANCH  30  31
HETATM   31  O4  UNL     1      -7.402   6.812  17.467  1.00  0.00    -0.398 OA
HETATM   32  H37 UNL     1      -7.882   5.968  17.339  1.00  0.00     0.209 HD
ENDBRANCH  30  31
ENDBRANCH  13  30
TORSDOF 9
ENDMDL
MODEL 7
REMARK minimizedAffinity -7.45474672
REMARK  9 active torsions:
REMARK  status: ('A' for Active; 'I' for Inactive)
REMARK    1  A    between atoms: C2_2  and  C3_3 
REMARK    2  A    between atoms: C3_3  and  C5_5 
REMARK    3  A    between atoms: C5_5  and  C6_6 
REMARK    4  A    between atoms: C6_6  and  O2_8 
REMARK    5  A    between atoms: O2_8  and  C7_9 
REMARK    6  A    between atoms: C7_9  and  C8_10 
REMARK    7  A    between atoms: C20_22  and  O3_23 
REMARK    8  A    between atoms: C20_22  and  C21_24 
REMARK    9  A    between atoms: C21_24  and  O4_25 
ROOT
HETATM    1  C8  UNL     1       0.459   7.939  14.154  1.00  0.00    -0.018 C 
HETATM    2  C9  UNL     1       0.557   8.242  15.679  1.00  0.00     0.018 C 
HETATM    3  C10 UNL     1       1.218   6.612  13.906  1.00  0.00     0.012 C 
HETATM    4  C11 UNL     1       0.504   5.345  14.367  1.00  0.00     0.002 C 
HETATM    5  C12 UNL     1      -1.018   5.435  14.421  1.00  0.00     0.010 C 
HETATM    6  C13 UNL     1      -1.647   6.438  13.430  1.00  0.00    -0.032 C 
HETATM    7  C14 UNL     1      -1.235   6.029  11.981  1.00  0.00     0.016 C 
HETATM    8  C15 UNL     1      -1.081   7.864  13.765  1.00  0.00     0.005 C 
HETATM    9  C16 UNL     1      -1.567   8.888  12.704  1.00  0.00     0.007 C 
HETATM   10  C17 UNL     1      -3.048   8.724  12.317  1.00  0.00     0.006 C 
HETATM   11  C18 UNL     1      -3.807   7.941  13.384  1.00  0.00    -0.002 C 
HETATM   12  C19 UNL     1      -5.330   7.997  13.199  1.00  0.00     0.045 C 
HETATM   13  C20 UNL     1      -6.041   7.210  14.320  1.00  0.00     0.083 C 
HETATM   14  C22 UNL     1      -5.347   5.842  14.566  1.00  0.00     0.023 C 
HETATM   15  C23 UNL     1      -5.256   5.008  13.282  1.00  0.00     0.008 C 
HETATM   16  C24 UNL     1      -3.954   5.454  12.603  1.00  0.00     0.011 C 
HETATM   17  C25 UNL     1      -3.254   6.469  13.562  1.00  0.00    -0.029 C 
HETATM   18  C26 UNL     1      -3.853   5.994  14.912  1.00  0.00     0.018 C 
ENDROOT
BRANCH   1  19
HETATM   19  C7  UNL     1       1.213   9.083  13.415  1.00  0.00     0.188 C 
BRANCH  19  20
HETATM   20  O2  UNL     1       1.071   8.940  11.992  1.00  0.00    -0.321 OA
BRANCH  20  21
HETATM   21  C6  UNL     1       2.135   8.367  11.369  1.00  0.00     0.259 C 
HETATM   22  O1  UNL     1       3.298   8.450  11.743  1.00  0.00    -0.265 OA
BRANCH  21  23
HETATM   23  C5  UNL     1       1.706   7.649  10.113  1.00  0.00     0.115 C 
BRANCH  23  24
HETATM   24  C3  UNL     1       2.836   7.456   9.087  1.00  0.00    -0.010 C 
HETATM   25  C4  UNL     1       3.135   5.963   8.923  1.00  0.00     0.010 C 
BRANCH  24  26
HETATM   26  C2  UNL     1       2.564   8.131   7.726  1.00  0.00     0.000 C 
HETATM   27  C1  UNL     1       1.792   7.289   6.721  1.00  0.00     0.005 C 
ENDBRANCH  24  26
ENDBRANCH  23  24
ENDBRANCH  21  23
ENDBRANCH  20  21
ENDBRANCH  19  20
ENDBRANCH   1  19
BRANCH  13  28
HETATM   28  O3  UNL     1      -7.412   6.978  13.944  1.00  0.00    -0.387 OA
HETATM   29  H34 UNL     1      -7.433   6.657  13.027  1.00  0.00     0.210 HD
ENDBRANCH  13  28
BRANCH  13  30
HETATM   30  C21 UNL     1      -6.130   8.054  15.616  1.00  0.00     0.202 C 
BRANCH  30  31
HETATM   31  O4  UNL     1      -6.461   9.406  15.296  1.00  0.00    -0.398 OA
HETATM   32  H37 UNL     1      -5.883   9.624  14.537  1.00  0.00     0.209 HD
ENDBRANCH  30  31
ENDBRANCH  13  30
TORSDOF 9
ENDMDL
MODEL 8
REMARK minimizedAffinity -7.32948494
REMARK  9 active torsions:
REMARK  status: ('A' for Active; 'I' for Inactive)
REMARK    1  A    between atoms: C2_2  and  C3_3 
REMARK    2  A    between atoms: C3_3  and  C5_5 
REMARK    3  A    between atoms: C5_5  and  C6_6 
REMARK    4  A    between atoms: C6_6  and  O2_8 
REMARK    5  A    between atoms: O2_8  and  C7_9 
REMARK    6  A    between atoms: C7_9  and  C8_10 
REMARK    7  A    between atoms: C20_22  and  O3_23 
REMARK    8  A    between atoms: C20_22  and  C21_24 
REMARK    9  A    between atoms: C21_24  and  O4_25 
ROOT
HETATM    1  C8  UNL     1      -2.240   7.158  14.107  1.00  0.00    -0.018 C 
HETATM    2  C9  UNL     1      -2.347   5.606  14.153  1.00  0.00     0.018 C 
HETATM    3  C10 UNL     1      -1.859   7.629  15.533  1.00  0.00     0.012 C 
HETATM    4  C11 UNL     1      -0.412   7.381  15.948  1.00  0.00     0.002 C 
HETATM    5  C12 UNL     1       0.593   7.303  14.802  1.00  0.00     0.010 C 
HETATM    6  C13 UNL     1       0.208   8.109  13.543  1.00  0.00    -0.032 C 
HETATM    7  C14 UNL     1       0.043   9.609  13.945  1.00  0.00     0.016 C 
HETATM    8  C15 UNL     1      -1.156   7.545  13.008  1.00  0.00     0.005 C 
HETATM    9  C16 UNL     1      -1.663   8.418  11.829  1.00  0.00     0.007 C 
HETATM   10  C17 UNL     1      -0.559   8.818  10.834  1.00  0.00     0.006 C 
HETATM   11  C18 UNL     1       0.647   7.892  10.957  1.00  0.00    -0.002 C 
HETATM   12  C19 UNL     1       1.649   8.054   9.806  1.00  0.00     0.045 C 
HETATM   13  C20 UNL     1       2.831   7.076   9.972  1.00  0.00     0.083 C 
HETATM   14  C22 UNL     1       3.342   7.065  11.439  1.00  0.00     0.023 C 
HETATM   15  C23 UNL     1       3.720   8.471  11.923  1.00  0.00     0.008 C 
HETATM   16  C24 UNL     1       2.418   9.074  12.467  1.00  0.00     0.011 C 
HETATM   17  C25 UNL     1       1.323   7.964  12.387  1.00  0.00    -0.029 C 
HETATM   18  C26 UNL     1       2.232   6.708  12.447  1.00  0.00     0.018 C 
ENDROOT
BRANCH   1  19
HETATM   19  C7  UNL     1      -3.660   7.701  13.772  1.00  0.00     0.188 C 
BRANCH  19  20
HETATM   20  O2  UNL     1      -4.449   6.683  13.134  1.00  0.00    -0.321 OA
BRANCH  20  21
HETATM   21  C6  UNL     1      -5.700   6.530  13.643  1.00  0.00     0.259 C 
HETATM   22  O1  UNL     1      -6.439   7.445  13.982  1.00  0.00    -0.265 OA
BRANCH  21  23
HETATM   23  C5  UNL     1      -6.049   5.069  13.790  1.00  0.00     0.115 C 
BRANCH  23  24
HETATM   24  C3  UNL     1      -6.785   4.480  12.574  1.00  0.00    -0.010 C 
HETATM   25  C4  UNL     1      -6.406   3.005  12.407  1.00  0.00     0.010 C 
BRANCH  24  26
HETATM   26  C2  UNL     1      -8.317   4.667  12.622  1.00  0.00     0.000 C 
HETATM   27  C1  UNL     1      -8.858   5.833  11.807  1.00  0.00     0.005 C 
ENDBRANCH  24  26
ENDBRANCH  23  24
ENDBRANCH  21  23
ENDBRANCH  20  21
ENDBRANCH  19  20
ENDBRANCH   1  19
BRANCH  13  28
HETATM   28  O3  UNL     1       3.908   7.477   9.104  1.00  0.00    -0.387 OA
HETATM   29  H34 UNL     1       4.043   8.435   9.199  1.00  0.00     0.210 HD
ENDBRANCH  13  28
BRANCH  13  30
HETATM   30  C21 UNL     1       2.444   5.657   9.485  1.00  0.00     0.202 C 
BRANCH  30  31
HETATM   31  O4  UNL     1       3.310   5.253   8.423  1.00  0.00    -0.398 OA
HETATM   32  H37 UNL     1       3.362   6.038   7.841  1.00  0.00     0.209 HD
ENDBRANCH  30  31
ENDBRANCH  13  30
TORSDOF 9
ENDMDL
MODEL 9
REMARK minimizedAffinity -7.32558823
REMARK  9 active torsions:
REMARK  status: ('A' for Active; 'I' for Inactive)
REMARK    1  A    between atoms: C2_2  and  C3_3 
REMARK    2  A    between atoms: C3_3  and  C5_5 
REMARK    3  A    between atoms: C5_5  and  C6_6 
REMARK    4  A    between atoms: C6_6  and  O2_8 
REMARK    5  A    between atoms: O2_8  and  C7_9 
REMARK    6  A    between atoms: C7_9  and  C8_10 
REMARK    7  A    between atoms: C20_22  and  O3_23 
REMARK    8  A    between atoms: C20_22  and  C21_24 
REMARK    9  A    between atoms: C21_24  and  O4_25 
ROOT
HETATM    1  C8  UNL     1      -0.506   6.586  12.205  1.00  0.00    -0.018 C 
HETATM    2  C9  UNL     1      -0.994   6.093  10.811  1.00  0.00     0.018 C 
HETATM    3  C10 UNL     1       0.058   8.015  12.008  1.00  0.00     0.012 C 
HETATM    4  C11 UNL     1      -0.980   9.115  11.804  1.00  0.00     0.002 C 
HETATM    5  C12 UNL     1      -2.353   8.839  12.411  1.00  0.00     0.010 C 
HETATM    6  C13 UNL     1      -2.345   7.911  13.645  1.00  0.00    -0.032 C 
HETATM    7  C14 UNL     1      -1.448   8.560  14.746  1.00  0.00     0.016 C 
HETATM    8  C15 UNL     1      -1.740   6.531  13.207  1.00  0.00     0.005 C 
HETATM    9  C16 UNL     1      -1.572   5.610  14.445  1.00  0.00     0.007 C 
HETATM   10  C17 UNL     1      -2.768   5.649  15.413  1.00  0.00     0.006 C 
HETATM   11  C18 UNL     1      -4.016   6.184  14.718  1.00  0.00    -0.002 C 
HETATM   12  C19 UNL     1      -5.297   5.974  15.537  1.00  0.00     0.045 C 
HETATM   13  C20 UNL     1      -6.524   6.512  14.772  1.00  0.00     0.083 C 
HETATM   14  C22 UNL     1      -6.228   7.906  14.154  1.00  0.00     0.023 C 
HETATM   15  C23 UNL     1      -5.756   8.911  15.213  1.00  0.00     0.008 C 
HETATM   16  C24 UNL     1      -4.236   8.719  15.302  1.00  0.00     0.011 C 
HETATM   17  C25 UNL     1      -3.835   7.674  14.214  1.00  0.00    -0.029 C 
HETATM   18  C26 UNL     1      -5.005   7.887  13.216  1.00  0.00     0.018 C 
ENDROOT
BRANCH   1  19
HETATM   19  C7  UNL     1       0.662   5.651  12.633  1.00  0.00     0.188 C 
BRANCH  19  20
HETATM   20  O2  UNL     1       1.908   6.128  12.098  1.00  0.00    -0.321 OA
BRANCH  20  21
HETATM   21  C6  UNL     1       2.374   5.426  11.030  1.00  0.00     0.259 C 
HETATM   22  O1  UNL     1       1.935   4.348  10.651  1.00  0.00    -0.265 OA
BRANCH  21  23
HETATM   23  C5  UNL     1       3.548   6.127  10.392  1.00  0.00     0.115 C 
BRANCH  23  24
HETATM   24  C3  UNL     1       3.193   6.896   9.108  1.00  0.00    -0.010 C 
HETATM   25  C4  UNL     1       2.756   5.910   8.020  1.00  0.00     0.010 C 
BRANCH  24  26
HETATM   26  C2  UNL     1       2.142   8.008   9.317  1.00  0.00     0.000 C 
HETATM   27  C1  UNL     1       1.034   8.065   8.276  1.00  0.00     0.005 C 
ENDBRANCH  24  26
ENDBRANCH  23  24
ENDBRANCH  21  23
ENDBRANCH  20  21
ENDBRANCH  19  20
ENDBRANCH   1  19
BRANCH  13  28
HETATM   28  O3  UNL     1      -7.638   6.629  15.679  1.00  0.00    -0.387 OA
HETATM   29  H34 UNL     1      -7.332   7.066  16.491  1.00  0.00     0.210 HD
ENDBRANCH  13  28
BRANCH  13  30
HETATM   30  C21 UNL     1      -6.997   5.495  13.703  1.00  0.00     0.202 C 
BRANCH  30  31
HETATM   31  O4  UNL     1      -8.108   6.026  12.981  1.00  0.00    -0.398 OA
HETATM   32  H37 UNL     1      -8.688   6.404  13.673  1.00  0.00     0.209 HD
ENDBRANCH  30  31
ENDBRANCH  13  30
TORSDOF 9
ENDMDL
