MODEL 1
REMARK minimizedAffinity -7.2195363
REMARK CNNscore 0.749232531
REMARK CNNaffinity 7.29882479
REMARK  12 active torsions:
REMARK  status: ('A' for Active; 'I' for Inactive)
REMARK    1  A    between atoms: O1_2  and  C2_3 
REMARK    2  A    between atoms: C2_3  and  C3_4 
REMARK    3  A    between atoms: C3_4  and  C4_5 
REMARK    4  A    between atoms: C4_5  and  N1_6 
REMARK    5  A    between atoms: N1_6  and  C5_7 
REMARK    6  A    between atoms: C5_7  and  C6_8 
REMARK    7  A    between atoms: C10_12  and  O2_13 
REMARK    8  A    between atoms: C16_19  and  O3_20 
REMARK    9  A    between atoms: C20_24  and  C21_25 
REMARK   10  A    between atoms: C27_31  and  O4_32 
REMARK   11  A    between atoms: C30_35  and  C31_36 
REMARK   12  A    between atoms: C32_38  and  O6_39 
ROOT
HETATM    1  C6  UNL     1      -5.789  42.295 -19.332  1.00  0.00    -0.022 C 
HETATM    2  C7  UNL     1      -5.915  43.263 -20.274  1.00  0.00    -0.014 C 
HETATM    3  C8  UNL     1      -5.791  44.726 -19.926  1.00  0.00     0.021 C 
HETATM    4  C9  UNL     1      -5.099  45.659 -20.919  1.00  0.00     0.051 C 
HETATM    5  C10 UNL     1      -5.060  46.988 -20.125  1.00  0.00     0.098 C 
HETATM    6  C11 UNL     1      -4.701  46.529 -18.646  1.00  0.00    -0.002 C 
HETATM    7  C12 UNL     1      -5.549  47.269 -17.595  1.00  0.00     0.019 C 
HETATM    8  C13 UNL     1      -3.201  46.743 -18.327  1.00  0.00     0.013 C 
HETATM    9  C14 UNL     1      -2.703  48.125 -18.703  1.00  0.00     0.010 C 
HETATM   10  C15 UNL     1      -2.778  48.332 -20.229  1.00  0.00     0.041 C 
HETATM   11  C16 UNL     1      -4.216  48.175 -20.744  1.00  0.00     0.095 C 
HETATM   12  C17 UNL     1      -4.173  48.107 -22.277  1.00  0.00     0.049 C 
HETATM   13  C18 UNL     1      -3.126  49.010 -22.994  1.00  0.00     0.025 C 
HETATM   14  C19 UNL     1      -3.760  49.328 -24.373  1.00  0.00     0.012 C 
HETATM   15  C20 UNL     1      -2.937  50.138 -25.390  1.00  0.00    -0.011 C 
HETATM   16  C24 UNL     1      -2.949  51.616 -24.985  1.00  0.00     0.005 C 
HETATM   17  C25 UNL     1      -1.888  52.001 -23.965  1.00  0.00     0.010 C 
HETATM   18  C26 UNL     1      -1.443  50.940 -22.933  1.00  0.00     0.050 C 
HETATM   19  C27 UNL     1      -0.403  51.610 -22.014  1.00  0.00     0.125 C 
HETATM   20  C28 UNL     1       0.326  50.576 -21.164  1.00  0.00     0.033 C 
HETATM   21  C29 UNL     1      -0.551  49.380 -20.782  1.00  0.00     0.023 C 
HETATM   22  C30 UNL     1      -2.078  49.682 -20.705  1.00  0.00     0.051 C 
HETATM   23  C32 UNL     1      -2.588  50.207 -22.135  1.00  0.00     0.082 C 
HETATM   24  C33 UNL     1      -4.945  44.972 -18.664  1.00  0.00     0.036 C 
HETATM   25  C34 UNL     1      -5.517  44.097 -17.598  1.00  0.00    -0.035 C 
HETATM   26  C35 UNL     1      -6.189  44.307 -16.471  1.00  0.00     0.088 C 
HETATM   27  C36 UNL     1      -6.674  42.994 -16.036  1.00  0.00     0.284 C 
HETATM   28  O7  UNL     1      -7.326  42.800 -15.026  1.00  0.00    -0.260 OA
HETATM   29  O8  UNL     1      -6.322  42.046 -16.947  1.00  0.00    -0.304 OA
HETATM   30  C37 UNL     1      -5.436  42.632 -17.891  1.00  0.00     0.192 C 
ENDROOT
BRANCH   1  31
HETATM   31  C5  UNL     1      -6.041  40.846 -19.666  1.00  0.00     0.306 C 
BRANCH  31  32
HETATM   32  N1  UNL     1      -5.670  40.486 -21.030  1.00  0.00     0.087 N 
HETATM   33  H10 UNL     1      -4.986  39.732 -21.006  1.00  0.00     0.316 HD
BRANCH  32  34
HETATM   34  C4  UNL     1      -6.775  40.142 -21.920  1.00  0.00     0.272 C 
BRANCH  34  35
HETATM   35  C3  UNL     1      -7.313  38.718 -21.776  1.00  0.00     0.056 C 
BRANCH  35  36
HETATM   36  C2  UNL     1      -6.230  37.652 -21.898  1.00  0.00     0.168 C 
BRANCH  36  37
HETATM   37  O1  UNL     1      -5.334  38.041 -22.943  1.00  0.00    -0.396 OA
HETATM   38  C1  UNL     1      -5.723  37.492 -24.194  1.00  0.00     0.201 C 
ENDBRANCH  36  37
ENDBRANCH  35  36
ENDBRANCH  34  35
ENDBRANCH  32  34
ENDBRANCH  31  32
ENDBRANCH   1  31
BRANCH   5  39
HETATM   39  O2  UNL     1      -6.439  47.452 -20.119  1.00  0.00    -0.386 OA
HETATM   40  H17 UNL     1      -6.638  47.823 -21.001  1.00  0.00     0.210 HD
ENDBRANCH   5  39
BRANCH  11  41
HETATM   41  O3  UNL     1      -4.924  49.397 -20.461  1.00  0.00    -0.386 OA
HETATM   42  H26 UNL     1      -5.546  49.225 -19.723  1.00  0.00     0.210 HD
ENDBRANCH  11  41
BRANCH  22  43
HETATM   43  C31 UNL     1      -2.276  50.751 -19.601  1.00  0.00     0.244 C 
HETATM   44  O5  UNL     1      -3.284  51.435 -19.449  1.00  0.00    -0.306 OA
ENDBRANCH  22  43
BRANCH  23  45
HETATM   45  O6  UNL     1      -3.655  51.143 -21.980  1.00  0.00    -0.388 OA
HETATM   46  H52 UNL     1      -4.264  50.787 -21.289  1.00  0.00     0.210 HD
ENDBRANCH  23  45
BRANCH  15  47
HETATM   47  C21 UNL     1      -3.498  49.909 -26.831  1.00  0.00    -0.019 C 
HETATM   48  C22 UNL     1      -2.855  50.797 -27.902  1.00  0.00     0.010 C 
HETATM   49  C23 UNL     1      -3.406  48.436 -27.250  1.00  0.00     0.010 C 
ENDBRANCH  15  47
BRANCH  19  50
HETATM   50  O4  UNL     1      -0.981  52.583 -21.149  1.00  0.00    -0.395 OA
HETATM   51  H46 UNL     1      -1.910  52.742 -21.412  1.00  0.00     0.210 HD
ENDBRANCH  19  50
TORSDOF 12
ENDMDL
MODEL 2
REMARK minimizedAffinity -7.40079308
REMARK CNNscore 0.649738193
REMARK CNNaffinity 6.53104973
REMARK  12 active torsions:
REMARK  status: ('A' for Active; 'I' for Inactive)
REMARK    1  A    between atoms: O1_2  and  C2_3 
REMARK    2  A    between atoms: C2_3  and  C3_4 
REMARK    3  A    between atoms: C3_4  and  C4_5 
REMARK    4  A    between atoms: C4_5  and  N1_6 
REMARK    5  A    between atoms: N1_6  and  C5_7 
REMARK    6  A    between atoms: C5_7  and  C6_8 
REMARK    7  A    between atoms: C10_12  and  O2_13 
REMARK    8  A    between atoms: C16_19  and  O3_20 
REMARK    9  A    between atoms: C20_24  and  C21_25 
REMARK   10  A    between atoms: C27_31  and  O4_32 
REMARK   11  A    between atoms: C30_35  and  C31_36 
REMARK   12  A    between atoms: C32_38  and  O6_39 
ROOT
HETATM    1  C6  UNL     1     -15.638  46.024 -25.462  1.00  0.00    -0.022 C 
HETATM    2  C7  UNL     1     -14.718  46.665 -24.698  1.00  0.00    -0.014 C 
HETATM    3  C8  UNL     1     -14.968  46.958 -23.240  1.00  0.00     0.021 C 
HETATM    4  C9  UNL     1     -13.800  46.847 -22.259  1.00  0.00     0.051 C 
HETATM    5  C10 UNL     1     -14.508  47.078 -20.902  1.00  0.00     0.098 C 
HETATM    6  C11 UNL     1     -15.872  46.274 -21.050  1.00  0.00    -0.002 C 
HETATM    7  C12 UNL     1     -17.068  47.068 -20.494  1.00  0.00     0.019 C 
HETATM    8  C13 UNL     1     -15.806  44.898 -20.344  1.00  0.00     0.013 C 
HETATM    9  C14 UNL     1     -15.266  44.978 -18.929  1.00  0.00     0.010 C 
HETATM   10  C15 UNL     1     -13.797  45.449 -18.935  1.00  0.00     0.041 C 
HETATM   11  C16 UNL     1     -13.655  46.830 -19.591  1.00  0.00     0.095 C 
HETATM   12  C17 UNL     1     -12.162  47.102 -19.821  1.00  0.00     0.049 C 
HETATM   13  C18 UNL     1     -11.177  46.595 -18.727  1.00  0.00     0.025 C 
HETATM   14  C19 UNL     1      -9.982  47.583 -18.785  1.00  0.00     0.012 C 
HETATM   15  C20 UNL     1      -8.764  47.316 -17.883  1.00  0.00    -0.011 C 
HETATM   16  C24 UNL     1      -9.101  47.727 -16.447  1.00  0.00     0.005 C 
HETATM   17  C25 UNL     1      -9.817  46.658 -15.633  1.00  0.00     0.010 C 
HETATM   18  C26 UNL     1     -10.750  45.674 -16.375  1.00  0.00     0.050 C 
HETATM   19  C27 UNL     1     -11.359  44.740 -15.312  1.00  0.00     0.125 C 
HETATM   20  C28 UNL     1     -12.046  43.543 -15.961  1.00  0.00     0.033 C 
HETATM   21  C29 UNL     1     -12.677  43.870 -17.318  1.00  0.00     0.023 C 
HETATM   22  C30 UNL     1     -13.112  45.355 -17.500  1.00  0.00     0.051 C 
HETATM   23  C32 UNL     1     -11.830  46.309 -17.330  1.00  0.00     0.082 C 
HETATM   24  C33 UNL     1     -15.975  45.988 -22.596  1.00  0.00     0.036 C 
HETATM   25  C34 UNL     1     -17.182  45.992 -23.476  1.00  0.00    -0.035 C 
HETATM   26  C35 UNL     1     -18.429  46.432 -23.355  1.00  0.00     0.088 C 
HETATM   27  C36 UNL     1     -19.021  46.349 -24.694  1.00  0.00     0.284 C 
HETATM   28  O7  UNL     1     -20.166  46.664 -24.963  1.00  0.00    -0.260 OA
HETATM   29  O8  UNL     1     -18.088  45.912 -25.584  1.00  0.00    -0.304 OA
HETATM   30  C37 UNL     1     -16.935  45.497 -24.866  1.00  0.00     0.192 C 
ENDROOT
BRANCH   1  31
HETATM   31  C5  UNL     1     -15.433  45.849 -26.946  1.00  0.00     0.306 C 
BRANCH  31  32
HETATM   32  N1  UNL     1     -14.042  45.989 -27.366  1.00  0.00     0.087 N 
HETATM   33  H10 UNL     1     -13.467  45.322 -26.855  1.00  0.00     0.316 HD
BRANCH  32  34
HETATM   34  C4  UNL     1     -13.797  45.882 -28.800  1.00  0.00     0.272 C 
BRANCH  34  35
HETATM   35  C3  UNL     1     -12.408  46.324 -29.262  1.00  0.00     0.056 C 
BRANCH  35  36
HETATM   36  C2  UNL     1     -12.166  47.820 -29.092  1.00  0.00     0.168 C 
BRANCH  36  37
HETATM   37  O1  UNL     1     -10.986  48.169 -29.820  1.00  0.00    -0.396 OA
HETATM   38  C1  UNL     1     -10.755  47.274 -30.899  1.00  0.00     0.201 C 
ENDBRANCH  36  37
ENDBRANCH  35  36
ENDBRANCH  34  35
ENDBRANCH  32  34
ENDBRANCH  31  32
ENDBRANCH   1  31
BRANCH   5  39
HETATM   39  O2  UNL     1     -14.832  48.497 -20.893  1.00  0.00    -0.386 OA
HETATM   40  H17 UNL     1     -14.012  48.994 -20.708  1.00  0.00     0.210 HD
ENDBRANCH   5  39
BRANCH  11  41
HETATM   41  O3  UNL     1     -14.055  47.821 -18.627  1.00  0.00    -0.386 OA
HETATM   42  H26 UNL     1     -14.928  48.176 -18.896  1.00  0.00     0.210 HD
ENDBRANCH  11  41
BRANCH  22  43
HETATM   43  C31 UNL     1     -14.188  45.650 -16.425  1.00  0.00     0.244 C 
HETATM   44  O5  UNL     1     -14.315  46.711 -15.820  1.00  0.00    -0.306 OA
ENDBRANCH  22  43
BRANCH  23  45
HETATM   45  O6  UNL     1     -12.205  47.564 -16.762  1.00  0.00    -0.388 OA
HETATM   46  H52 UNL     1     -13.037  47.855 -17.207  1.00  0.00     0.210 HD
ENDBRANCH  23  45
BRANCH  15  47
HETATM   47  C21 UNL     1      -7.514  48.070 -18.442  1.00  0.00    -0.019 C 
HETATM   48  C22 UNL     1      -6.175  47.420 -18.076  1.00  0.00     0.010 C 
HETATM   49  C23 UNL     1      -7.601  48.267 -19.961  1.00  0.00     0.010 C 
ENDBRANCH  15  47
BRANCH  19  50
HETATM   50  O4  UNL     1     -12.301  45.403 -14.474  1.00  0.00    -0.395 OA
HETATM   51  H46 UNL     1     -12.266  46.367 -14.644  1.00  0.00     0.210 HD
ENDBRANCH  19  50
TORSDOF 12
ENDMDL
MODEL 3
REMARK minimizedAffinity -8.18043995
REMARK CNNscore 0.625039577
REMARK CNNaffinity 6.88611841
REMARK  12 active torsions:
REMARK  status: ('A' for Active; 'I' for Inactive)
REMARK    1  A    between atoms: O1_2  and  C2_3 
REMARK    2  A    between atoms: C2_3  and  C3_4 
REMARK    3  A    between atoms: C3_4  and  C4_5 
REMARK    4  A    between atoms: C4_5  and  N1_6 
REMARK    5  A    between atoms: N1_6  and  C5_7 
REMARK    6  A    between atoms: C5_7  and  C6_8 
REMARK    7  A    between atoms: C10_12  and  O2_13 
REMARK    8  A    between atoms: C16_19  and  O3_20 
REMARK    9  A    between atoms: C20_24  and  C21_25 
REMARK   10  A    between atoms: C27_31  and  O4_32 
REMARK   11  A    between atoms: C30_35  and  C31_36 
REMARK   12  A    between atoms: C32_38  and  O6_39 
ROOT
HETATM    1  C6  UNL     1      -6.741  43.961 -31.566  1.00  0.00    -0.022 C 
HETATM    2  C7  UNL     1      -6.247  45.062 -30.946  1.00  0.00    -0.014 C 
HETATM    3  C8  UNL     1      -7.076  45.857 -29.968  1.00  0.00     0.021 C 
HETATM    4  C9  UNL     1      -6.390  46.446 -28.735  1.00  0.00     0.051 C 
HETATM    5  C10 UNL     1      -7.593  47.033 -27.958  1.00  0.00     0.098 C 
HETATM    6  C11 UNL     1      -8.727  45.933 -28.139  1.00  0.00    -0.002 C 
HETATM    7  C12 UNL     1     -10.097  46.567 -28.442  1.00  0.00     0.019 C 
HETATM    8  C13 UNL     1      -8.854  45.029 -26.889  1.00  0.00     0.013 C 
HETATM    9  C14 UNL     1      -8.929  45.812 -25.592  1.00  0.00     0.010 C 
HETATM   10  C15 UNL     1      -7.615  46.581 -25.346  1.00  0.00     0.041 C 
HETATM   11  C16 UNL     1      -7.317  47.560 -26.491  1.00  0.00     0.095 C 
HETATM   12  C17 UNL     1      -5.879  48.069 -26.327  1.00  0.00     0.049 C 
HETATM   13  C18 UNL     1      -5.378  48.312 -24.873  1.00  0.00     0.025 C 
HETATM   14  C19 UNL     1      -4.329  49.448 -25.003  1.00  0.00     0.012 C 
HETATM   15  C20 UNL     1      -3.556  49.881 -23.745  1.00  0.00    -0.011 C 
HETATM   16  C24 UNL     1      -4.464  50.749 -22.868  1.00  0.00     0.005 C 
HETATM   17  C25 UNL     1      -5.369  49.968 -21.926  1.00  0.00     0.010 C 
HETATM   18  C26 UNL     1      -5.861  48.572 -22.371  1.00  0.00     0.050 C 
HETATM   19  C27 UNL     1      -6.778  48.038 -21.254  1.00  0.00     0.125 C 
HETATM   20  C28 UNL     1      -7.067  46.553 -21.442  1.00  0.00     0.033 C 
HETATM   21  C29 UNL     1      -7.126  46.130 -22.913  1.00  0.00     0.023 C 
HETATM   22  C30 UNL     1      -7.553  47.254 -23.903  1.00  0.00     0.051 C 
HETATM   23  C32 UNL     1      -6.512  48.475 -23.802  1.00  0.00     0.082 C 
HETATM   24  C33 UNL     1      -8.187  45.022 -29.306  1.00  0.00     0.036 C 
HETATM   25  C34 UNL     1      -8.941  44.371 -30.418  1.00  0.00    -0.035 C 
HETATM   26  C35 UNL     1     -10.160  44.503 -30.928  1.00  0.00     0.088 C 
HETATM   27  C36 UNL     1     -10.163  43.737 -32.178  1.00  0.00     0.284 C 
HETATM   28  O7  UNL     1     -11.125  43.624 -32.916  1.00  0.00    -0.260 OA
HETATM   29  O8  UNL     1      -8.926  43.215 -32.402  1.00  0.00    -0.304 OA
HETATM   30  C37 UNL     1      -8.128  43.426 -31.246  1.00  0.00     0.192 C 
ENDROOT
BRANCH   1  31
HETATM   31  C5  UNL     1      -5.951  43.249 -32.635  1.00  0.00     0.306 C 
BRANCH  31  32
HETATM   32  N1  UNL     1      -5.466  41.933 -32.228  1.00  0.00     0.087 N 
HETATM   33  H10 UNL     1      -6.243  41.387 -31.862  1.00  0.00     0.316 HD
BRANCH  32  34
HETATM   34  C4  UNL     1      -4.746  41.177 -33.248  1.00  0.00     0.272 C 
BRANCH  34  35
HETATM   35  C3  UNL     1      -4.189  42.006 -34.406  1.00  0.00     0.056 C 
BRANCH  35  36
HETATM   36  C2  UNL     1      -4.061  41.215 -35.703  1.00  0.00     0.168 C 
BRANCH  36  37
HETATM   37  O1  UNL     1      -4.658  39.931 -35.506  1.00  0.00    -0.396 OA
HETATM   38  C1  UNL     1      -3.963  38.918 -36.219  1.00  0.00     0.201 C 
ENDBRANCH  36  37
ENDBRANCH  35  36
ENDBRANCH  34  35
ENDBRANCH  32  34
ENDBRANCH  31  32
ENDBRANCH   1  31
BRANCH   5  39
HETATM   39  O2  UNL     1      -7.990  48.204 -28.725  1.00  0.00    -0.386 OA
HETATM   40  H17 UNL     1      -7.347  48.917 -28.544  1.00  0.00     0.210 HD
ENDBRANCH   5  39
BRANCH  11  41
HETATM   41  O3  UNL     1      -8.134  48.730 -26.296  1.00  0.00    -0.386 OA
HETATM   42  H26 UNL     1      -8.850  48.718 -26.966  1.00  0.00     0.210 HD
ENDBRANCH  11  41
BRANCH  22  43
HETATM   43  C31 UNL     1      -8.985  47.692 -23.507  1.00  0.00     0.244 C 
HETATM   44  O5  UNL     1      -9.769  47.028 -22.834  1.00  0.00    -0.306 OA
ENDBRANCH  22  43
BRANCH  23  45
HETATM   45  O6  UNL     1      -7.166  49.720 -24.049  1.00  0.00    -0.388 OA
HETATM   46  H52 UNL     1      -7.771  49.590 -24.820  1.00  0.00     0.210 HD
ENDBRANCH  23  45
BRANCH  15  47
HETATM   47  C21 UNL     1      -2.241  50.618 -24.157  1.00  0.00    -0.019 C 
HETATM   48  C22 UNL     1      -1.851  50.431 -25.627  1.00  0.00     0.010 C 
HETATM   49  C23 UNL     1      -2.297  52.114 -23.817  1.00  0.00     0.010 C 
ENDBRANCH  15  47
BRANCH  19  50
HETATM   50  O4  UNL     1      -8.018  48.735 -21.182  1.00  0.00    -0.395 OA
HETATM   51  H46 UNL     1      -7.984  49.521 -21.765  1.00  0.00     0.210 HD
ENDBRANCH  19  50
TORSDOF 12
ENDMDL
MODEL 4
REMARK minimizedAffinity -7.9587779
REMARK CNNscore 0.473717809
REMARK CNNaffinity 6.02632666
REMARK  12 active torsions:
REMARK  status: ('A' for Active; 'I' for Inactive)
REMARK    1  A    between atoms: O1_2  and  C2_3 
REMARK    2  A    between atoms: C2_3  and  C3_4 
REMARK    3  A    between atoms: C3_4  and  C4_5 
REMARK    4  A    between atoms: C4_5  and  N1_6 
REMARK    5  A    between atoms: N1_6  and  C5_7 
REMARK    6  A    between atoms: C5_7  and  C6_8 
REMARK    7  A    between atoms: C10_12  and  O2_13 
REMARK    8  A    between atoms: C16_19  and  O3_20 
REMARK    9  A    between atoms: C20_24  and  C21_25 
REMARK   10  A    between atoms: C27_31  and  O4_32 
REMARK   11  A    between atoms: C30_35  and  C31_36 
REMARK   12  A    between atoms: C32_38  and  O6_39 
ROOT
HETATM    1  C6  UNL     1      -9.732  47.914 -30.149  1.00  0.00    -0.022 C 
HETATM    2  C7  UNL     1     -10.701  46.974 -30.284  1.00  0.00    -0.014 C 
HETATM    3  C8  UNL     1     -11.211  46.189 -29.101  1.00  0.00     0.021 C 
HETATM    4  C9  UNL     1     -12.701  45.851 -29.033  1.00  0.00     0.051 C 
HETATM    5  C10 UNL     1     -12.808  45.194 -27.635  1.00  0.00     0.098 C 
HETATM    6  C11 UNL     1     -11.863  46.093 -26.726  1.00  0.00    -0.002 C 
HETATM    7  C12 UNL     1     -10.995  45.239 -25.783  1.00  0.00     0.019 C 
HETATM    8  C13 UNL     1     -12.674  47.109 -25.885  1.00  0.00     0.013 C 
HETATM    9  C14 UNL     1     -13.846  46.480 -25.157  1.00  0.00     0.010 C 
HETATM   10  C15 UNL     1     -14.883  45.940 -26.163  1.00  0.00     0.041 C 
HETATM   11  C16 UNL     1     -14.263  44.886 -27.093  1.00  0.00     0.095 C 
HETATM   12  C17 UNL     1     -15.252  44.609 -28.233  1.00  0.00     0.049 C 
HETATM   13  C18 UNL     1     -16.766  44.611 -27.869  1.00  0.00     0.025 C 
HETATM   14  C19 UNL     1     -17.415  43.629 -28.880  1.00  0.00     0.012 C 
HETATM   15  C20 UNL     1     -18.944  43.460 -28.862  1.00  0.00    -0.011 C 
HETATM   16  C24 UNL     1     -19.340  42.580 -27.672  1.00  0.00     0.005 C 
HETATM   17  C25 UNL     1     -19.504  43.328 -26.357  1.00  0.00     0.010 C 
HETATM   18  C26 UNL     1     -18.630  44.579 -26.112  1.00  0.00     0.050 C 
HETATM   19  C27 UNL     1     -18.975  45.104 -24.705  1.00  0.00     0.125 C 
HETATM   20  C28 UNL     1     -18.405  46.501 -24.484  1.00  0.00     0.033 C 
HETATM   21  C29 UNL     1     -17.080  46.736 -25.215  1.00  0.00     0.023 C 
HETATM   22  C30 UNL     1     -16.229  45.455 -25.463  1.00  0.00     0.051 C 
HETATM   23  C32 UNL     1     -17.080  44.415 -26.345  1.00  0.00     0.082 C 
HETATM   24  C33 UNL     1     -11.024  46.929 -27.764  1.00  0.00     0.036 C 
HETATM   25  C34 UNL     1      -9.587  47.332 -27.706  1.00  0.00    -0.035 C 
HETATM   26  C35 UNL     1      -8.539  46.969 -26.975  1.00  0.00     0.088 C 
HETATM   27  C36 UNL     1      -7.368  47.576 -27.613  1.00  0.00     0.284 C 
HETATM   28  O7  UNL     1      -6.225  47.464 -27.207  1.00  0.00    -0.260 OA
HETATM   29  O8  UNL     1      -7.747  48.239 -28.740  1.00  0.00    -0.304 OA
HETATM   30  C37 UNL     1      -9.167  48.280 -28.785  1.00  0.00     0.192 C 
ENDROOT
BRANCH   1  31
HETATM   31  C5  UNL     1      -9.141  48.602 -31.354  1.00  0.00     0.306 C 
BRANCH  31  32
HETATM   32  N1  UNL     1      -7.724  48.316 -31.556  1.00  0.00     0.087 N 
HETATM   33  H10 UNL     1      -7.397  47.696 -30.817  1.00  0.00     0.316 HD
BRANCH  32  34
HETATM   34  C4  UNL     1      -7.362  47.785 -32.866  1.00  0.00     0.272 C 
BRANCH  34  35
HETATM   35  C3  UNL     1      -6.124  46.887 -32.888  1.00  0.00     0.056 C 
BRANCH  35  36
HETATM   36  C2  UNL     1      -5.045  47.325 -31.905  1.00  0.00     0.168 C 
BRANCH  36  37
HETATM   37  O1  UNL     1      -3.771  47.144 -32.527  1.00  0.00    -0.396 OA
HETATM   38  C1  UNL     1      -3.739  47.716 -33.827  1.00  0.00     0.201 C 
ENDBRANCH  36  37
ENDBRANCH  35  36
ENDBRANCH  34  35
ENDBRANCH  32  34
ENDBRANCH  31  32
ENDBRANCH   1  31
BRANCH   5  39
HETATM   39  O2  UNL     1     -12.167  43.897 -27.789  1.00  0.00    -0.386 OA
HETATM   40  H17 UNL     1     -12.783  43.309 -28.267  1.00  0.00     0.210 HD
ENDBRANCH   5  39
BRANCH  11  41
HETATM   41  O3  UNL     1     -14.195  43.643 -26.369  1.00  0.00    -0.386 OA
HETATM   42  H26 UNL     1     -13.258  43.475 -26.137  1.00  0.00     0.210 HD
ENDBRANCH  11  41
BRANCH  22  43
HETATM   43  C31 UNL     1     -15.874  44.867 -24.074  1.00  0.00     0.244 C 
HETATM   44  O5  UNL     1     -15.467  43.727 -23.869  1.00  0.00    -0.306 OA
ENDBRANCH  22  43
BRANCH  23  45
HETATM   45  O6  UNL     1     -16.746  43.069 -26.004  1.00  0.00    -0.388 OA
HETATM   46  H52 UNL     1     -15.763  43.021 -25.913  1.00  0.00     0.210 HD
ENDBRANCH  23  45
BRANCH  15  47
HETATM   47  C21 UNL     1     -19.431  42.874 -30.227  1.00  0.00    -0.019 C 
HETATM   48  C22 UNL     1     -20.800  42.190 -30.163  1.00  0.00     0.010 C 
HETATM   49  C23 UNL     1     -19.429  43.936 -31.335  1.00  0.00     0.010 C 
ENDBRANCH  15  47
BRANCH  19  50
HETATM   50  O4  UNL     1     -18.497  44.250 -23.669  1.00  0.00    -0.395 OA
HETATM   51  H46 UNL     1     -18.170  43.415 -24.060  1.00  0.00     0.210 HD
ENDBRANCH  19  50
TORSDOF 12
ENDMDL
MODEL 5
REMARK minimizedAffinity -8.69835472
REMARK CNNscore 0.473190814
REMARK CNNaffinity 7.07869005
REMARK  12 active torsions:
REMARK  status: ('A' for Active; 'I' for Inactive)
REMARK    1  A    between atoms: O1_2  and  C2_3 
REMARK    2  A    between atoms: C2_3  and  C3_4 
REMARK    3  A    between atoms: C3_4  and  C4_5 
REMARK    4  A    between atoms: C4_5  and  N1_6 
REMARK    5  A    between atoms: N1_6  and  C5_7 
REMARK    6  A    between atoms: C5_7  and  C6_8 
REMARK    7  A    between atoms: C10_12  and  O2_13 
REMARK    8  A    between atoms: C16_19  and  O3_20 
REMARK    9  A    between atoms: C20_24  and  C21_25 
REMARK   10  A    between atoms: C27_31  and  O4_32 
REMARK   11  A    between atoms: C30_35  and  C31_36 
REMARK   12  A    between atoms: C32_38  and  O6_39 
ROOT
HETATM    1  C6  UNL     1      -0.452  51.546 -18.563  1.00  0.00    -0.022 C 
HETATM    2  C7  UNL     1      -1.792  51.467 -18.370  1.00  0.00    -0.014 C 
HETATM    3  C8  UNL     1      -2.752  51.350 -19.528  1.00  0.00     0.021 C 
HETATM    4  C9  UNL     1      -3.984  50.458 -19.371  1.00  0.00     0.051 C 
HETATM    5  C10 UNL     1      -4.590  50.509 -20.795  1.00  0.00     0.098 C 
HETATM    6  C11 UNL     1      -3.318  50.433 -21.745  1.00  0.00    -0.002 C 
HETATM    7  C12 UNL     1      -3.421  51.423 -22.920  1.00  0.00     0.019 C 
HETATM    8  C13 UNL     1      -3.104  49.005 -22.305  1.00  0.00     0.013 C 
HETATM    9  C14 UNL     1      -4.366  48.395 -22.882  1.00  0.00     0.010 C 
HETATM   10  C15 UNL     1      -5.425  48.193 -21.779  1.00  0.00     0.041 C 
HETATM   11  C16 UNL     1      -5.790  49.524 -21.104  1.00  0.00     0.095 C 
HETATM   12  C17 UNL     1      -6.615  49.215 -19.847  1.00  0.00     0.049 C 
HETATM   13  C18 UNL     1      -7.615  48.024 -19.935  1.00  0.00     0.025 C 
HETATM   14  C19 UNL     1      -8.753  48.393 -18.948  1.00  0.00     0.012 C 
HETATM   15  C20 UNL     1      -9.882  47.374 -18.714  1.00  0.00    -0.011 C 
HETATM   16  C24 UNL     1     -10.839  47.400 -19.910  1.00  0.00     0.005 C 
HETATM   17  C25 UNL     1     -10.417  46.521 -21.078  1.00  0.00     0.010 C 
HETATM   18  C26 UNL     1      -8.907  46.305 -21.326  1.00  0.00     0.050 C 
HETATM   19  C27 UNL     1      -8.776  45.418 -22.578  1.00  0.00     0.125 C 
HETATM   20  C28 UNL     1      -7.354  44.889 -22.731  1.00  0.00     0.033 C 
HETATM   21  C29 UNL     1      -6.288  45.865 -22.224  1.00  0.00     0.023 C 
HETATM   22  C30 UNL     1      -6.692  47.369 -22.282  1.00  0.00     0.051 C 
HETATM   23  C32 UNL     1      -8.010  47.600 -21.391  1.00  0.00     0.082 C 
HETATM   24  C33 UNL     1      -2.108  50.730 -20.781  1.00  0.00     0.036 C 
HETATM   25  C34 UNL     1      -0.864  51.513 -21.044  1.00  0.00    -0.035 C 
HETATM   26  C35 UNL     1      -0.473  52.364 -21.987  1.00  0.00     0.088 C 
HETATM   27  C36 UNL     1       0.770  52.968 -21.499  1.00  0.00     0.284 C 
HETATM   28  O7  UNL     1       1.422  53.794 -22.112  1.00  0.00    -0.260 OA
HETATM   29  O8  UNL     1       1.054  52.499 -20.253  1.00  0.00    -0.304 OA
HETATM   30  C37 UNL     1       0.157  51.439 -19.953  1.00  0.00     0.192 C 
ENDROOT
BRANCH   1  31
HETATM   31  C5  UNL     1       0.488  51.791 -17.409  1.00  0.00     0.306 C 
BRANCH  31  32
HETATM   32  N1  UNL     1       1.413  52.898 -17.631  1.00  0.00     0.087 N 
HETATM   33  H10 UNL     1       0.911  53.779 -17.540  1.00  0.00     0.316 HD
BRANCH  32  34
HETATM   34  C4  UNL     1       2.610  52.905 -16.797  1.00  0.00     0.272 C 
BRANCH  34  35
HETATM   35  C3  UNL     1       2.566  51.978 -15.582  1.00  0.00     0.056 C 
BRANCH  35  36
HETATM   36  C2  UNL     1       3.946  51.660 -15.018  1.00  0.00     0.168 C 
BRANCH  36  37
HETATM   37  O1  UNL     1       3.854  50.447 -14.265  1.00  0.00    -0.396 OA
HETATM   38  C1  UNL     1       3.151  50.642 -13.046  1.00  0.00     0.201 C 
ENDBRANCH  36  37
ENDBRANCH  35  36
ENDBRANCH  34  35
ENDBRANCH  32  34
ENDBRANCH  31  32
ENDBRANCH   1  31
BRANCH   5  39
HETATM   39  O2  UNL     1      -5.146  51.849 -20.910  1.00  0.00    -0.386 OA
HETATM   40  H17 UNL     1      -5.981  51.875 -20.403  1.00  0.00     0.210 HD
ENDBRANCH   5  39
BRANCH  11  41
HETATM   41  O3  UNL     1      -6.705  50.222 -21.969  1.00  0.00    -0.386 OA
HETATM   42  H26 UNL     1      -6.225  50.971 -22.381  1.00  0.00     0.210 HD
ENDBRANCH  11  41
BRANCH  22  43
HETATM   43  C31 UNL     1      -6.942  47.716 -23.771  1.00  0.00     0.244 C 
HETATM   44  O5  UNL     1      -6.089  47.708 -24.654  1.00  0.00    -0.306 OA
ENDBRANCH  22  43
BRANCH  23  45
HETATM   45  O6  UNL     1      -8.818  48.640 -21.942  1.00  0.00    -0.388 OA
HETATM   46  H52 UNL     1      -8.214  49.375 -22.210  1.00  0.00     0.210 HD
ENDBRANCH  23  45
BRANCH  15  47
HETATM   47  C21 UNL     1     -10.605  47.681 -17.363  1.00  0.00    -0.019 C 
HETATM   48  C22 UNL     1     -12.086  47.286 -17.341  1.00  0.00     0.010 C 
HETATM   49  C23 UNL     1      -9.877  47.046 -16.171  1.00  0.00     0.010 C 
ENDBRANCH  15  47
BRANCH  19  50
HETATM   50  O4  UNL     1      -9.137  46.101 -23.776  1.00  0.00    -0.395 OA
HETATM   51  H46 UNL     1      -9.543  46.962 -23.549  1.00  0.00     0.210 HD
ENDBRANCH  19  50
TORSDOF 12
ENDMDL
MODEL 6
REMARK minimizedAffinity -7.45620441
REMARK CNNscore 0.459624797
REMARK CNNaffinity 6.18769646
REMARK  12 active torsions:
REMARK  status: ('A' for Active; 'I' for Inactive)
REMARK    1  A    between atoms: O1_2  and  C2_3 
REMARK    2  A    between atoms: C2_3  and  C3_4 
REMARK    3  A    between atoms: C3_4  and  C4_5 
REMARK    4  A    between atoms: C4_5  and  N1_6 
REMARK    5  A    between atoms: N1_6  and  C5_7 
REMARK    6  A    between atoms: C5_7  and  C6_8 
REMARK    7  A    between atoms: C10_12  and  O2_13 
REMARK    8  A    between atoms: C16_19  and  O3_20 
REMARK    9  A    between atoms: C20_24  and  C21_25 
REMARK   10  A    between atoms: C27_31  and  O4_32 
REMARK   11  A    between atoms: C30_35  and  C31_36 
REMARK   12  A    between atoms: C32_38  and  O6_39 
ROOT
HETATM    1  C6  UNL     1      -5.782  42.532 -33.117  1.00  0.00    -0.022 C 
HETATM    2  C7  UNL     1      -5.581  43.595 -32.299  1.00  0.00    -0.014 C 
HETATM    3  C8  UNL     1      -6.731  44.421 -31.779  1.00  0.00     0.021 C 
HETATM    4  C9  UNL     1      -6.663  44.954 -30.348  1.00  0.00     0.051 C 
HETATM    5  C10 UNL     1      -8.062  45.596 -30.186  1.00  0.00     0.098 C 
HETATM    6  C11 UNL     1      -9.033  44.564 -30.907  1.00  0.00    -0.002 C 
HETATM    7  C12 UNL     1     -10.082  45.278 -31.780  1.00  0.00     0.019 C 
HETATM    8  C13 UNL     1      -9.759  43.652 -29.889  1.00  0.00     0.013 C 
HETATM    9  C14 UNL     1     -10.386  44.419 -28.742  1.00  0.00     0.010 C 
HETATM   10  C15 UNL     1      -9.300  45.110 -27.893  1.00  0.00     0.041 C 
HETATM   11  C16 UNL     1      -8.468  46.087 -28.737  1.00  0.00     0.095 C 
HETATM   12  C17 UNL     1      -7.245  46.513 -27.914  1.00  0.00     0.049 C 
HETATM   13  C18 UNL     1      -7.458  46.708 -26.383  1.00  0.00     0.025 C 
HETATM   14  C19 UNL     1      -6.418  47.785 -25.975  1.00  0.00     0.012 C 
HETATM   15  C20 UNL     1      -6.290  48.156 -24.487  1.00  0.00    -0.011 C 
HETATM   16  C24 UNL     1      -7.461  49.061 -24.092  1.00  0.00     0.005 C 
HETATM   17  C25 UNL     1      -8.730  48.319 -23.699  1.00  0.00     0.010 C 
HETATM   18  C26 UNL     1      -9.023  46.959 -24.371  1.00  0.00     0.050 C 
HETATM   19  C27 UNL     1     -10.373  46.462 -23.819  1.00  0.00     0.125 C 
HETATM   20  C28 UNL     1     -10.606  44.998 -24.175  1.00  0.00     0.033 C 
HETATM   21  C29 UNL     1     -10.003  44.599 -25.525  1.00  0.00     0.023 C 
HETATM   22  C30 UNL     1      -9.878  45.759 -26.557  1.00  0.00     0.051 C 
HETATM   23  C32 UNL     1      -8.948  46.918 -25.945  1.00  0.00     0.082 C 
HETATM   24  C33 UNL     1      -8.057  43.641 -31.731  1.00  0.00     0.036 C 
HETATM   25  C34 UNL     1      -8.244  43.048 -33.088  1.00  0.00    -0.035 C 
HETATM   26  C35 UNL     1      -9.086  43.255 -34.095  1.00  0.00     0.088 C 
HETATM   27  C36 UNL     1      -8.548  42.507 -35.235  1.00  0.00     0.284 C 
HETATM   28  O7  UNL     1      -9.068  42.459 -36.335  1.00  0.00    -0.260 OA
HETATM   29  O8  UNL     1      -7.370  41.920 -34.888  1.00  0.00    -0.304 OA
HETATM   30  C37 UNL     1      -7.183  42.071 -33.488  1.00  0.00     0.192 C 
ENDROOT
BRANCH   1  31
HETATM   31  C5  UNL     1      -4.621  41.791 -33.732  1.00  0.00     0.306 C 
BRANCH  31  32
HETATM   32  N1  UNL     1      -3.572  41.449 -32.777  1.00  0.00     0.087 N 
HETATM   33  H10 UNL     1      -3.997  41.106 -31.918  1.00  0.00     0.316 HD
BRANCH  32  34
HETATM   34  C4  UNL     1      -2.558  40.514 -33.254  1.00  0.00     0.272 C 
BRANCH  34  35
HETATM   35  C3  UNL     1      -2.633  39.108 -32.657  1.00  0.00     0.056 C 
BRANCH  35  36
HETATM   36  C2  UNL     1      -3.034  38.045 -33.673  1.00  0.00     0.168 C 
BRANCH  36  37
HETATM   37  O1  UNL     1      -1.873  37.683 -34.425  1.00  0.00    -0.396 OA
HETATM   38  C1  UNL     1      -1.386  36.403 -34.050  1.00  0.00     0.201 C 
ENDBRANCH  36  37
ENDBRANCH  35  36
ENDBRANCH  34  35
ENDBRANCH  32  34
ENDBRANCH  31  32
ENDBRANCH   1  31
BRANCH   5  39
HETATM   39  O2  UNL     1      -8.011  46.799 -31.004  1.00  0.00    -0.386 OA
HETATM   40  H17 UNL     1      -7.493  47.472 -30.522  1.00  0.00     0.210 HD
ENDBRANCH   5  39
BRANCH  11  41
HETATM   41  O3  UNL     1      -9.232  47.298 -28.893  1.00  0.00    -0.386 OA
HETATM   42  H26 UNL     1      -9.560  47.335 -29.816  1.00  0.00     0.210 HD
ENDBRANCH  11  41
BRANCH  22  43
HETATM   43  C31 UNL     1     -11.312  46.270 -26.844  1.00  0.00     0.244 C 
HETATM   44  O5  UNL     1     -11.590  47.322 -27.414  1.00  0.00    -0.306 OA
ENDBRANCH  22  43
BRANCH  23  45
HETATM   45  O6  UNL     1      -9.361  48.201 -26.417  1.00  0.00    -0.388 OA
HETATM   46  H52 UNL     1      -9.550  48.116 -27.382  1.00  0.00     0.210 HD
ENDBRANCH  23  45
BRANCH  15  47
HETATM   47  C21 UNL     1      -4.903  48.825 -24.224  1.00  0.00    -0.019 C 
HETATM   48  C22 UNL     1      -4.279  48.462 -22.871  1.00  0.00     0.010 C 
HETATM   49  C23 UNL     1      -3.906  48.532 -25.353  1.00  0.00     0.010 C 
ENDBRANCH  15  47
BRANCH  19  50
HETATM   50  O4  UNL     1     -11.476  47.226 -24.297  1.00  0.00    -0.395 OA
HETATM   51  H46 UNL     1     -11.144  48.017 -24.769  1.00  0.00     0.210 HD
ENDBRANCH  19  50
TORSDOF 12
ENDMDL
MODEL 7
REMARK minimizedAffinity -7.26249647
REMARK CNNscore 0.455153614
REMARK CNNaffinity 6.58389139
REMARK  12 active torsions:
REMARK  status: ('A' for Active; 'I' for Inactive)
REMARK    1  A    between atoms: O1_2  and  C2_3 
REMARK    2  A    between atoms: C2_3  and  C3_4 
REMARK    3  A    between atoms: C3_4  and  C4_5 
REMARK    4  A    between atoms: C4_5  and  N1_6 
REMARK    5  A    between atoms: N1_6  and  C5_7 
REMARK    6  A    between atoms: C5_7  and  C6_8 
REMARK    7  A    between atoms: C10_12  and  O2_13 
REMARK    8  A    between atoms: C16_19  and  O3_20 
REMARK    9  A    between atoms: C20_24  and  C21_25 
REMARK   10  A    between atoms: C27_31  and  O4_32 
REMARK   11  A    between atoms: C30_35  and  C31_36 
REMARK   12  A    between atoms: C32_38  and  O6_39 
ROOT
HETATM    1  C6  UNL     1      -5.211  49.746 -21.678  1.00  0.00    -0.022 C 
HETATM    2  C7  UNL     1      -6.177  48.935 -22.178  1.00  0.00    -0.014 C 
HETATM    3  C8  UNL     1      -7.049  48.097 -21.277  1.00  0.00     0.021 C 
HETATM    4  C9  UNL     1      -8.523  47.917 -21.643  1.00  0.00     0.051 C 
HETATM    5  C10 UNL     1      -9.058  47.141 -20.415  1.00  0.00     0.098 C 
HETATM    6  C11 UNL     1      -8.329  47.838 -19.186  1.00  0.00    -0.002 C 
HETATM    7  C12 UNL     1      -7.820  46.807 -18.162  1.00  0.00     0.019 C 
HETATM    8  C13 UNL     1      -9.257  48.848 -18.467  1.00  0.00     0.013 C 
HETATM    9  C14 UNL     1     -10.628  48.281 -18.156  1.00  0.00     0.010 C 
HETATM   10  C15 UNL     1     -11.390  47.958 -19.457  1.00  0.00     0.041 C 
HETATM   11  C16 UNL     1     -10.625  46.940 -20.315  1.00  0.00     0.095 C 
HETATM   12  C17 UNL     1     -11.284  46.886 -21.700  1.00  0.00     0.049 C 
HETATM   13  C18 UNL     1     -12.835  47.016 -21.748  1.00  0.00     0.025 C 
HETATM   14  C19 UNL     1     -13.258  46.214 -23.007  1.00  0.00     0.012 C 
HETATM   15  C20 UNL     1     -14.743  46.211 -23.411  1.00  0.00    -0.011 C 
HETATM   16  C24 UNL     1     -15.515  45.266 -22.486  1.00  0.00     0.005 C 
HETATM   17  C25 UNL     1     -15.972  45.894 -21.177  1.00  0.00     0.010 C 
HETATM   18  C26 UNL     1     -15.104  47.013 -20.558  1.00  0.00     0.050 C 
HETATM   19  C27 UNL     1     -15.777  47.430 -19.237  1.00  0.00     0.125 C 
HETATM   20  C28 UNL     1     -15.182  48.728 -18.703  1.00  0.00     0.033 C 
HETATM   21  C29 UNL     1     -13.694  48.890 -19.026  1.00  0.00     0.023 C 
HETATM   22  C30 UNL     1     -12.910  47.555 -19.200  1.00  0.00     0.051 C 
HETATM   23  C32 UNL     1     -13.566  46.705 -20.396  1.00  0.00     0.082 C 
HETATM   24  C33 UNL     1      -7.176  48.676 -19.856  1.00  0.00     0.036 C 
HETATM   25  C34 UNL     1      -5.783  48.914 -19.375  1.00  0.00    -0.035 C 
HETATM   26  C35 UNL     1      -5.006  48.370 -18.445  1.00  0.00     0.088 C 
HETATM   27  C36 UNL     1      -3.661  48.907 -18.674  1.00  0.00     0.284 C 
HETATM   28  O7  UNL     1      -2.685  48.632 -18.000  1.00  0.00    -0.260 OA
HETATM   29  O8  UNL     1      -3.666  49.714 -19.769  1.00  0.00    -0.304 OA
HETATM   30  C37 UNL     1      -5.012  49.913 -20.180  1.00  0.00     0.192 C 
ENDROOT
BRANCH   1  31
HETATM   31  C5  UNL     1      -4.262  50.482 -22.592  1.00  0.00     0.306 C 
BRANCH  31  32
HETATM   32  N1  UNL     1      -2.981  49.806 -22.774  1.00  0.00     0.087 N 
HETATM   33  H10 UNL     1      -2.990  48.925 -22.264  1.00  0.00     0.316 HD
BRANCH  32  34
HETATM   34  C4  UNL     1      -2.566  49.591 -24.156  1.00  0.00     0.272 C 
BRANCH  34  35
HETATM   35  C3  UNL     1      -3.616  48.947 -25.062  1.00  0.00     0.056 C 
BRANCH  35  36
HETATM   36  C2  UNL     1      -3.061  48.524 -26.417  1.00  0.00     0.168 C 
BRANCH  36  37
HETATM   37  O1  UNL     1      -3.741  49.266 -27.432  1.00  0.00    -0.396 OA
HETATM   38  C1  UNL     1      -3.029  50.444 -27.783  1.00  0.00     0.201 C 
ENDBRANCH  36  37
ENDBRANCH  35  36
ENDBRANCH  34  35
ENDBRANCH  32  34
ENDBRANCH  31  32
ENDBRANCH   1  31
BRANCH   5  39
HETATM   39  O2  UNL     1      -8.502  45.803 -20.556  1.00  0.00    -0.386 OA
HETATM   40  H17 UNL     1      -9.008  45.336 -21.248  1.00  0.00     0.210 HD
ENDBRANCH   5  39
BRANCH  11  41
HETATM   41  O3  UNL     1     -10.854  45.632 -19.759  1.00  0.00    -0.386 OA
HETATM   42  H26 UNL     1     -10.031  45.341 -19.312  1.00  0.00     0.210 HD
ENDBRANCH  11  41
BRANCH  22  43
HETATM   43  C31 UNL     1     -12.993  46.798 -17.851  1.00  0.00     0.244 C 
HETATM   44  O5  UNL     1     -13.245  47.312 -16.764  1.00  0.00    -0.306 OA
ENDBRANCH  22  43
BRANCH  23  45
HETATM   45  O6  UNL     1     -13.444  45.305 -20.149  1.00  0.00    -0.388 OA
HETATM   46  H52 UNL     1     -12.530  45.141 -19.811  1.00  0.00     0.210 HD
ENDBRANCH  23  45
BRANCH  15  47
HETATM   47  C21 UNL     1     -14.883  45.818 -24.918  1.00  0.00    -0.019 C 
HETATM   48  C22 UNL     1     -16.332  45.692 -25.400  1.00  0.00     0.010 C 
HETATM   49  C23 UNL     1     -14.111  46.781 -25.830  1.00  0.00     0.010 C 
ENDBRANCH  15  47
BRANCH  19  50
HETATM   50  O4  UNL     1     -15.668  46.432 -18.226  1.00  0.00    -0.395 OA
HETATM   51  H46 UNL     1     -15.312  45.609 -18.618  1.00  0.00     0.210 HD
ENDBRANCH  19  50
TORSDOF 12
ENDMDL
MODEL 8
REMARK minimizedAffinity -8.11382675
REMARK CNNscore 0.454265773
REMARK CNNaffinity 6.35995674
REMARK  12 active torsions:
REMARK  status: ('A' for Active; 'I' for Inactive)
REMARK    1  A    between atoms: O1_2  and  C2_3 
REMARK    2  A    between atoms: C2_3  and  C3_4 
REMARK    3  A    between atoms: C3_4  and  C4_5 
REMARK    4  A    between atoms: C4_5  and  N1_6 
REMARK    5  A    between atoms: N1_6  and  C5_7 
REMARK    6  A    between atoms: C5_7  and  C6_8 
REMARK    7  A    between atoms: C10_12  and  O2_13 
REMARK    8  A    between atoms: C16_19  and  O3_20 
REMARK    9  A    between atoms: C20_24  and  C21_25 
REMARK   10  A    between atoms: C27_31  and  O4_32 
REMARK   11  A    between atoms: C30_35  and  C31_36 
REMARK   12  A    between atoms: C32_38  and  O6_39 
ROOT
HETATM    1  C6  UNL     1      -3.522  48.763 -25.272  1.00  0.00    -0.022 C 
HETATM    2  C7  UNL     1      -4.774  48.281 -25.475  1.00  0.00    -0.014 C 
HETATM    3  C8  UNL     1      -5.414  48.295 -26.841  1.00  0.00     0.021 C 
HETATM    4  C9  UNL     1      -6.291  47.112 -27.251  1.00  0.00     0.051 C 
HETATM    5  C10 UNL     1      -6.610  47.456 -28.727  1.00  0.00     0.098 C 
HETATM    6  C11 UNL     1      -5.233  48.022 -29.284  1.00  0.00    -0.002 C 
HETATM    7  C12 UNL     1      -5.440  49.273 -30.158  1.00  0.00     0.019 C 
HETATM    8  C13 UNL     1      -4.464  46.956 -30.102  1.00  0.00     0.013 C 
HETATM    9  C14 UNL     1      -5.329  46.257 -31.133  1.00  0.00     0.010 C 
HETATM   10  C15 UNL     1      -6.444  45.445 -30.445  1.00  0.00     0.041 C 
HETATM   11  C16 UNL     1      -7.342  46.346 -29.585  1.00  0.00     0.095 C 
HETATM   12  C17 UNL     1      -8.234  45.448 -28.717  1.00  0.00     0.049 C 
HETATM   13  C18 UNL     1      -8.754  44.131 -29.366  1.00  0.00     0.025 C 
HETATM   14  C19 UNL     1     -10.110  43.855 -28.665  1.00  0.00     0.012 C 
HETATM   15  C20 UNL     1     -10.864  42.558 -29.008  1.00  0.00    -0.011 C 
HETATM   16  C24 UNL     1     -11.542  42.716 -30.373  1.00  0.00     0.005 C 
HETATM   17  C25 UNL     1     -10.649  42.399 -31.564  1.00  0.00     0.010 C 
HETATM   18  C26 UNL     1      -9.133  42.674 -31.439  1.00  0.00     0.050 C 
HETATM   19  C27 UNL     1      -8.492  42.301 -32.789  1.00  0.00     0.125 C 
HETATM   20  C28 UNL     1      -6.973  42.238 -32.677  1.00  0.00     0.033 C 
HETATM   21  C29 UNL     1      -6.398  43.242 -31.673  1.00  0.00     0.023 C 
HETATM   22  C30 UNL     1      -7.256  44.525 -31.462  1.00  0.00     0.051 C 
HETATM   23  C32 UNL     1      -8.715  44.108 -30.934  1.00  0.00     0.082 C 
HETATM   24  C33 UNL     1      -4.385  48.299 -27.985  1.00  0.00     0.036 C 
HETATM   25  C34 UNL     1      -3.442  49.420 -27.698  1.00  0.00    -0.035 C 
HETATM   26  C35 UNL     1      -3.187  50.598 -28.256  1.00  0.00     0.088 C 
HETATM   27  C36 UNL     1      -2.322  51.316 -27.315  1.00  0.00     0.284 C 
HETATM   28  O7  UNL     1      -1.878  52.434 -27.502  1.00  0.00    -0.260 OA
HETATM   29  O8  UNL     1      -2.132  50.563 -26.197  1.00  0.00    -0.304 OA
HETATM   30  C37 UNL     1      -2.670  49.268 -26.425  1.00  0.00     0.192 C 
ENDROOT
BRANCH   1  31
HETATM   31  C5  UNL     1      -2.941  48.861 -23.883  1.00  0.00     0.306 C 
BRANCH  31  32
HETATM   32  N1  UNL     1      -2.606  50.224 -23.482  1.00  0.00     0.087 N 
HETATM   33  H10 UNL     1      -3.386  50.625 -22.965  1.00  0.00     0.316 HD
BRANCH  32  34
HETATM   34  C4  UNL     1      -1.364  50.380 -22.733  1.00  0.00     0.272 C 
BRANCH  34  35
HETATM   35  C3  UNL     1      -0.954  51.823 -22.439  1.00  0.00     0.056 C 
BRANCH  35  36
HETATM   36  C2  UNL     1       0.464  51.946 -21.892  1.00  0.00     0.168 C 
BRANCH  36  37
HETATM   37  O1  UNL     1       0.743  53.332 -21.678  1.00  0.00    -0.396 OA
HETATM   38  C1  UNL     1       0.516  53.708 -20.327  1.00  0.00     0.201 C 
ENDBRANCH  36  37
ENDBRANCH  35  36
ENDBRANCH  34  35
ENDBRANCH  32  34
ENDBRANCH  31  32
ENDBRANCH   1  31
BRANCH   5  39
HETATM   39  O2  UNL     1      -7.545  48.569 -28.651  1.00  0.00    -0.386 OA
HETATM   40  H17 UNL     1      -8.419  48.214 -28.399  1.00  0.00     0.210 HD
ENDBRANCH   5  39
BRANCH  11  41
HETATM   41  O3  UNL     1      -8.263  47.021 -30.463  1.00  0.00    -0.386 OA
HETATM   42  H26 UNL     1      -7.988  47.960 -30.529  1.00  0.00     0.210 HD
ENDBRANCH  11  41
BRANCH  22  43
HETATM   43  C31 UNL     1      -7.331  45.254 -32.827  1.00  0.00     0.244 C 
HETATM   44  O5  UNL     1      -8.131  46.139 -33.116  1.00  0.00    -0.306 OA
ENDBRANCH  22  43
BRANCH  23  45
HETATM   45  O6  UNL     1      -9.706  45.022 -31.405  1.00  0.00    -0.388 OA
HETATM   46  H52 UNL     1      -9.338  45.934 -31.307  1.00  0.00     0.210 HD
ENDBRANCH  23  45
BRANCH  15  47
HETATM   47  C21 UNL     1     -11.881  42.218 -27.872  1.00  0.00    -0.019 C 
HETATM   48  C22 UNL     1     -12.522  43.446 -27.216  1.00  0.00     0.010 C 
HETATM   49  C23 UNL     1     -12.973  41.255 -28.356  1.00  0.00     0.010 C 
ENDBRANCH  15  47
BRANCH  19  50
HETATM   50  O4  UNL     1      -8.833  43.212 -33.829  1.00  0.00    -0.395 OA
HETATM   51  H46 UNL     1      -9.534  43.819 -33.514  1.00  0.00     0.210 HD
ENDBRANCH  19  50
TORSDOF 12
ENDMDL
MODEL 9
REMARK minimizedAffinity -9.13642693
REMARK CNNscore 0.426420271
REMARK CNNaffinity 6.68005943
REMARK  12 active torsions:
REMARK  status: ('A' for Active; 'I' for Inactive)
REMARK    1  A    between atoms: O1_2  and  C2_3 
REMARK    2  A    between atoms: C2_3  and  C3_4 
REMARK    3  A    between atoms: C3_4  and  C4_5 
REMARK    4  A    between atoms: C4_5  and  N1_6 
REMARK    5  A    between atoms: N1_6  and  C5_7 
REMARK    6  A    between atoms: C5_7  and  C6_8 
REMARK    7  A    between atoms: C10_12  and  O2_13 
REMARK    8  A    between atoms: C16_19  and  O3_20 
REMARK    9  A    between atoms: C20_24  and  C21_25 
REMARK   10  A    between atoms: C27_31  and  O4_32 
REMARK   11  A    between atoms: C30_35  and  C31_36 
REMARK   12  A    between atoms: C32_38  and  O6_39 
ROOT
HETATM    1  C6  UNL     1      -6.334  47.084 -28.312  1.00  0.00    -0.022 C 
HETATM    2  C7  UNL     1      -5.604  48.015 -27.649  1.00  0.00    -0.014 C 
HETATM    3  C8  UNL     1      -5.976  48.470 -26.260  1.00  0.00     0.021 C 
HETATM    4  C9  UNL     1      -4.857  48.761 -25.260  1.00  0.00     0.051 C 
HETATM    5  C10 UNL     1      -5.659  49.043 -23.966  1.00  0.00     0.098 C 
HETATM    6  C11 UNL     1      -6.818  47.955 -24.001  1.00  0.00    -0.002 C 
HETATM    7  C12 UNL     1      -8.178  48.553 -23.594  1.00  0.00     0.019 C 
HETATM    8  C13 UNL     1      -6.501  46.749 -23.083  1.00  0.00     0.013 C 
HETATM    9  C14 UNL     1      -6.056  47.159 -21.692  1.00  0.00     0.010 C 
HETATM   10  C15 UNL     1      -4.718  47.924 -21.755  1.00  0.00     0.041 C 
HETATM   11  C16 UNL     1      -4.835  49.186 -22.622  1.00  0.00     0.095 C 
HETATM   12  C17 UNL     1      -3.422  49.730 -22.873  1.00  0.00     0.049 C 
HETATM   13  C18 UNL     1      -2.405  49.618 -21.699  1.00  0.00     0.025 C 
HETATM   14  C19 UNL     1      -1.439  50.816 -21.900  1.00  0.00     0.012 C 
HETATM   15  C20 UNL     1      -0.236  50.956 -20.951  1.00  0.00    -0.011 C 
HETATM   16  C24 UNL     1      -0.717  51.502 -19.604  1.00  0.00     0.005 C 
HETATM   17  C25 UNL     1      -1.232  50.443 -18.639  1.00  0.00     0.010 C 
HETATM   18  C26 UNL     1      -1.905  49.182 -19.225  1.00  0.00     0.050 C 
HETATM   19  C27 UNL     1      -2.356  48.315 -18.034  1.00  0.00     0.125 C 
HETATM   20  C28 UNL     1      -2.749  46.914 -18.492  1.00  0.00     0.033 C 
HETATM   21  C29 UNL     1      -3.371  46.887 -19.891  1.00  0.00     0.023 C 
HETATM   22  C30 UNL     1      -4.096  48.200 -20.314  1.00  0.00     0.051 C 
HETATM   23  C32 UNL     1      -3.049  49.418 -20.284  1.00  0.00     0.082 C 
HETATM   24  C33 UNL     1      -6.788  47.419 -25.482  1.00  0.00     0.036 C 
HETATM   25  C34 UNL     1      -7.927  47.031 -26.366  1.00  0.00    -0.035 C 
HETATM   26  C35 UNL     1      -9.243  47.210 -26.334  1.00  0.00     0.088 C 
HETATM   27  C36 UNL     1      -9.742  46.798 -27.649  1.00  0.00     0.284 C 
HETATM   28  O7  UNL     1     -10.914  46.817 -27.979  1.00  0.00    -0.260 OA
HETATM   29  O8  UNL     1      -8.699  46.437 -28.446  1.00  0.00    -0.304 OA
HETATM   30  C37 UNL     1      -7.519  46.392 -27.656  1.00  0.00     0.192 C 
ENDROOT
BRANCH   1  31
HETATM   31  C5  UNL     1      -6.029  46.730 -29.746  1.00  0.00     0.306 C 
BRANCH  31  32
HETATM   32  N1  UNL     1      -7.185  46.237 -30.488  1.00  0.00     0.087 N 
HETATM   33  H10 UNL     1      -8.037  46.580 -30.049  1.00  0.00     0.316 HD
BRANCH  32  34
HETATM   34  C4  UNL     1      -7.194  46.526 -31.918  1.00  0.00     0.272 C 
BRANCH  34  35
HETATM   35  C3  UNL     1      -6.401  47.763 -32.341  1.00  0.00     0.056 C 
BRANCH  35  36
HETATM   36  C2  UNL     1      -5.631  47.567 -33.642  1.00  0.00     0.168 C 
BRANCH  36  37
HETATM   37  O1  UNL     1      -4.483  48.419 -33.615  1.00  0.00    -0.396 OA
HETATM   38  C1  UNL     1      -3.294  47.702 -33.912  1.00  0.00     0.201 C 
ENDBRANCH  36  37
ENDBRANCH  35  36
ENDBRANCH  34  35
ENDBRANCH  32  34
ENDBRANCH  31  32
ENDBRANCH   1  31
BRANCH   5  39
HETATM   39  O2  UNL     1      -6.271  50.344 -24.188  1.00  0.00    -0.386 OA
HETATM   40  H17 UNL     1      -5.581  51.026 -24.075  1.00  0.00     0.210 HD
ENDBRANCH   5  39
BRANCH  11  41
HETATM   41  O3  UNL     1      -5.476  50.207 -21.834  1.00  0.00    -0.386 OA
HETATM   42  H26 UNL     1      -6.390  50.322 -22.168  1.00  0.00     0.210 HD
ENDBRANCH  11  41
BRANCH  22  43
HETATM   43  C31 UNL     1      -5.258  48.421 -19.314  1.00  0.00     0.244 C 
HETATM   44  O5  UNL     1      -6.001  49.399 -19.295  1.00  0.00    -0.306 OA
ENDBRANCH  22  43
BRANCH  23  45
HETATM   45  O6  UNL     1      -3.701  50.638 -19.929  1.00  0.00    -0.388 OA
HETATM   46  H52 UNL     1      -4.554  50.674 -20.425  1.00  0.00     0.210 HD
ENDBRANCH  23  45
BRANCH  15  47
HETATM   47  C21 UNL     1       0.855  51.862 -21.608  1.00  0.00    -0.019 C 
HETATM   48  C22 UNL     1       0.493  52.364 -23.010  1.00  0.00     0.010 C 
HETATM   49  C23 UNL     1       1.227  53.048 -20.708  1.00  0.00     0.010 C 
ENDBRANCH  15  47
BRANCH  19  50
HETATM   50  O4  UNL     1      -3.453  48.884 -17.325  1.00  0.00    -0.395 OA
HETATM   51  H46 UNL     1      -3.611  49.795 -17.647  1.00  0.00     0.210 HD
ENDBRANCH  19  50
TORSDOF 12
ENDMDL
