MODEL 1
REMARK minimizedAffinity -8.52643108
REMARK CNNscore 0.610120773
REMARK CNNaffinity 6.42708254
REMARK  8 active torsions:
REMARK  status: ('A' for Active; 'I' for Inactive)
REMARK    1  A    between atoms: C2_2  and  C30_34 
REMARK    2  A    between atoms: C3_3  and  C4_4 
REMARK    3  A    between atoms: C4_4  and  O1_5 
REMARK    4  A    between atoms: C4_4  and  C5_6 
REMARK    5  A    between atoms: C5_6  and  C6_7 
REMARK    6  A    between atoms: C6_7  and  C8_9 
REMARK    7  A    between atoms: C10_11  and  O2_12 
REMARK    8  A    between atoms: C30_34  and  O6_36 
ROOT
HETATM    1  C8  UNL     1      -3.047   6.172  13.484  1.00  0.00     0.001 C 
HETATM    2  C9  UNL     1      -4.083   5.701  14.545  1.00  0.00     0.038 C 
HETATM    3  C10 UNL     1      -4.281   6.875  15.525  1.00  0.00     0.131 C 
HETATM    4  C11 UNL     1      -3.744   8.114  14.758  1.00  0.00     0.014 C 
HETATM    5  C12 UNL     1      -4.847   8.594  13.759  1.00  0.00     0.023 C 
HETATM    6  C13 UNL     1      -3.345   9.372  15.528  1.00  0.00    -0.058 C 
HETATM    7  C14 UNL     1      -2.429  10.242  15.026  1.00  0.00    -0.000 C 
HETATM    8  C15 UNL     1      -1.704   9.873  13.736  1.00  0.00     0.157 C 
HETATM    9  O3  UNL     1      -0.946  10.672  13.186  1.00  0.00    -0.293 OA
HETATM   10  C16 UNL     1      -1.906   8.502  13.100  1.00  0.00     0.094 C 
HETATM   11  C17 UNL     1      -2.462   7.483  14.096  1.00  0.00    -0.019 C 
HETATM   12  C18 UNL     1      -1.339   7.155  15.122  1.00  0.00     0.017 C 
HETATM   13  C19 UNL     1      -2.075  11.589  15.706  1.00  0.00    -0.008 C 
HETATM   14  C20 UNL     1      -0.663  11.411  16.315  1.00  0.00     0.021 C 
HETATM   15  C21 UNL     1      -2.039  12.768  14.680  1.00  0.00     0.022 C 
HETATM   16  C22 UNL     1      -2.401  14.146  15.229  1.00  0.00     0.080 C 
HETATM   17  C23 UNL     1      -2.133  14.259  16.709  1.00  0.00     0.135 C 
HETATM   18  O4  UNL     1      -1.421  15.157  17.156  1.00  0.00    -0.297 OA
HETATM   19  C24 UNL     1      -2.863  13.259  17.611  1.00  0.00     0.018 C 
HETATM   20  C25 UNL     1      -2.049  13.026  18.898  1.00  0.00     0.023 C 
HETATM   21  C26 UNL     1      -4.192  13.930  18.022  1.00  0.00     0.023 C 
HETATM   22  C27 UNL     1      -3.160  11.957  16.790  1.00  0.00     0.014 C 
HETATM   23  C28 UNL     1      -3.501  10.748  17.667  1.00  0.00     0.011 C 
HETATM   24  C29 UNL     1      -4.080   9.618  16.823  1.00  0.00     0.036 C 
ENDROOT
BRANCH   1  25
HETATM   25  C6  UNL     1      -2.163   5.018  12.922  1.00  0.00    -0.011 C 
HETATM   26  C7  UNL     1      -0.685   5.338  12.670  1.00  0.00     0.010 C 
BRANCH  25  27
HETATM   27  C5  UNL     1      -2.802   4.375  11.669  1.00  0.00     0.040 C 
BRANCH  27  28
HETATM   28  C4  UNL     1      -3.611   3.090  11.924  1.00  0.00     0.142 C 
BRANCH  28  29
HETATM   29  C3  UNL     1      -5.056   3.364  12.210  1.00  0.00     0.018 C 
HETATM   30  C2  UNL     1      -6.118   2.564  11.983  1.00  0.00     0.010 C 
HETATM   31  C1  UNL     1      -6.089   1.199  11.368  1.00  0.00     0.055 C 
BRANCH  30  32
HETATM   32  C30 UNL     1      -7.441   3.105  12.391  1.00  0.00     0.171 C 
HETATM   33  O5  UNL     1      -8.396   2.469  12.801  1.00  0.00    -0.646 OA
BRANCH  32  34
HETATM   34  O6  UNL     1      -7.514   4.438  12.246  1.00  0.00    -0.773 OA
HETATM   35  H44 UNL     1      -8.419   4.650  12.556  1.00  0.00     0.167 HD
ENDBRANCH  32  34
ENDBRANCH  30  32
ENDBRANCH  28  29
BRANCH  28  36
HETATM   36  O1  UNL     1      -3.593   2.303  10.736  1.00  0.00    -0.392 OA
HETATM   37  H6  UNL     1      -2.665   2.095  10.534  1.00  0.00     0.210 HD
ENDBRANCH  28  36
ENDBRANCH  27  28
ENDBRANCH  25  27
ENDBRANCH   1  25
BRANCH   3  38
HETATM   38  O2  UNL     1      -5.644   6.993  15.901  1.00  0.00    -0.394 OA
HETATM   39  H17 UNL     1      -5.922   6.139  16.276  1.00  0.00     0.210 HD
ENDBRANCH   3  38
TORSDOF 8
ENDMDL
MODEL 2
REMARK minimizedAffinity -8.17020893
REMARK CNNscore 0.595403254
REMARK CNNaffinity 6.90148592
REMARK  8 active torsions:
REMARK  status: ('A' for Active; 'I' for Inactive)
REMARK    1  A    between atoms: C2_2  and  C30_34 
REMARK    2  A    between atoms: C3_3  and  C4_4 
REMARK    3  A    between atoms: C4_4  and  O1_5 
REMARK    4  A    between atoms: C4_4  and  C5_6 
REMARK    5  A    between atoms: C5_6  and  C6_7 
REMARK    6  A    between atoms: C6_7  and  C8_9 
REMARK    7  A    between atoms: C10_11  and  O2_12 
REMARK    8  A    between atoms: C30_34  and  O6_36 
ROOT
HETATM    1  C8  UNL     1       0.514   6.125  12.973  1.00  0.00     0.001 C 
HETATM    2  C9  UNL     1       0.934   7.033  14.164  1.00  0.00     0.038 C 
HETATM    3  C10 UNL     1      -0.362   7.435  14.897  1.00  0.00     0.131 C 
HETATM    4  C11 UNL     1      -1.412   6.395  14.421  1.00  0.00     0.014 C 
HETATM    5  C12 UNL     1      -1.209   5.077  15.235  1.00  0.00     0.023 C 
HETATM    6  C13 UNL     1      -2.903   6.705  14.552  1.00  0.00    -0.058 C 
HETATM    7  C14 UNL     1      -3.817   6.125  13.729  1.00  0.00    -0.000 C 
HETATM    8  C15 UNL     1      -3.315   5.257  12.581  1.00  0.00     0.157 C 
HETATM    9  O3  UNL     1      -4.102   4.626  11.874  1.00  0.00    -0.293 OA
HETATM   10  C16 UNL     1      -1.823   5.153  12.284  1.00  0.00     0.094 C 
HETATM   11  C17 UNL     1      -1.034   6.312  12.895  1.00  0.00    -0.019 C 
HETATM   12  C18 UNL     1      -1.389   7.603  12.102  1.00  0.00     0.017 C 
HETATM   13  C19 UNL     1      -5.347   6.311  13.894  1.00  0.00    -0.008 C 
HETATM   14  C20 UNL     1      -5.800   7.232  12.735  1.00  0.00     0.021 C 
HETATM   15  C21 UNL     1      -6.113   4.952  13.789  1.00  0.00     0.022 C 
HETATM   16  C22 UNL     1      -7.413   4.852  14.583  1.00  0.00     0.080 C 
HETATM   17  C23 UNL     1      -8.043   6.203  14.817  1.00  0.00     0.135 C 
HETATM   18  O4  UNL     1      -9.207   6.424  14.483  1.00  0.00    -0.297 OA
HETATM   19  C24 UNL     1      -7.190   7.233  15.564  1.00  0.00     0.018 C 
HETATM   20  C25 UNL     1      -7.617   8.657  15.159  1.00  0.00     0.023 C 
HETATM   21  C26 UNL     1      -7.516   7.065  17.064  1.00  0.00     0.023 C 
HETATM   22  C27 UNL     1      -5.676   6.915  15.312  1.00  0.00     0.014 C 
HETATM   23  C28 UNL     1      -4.745   8.085  15.647  1.00  0.00     0.011 C 
HETATM   24  C29 UNL     1      -3.293   7.622  15.687  1.00  0.00     0.036 C 
ENDROOT
BRANCH   1  25
HETATM   25  C6  UNL     1       1.456   6.241  11.738  1.00  0.00    -0.011 C 
HETATM   26  C7  UNL     1       1.822   4.936  11.021  1.00  0.00     0.010 C 
BRANCH  25  27
HETATM   27  C5  UNL     1       2.728   7.055  12.071  1.00  0.00     0.040 C 
BRANCH  27  28
HETATM   28  C4  UNL     1       3.015   8.247  11.140  1.00  0.00     0.142 C 
BRANCH  28  29
HETATM   29  C3  UNL     1       4.478   8.441  10.882  1.00  0.00     0.018 C 
HETATM   30  C2  UNL     1       5.337   9.260  11.522  1.00  0.00     0.010 C 
HETATM   31  C1  UNL     1       5.009  10.189  12.650  1.00  0.00     0.055 C 
BRANCH  30  32
HETATM   32  C30 UNL     1       6.746   9.224  11.052  1.00  0.00     0.171 C 
HETATM   33  O5  UNL     1       7.290  10.020  10.307  1.00  0.00    -0.646 OA
BRANCH  32  34
HETATM   34  O6  UNL     1       7.418   8.163  11.531  1.00  0.00    -0.773 OA
HETATM   35  H44 UNL     1       8.315   8.275  11.154  1.00  0.00     0.167 HD
ENDBRANCH  32  34
ENDBRANCH  30  32
ENDBRANCH  28  29
BRANCH  28  36
HETATM   36  O1  UNL     1       2.430   7.976   9.868  1.00  0.00    -0.392 OA
HETATM   37  H6  UNL     1       1.474   7.861  10.003  1.00  0.00     0.210 HD
ENDBRANCH  28  36
ENDBRANCH  27  28
ENDBRANCH  25  27
ENDBRANCH   1  25
BRANCH   3  38
HETATM   38  O2  UNL     1      -0.166   7.434  16.303  1.00  0.00    -0.394 OA
HETATM   39  H17 UNL     1       0.576   8.032  16.497  1.00  0.00     0.210 HD
ENDBRANCH   3  38
TORSDOF 8
ENDMDL
MODEL 3
REMARK minimizedAffinity -8.13303757
REMARK CNNscore 0.585842133
REMARK CNNaffinity 6.70940542
REMARK  8 active torsions:
REMARK  status: ('A' for Active; 'I' for Inactive)
REMARK    1  A    between atoms: C2_2  and  C30_34 
REMARK    2  A    between atoms: C3_3  and  C4_4 
REMARK    3  A    between atoms: C4_4  and  O1_5 
REMARK    4  A    between atoms: C4_4  and  C5_6 
REMARK    5  A    between atoms: C5_6  and  C6_7 
REMARK    6  A    between atoms: C6_7  and  C8_9 
REMARK    7  A    between atoms: C10_11  and  O2_12 
REMARK    8  A    between atoms: C30_34  and  O6_36 
ROOT
HETATM    1  C8  UNL     1      -1.443   9.571  15.026  1.00  0.00     0.001 C 
HETATM    2  C9  UNL     1      -0.307   8.740  14.362  1.00  0.00     0.038 C 
HETATM    3  C10 UNL     1      -0.973   7.498  13.736  1.00  0.00     0.131 C 
HETATM    4  C11 UNL     1      -2.476   7.874  13.637  1.00  0.00     0.014 C 
HETATM    5  C12 UNL     1      -2.679   8.776  12.377  1.00  0.00     0.023 C 
HETATM    6  C13 UNL     1      -3.527   6.774  13.499  1.00  0.00    -0.058 C 
HETATM    7  C14 UNL     1      -4.807   6.967  13.917  1.00  0.00    -0.000 C 
HETATM    8  C15 UNL     1      -5.145   8.261  14.649  1.00  0.00     0.157 C 
HETATM    9  O3  UNL     1      -6.308   8.530  14.953  1.00  0.00    -0.293 OA
HETATM   10  C16 UNL     1      -4.045   9.250  15.022  1.00  0.00     0.094 C 
HETATM   11  C17 UNL     1      -2.663   8.598  15.022  1.00  0.00    -0.019 C 
HETATM   12  C18 UNL     1      -2.591   7.627  16.237  1.00  0.00     0.017 C 
HETATM   13  C19 UNL     1      -5.939   5.933  13.694  1.00  0.00    -0.008 C 
HETATM   14  C20 UNL     1      -6.234   5.306  15.079  1.00  0.00     0.021 C 
HETATM   15  C21 UNL     1      -7.244   6.604  13.155  1.00  0.00     0.022 C 
HETATM   16  C22 UNL     1      -8.129   5.733  12.267  1.00  0.00     0.080 C 
HETATM   17  C23 UNL     1      -7.948   4.263  12.549  1.00  0.00     0.135 C 
HETATM   18  O4  UNL     1      -8.910   3.549  12.829  1.00  0.00    -0.297 OA
HETATM   19  C24 UNL     1      -6.531   3.706  12.379  1.00  0.00     0.018 C 
HETATM   20  C25 UNL     1      -6.339   2.478  13.290  1.00  0.00     0.023 C 
HETATM   21  C26 UNL     1      -6.425   3.215  10.919  1.00  0.00     0.023 C 
HETATM   22  C27 UNL     1      -5.499   4.861  12.625  1.00  0.00     0.014 C 
HETATM   23  C28 UNL     1      -4.077   4.359  12.894  1.00  0.00     0.011 C 
HETATM   24  C29 UNL     1      -3.077   5.508  12.810  1.00  0.00     0.036 C 
ENDROOT
BRANCH   1  25
HETATM   25  C6  UNL     1      -0.980  10.363  16.286  1.00  0.00    -0.011 C 
HETATM   26  C7  UNL     1      -0.859  11.885  16.142  1.00  0.00     0.010 C 
BRANCH  25  27
HETATM   27  C5  UNL     1       0.315   9.768  16.885  1.00  0.00     0.040 C 
BRANCH  27  28
HETATM   28  C4  UNL     1       1.438  10.781  17.173  1.00  0.00     0.142 C 
BRANCH  28  29
HETATM   29  C3  UNL     1       2.196  10.463  18.425  1.00  0.00     0.018 C 
HETATM   30  C2  UNL     1       1.798  10.619  19.704  1.00  0.00     0.010 C 
HETATM   31  C1  UNL     1       0.485  11.170  20.167  1.00  0.00     0.055 C 
BRANCH  30  32
HETATM   32  C30 UNL     1       2.769  10.197  20.746  1.00  0.00     0.171 C 
HETATM   33  O5  UNL     1       2.511   9.760  21.854  1.00  0.00    -0.646 OA
BRANCH  32  34
HETATM   34  O6  UNL     1       4.044  10.361  20.353  1.00  0.00    -0.773 OA
HETATM   35  H44 UNL     1       4.560  10.038  21.120  1.00  0.00     0.167 HD
ENDBRANCH  32  34
ENDBRANCH  30  32
ENDBRANCH  28  29
BRANCH  28  36
HETATM   36  O1  UNL     1       2.391  10.710  16.114  1.00  0.00    -0.392 OA
HETATM   37  H6  UNL     1       1.929  10.928  15.287  1.00  0.00     0.210 HD
ENDBRANCH  28  36
ENDBRANCH  27  28
ENDBRANCH  25  27
ENDBRANCH   1  25
BRANCH   3  38
HETATM   38  O2  UNL     1      -0.385   7.191  12.481  1.00  0.00    -0.394 OA
HETATM   39  H17 UNL     1       0.570   7.075  12.624  1.00  0.00     0.210 HD
ENDBRANCH   3  38
TORSDOF 8
ENDMDL
MODEL 4
REMARK minimizedAffinity -9.51829052
REMARK CNNscore 0.560098946
REMARK CNNaffinity 6.70413446
REMARK  8 active torsions:
REMARK  status: ('A' for Active; 'I' for Inactive)
REMARK    1  A    between atoms: C2_2  and  C30_34 
REMARK    2  A    between atoms: C3_3  and  C4_4 
REMARK    3  A    between atoms: C4_4  and  O1_5 
REMARK    4  A    between atoms: C4_4  and  C5_6 
REMARK    5  A    between atoms: C5_6  and  C6_7 
REMARK    6  A    between atoms: C6_7  and  C8_9 
REMARK    7  A    between atoms: C10_11  and  O2_12 
REMARK    8  A    between atoms: C30_34  and  O6_36 
ROOT
HETATM    1  C8  UNL     1      -4.431   6.833  14.686  1.00  0.00     0.001 C 
HETATM    2  C9  UNL     1      -4.845   5.519  13.963  1.00  0.00     0.038 C 
HETATM    3  C10 UNL     1      -3.694   5.158  13.003  1.00  0.00     0.131 C 
HETATM    4  C11 UNL     1      -2.482   5.973  13.529  1.00  0.00     0.014 C 
HETATM    5  C12 UNL     1      -1.869   5.216  14.752  1.00  0.00     0.023 C 
HETATM    6  C13 UNL     1      -1.292   6.248  12.610  1.00  0.00    -0.058 C 
HETATM    7  C14 UNL     1      -0.490   7.328  12.802  1.00  0.00    -0.000 C 
HETATM    8  C15 UNL     1      -0.876   8.339  13.876  1.00  0.00     0.157 C 
HETATM    9  O3  UNL     1      -0.129   9.276  14.161  1.00  0.00    -0.293 OA
HETATM   10  C16 UNL     1      -2.200   8.209  14.621  1.00  0.00     0.094 C 
HETATM   11  C17 UNL     1      -3.200   7.332  13.868  1.00  0.00    -0.019 C 
HETATM   12  C18 UNL     1      -3.664   8.113  12.603  1.00  0.00     0.017 C 
HETATM   13  C19 UNL     1       0.795   7.591  11.976  1.00  0.00    -0.008 C 
HETATM   14  C20 UNL     1       0.469   8.772  11.030  1.00  0.00     0.021 C 
HETATM   15  C21 UNL     1       2.002   7.989  12.886  1.00  0.00     0.022 C 
HETATM   16  C22 UNL     1       3.386   7.601  12.373  1.00  0.00     0.080 C 
HETATM   17  C23 UNL     1       3.421   7.473  10.870  1.00  0.00     0.135 C 
HETATM   18  O4  UNL     1       4.236   8.107  10.200  1.00  0.00    -0.297 OA
HETATM   19  C24 UNL     1       2.459   6.455  10.251  1.00  0.00     0.018 C 
HETATM   20  C25 UNL     1       2.109   6.876   8.811  1.00  0.00     0.023 C 
HETATM   21  C26 UNL     1       3.231   5.120  10.164  1.00  0.00     0.023 C 
HETATM   22  C27 UNL     1       1.219   6.288  11.195  1.00  0.00     0.014 C 
HETATM   23  C28 UNL     1       0.015   5.634  10.509  1.00  0.00     0.011 C 
HETATM   24  C29 UNL     1      -1.028   5.216  11.540  1.00  0.00     0.036 C 
ENDROOT
BRANCH   1  25
HETATM   25  C6  UNL     1      -5.638   7.743  15.063  1.00  0.00    -0.011 C 
HETATM   26  C7  UNL     1      -5.314   9.066  15.766  1.00  0.00     0.010 C 
BRANCH  25  27
HETATM   27  C5  UNL     1      -6.715   6.958  15.847  1.00  0.00     0.040 C 
BRANCH  27  28
HETATM   28  C4  UNL     1      -7.951   6.536  15.032  1.00  0.00     0.142 C 
BRANCH  28  29
HETATM   29  C3  UNL     1      -7.765   5.220  14.340  1.00  0.00     0.018 C 
HETATM   30  C2  UNL     1      -8.067   4.897  13.066  1.00  0.00     0.010 C 
HETATM   31  C1  UNL     1      -8.682   5.798  12.041  1.00  0.00     0.055 C 
BRANCH  30  32
HETATM   32  C30 UNL     1      -7.750   3.505  12.653  1.00  0.00     0.171 C 
HETATM   33  O5  UNL     1      -8.406   2.505  12.886  1.00  0.00    -0.646 OA
BRANCH  32  34
HETATM   34  O6  UNL     1      -6.596   3.425  11.970  1.00  0.00    -0.773 OA
HETATM   35  H44 UNL     1      -6.524   2.471  11.760  1.00  0.00     0.167 HD
ENDBRANCH  32  34
ENDBRANCH  30  32
ENDBRANCH  28  29
BRANCH  28  36
HETATM   36  O1  UNL     1      -9.042   6.350  15.931  1.00  0.00    -0.392 OA
HETATM   37  H6  UNL     1      -9.197   7.196  16.385  1.00  0.00     0.210 HD
ENDBRANCH  28  36
ENDBRANCH  27  28
ENDBRANCH  25  27
ENDBRANCH   1  25
BRANCH   3  38
HETATM   38  O2  UNL     1      -3.468   3.757  12.991  1.00  0.00    -0.394 OA
HETATM   39  H17 UNL     1      -4.306   3.325  12.752  1.00  0.00     0.210 HD
ENDBRANCH   3  38
TORSDOF 8
ENDMDL
MODEL 5
REMARK minimizedAffinity -9.45870781
REMARK CNNscore 0.494472533
REMARK CNNaffinity 6.93289423
REMARK  8 active torsions:
REMARK  status: ('A' for Active; 'I' for Inactive)
REMARK    1  A    between atoms: C2_2  and  C30_34 
REMARK    2  A    between atoms: C3_3  and  C4_4 
REMARK    3  A    between atoms: C4_4  and  O1_5 
REMARK    4  A    between atoms: C4_4  and  C5_6 
REMARK    5  A    between atoms: C5_6  and  C6_7 
REMARK    6  A    between atoms: C6_7  and  C8_9 
REMARK    7  A    between atoms: C10_11  and  O2_12 
REMARK    8  A    between atoms: C30_34  and  O6_36 
ROOT
HETATM    1  C8  UNL     1      -6.036   7.194  14.521  1.00  0.00     0.001 C 
HETATM    2  C9  UNL     1      -5.910   8.564  15.247  1.00  0.00     0.038 C 
HETATM    3  C10 UNL     1      -4.439   9.007  15.110  1.00  0.00     0.131 C 
HETATM    4  C11 UNL     1      -3.886   8.152  13.938  1.00  0.00     0.014 C 
HETATM    5  C12 UNL     1      -4.341   8.802  12.592  1.00  0.00     0.023 C 
HETATM    6  C13 UNL     1      -2.378   7.957  13.783  1.00  0.00    -0.058 C 
HETATM    7  C14 UNL     1      -1.871   6.865  13.152  1.00  0.00    -0.000 C 
HETATM    8  C15 UNL     1      -2.833   5.766  12.714  1.00  0.00     0.157 C 
HETATM    9  O3  UNL     1      -2.438   4.809  12.047  1.00  0.00    -0.293 OA
HETATM   10  C16 UNL     1      -4.308   5.830  13.097  1.00  0.00     0.094 C 
HETATM   11  C17 UNL     1      -4.554   6.767  14.279  1.00  0.00    -0.019 C 
HETATM   12  C18 UNL     1      -3.963   6.097  15.553  1.00  0.00     0.017 C 
HETATM   13  C19 UNL     1      -0.360   6.676  12.863  1.00  0.00    -0.008 C 
HETATM   14  C20 UNL     1       0.134   5.579  13.838  1.00  0.00     0.021 C 
HETATM   15  C21 UNL     1      -0.102   6.202  11.396  1.00  0.00     0.022 C 
HETATM   16  C22 UNL     1       1.224   6.635  10.775  1.00  0.00     0.080 C 
HETATM   17  C23 UNL     1       2.284   6.890  11.816  1.00  0.00     0.135 C 
HETATM   18  O4  UNL     1       3.371   6.316  11.766  1.00  0.00    -0.297 OA
HETATM   19  C24 UNL     1       1.963   7.957  12.868  1.00  0.00     0.018 C 
HETATM   20  C25 UNL     1       2.736   7.660  14.167  1.00  0.00     0.023 C 
HETATM   21  C26 UNL     1       2.496   9.295  12.312  1.00  0.00     0.023 C 
HETATM   22  C27 UNL     1       0.407   8.040  13.047  1.00  0.00     0.014 C 
HETATM   23  C28 UNL     1      -0.020   8.749  14.336  1.00  0.00     0.011 C 
HETATM   24  C29 UNL     1      -1.509   9.077  14.301  1.00  0.00     0.036 C 
ENDROOT
BRANCH   1  25
HETATM   25  C6  UNL     1      -7.108   6.253  15.148  1.00  0.00    -0.011 C 
HETATM   26  C7  UNL     1      -7.109   6.124  16.676  1.00  0.00     0.010 C 
BRANCH  25  27
HETATM   27  C5  UNL     1      -7.094   4.856  14.484  1.00  0.00     0.040 C 
BRANCH  27  28
HETATM   28  C4  UNL     1      -7.545   4.819  13.012  1.00  0.00     0.142 C 
BRANCH  28  29
HETATM   29  C3  UNL     1      -6.643   3.988  12.152  1.00  0.00     0.018 C 
HETATM   30  C2  UNL     1      -6.552   2.644  12.091  1.00  0.00     0.010 C 
HETATM   31  C1  UNL     1      -7.341   1.661  12.900  1.00  0.00     0.055 C 
BRANCH  30  32
HETATM   32  C30 UNL     1      -5.568   2.099  11.120  1.00  0.00     0.171 C 
HETATM   33  O5  UNL     1      -4.835   1.139  11.281  1.00  0.00    -0.646 OA
BRANCH  32  34
HETATM   34  O6  UNL     1      -5.534   2.805   9.978  1.00  0.00    -0.773 OA
HETATM   35  H44 UNL     1      -4.864   2.334   9.441  1.00  0.00     0.167 HD
ENDBRANCH  32  34
ENDBRANCH  30  32
ENDBRANCH  28  29
BRANCH  28  36
HETATM   36  O1  UNL     1      -8.825   4.193  12.949  1.00  0.00    -0.392 OA
HETATM   37  H6  UNL     1      -9.438   4.723  13.488  1.00  0.00     0.210 HD
ENDBRANCH  28  36
ENDBRANCH  27  28
ENDBRANCH  25  27
ENDBRANCH   1  25
BRANCH   3  38
HETATM   38  O2  UNL     1      -4.354  10.404  14.876  1.00  0.00    -0.394 OA
HETATM   39  H17 UNL     1      -4.816  10.854  15.605  1.00  0.00     0.210 HD
ENDBRANCH   3  38
TORSDOF 8
ENDMDL
MODEL 6
REMARK minimizedAffinity -7.94398689
REMARK CNNscore 0.462662727
REMARK CNNaffinity 6.47379494
REMARK  8 active torsions:
REMARK  status: ('A' for Active; 'I' for Inactive)
REMARK    1  A    between atoms: C2_2  and  C30_34 
REMARK    2  A    between atoms: C3_3  and  C4_4 
REMARK    3  A    between atoms: C4_4  and  O1_5 
REMARK    4  A    between atoms: C4_4  and  C5_6 
REMARK    5  A    between atoms: C5_6  and  C6_7 
REMARK    6  A    between atoms: C6_7  and  C8_9 
REMARK    7  A    between atoms: C10_11  and  O2_12 
REMARK    8  A    between atoms: C30_34  and  O6_36 
ROOT
HETATM    1  C8  UNL     1      -0.889   7.777  13.919  1.00  0.00     0.001 C 
HETATM    2  C9  UNL     1      -1.329   6.779  15.029  1.00  0.00     0.038 C 
HETATM    3  C10 UNL     1      -2.024   7.610  16.125  1.00  0.00     0.131 C 
HETATM    4  C11 UNL     1      -2.386   8.948  15.425  1.00  0.00     0.014 C 
HETATM    5  C12 UNL     1      -3.687   8.731  14.586  1.00  0.00     0.023 C 
HETATM    6  C13 UNL     1      -2.670  10.193  16.264  1.00  0.00    -0.058 C 
HETATM    7  C14 UNL     1      -2.480  11.440  15.757  1.00  0.00    -0.000 C 
HETATM    8  C15 UNL     1      -1.851  11.576  14.375  1.00  0.00     0.157 C 
HETATM    9  O3  UNL     1      -1.756  12.676  13.829  1.00  0.00    -0.293 OA
HETATM   10  C16 UNL     1      -1.325  10.348  13.640  1.00  0.00     0.094 C 
HETATM   11  C17 UNL     1      -1.073   9.176  14.588  1.00  0.00    -0.019 C 
HETATM   12  C18 UNL     1       0.163   9.527  15.467  1.00  0.00     0.017 C 
HETATM   13  C19 UNL     1      -2.863  12.735  16.519  1.00  0.00    -0.008 C 
HETATM   14  C20 UNL     1      -1.531  13.383  16.970  1.00  0.00     0.021 C 
HETATM   15  C21 UNL     1      -3.633  13.743  15.606  1.00  0.00     0.022 C 
HETATM   16  C22 UNL     1      -4.634  14.656  16.309  1.00  0.00     0.080 C 
HETATM   17  C23 UNL     1      -4.285  14.873  17.760  1.00  0.00     0.135 C 
HETATM   18  O4  UNL     1      -4.153  16.008  18.216  1.00  0.00    -0.297 OA
HETATM   19  C24 UNL     1      -4.198  13.618  18.635  1.00  0.00     0.018 C 
HETATM   20  C25 UNL     1      -3.234  13.867  19.811  1.00  0.00     0.023 C 
HETATM   21  C26 UNL     1      -5.605  13.401  19.232  1.00  0.00     0.023 C 
HETATM   22  C27 UNL     1      -3.813  12.396  17.731  1.00  0.00     0.014 C 
HETATM   23  C28 UNL     1      -3.293  11.192  18.524  1.00  0.00     0.011 C 
HETATM   24  C29 UNL     1      -3.238   9.950  17.641  1.00  0.00     0.036 C 
ENDROOT
BRANCH   1  25
HETATM   25  C6  UNL     1       0.408   7.347  13.172  1.00  0.00    -0.011 C 
HETATM   26  C7  UNL     1       1.680   7.208  14.016  1.00  0.00     0.010 C 
BRANCH  25  27
HETATM   27  C5  UNL     1       0.670   8.236  11.934  1.00  0.00     0.040 C 
BRANCH  27  28
HETATM   28  C4  UNL     1      -0.076   7.823  10.652  1.00  0.00     0.142 C 
BRANCH  28  29
HETATM   29  C3  UNL     1       0.706   8.116   9.408  1.00  0.00     0.018 C 
HETATM   30  C2  UNL     1       1.829   7.515   8.967  1.00  0.00     0.010 C 
HETATM   31  C1  UNL     1       2.570   6.405   9.647  1.00  0.00     0.055 C 
BRANCH  30  32
HETATM   32  C30 UNL     1       2.373   8.014   7.678  1.00  0.00     0.171 C 
HETATM   33  O5  UNL     1       3.121   8.962   7.517  1.00  0.00    -0.646 OA
BRANCH  32  34
HETATM   34  O6  UNL     1       1.934   7.300   6.628  1.00  0.00    -0.773 OA
HETATM   35  H44 UNL     1       2.373   7.727   5.864  1.00  0.00     0.167 HD
ENDBRANCH  32  34
ENDBRANCH  30  32
ENDBRANCH  28  29
BRANCH  28  36
HETATM   36  O1  UNL     1      -0.258   6.409  10.672  1.00  0.00    -0.392 OA
HETATM   37  H6  UNL     1      -0.778   6.191  11.464  1.00  0.00     0.210 HD
ENDBRANCH  28  36
ENDBRANCH  27  28
ENDBRANCH  25  27
ENDBRANCH   1  25
BRANCH   3  38
HETATM   38  O2  UNL     1      -3.153   6.921  16.640  1.00  0.00    -0.394 OA
HETATM   39  H17 UNL     1      -2.848   6.054  16.962  1.00  0.00     0.210 HD
ENDBRANCH   3  38
TORSDOF 8
ENDMDL
MODEL 7
REMARK minimizedAffinity -9.06842518
REMARK CNNscore 0.456183881
REMARK CNNaffinity 6.68347597
REMARK  8 active torsions:
REMARK  status: ('A' for Active; 'I' for Inactive)
REMARK    1  A    between atoms: C2_2  and  C30_34 
REMARK    2  A    between atoms: C3_3  and  C4_4 
REMARK    3  A    between atoms: C4_4  and  O1_5 
REMARK    4  A    between atoms: C4_4  and  C5_6 
REMARK    5  A    between atoms: C5_6  and  C6_7 
REMARK    6  A    between atoms: C6_7  and  C8_9 
REMARK    7  A    between atoms: C10_11  and  O2_12 
REMARK    8  A    between atoms: C30_34  and  O6_36 
ROOT
HETATM    1  C8  UNL     1      -5.112   6.489  14.717  1.00  0.00     0.001 C 
HETATM    2  C9  UNL     1      -5.433   5.241  13.845  1.00  0.00     0.038 C 
HETATM    3  C10 UNL     1      -4.213   5.010  12.932  1.00  0.00     0.131 C 
HETATM    4  C11 UNL     1      -3.065   5.804  13.612  1.00  0.00     0.014 C 
HETATM    5  C12 UNL     1      -2.504   4.948  14.794  1.00  0.00     0.023 C 
HETATM    6  C13 UNL     1      -1.832   6.202  12.803  1.00  0.00    -0.058 C 
HETATM    7  C14 UNL     1      -1.081   7.281  13.151  1.00  0.00    -0.000 C 
HETATM    8  C15 UNL     1      -1.568   8.170  14.290  1.00  0.00     0.157 C 
HETATM    9  O3  UNL     1      -0.874   9.095  14.712  1.00  0.00    -0.293 OA
HETATM   10  C16 UNL     1      -2.931   7.929  14.931  1.00  0.00     0.094 C 
HETATM   11  C17 UNL     1      -3.850   7.102  14.033  1.00  0.00    -0.019 C 
HETATM   12  C18 UNL     1      -4.262   7.990  12.822  1.00  0.00     0.017 C 
HETATM   13  C19 UNL     1       0.242   7.661  12.439  1.00  0.00    -0.008 C 
HETATM   14  C20 UNL     1      -0.065   8.920  11.592  1.00  0.00     0.021 C 
HETATM   15  C21 UNL     1       1.376   8.002  13.460  1.00  0.00     0.022 C 
HETATM   16  C22 UNL     1       2.802   7.707  13.003  1.00  0.00     0.080 C 
HETATM   17  C23 UNL     1       2.935   7.728  11.501  1.00  0.00     0.135 C 
HETATM   18  O4  UNL     1       3.767   8.449  10.950  1.00  0.00    -0.297 OA
HETATM   19  C24 UNL     1       2.050   6.749  10.725  1.00  0.00     0.018 C 
HETATM   20  C25 UNL     1       1.775   7.299   9.312  1.00  0.00     0.023 C 
HETATM   21  C26 UNL     1       2.871   5.452  10.560  1.00  0.00     0.023 C 
HETATM   22  C27 UNL     1       0.760   6.454  11.566  1.00  0.00     0.014 C 
HETATM   23  C28 UNL     1      -0.375   5.837  10.744  1.00  0.00     0.011 C 
HETATM   24  C29 UNL     1      -1.465   5.288  11.659  1.00  0.00     0.036 C 
ENDROOT
BRANCH   1  25
HETATM   25  C6  UNL     1      -6.371   7.323  15.100  1.00  0.00    -0.011 C 
HETATM   26  C7  UNL     1      -6.194   8.843  15.193  1.00  0.00     0.010 C 
BRANCH  25  27
HETATM   27  C5  UNL     1      -7.045   6.774  16.380  1.00  0.00     0.040 C 
BRANCH  27  28
HETATM   28  C4  UNL     1      -8.401   6.076  16.167  1.00  0.00     0.142 C 
BRANCH  28  29
HETATM   29  C3  UNL     1      -9.403   6.955  15.482  1.00  0.00     0.018 C 
HETATM   30  C2  UNL     1      -9.754   6.965  14.181  1.00  0.00     0.010 C 
HETATM   31  C1  UNL     1      -9.199   6.086  13.102  1.00  0.00     0.055 C 
BRANCH  30  32
HETATM   32  C30 UNL     1     -10.799   7.948  13.794  1.00  0.00     0.171 C 
HETATM   33  O5  UNL     1     -10.756   9.157  13.938  1.00  0.00    -0.646 OA
BRANCH  32  34
HETATM   34  O6  UNL     1     -11.878   7.359  13.250  1.00  0.00    -0.773 OA
HETATM   35  H44 UNL     1     -12.465   8.114  13.040  1.00  0.00     0.167 HD
ENDBRANCH  32  34
ENDBRANCH  30  32
ENDBRANCH  28  29
BRANCH  28  36
HETATM   36  O1  UNL     1      -8.203   4.963  15.297  1.00  0.00    -0.392 OA
HETATM   37  H6  UNL     1      -7.567   4.365  15.724  1.00  0.00     0.210 HD
ENDBRANCH  28  36
ENDBRANCH  27  28
ENDBRANCH  25  27
ENDBRANCH   1  25
BRANCH   3  38
HETATM   38  O2  UNL     1      -3.938   3.624  12.800  1.00  0.00    -0.394 OA
HETATM   39  H17 UNL     1      -4.744   3.194  12.467  1.00  0.00     0.210 HD
ENDBRANCH   3  38
TORSDOF 8
ENDMDL
MODEL 8
REMARK minimizedAffinity -7.88197756
REMARK CNNscore 0.444522023
REMARK CNNaffinity 6.55595779
REMARK  8 active torsions:
REMARK  status: ('A' for Active; 'I' for Inactive)
REMARK    1  A    between atoms: C2_2  and  C30_34 
REMARK    2  A    between atoms: C3_3  and  C4_4 
REMARK    3  A    between atoms: C4_4  and  O1_5 
REMARK    4  A    between atoms: C4_4  and  C5_6 
REMARK    5  A    between atoms: C5_6  and  C6_7 
REMARK    6  A    between atoms: C6_7  and  C8_9 
REMARK    7  A    between atoms: C10_11  and  O2_12 
REMARK    8  A    between atoms: C30_34  and  O6_36 
ROOT
HETATM    1  C8  UNL     1      -1.672   9.775  15.039  1.00  0.00     0.001 C 
HETATM    2  C9  UNL     1      -0.492   8.961  14.435  1.00  0.00     0.038 C 
HETATM    3  C10 UNL     1      -1.099   7.681  13.827  1.00  0.00     0.131 C 
HETATM    4  C11 UNL     1      -2.609   8.006  13.671  1.00  0.00     0.014 C 
HETATM    5  C12 UNL     1      -2.800   8.864  12.378  1.00  0.00     0.023 C 
HETATM    6  C13 UNL     1      -3.623   6.870  13.534  1.00  0.00    -0.058 C 
HETATM    7  C14 UNL     1      -4.919   7.036  13.907  1.00  0.00    -0.000 C 
HETATM    8  C15 UNL     1      -5.320   8.340  14.589  1.00  0.00     0.157 C 
HETATM    9  O3  UNL     1      -6.499   8.581  14.849  1.00  0.00    -0.293 OA
HETATM   10  C16 UNL     1      -4.263   9.372  14.965  1.00  0.00     0.094 C 
HETATM   11  C17 UNL     1      -2.861   8.764  15.027  1.00  0.00    -0.019 C 
HETATM   12  C18 UNL     1      -2.799   7.832  16.273  1.00  0.00     0.017 C 
HETATM   13  C19 UNL     1      -6.013   5.961  13.681  1.00  0.00    -0.008 C 
HETATM   14  C20 UNL     1      -6.331   5.366  15.074  1.00  0.00     0.021 C 
HETATM   15  C21 UNL     1      -7.319   6.575  13.082  1.00  0.00     0.022 C 
HETATM   16  C22 UNL     1      -8.150   5.652  12.194  1.00  0.00     0.080 C 
HETATM   17  C23 UNL     1      -7.933   4.196  12.526  1.00  0.00     0.135 C 
HETATM   18  O4  UNL     1      -8.881   3.462  12.798  1.00  0.00    -0.297 OA
HETATM   19  C24 UNL     1      -6.495   3.680  12.416  1.00  0.00     0.018 C 
HETATM   20  C25 UNL     1      -6.294   2.485  13.369  1.00  0.00     0.023 C 
HETATM   21  C26 UNL     1      -6.329   3.150  10.975  1.00  0.00     0.023 C 
HETATM   22  C27 UNL     1      -5.507   4.873  12.658  1.00  0.00     0.014 C 
HETATM   23  C28 UNL     1      -4.079   4.424  12.985  1.00  0.00     0.011 C 
HETATM   24  C29 UNL     1      -3.113   5.600  12.897  1.00  0.00     0.036 C 
ENDROOT
BRANCH   1  25
HETATM   25  C6  UNL     1      -1.274  10.617  16.288  1.00  0.00    -0.011 C 
HETATM   26  C7  UNL     1       0.187  11.074  16.378  1.00  0.00     0.010 C 
BRANCH  25  27
HETATM   27  C5  UNL     1      -1.710   9.925  17.600  1.00  0.00     0.040 C 
BRANCH  27  28
HETATM   28  C4  UNL     1      -2.648  10.748  18.502  1.00  0.00     0.142 C 
BRANCH  28  29
HETATM   29  C3  UNL     1      -3.462  11.745  17.735  1.00  0.00     0.018 C 
HETATM   30  C2  UNL     1      -4.267  12.713  18.216  1.00  0.00     0.010 C 
HETATM   31  C1  UNL     1      -4.544  13.006  19.659  1.00  0.00     0.055 C 
BRANCH  30  32
HETATM   32  C30 UNL     1      -4.937  13.569  17.203  1.00  0.00     0.171 C 
HETATM   33  O5  UNL     1      -5.640  13.196  16.280  1.00  0.00    -0.646 OA
BRANCH  32  34
HETATM   34  O6  UNL     1      -4.676  14.874  17.384  1.00  0.00    -0.773 OA
HETATM   35  H44 UNL     1      -5.182  15.307  16.665  1.00  0.00     0.167 HD
ENDBRANCH  32  34
ENDBRANCH  30  32
ENDBRANCH  28  29
BRANCH  28  36
HETATM   36  O1  UNL     1      -3.589   9.860  19.103  1.00  0.00    -0.392 OA
HETATM   37  H6  UNL     1      -3.088   9.209  19.623  1.00  0.00     0.210 HD
ENDBRANCH  28  36
ENDBRANCH  27  28
ENDBRANCH  25  27
ENDBRANCH   1  25
BRANCH   3  38
HETATM   38  O2  UNL     1      -0.464   7.356  12.600  1.00  0.00    -0.394 OA
HETATM   39  H17 UNL     1       0.490   7.273  12.775  1.00  0.00     0.210 HD
ENDBRANCH   3  38
TORSDOF 8
ENDMDL
MODEL 9
REMARK minimizedAffinity -7.95043755
REMARK CNNscore 0.440807372
REMARK CNNaffinity 6.48541498
REMARK  8 active torsions:
REMARK  status: ('A' for Active; 'I' for Inactive)
REMARK    1  A    between atoms: C2_2  and  C30_34 
REMARK    2  A    between atoms: C3_3  and  C4_4 
REMARK    3  A    between atoms: C4_4  and  O1_5 
REMARK    4  A    between atoms: C4_4  and  C5_6 
REMARK    5  A    between atoms: C5_6  and  C6_7 
REMARK    6  A    between atoms: C6_7  and  C8_9 
REMARK    7  A    between atoms: C10_11  and  O2_12 
REMARK    8  A    between atoms: C30_34  and  O6_36 
ROOT
HETATM    1  C8  UNL     1       0.235   7.093  12.942  1.00  0.00     0.001 C 
HETATM    2  C9  UNL     1       1.611   7.817  12.899  1.00  0.00     0.038 C 
HETATM    3  C10 UNL     1       1.488   9.062  13.800  1.00  0.00     0.131 C 
HETATM    4  C11 UNL     1       0.249   8.773  14.690  1.00  0.00     0.014 C 
HETATM    5  C12 UNL     1       0.683   7.819  15.850  1.00  0.00     0.023 C 
HETATM    6  C13 UNL     1      -0.473   9.925  15.387  1.00  0.00    -0.058 C 
HETATM    7  C14 UNL     1      -1.787   9.832  15.723  1.00  0.00    -0.000 C 
HETATM    8  C15 UNL     1      -2.568   8.601  15.272  1.00  0.00     0.157 C 
HETATM    9  O3  UNL     1      -3.729   8.419  15.641  1.00  0.00    -0.293 OA
HETATM   10  C16 UNL     1      -1.923   7.570  14.353  1.00  0.00     0.094 C 
HETATM   11  C17 UNL     1      -0.710   8.136  13.615  1.00  0.00    -0.019 C 
HETATM   12  C18 UNL     1      -1.225   9.164  12.566  1.00  0.00     0.017 C 
HETATM   13  C19 UNL     1      -2.537  10.919  16.534  1.00  0.00    -0.008 C 
HETATM   14  C20 UNL     1      -3.478  11.635  15.535  1.00  0.00     0.021 C 
HETATM   15  C21 UNL     1      -3.396  10.300  17.684  1.00  0.00     0.022 C 
HETATM   16  C22 UNL     1      -3.594  11.174  18.920  1.00  0.00     0.080 C 
HETATM   17  C23 UNL     1      -3.476  12.644  18.603  1.00  0.00     0.135 C 
HETATM   18  O4  UNL     1      -4.378  13.428  18.895  1.00  0.00    -0.297 OA
HETATM   19  C24 UNL     1      -2.151  13.104  17.988  1.00  0.00     0.018 C 
HETATM   20  C25 UNL     1      -2.381  14.365  17.133  1.00  0.00     0.023 C 
HETATM   21  C26 UNL     1      -1.239  13.509  19.167  1.00  0.00     0.023 C 
HETATM   22  C27 UNL     1      -1.508  11.904  17.210  1.00  0.00     0.014 C 
HETATM   23  C28 UNL     1      -0.418  12.333  16.223  1.00  0.00     0.011 C 
HETATM   24  C29 UNL     1       0.375  11.123  15.740  1.00  0.00     0.036 C 
ENDROOT
BRANCH   1  25
HETATM   25  C6  UNL     1      -0.116   6.343  11.622  1.00  0.00    -0.011 C 
HETATM   26  C7  UNL     1      -0.279   4.821  11.712  1.00  0.00     0.010 C 
BRANCH  25  27
HETATM   27  C5  UNL     1       0.858   6.719  10.481  1.00  0.00     0.040 C 
BRANCH  27  28
HETATM   28  C4  UNL     1       1.927   5.662  10.146  1.00  0.00     0.142 C 
BRANCH  28  29
HETATM   29  C3  UNL     1       3.279   6.017  10.683  1.00  0.00     0.018 C 
HETATM   30  C2  UNL     1       4.075   7.047  10.329  1.00  0.00     0.010 C 
HETATM   31  C1  UNL     1       3.781   8.080   9.285  1.00  0.00     0.055 C 
BRANCH  30  32
HETATM   32  C30 UNL     1       5.366   7.154  11.055  1.00  0.00     0.171 C 
HETATM   33  O5  UNL     1       6.306   7.877  10.775  1.00  0.00    -0.646 OA
BRANCH  32  34
HETATM   34  O6  UNL     1       5.430   6.323  12.109  1.00  0.00    -0.773 OA
HETATM   35  H44 UNL     1       6.314   6.507  12.489  1.00  0.00     0.167 HD
ENDBRANCH  32  34
ENDBRANCH  30  32
ENDBRANCH  28  29
BRANCH  28  36
HETATM   36  O1  UNL     1       1.565   4.439  10.784  1.00  0.00    -0.392 OA
HETATM   37  H6  UNL     1       0.694   4.175  10.441  1.00  0.00     0.210 HD
ENDBRANCH  28  36
ENDBRANCH  27  28
ENDBRANCH  25  27
ENDBRANCH   1  25
BRANCH   3  38
HETATM   38  O2  UNL     1       2.679   9.266  14.544  1.00  0.00    -0.394 OA
HETATM   39  H17 UNL     1       3.415   9.332  13.910  1.00  0.00     0.210 HD
ENDBRANCH   3  38
TORSDOF 8
ENDMDL
