MODEL 1
REMARK minimizedAffinity -7.37024307
REMARK CNNscore 0.802739561
REMARK CNNaffinity 6.80337906
REMARK  5 active torsions:
REMARK  status: ('A' for Active; 'I' for Inactive)
REMARK    1  A    between atoms: C2_2  and  C4_4 
REMARK    2  A    between atoms: C7_7  and  C8_8 
REMARK    3  A    between atoms: C8_8  and  O2_10 
REMARK    4  A    between atoms: C11_13  and  C12_14 
REMARK    5  A    between atoms: C12_14  and  O4_16 
ROOT
HETATM    1  C4  UNL     1       2.857  56.181  -8.840  1.00  0.00     0.019 C 
HETATM    2  C5  UNL     1       3.436  56.016  -7.433  1.00  0.00     0.011 C 
HETATM    3  C6  UNL     1       2.336  56.592  -6.553  1.00  0.00     0.021 C 
HETATM    4  C7  UNL     1       1.019  56.039  -7.150  1.00  0.00     0.050 C 
HETATM    5  C9  UNL     1       0.647  54.731  -6.434  1.00  0.00     0.022 C 
HETATM    6  C10 UNL     1      -0.363  53.872  -7.191  1.00  0.00     0.023 C 
HETATM    7  C11 UNL     1       0.055  53.514  -8.637  1.00  0.00     0.057 C 
HETATM    8  C13 UNL     1       0.493  54.800  -9.419  1.00  0.00     0.011 C 
HETATM    9  C14 UNL     1       0.939  54.461 -10.848  1.00  0.00     0.007 C 
HETATM   10  C15 UNL     1      -0.111  53.678 -11.649  1.00  0.00     0.006 C 
HETATM   11  C16 UNL     1      -0.647  52.433 -10.904  1.00  0.00     0.003 C 
HETATM   12  C17 UNL     1      -1.576  51.472 -11.770  1.00  0.00    -0.035 C 
HETATM   13  C18 UNL     1      -2.817  52.211 -12.321  1.00  0.00     0.016 C 
HETATM   14  C19 UNL     1      -0.752  50.953 -12.989  1.00  0.00     0.017 C 
HETATM   15  C20 UNL     1      -1.418  49.829 -13.770  1.00  0.00     0.080 C 
HETATM   16  C21 UNL     1      -1.812  48.680 -12.875  1.00  0.00     0.135 C 
HETATM   17  O5  UNL     1      -1.582  47.523 -13.234  1.00  0.00    -0.297 OA
HETATM   18  C22 UNL     1      -2.597  49.006 -11.593  1.00  0.00     0.017 C 
HETATM   19  C23 UNL     1      -4.072  49.215 -11.967  1.00  0.00     0.023 C 
HETATM   20  C24 UNL     1      -2.533  47.755 -10.679  1.00  0.00     0.023 C 
HETATM   21  C25 UNL     1      -1.917  50.222 -10.873  1.00  0.00     0.009 C 
HETATM   22  C26 UNL     1      -2.620  50.648  -9.570  1.00  0.00     0.007 C 
HETATM   23  C27 UNL     1      -1.740  51.568  -8.719  1.00  0.00     0.011 C 
HETATM   24  C28 UNL     1      -1.181  52.818  -9.464  1.00  0.00    -0.022 C 
HETATM   25  C29 UNL     1      -2.399  53.796  -9.570  1.00  0.00     0.017 C 
HETATM   26  C30 UNL     1       1.321  55.904  -8.685  1.00  0.00     0.018 C 
ENDROOT
BRANCH   4  27
HETATM   27  C8  UNL     1      -0.127  57.027  -6.922  1.00  0.00     0.149 C 
HETATM   28  O1  UNL     1      -0.786  57.584  -7.785  1.00  0.00    -0.649 OA
BRANCH  27  29
HETATM   29  O2  UNL     1      -0.439  57.206  -5.624  1.00  0.00    -0.776 OA
HETATM   30  H11 UNL     1      -1.198  57.825  -5.645  1.00  0.00     0.167 HD
ENDBRANCH  27  29
ENDBRANCH   4  27
BRANCH   1  31
HETATM   31  C2  UNL     1       3.699  55.686  -9.999  1.00  0.00    -0.088 C 
HETATM   32  C1  UNL     1       3.686  56.345 -11.173  1.00  0.00     0.014 C 
HETATM   33  C3  UNL     1       4.649  54.536  -9.813  1.00  0.00     0.043 C 
ENDBRANCH   1  31
BRANCH   7  34
HETATM   34  C12 UNL     1       1.236  52.516  -8.512  1.00  0.00     0.149 C 
HETATM   35  O3  UNL     1       2.221  52.410  -9.224  1.00  0.00    -0.649 OA
BRANCH  34  36
HETATM   36  O4  UNL     1       1.107  51.635  -7.510  1.00  0.00    -0.776 OA
HETATM   37  H16 UNL     1       1.906  51.073  -7.602  1.00  0.00     0.167 HD
ENDBRANCH  34  36
ENDBRANCH   7  34
TORSDOF 5
ENDMDL
MODEL 2
REMARK minimizedAffinity -7.29741859
REMARK CNNscore 0.733728588
REMARK CNNaffinity 6.62828398
REMARK  5 active torsions:
REMARK  status: ('A' for Active; 'I' for Inactive)
REMARK    1  A    between atoms: C2_2  and  C4_4 
REMARK    2  A    between atoms: C7_7  and  C8_8 
REMARK    3  A    between atoms: C8_8  and  O2_10 
REMARK    4  A    between atoms: C11_13  and  C12_14 
REMARK    5  A    between atoms: C12_14  and  O4_16 
ROOT
HETATM    1  C4  UNL     1      -2.445  52.582 -11.556  1.00  0.00     0.019 C 
HETATM    2  C5  UNL     1      -2.988  51.216 -11.131  1.00  0.00     0.011 C 
HETATM    3  C6  UNL     1      -2.299  50.269 -12.105  1.00  0.00     0.021 C 
HETATM    4  C7  UNL     1      -0.837  50.771 -12.179  1.00  0.00     0.050 C 
HETATM    5  C9  UNL     1       0.012  50.019 -11.141  1.00  0.00     0.022 C 
HETATM    6  C10 UNL     1       1.339  50.698 -10.810  1.00  0.00     0.023 C 
HETATM    7  C11 UNL     1       1.209  52.166 -10.337  1.00  0.00     0.057 C 
HETATM    8  C13 UNL     1       0.315  52.988 -11.328  1.00  0.00     0.011 C 
HETATM    9  C14 UNL     1       0.150  54.440 -10.860  1.00  0.00     0.007 C 
HETATM   10  C15 UNL     1       1.483  55.162 -10.616  1.00  0.00     0.006 C 
HETATM   11  C16 UNL     1       2.450  54.370  -9.704  1.00  0.00     0.003 C 
HETATM   12  C17 UNL     1       3.754  55.163  -9.249  1.00  0.00    -0.035 C 
HETATM   13  C18 UNL     1       4.594  55.636 -10.458  1.00  0.00     0.016 C 
HETATM   14  C19 UNL     1       3.312  56.429  -8.452  1.00  0.00     0.017 C 
HETATM   15  C20 UNL     1       4.444  57.152  -7.736  1.00  0.00     0.080 C 
HETATM   16  C21 UNL     1       5.232  56.222  -6.849  1.00  0.00     0.135 C 
HETATM   17  O5  UNL     1       5.542  56.584  -5.712  1.00  0.00    -0.297 OA
HETATM   18  C22 UNL     1       5.718  54.894  -7.453  1.00  0.00     0.017 C 
HETATM   19  C23 UNL     1       6.983  55.170  -8.279  1.00  0.00     0.023 C 
HETATM   20  C24 UNL     1       6.135  53.974  -6.276  1.00  0.00     0.023 C 
HETATM   21  C25 UNL     1       4.538  54.233  -8.247  1.00  0.00     0.009 C 
HETATM   22  C26 UNL     1       4.906  52.890  -8.907  1.00  0.00     0.007 C 
HETATM   23  C27 UNL     1       3.663  52.108  -9.346  1.00  0.00     0.011 C 
HETATM   24  C28 UNL     1       2.674  52.901 -10.251  1.00  0.00    -0.022 C 
HETATM   25  C29 UNL     1       3.361  52.935 -11.658  1.00  0.00     0.017 C 
HETATM   26  C30 UNL     1      -0.952  52.321 -11.958  1.00  0.00     0.018 C 
ENDROOT
BRANCH   4  27
HETATM   27  C8  UNL     1      -0.240  50.476 -13.556  1.00  0.00     0.149 C 
HETATM   28  O1  UNL     1       0.437  49.508 -13.861  1.00  0.00    -0.649 OA
BRANCH  27  29
HETATM   29  O2  UNL     1      -0.588  51.372 -14.501  1.00  0.00    -0.776 OA
HETATM   30  H11 UNL     1      -0.165  51.033 -15.317  1.00  0.00     0.167 HD
ENDBRANCH  27  29
ENDBRANCH   4  27
BRANCH   1  31
HETATM   31  C2  UNL     1      -2.918  53.790 -10.771  1.00  0.00    -0.088 C 
HETATM   32  C1  UNL     1      -2.109  54.855 -10.619  1.00  0.00     0.014 C 
HETATM   33  C3  UNL     1      -4.331  53.863 -10.265  1.00  0.00     0.043 C 
ENDBRANCH   1  31
BRANCH   7  34
HETATM   34  C12 UNL     1       0.562  52.110  -8.928  1.00  0.00     0.149 C 
HETATM   35  O3  UNL     1       1.064  51.754  -7.874  1.00  0.00    -0.649 OA
BRANCH  34  36
HETATM   36  O4  UNL     1      -0.732  52.459  -8.903  1.00  0.00    -0.776 OA
HETATM   37  H16 UNL     1      -0.980  52.333  -7.963  1.00  0.00     0.167 HD
ENDBRANCH  34  36
ENDBRANCH   7  34
TORSDOF 5
ENDMDL
MODEL 3
REMARK minimizedAffinity -7.25339985
REMARK CNNscore 0.521488607
REMARK CNNaffinity 6.282022
REMARK  5 active torsions:
REMARK  status: ('A' for Active; 'I' for Inactive)
REMARK    1  A    between atoms: C2_2  and  C4_4 
REMARK    2  A    between atoms: C7_7  and  C8_8 
REMARK    3  A    between atoms: C8_8  and  O2_10 
REMARK    4  A    between atoms: C11_13  and  C12_14 
REMARK    5  A    between atoms: C12_14  and  O4_16 
ROOT
HETATM    1  C4  UNL     1      -1.628  52.127 -11.811  1.00  0.00     0.019 C 
HETATM    2  C5  UNL     1      -1.608  50.597 -11.830  1.00  0.00     0.011 C 
HETATM    3  C6  UNL     1      -0.587  50.293 -12.917  1.00  0.00     0.021 C 
HETATM    4  C7  UNL     1       0.568  51.292 -12.667  1.00  0.00     0.050 C 
HETATM    5  C9  UNL     1       1.620  50.636 -11.758  1.00  0.00     0.022 C 
HETATM    6  C10 UNL     1       2.573  51.626 -11.092  1.00  0.00     0.023 C 
HETATM    7  C11 UNL     1       1.875  52.740 -10.275  1.00  0.00     0.057 C 
HETATM    8  C13 UNL     1       0.753  53.428 -11.128  1.00  0.00     0.011 C 
HETATM    9  C14 UNL     1       0.029  54.516 -10.324  1.00  0.00     0.007 C 
HETATM   10  C15 UNL     1       0.973  55.571  -9.730  1.00  0.00     0.006 C 
HETATM   11  C16 UNL     1       2.152  54.960  -8.937  1.00  0.00     0.003 C 
HETATM   12  C17 UNL     1       3.038  56.006  -8.125  1.00  0.00    -0.035 C 
HETATM   13  C18 UNL     1       3.654  57.082  -9.050  1.00  0.00     0.016 C 
HETATM   14  C19 UNL     1       2.123  56.734  -7.092  1.00  0.00     0.017 C 
HETATM   15  C20 UNL     1       2.871  57.580  -6.071  1.00  0.00     0.080 C 
HETATM   16  C21 UNL     1       3.939  56.788  -5.360  1.00  0.00     0.135 C 
HETATM   17  O5  UNL     1       4.062  56.892  -4.138  1.00  0.00    -0.297 OA
HETATM   18  C22 UNL     1       4.914  55.965  -6.219  1.00  0.00     0.017 C 
HETATM   19  C23 UNL     1       5.991  56.911  -6.773  1.00  0.00     0.023 C 
HETATM   20  C24 UNL     1       5.631  54.963  -5.278  1.00  0.00     0.023 C 
HETATM   21  C25 UNL     1       4.099  55.180  -7.305  1.00  0.00     0.009 C 
HETATM   22  C26 UNL     1       4.972  54.317  -8.237  1.00  0.00     0.007 C 
HETATM   23  C27 UNL     1       4.139  53.299  -9.022  1.00  0.00     0.011 C 
HETATM   24  C28 UNL     1       2.939  53.901  -9.812  1.00  0.00    -0.022 C 
HETATM   25  C29 UNL     1       3.588  54.589 -11.060  1.00  0.00     0.017 C 
HETATM   26  C30 UNL     1      -0.143  52.558 -12.068  1.00  0.00     0.018 C 
ENDROOT
BRANCH   4  27
HETATM   27  C8  UNL     1       1.261  51.649 -13.983  1.00  0.00     0.149 C 
HETATM   28  O1  UNL     1       2.100  50.980 -14.565  1.00  0.00    -0.649 OA
BRANCH  27  29
HETATM   29  O2  UNL     1       0.809  52.788 -14.543  1.00  0.00    -0.776 OA
HETATM   30  H11 UNL     1       1.315  52.859 -15.379  1.00  0.00     0.167 HD
ENDBRANCH  27  29
ENDBRANCH   4  27
BRANCH   1  31
HETATM   31  C2  UNL     1      -2.549  52.795 -10.809  1.00  0.00    -0.088 C 
HETATM   32  C1  UNL     1      -3.433  53.724 -11.220  1.00  0.00     0.014 C 
HETATM   33  C3  UNL     1      -2.572  52.342  -9.376  1.00  0.00     0.043 C 
ENDBRANCH   1  31
BRANCH   7  34
HETATM   34  C12 UNL     1       1.271  52.046  -9.026  1.00  0.00     0.149 C 
HETATM   35  O3  UNL     1       0.499  51.103  -8.979  1.00  0.00    -0.649 OA
BRANCH  34  36
HETATM   36  O4  UNL     1       1.623  52.609  -7.861  1.00  0.00    -0.776 OA
HETATM   37  H16 UNL     1       1.132  52.078  -7.199  1.00  0.00     0.167 HD
ENDBRANCH  34  36
ENDBRANCH   7  34
TORSDOF 5
ENDMDL
MODEL 4
REMARK minimizedAffinity -6.35145855
REMARK CNNscore 0.465591073
REMARK CNNaffinity 6.22148561
REMARK  5 active torsions:
REMARK  status: ('A' for Active; 'I' for Inactive)
REMARK    1  A    between atoms: C2_2  and  C4_4 
REMARK    2  A    between atoms: C7_7  and  C8_8 
REMARK    3  A    between atoms: C8_8  and  O2_10 
REMARK    4  A    between atoms: C11_13  and  C12_14 
REMARK    5  A    between atoms: C12_14  and  O4_16 
ROOT
HETATM    1  C4  UNL     1      -3.100  49.784 -10.221  1.00  0.00     0.019 C 
HETATM    2  C5  UNL     1      -2.700  48.941 -11.435  1.00  0.00     0.011 C 
HETATM    3  C6  UNL     1      -3.180  49.793 -12.602  1.00  0.00     0.021 C 
HETATM    4  C7  UNL     1      -2.778  51.240 -12.228  1.00  0.00     0.050 C 
HETATM    5  C9  UNL     1      -1.392  51.551 -12.817  1.00  0.00     0.022 C 
HETATM    6  C10 UNL     1      -0.700  52.754 -12.180  1.00  0.00     0.023 C 
HETATM    7  C11 UNL     1      -0.549  52.668 -10.642  1.00  0.00     0.057 C 
HETATM    8  C13 UNL     1      -1.920  52.309  -9.973  1.00  0.00     0.011 C 
HETATM    9  C14 UNL     1      -1.785  52.191  -8.449  1.00  0.00     0.007 C 
HETATM   10  C15 UNL     1      -1.176  53.436  -7.788  1.00  0.00     0.006 C 
HETATM   11  C16 UNL     1       0.145  53.896  -8.450  1.00  0.00     0.003 C 
HETATM   12  C17 UNL     1       0.924  55.050  -7.675  1.00  0.00    -0.035 C 
HETATM   13  C18 UNL     1       0.060  56.321  -7.512  1.00  0.00     0.016 C 
HETATM   14  C19 UNL     1       1.285  54.533  -6.248  1.00  0.00     0.017 C 
HETATM   15  C20 UNL     1       2.249  55.424  -5.478  1.00  0.00     0.080 C 
HETATM   16  C21 UNL     1       3.503  55.708  -6.266  1.00  0.00     0.135 C 
HETATM   17  O5  UNL     1       4.600  55.640  -5.708  1.00  0.00    -0.297 OA
HETATM   18  C22 UNL     1       3.345  56.188  -7.719  1.00  0.00     0.017 C 
HETATM   19  C23 UNL     1       3.021  57.689  -7.702  1.00  0.00     0.023 C 
HETATM   20  C24 UNL     1       4.721  56.027  -8.414  1.00  0.00     0.023 C 
HETATM   21  C25 UNL     1       2.281  55.288  -8.440  1.00  0.00     0.009 C 
HETATM   22  C26 UNL     1       2.030  55.677  -9.910  1.00  0.00     0.007 C 
HETATM   23  C27 UNL     1       1.286  54.576 -10.674  1.00  0.00     0.011 C 
HETATM   24  C28 UNL     1      -0.038  54.094 -10.009  1.00  0.00    -0.022 C 
HETATM   25  C29 UNL     1      -1.070  55.235 -10.304  1.00  0.00     0.017 C 
HETATM   26  C30 UNL     1      -2.865  51.270 -10.661  1.00  0.00     0.018 C 
ENDROOT
BRANCH   4  27
HETATM   27  C8  UNL     1      -3.765  52.241 -12.832  1.00  0.00     0.149 C 
HETATM   28  O1  UNL     1      -4.468  53.026 -12.216  1.00  0.00    -0.649 OA
BRANCH  27  29
HETATM   29  O2  UNL     1      -3.763  52.261 -14.179  1.00  0.00    -0.776 OA
HETATM   30  H11 UNL     1      -4.408  52.962 -14.408  1.00  0.00     0.167 HD
ENDBRANCH  27  29
ENDBRANCH   4  27
BRANCH   1  31
HETATM   31  C2  UNL     1      -2.753  49.235  -8.852  1.00  0.00    -0.088 C 
HETATM   32  C1  UNL     1      -3.729  48.975  -7.961  1.00  0.00     0.014 C 
HETATM   33  C3  UNL     1      -1.337  48.857  -8.519  1.00  0.00     0.043 C 
ENDBRANCH   1  31
BRANCH   7  34
HETATM   34  C12 UNL     1       0.504  51.561 -10.371  1.00  0.00     0.149 C 
HETATM   35  O3  UNL     1       0.487  50.689  -9.519  1.00  0.00    -0.649 OA
BRANCH  34  36
HETATM   36  O4  UNL     1       1.585  51.627 -11.160  1.00  0.00    -0.776 OA
HETATM   37  H16 UNL     1       2.146  50.893 -10.832  1.00  0.00     0.167 HD
ENDBRANCH  34  36
ENDBRANCH   7  34
TORSDOF 5
ENDMDL
MODEL 5
REMARK minimizedAffinity -6.96796608
REMARK CNNscore 0.443982631
REMARK CNNaffinity 5.39953852
REMARK  5 active torsions:
REMARK  status: ('A' for Active; 'I' for Inactive)
REMARK    1  A    between atoms: C2_2  and  C4_4 
REMARK    2  A    between atoms: C7_7  and  C8_8 
REMARK    3  A    between atoms: C8_8  and  O2_10 
REMARK    4  A    between atoms: C11_13  and  C12_14 
REMARK    5  A    between atoms: C12_14  and  O4_16 
ROOT
HETATM    1  C4  UNL     1     -18.182  46.037 -21.351  1.00  0.00     0.019 C 
HETATM    2  C5  UNL     1     -19.159  44.860 -21.394  1.00  0.00     0.011 C 
HETATM    3  C6  UNL     1     -19.904  45.095 -22.700  1.00  0.00     0.021 C 
HETATM    4  C7  UNL     1     -18.809  45.506 -23.713  1.00  0.00     0.050 C 
HETATM    5  C9  UNL     1     -18.300  44.255 -24.448  1.00  0.00     0.022 C 
HETATM    6  C10 UNL     1     -16.954  44.445 -25.143  1.00  0.00     0.023 C 
HETATM    7  C11 UNL     1     -15.817  44.941 -24.217  1.00  0.00     0.057 C 
HETATM    8  C13 UNL     1     -16.280  46.195 -23.399  1.00  0.00     0.011 C 
HETATM    9  C14 UNL     1     -15.176  46.684 -22.453  1.00  0.00     0.007 C 
HETATM   10  C15 UNL     1     -13.843  46.968 -23.159  1.00  0.00     0.006 C 
HETATM   11  C16 UNL     1     -13.361  45.799 -24.050  1.00  0.00     0.003 C 
HETATM   12  C17 UNL     1     -11.888  45.956 -24.636  1.00  0.00    -0.035 C 
HETATM   13  C18 UNL     1     -11.740  47.236 -25.491  1.00  0.00     0.016 C 
HETATM   14  C19 UNL     1     -10.888  46.062 -23.443  1.00  0.00     0.017 C 
HETATM   15  C20 UNL     1      -9.421  45.962 -23.837  1.00  0.00     0.080 C 
HETATM   16  C21 UNL     1      -9.141  44.722 -24.648  1.00  0.00     0.135 C 
HETATM   17  O5  UNL     1      -8.146  44.041 -24.394  1.00  0.00    -0.297 OA
HETATM   18  C22 UNL     1     -10.058  44.426 -25.847  1.00  0.00     0.017 C 
HETATM   19  C23 UNL     1      -9.608  45.297 -27.030  1.00  0.00     0.023 C 
HETATM   20  C24 UNL     1      -9.825  42.949 -26.257  1.00  0.00     0.023 C 
HETATM   21  C25 UNL     1     -11.550  44.624 -25.408  1.00  0.00     0.009 C 
HETATM   22  C26 UNL     1     -12.571  44.360 -26.533  1.00  0.00     0.007 C 
HETATM   23  C27 UNL     1     -13.994  44.200 -25.988  1.00  0.00     0.011 C 
HETATM   24  C28 UNL     1     -14.485  45.364 -25.077  1.00  0.00    -0.022 C 
HETATM   25  C29 UNL     1     -14.811  46.534 -26.066  1.00  0.00     0.017 C 
HETATM   26  C30 UNL     1     -17.739  46.255 -22.839  1.00  0.00     0.018 C 
ENDROOT
BRANCH   4  27
HETATM   27  C8  UNL     1     -19.385  46.453 -24.768  1.00  0.00     0.149 C 
HETATM   28  O1  UNL     1     -20.316  46.218 -25.521  1.00  0.00    -0.649 OA
BRANCH  27  29
HETATM   29  O2  UNL     1     -18.814  47.673 -24.771  1.00  0.00    -0.776 OA
HETATM   30  H11 UNL     1     -19.305  48.164 -25.463  1.00  0.00     0.167 HD
ENDBRANCH  27  29
ENDBRANCH   4  27
BRANCH   1  31
HETATM   31  C2  UNL     1     -17.244  46.116 -20.163  1.00  0.00    -0.088 C 
HETATM   32  C1  UNL     1     -17.098  47.277 -19.495  1.00  0.00     0.014 C 
HETATM   33  C3  UNL     1     -16.567  44.880 -19.643  1.00  0.00     0.043 C 
ENDBRANCH   1  31
BRANCH   7  34
HETATM   34  C12 UNL     1     -15.482  43.758 -23.271  1.00  0.00     0.149 C 
HETATM   35  O3  UNL     1     -16.227  43.152 -22.518  1.00  0.00    -0.649 OA
BRANCH  34  36
HETATM   36  O4  UNL     1     -14.188  43.408 -23.265  1.00  0.00    -0.776 OA
HETATM   37  H16 UNL     1     -14.154  42.688 -22.600  1.00  0.00     0.167 HD
ENDBRANCH  34  36
ENDBRANCH   7  34
TORSDOF 5
ENDMDL
MODEL 6
REMARK minimizedAffinity -6.70317698
REMARK CNNscore 0.398661107
REMARK CNNaffinity 5.72266436
REMARK  5 active torsions:
REMARK  status: ('A' for Active; 'I' for Inactive)
REMARK    1  A    between atoms: C2_2  and  C4_4 
REMARK    2  A    between atoms: C7_7  and  C8_8 
REMARK    3  A    between atoms: C8_8  and  O2_10 
REMARK    4  A    between atoms: C11_13  and  C12_14 
REMARK    5  A    between atoms: C12_14  and  O4_16 
ROOT
HETATM    1  C4  UNL     1     -17.481  43.677 -26.956  1.00  0.00     0.019 C 
HETATM    2  C5  UNL     1     -18.609  44.433 -27.662  1.00  0.00     0.011 C 
HETATM    3  C6  UNL     1     -19.854  43.877 -26.985  1.00  0.00     0.021 C 
HETATM    4  C7  UNL     1     -19.495  43.817 -25.481  1.00  0.00     0.050 C 
HETATM    5  C9  UNL     1     -19.939  45.123 -24.800  1.00  0.00     0.022 C 
HETATM    6  C10 UNL     1     -19.277  45.377 -23.448  1.00  0.00     0.023 C 
HETATM    7  C11 UNL     1     -17.729  45.364 -23.478  1.00  0.00     0.057 C 
HETATM    8  C13 UNL     1     -17.202  44.077 -24.200  1.00  0.00     0.011 C 
HETATM    9  C14 UNL     1     -15.669  44.061 -24.266  1.00  0.00     0.007 C 
HETATM   10  C15 UNL     1     -14.994  44.221 -22.896  1.00  0.00     0.006 C 
HETATM   11  C16 UNL     1     -15.523  45.432 -22.091  1.00  0.00     0.003 C 
HETATM   12  C17 UNL     1     -14.712  45.766 -20.761  1.00  0.00    -0.035 C 
HETATM   13  C18 UNL     1     -14.695  44.573 -19.779  1.00  0.00     0.016 C 
HETATM   14  C19 UNL     1     -13.235  46.086 -21.148  1.00  0.00     0.017 C 
HETATM   15  C20 UNL     1     -12.399  46.671 -20.019  1.00  0.00     0.080 C 
HETATM   16  C21 UNL     1     -13.054  47.881 -19.402  1.00  0.00     0.135 C 
HETATM   17  O5  UNL     1     -12.376  48.881 -19.158  1.00  0.00    -0.297 OA
HETATM   18  C22 UNL     1     -14.532  47.767 -18.995  1.00  0.00     0.017 C 
HETATM   19  C23 UNL     1     -14.610  47.043 -17.643  1.00  0.00     0.023 C 
HETATM   20  C24 UNL     1     -15.064  49.206 -18.770  1.00  0.00     0.023 C 
HETATM   21  C25 UNL     1     -15.331  47.085 -20.160  1.00  0.00     0.009 C 
HETATM   22  C26 UNL     1     -16.834  46.910 -19.866  1.00  0.00     0.007 C 
HETATM   23  C27 UNL     1     -17.632  46.593 -21.135  1.00  0.00     0.011 C 
HETATM   24  C28 UNL     1     -17.099  45.385 -21.962  1.00  0.00    -0.022 C 
HETATM   25  C29 UNL     1     -17.550  44.120 -21.156  1.00  0.00     0.017 C 
HETATM   26  C30 UNL     1     -17.949  43.542 -25.466  1.00  0.00     0.018 C 
ENDROOT
BRANCH   4  27
HETATM   27  C8  UNL     1     -20.242  42.670 -24.798  1.00  0.00     0.149 C 
HETATM   28  O1  UNL     1     -20.731  42.687 -23.680  1.00  0.00    -0.649 OA
BRANCH  27  29
HETATM   29  O2  UNL     1     -20.406  41.587 -25.582  1.00  0.00    -0.776 OA
HETATM   30  H11 UNL     1     -20.922  40.966 -25.026  1.00  0.00     0.167 HD
ENDBRANCH  27  29
ENDBRANCH   4  27
BRANCH   1  31
HETATM   31  C2  UNL     1     -16.062  43.999 -27.378  1.00  0.00    -0.088 C 
HETATM   32  C1  UNL     1     -15.660  45.281 -27.471  1.00  0.00     0.014 C 
HETATM   33  C3  UNL     1     -15.057  42.899 -27.574  1.00  0.00     0.043 C 
ENDBRANCH   1  31
BRANCH   7  34
HETATM   34  C12 UNL     1     -17.301  46.642 -24.246  1.00  0.00     0.149 C 
HETATM   35  O3  UNL     1     -16.180  47.098 -24.398  1.00  0.00    -0.649 OA
BRANCH  34  36
HETATM   36  O4  UNL     1     -18.322  47.344 -24.759  1.00  0.00    -0.776 OA
HETATM   37  H16 UNL     1     -17.879  48.118 -25.167  1.00  0.00     0.167 HD
ENDBRANCH  34  36
ENDBRANCH   7  34
TORSDOF 5
ENDMDL
MODEL 7
REMARK minimizedAffinity -6.51886034
REMARK CNNscore 0.393233031
REMARK CNNaffinity 5.77632666
REMARK  5 active torsions:
REMARK  status: ('A' for Active; 'I' for Inactive)
REMARK    1  A    between atoms: C2_2  and  C4_4 
REMARK    2  A    between atoms: C7_7  and  C8_8 
REMARK    3  A    between atoms: C8_8  and  O2_10 
REMARK    4  A    between atoms: C11_13  and  C12_14 
REMARK    5  A    between atoms: C12_14  and  O4_16 
ROOT
HETATM    1  C4  UNL     1      -8.788  47.516 -28.950  1.00  0.00     0.019 C 
HETATM    2  C5  UNL     1      -7.456  47.005 -28.397  1.00  0.00     0.011 C 
HETATM    3  C6  UNL     1      -7.351  47.729 -27.062  1.00  0.00     0.021 C 
HETATM    4  C7  UNL     1      -8.772  47.644 -26.452  1.00  0.00     0.050 C 
HETATM    5  C9  UNL     1      -8.867  46.400 -25.555  1.00  0.00     0.022 C 
HETATM    6  C10 UNL     1     -10.296  45.963 -25.244  1.00  0.00     0.023 C 
HETATM    7  C11 UNL     1     -11.176  45.711 -26.492  1.00  0.00     0.057 C 
HETATM    8  C13 UNL     1     -11.094  46.926 -27.479  1.00  0.00     0.011 C 
HETATM    9  C14 UNL     1     -11.938  46.682 -28.738  1.00  0.00     0.007 C 
HETATM   10  C15 UNL     1     -13.403  46.335 -28.437  1.00  0.00     0.006 C 
HETATM   11  C16 UNL     1     -13.562  45.191 -27.407  1.00  0.00     0.003 C 
HETATM   12  C17 UNL     1     -15.048  44.650 -27.219  1.00  0.00    -0.035 C 
HETATM   13  C18 UNL     1     -16.017  45.768 -26.771  1.00  0.00     0.016 C 
HETATM   14  C19 UNL     1     -15.554  44.103 -28.590  1.00  0.00     0.017 C 
HETATM   15  C20 UNL     1     -16.859  43.323 -28.516  1.00  0.00     0.080 C 
HETATM   16  C21 UNL     1     -16.793  42.212 -27.499  1.00  0.00     0.135 C 
HETATM   17  O5  UNL     1     -17.238  41.098 -27.785  1.00  0.00    -0.297 OA
HETATM   18  C22 UNL     1     -16.273  42.555 -26.093  1.00  0.00     0.017 C 
HETATM   19  C23 UNL     1     -17.414  43.208 -25.299  1.00  0.00     0.023 C 
HETATM   20  C24 UNL     1     -15.933  41.219 -25.384  1.00  0.00     0.023 C 
HETATM   21  C25 UNL     1     -14.976  43.427 -26.228  1.00  0.00     0.009 C 
HETATM   22  C26 UNL     1     -14.360  43.841 -24.878  1.00  0.00     0.007 C 
HETATM   23  C27 UNL     1     -12.927  44.358 -25.037  1.00  0.00     0.011 C 
HETATM   24  C28 UNL     1     -12.752  45.500 -26.083  1.00  0.00    -0.022 C 
HETATM   25  C29 UNL     1     -13.318  46.778 -25.376  1.00  0.00     0.017 C 
HETATM   26  C30 UNL     1      -9.725  47.648 -27.700  1.00  0.00     0.018 C 
ENDROOT
BRANCH   4  27
HETATM   27  C8  UNL     1      -9.049  48.864 -25.572  1.00  0.00     0.149 C 
HETATM   28  O1  UNL     1      -8.898  48.935 -24.363  1.00  0.00    -0.649 OA
BRANCH  27  29
HETATM   29  O2  UNL     1      -9.427  49.957 -26.263  1.00  0.00    -0.776 OA
HETATM   30  H11 UNL     1      -9.530  50.649 -25.576  1.00  0.00     0.167 HD
ENDBRANCH  27  29
ENDBRANCH   4  27
BRANCH   1  31
HETATM   31  C2  UNL     1      -9.231  46.978 -30.296  1.00  0.00    -0.088 C 
HETATM   32  C1  UNL     1      -9.832  47.793 -31.184  1.00  0.00     0.014 C 
HETATM   33  C3  UNL     1      -8.896  45.571 -30.702  1.00  0.00     0.043 C 
ENDBRANCH   1  31
BRANCH   7  34
HETATM   34  C12 UNL     1     -10.626  44.422 -27.157  1.00  0.00     0.149 C 
HETATM   35  O3  UNL     1     -10.557  44.149 -28.344  1.00  0.00    -0.649 OA
BRANCH  34  36
HETATM   36  O4  UNL     1     -10.225  43.484 -26.289  1.00  0.00    -0.776 OA
HETATM   37  H16 UNL     1      -9.949  42.743 -26.870  1.00  0.00     0.167 HD
ENDBRANCH  34  36
ENDBRANCH   7  34
TORSDOF 5
ENDMDL
MODEL 8
REMARK minimizedAffinity -7.73719645
REMARK CNNscore 0.383573383
REMARK CNNaffinity 6.11903143
REMARK  5 active torsions:
REMARK  status: ('A' for Active; 'I' for Inactive)
REMARK    1  A    between atoms: C2_2  and  C4_4 
REMARK    2  A    between atoms: C7_7  and  C8_8 
REMARK    3  A    between atoms: C8_8  and  O2_10 
REMARK    4  A    between atoms: C11_13  and  C12_14 
REMARK    5  A    between atoms: C12_14  and  O4_16 
ROOT
HETATM    1  C4  UNL     1       4.992  55.155  -8.239  1.00  0.00     0.019 C 
HETATM    2  C5  UNL     1       6.232  54.821  -9.071  1.00  0.00     0.011 C 
HETATM    3  C6  UNL     1       6.643  53.462  -8.523  1.00  0.00     0.021 C 
HETATM    4  C7  UNL     1       5.316  52.678  -8.370  1.00  0.00     0.050 C 
HETATM    5  C9  UNL     1       5.052  51.872  -9.652  1.00  0.00     0.022 C 
HETATM    6  C10 UNL     1       3.605  51.409  -9.809  1.00  0.00     0.023 C 
HETATM    7  C11 UNL     1       2.556  52.545  -9.744  1.00  0.00     0.057 C 
HETATM    8  C13 UNL     1       2.792  53.441  -8.479  1.00  0.00     0.011 C 
HETATM    9  C14 UNL     1       1.779  54.592  -8.413  1.00  0.00     0.007 C 
HETATM   10  C15 UNL     1       0.317  54.127  -8.475  1.00  0.00     0.006 C 
HETATM   11  C16 UNL     1       0.028  53.174  -9.659  1.00  0.00     0.003 C 
HETATM   12  C17 UNL     1      -1.511  52.832  -9.893  1.00  0.00    -0.035 C 
HETATM   13  C18 UNL     1      -2.153  52.179  -8.648  1.00  0.00     0.016 C 
HETATM   14  C19 UNL     1      -2.275  54.161 -10.181  1.00  0.00     0.017 C 
HETATM   15  C20 UNL     1      -3.703  53.974 -10.673  1.00  0.00     0.080 C 
HETATM   16  C21 UNL     1      -3.769  53.061 -11.871  1.00  0.00     0.135 C 
HETATM   17  O5  UNL     1      -4.477  53.368 -12.832  1.00  0.00    -0.297 OA
HETATM   18  C22 UNL     1      -3.031  51.714 -11.788  1.00  0.00     0.017 C 
HETATM   19  C23 UNL     1      -3.904  50.730 -10.995  1.00  0.00     0.023 C 
HETATM   20  C24 UNL     1      -2.916  51.157 -13.230  1.00  0.00     0.023 C 
HETATM   21  C25 UNL     1      -1.598  51.953 -11.198  1.00  0.00     0.009 C 
HETATM   22  C26 UNL     1      -0.758  50.669 -11.060  1.00  0.00     0.007 C 
HETATM   23  C27 UNL     1       0.727  50.977 -10.840  1.00  0.00     0.011 C 
HETATM   24  C28 UNL     1       1.029  51.948  -9.661  1.00  0.00    -0.022 C 
HETATM   25  C29 UNL     1       0.842  51.080  -8.371  1.00  0.00     0.017 C 
HETATM   26  C30 UNL     1       4.253  53.786  -8.040  1.00  0.00     0.018 C 
ENDROOT
BRANCH   4  27
HETATM   27  C8  UNL     1       5.415  51.681  -7.215  1.00  0.00     0.149 C 
HETATM   28  O1  UNL     1       5.886  50.556  -7.266  1.00  0.00    -0.649 OA
BRANCH  27  29
HETATM   29  O2  UNL     1       4.989  52.173  -6.035  1.00  0.00    -0.776 OA
HETATM   30  H11 UNL     1       5.146  51.442  -5.401  1.00  0.00     0.167 HD
ENDBRANCH  27  29
ENDBRANCH   4  27
BRANCH   1  31
HETATM   31  C2  UNL     1       4.292  56.466  -8.533  1.00  0.00    -0.088 C 
HETATM   32  C1  UNL     1       3.853  56.733  -9.778  1.00  0.00     0.014 C 
HETATM   33  C3  UNL     1       3.970  57.425  -7.421  1.00  0.00     0.043 C 
ENDBRANCH   1  31
BRANCH   7  34
HETATM   34  C12 UNL     1       2.732  53.371 -11.045  1.00  0.00     0.149 C 
HETATM   35  O3  UNL     1       3.662  54.090 -11.370  1.00  0.00    -0.649 OA
BRANCH  34  36
HETATM   36  O4  UNL     1       1.687  53.305 -11.883  1.00  0.00    -0.776 OA
HETATM   37  H16 UNL     1       1.950  53.901 -12.616  1.00  0.00     0.167 HD
ENDBRANCH  34  36
ENDBRANCH   7  34
TORSDOF 5
ENDMDL
MODEL 9
REMARK minimizedAffinity -6.43483305
REMARK CNNscore 0.31275484
REMARK CNNaffinity 5.5942893
REMARK  5 active torsions:
REMARK  status: ('A' for Active; 'I' for Inactive)
REMARK    1  A    between atoms: C2_2  and  C4_4 
REMARK    2  A    between atoms: C7_7  and  C8_8 
REMARK    3  A    between atoms: C8_8  and  O2_10 
REMARK    4  A    between atoms: C11_13  and  C12_14 
REMARK    5  A    between atoms: C12_14  and  O4_16 
ROOT
HETATM    1  C4  UNL     1      -9.758  45.258 -16.571  1.00  0.00     0.019 C 
HETATM    2  C5  UNL     1      -9.126  46.584 -16.143  1.00  0.00     0.011 C 
HETATM    3  C6  UNL     1      -8.549  47.113 -17.448  1.00  0.00     0.021 C 
HETATM    4  C7  UNL     1      -9.644  46.837 -18.507  1.00  0.00     0.050 C 
HETATM    5  C9  UNL     1     -10.555  48.069 -18.629  1.00  0.00     0.022 C 
HETATM    6  C10 UNL     1     -11.898  47.788 -19.298  1.00  0.00     0.023 C 
HETATM    7  C11 UNL     1     -12.722  46.658 -18.634  1.00  0.00     0.057 C 
HETATM    8  C13 UNL     1     -11.841  45.377 -18.435  1.00  0.00     0.011 C 
HETATM    9  C14 UNL     1     -12.633  44.255 -17.751  1.00  0.00     0.007 C 
HETATM   10  C15 UNL     1     -13.942  43.899 -18.471  1.00  0.00     0.006 C 
HETATM   11  C16 UNL     1     -14.830  45.130 -18.770  1.00  0.00     0.003 C 
HETATM   12  C17 UNL     1     -16.287  44.796 -19.322  1.00  0.00    -0.035 C 
HETATM   13  C18 UNL     1     -16.234  43.977 -20.632  1.00  0.00     0.016 C 
HETATM   14  C19 UNL     1     -17.038  43.941 -18.255  1.00  0.00     0.017 C 
HETATM   15  C20 UNL     1     -18.524  43.758 -18.525  1.00  0.00     0.080 C 
HETATM   16  C21 UNL     1     -19.226  45.076 -18.730  1.00  0.00     0.135 C 
HETATM   17  O5  UNL     1     -20.311  45.280 -18.181  1.00  0.00    -0.297 OA
HETATM   18  C22 UNL     1     -18.602  46.075 -19.719  1.00  0.00     0.017 C 
HETATM   19  C23 UNL     1     -18.990  45.654 -21.144  1.00  0.00     0.023 C 
HETATM   20  C24 UNL     1     -19.258  47.457 -19.460  1.00  0.00     0.023 C 
HETATM   21  C25 UNL     1     -17.060  46.164 -19.450  1.00  0.00     0.009 C 
HETATM   22  C26 UNL     1     -16.318  47.136 -20.389  1.00  0.00     0.007 C 
HETATM   23  C27 UNL     1     -14.916  47.474 -19.871  1.00  0.00     0.011 C 
HETATM   24  C28 UNL     1     -14.018  46.242 -19.551  1.00  0.00    -0.022 C 
HETATM   25  C29 UNL     1     -13.560  45.709 -20.951  1.00  0.00     0.017 C 
HETATM   26  C30 UNL     1     -10.348  45.528 -17.998  1.00  0.00     0.018 C 
ENDROOT
BRANCH   4  27
HETATM   27  C8  UNL     1      -9.013  46.598 -19.879  1.00  0.00     0.149 C 
HETATM   28  O1  UNL     1      -9.036  45.557 -20.516  1.00  0.00    -0.649 OA
BRANCH  27  29
HETATM   29  O2  UNL     1      -8.451  47.698 -20.417  1.00  0.00    -0.776 OA
HETATM   30  H11 UNL     1      -8.128  47.396 -21.292  1.00  0.00     0.167 HD
ENDBRANCH  27  29
ENDBRANCH   4  27
BRANCH   1  31
HETATM   31  C2  UNL     1     -10.457  44.445 -15.499  1.00  0.00    -0.088 C 
HETATM   32  C1  UNL     1     -10.428  43.100 -15.546  1.00  0.00     0.014 C 
HETATM   33  C3  UNL     1     -11.079  45.126 -14.312  1.00  0.00     0.043 C 
ENDBRANCH   1  31
BRANCH   7  34
HETATM   34  C12 UNL     1     -13.199  47.217 -17.267  1.00  0.00     0.149 C 
HETATM   35  O3  UNL     1     -12.822  46.912 -16.148  1.00  0.00    -0.649 OA
BRANCH  34  36
HETATM   36  O4  UNL     1     -14.190  48.115 -17.356  1.00  0.00    -0.776 OA
HETATM   37  H16 UNL     1     -14.385  48.327 -16.419  1.00  0.00     0.167 HD
ENDBRANCH  34  36
ENDBRANCH   7  34
TORSDOF 5
ENDMDL
