MODEL 1
REMARK minimizedAffinity -9.64939404
REMARK  5 active torsions:
REMARK  status: ('A' for Active; 'I' for Inactive)
REMARK    1  A    between atoms: C3_3  and  C4_4 
REMARK    2  A    between atoms: C4_4  and  O1_5 
REMARK    3  A    between atoms: C6_9  and  C7_10 
REMARK    4  A    between atoms: C20_24  and  O5_25 
REMARK    5  A    between atoms: C21_26  and  O6_27 
ROOT
HETATM    1  C7  UNL     1       6.259   7.201  11.978  1.00  0.00     0.089 C 
HETATM    2  C8  UNL     1       6.636   5.757  11.581  1.00  0.00     0.049 C 
HETATM    3  O4  UNL     1       4.911   7.279  12.542  1.00  0.00    -0.365 OA
HETATM    4  C9  UNL     1       4.159   8.251  11.735  1.00  0.00     0.074 C 
HETATM    5  C10 UNL     1       4.783   9.642  12.006  1.00  0.00     0.040 C 
HETATM    6  C11 UNL     1       6.092   9.579  11.193  1.00  0.00     0.011 C 
HETATM    7  C12 UNL     1       6.100   8.104  10.716  1.00  0.00     0.034 C 
HETATM    8  C13 UNL     1       4.597   7.914  10.305  1.00  0.00    -0.006 C 
HETATM    9  C14 UNL     1       4.145   8.894   9.190  1.00  0.00     0.019 C 
HETATM   10  C15 UNL     1       4.057   6.518   9.915  1.00  0.00     0.013 C 
HETATM   11  C16 UNL     1       2.535   6.403  10.132  1.00  0.00     0.007 C 
HETATM   12  C17 UNL     1       2.139   6.690  11.606  1.00  0.00     0.011 C 
HETATM   13  C18 UNL     1       2.650   8.119  11.996  1.00  0.00     0.029 C 
HETATM   14  C19 UNL     1       2.301   8.474  13.450  1.00  0.00     0.043 C 
HETATM   15  C20 UNL     1       0.809   8.309  13.756  1.00  0.00     0.154 C 
HETATM   16  C21 UNL     1       0.323   6.883  13.409  1.00  0.00     0.098 C 
HETATM   17  C22 UNL     1      -1.160   6.689  13.794  1.00  0.00     0.042 C 
HETATM   18  C23 UNL     1      -1.610   5.244  13.575  1.00  0.00     0.010 C 
HETATM   19  C24 UNL     1      -1.285   4.726  12.183  1.00  0.00     0.079 C 
HETATM   20  C25 UNL     1       0.147   5.038  11.776  1.00  0.00     0.138 C 
HETATM   21  O7  UNL     1       0.847   4.151  11.288  1.00  0.00    -0.297 OA
HETATM   22  C26 UNL     1       0.601   6.509  11.909  1.00  0.00     0.054 C 
HETATM   23  C27 UNL     1      -0.240   7.313  10.886  1.00  0.00     0.027 C 
ENDROOT
BRANCH   1  24
HETATM   24  C6  UNL     1       7.251   7.677  13.090  1.00  0.00     0.170 C 
HETATM   25  O3  UNL     1       6.534   7.913  14.316  1.00  0.00    -0.309 OA
HETATM   26  C5  UNL     1       7.193   8.452  15.375  1.00  0.00     0.292 C 
HETATM   27  C3  UNL     1       8.531   9.054  15.118  1.00  0.00     0.042 C 
HETATM   28  O2  UNL     1       6.698   8.456  16.497  1.00  0.00    -0.260 OA
HETATM   29  C2  UNL     1       8.928   9.317  13.855  1.00  0.00    -0.067 C 
HETATM   30  C1  UNL     1      10.204  10.015  13.480  1.00  0.00     0.044 C 
HETATM   31  C28 UNL     1       8.050   8.923  12.695  1.00  0.00     0.070 C 
BRANCH  27  32
HETATM   32  C4  UNL     1       9.322   9.348  16.357  1.00  0.00     0.209 C 
BRANCH  32  33
HETATM   33  O1  UNL     1       9.476   8.161  17.120  1.00  0.00    -0.396 OA
HETATM   34  H6  UNL     1      10.255   7.698  16.758  1.00  0.00     0.209 HD
ENDBRANCH  32  33
ENDBRANCH  27  32
ENDBRANCH   1  24
BRANCH  15  35
HETATM   35  O5  UNL     1       0.052   9.305  13.072  1.00  0.00    -0.392 OA
HETATM   36  H28 UNL     1       0.370  10.175  13.373  1.00  0.00     0.210 HD
ENDBRANCH  15  35
BRANCH  16  37
HETATM   37  O6  UNL     1       1.082   5.975  14.243  1.00  0.00    -0.386 OA
HETATM   38  H29 UNL     1       0.887   6.172  15.176  1.00  0.00     0.210 HD
ENDBRANCH  16  37
TORSDOF 5
ENDMDL
MODEL 2
REMARK minimizedAffinity -9.62000656
REMARK  5 active torsions:
REMARK  status: ('A' for Active; 'I' for Inactive)
REMARK    1  A    between atoms: C3_3  and  C4_4 
REMARK    2  A    between atoms: C4_4  and  O1_5 
REMARK    3  A    between atoms: C6_9  and  C7_10 
REMARK    4  A    between atoms: C20_24  and  O5_25 
REMARK    5  A    between atoms: C21_26  and  O6_27 
ROOT
HETATM    1  C7  UNL     1       0.246   7.770  10.669  1.00  0.00     0.089 C 
HETATM    2  C8  UNL     1       0.172   8.627   9.387  1.00  0.00     0.049 C 
HETATM    3  O4  UNL     1       1.365   8.162  11.526  1.00  0.00    -0.365 OA
HETATM    4  C9  UNL     1       2.186   6.962  11.743  1.00  0.00     0.074 C 
HETATM    5  C10 UNL     1       1.346   5.990  12.608  1.00  0.00     0.040 C 
HETATM    6  C11 UNL     1       0.330   5.436  11.588  1.00  0.00     0.011 C 
HETATM    7  C12 UNL     1       0.636   6.296  10.335  1.00  0.00     0.034 C 
HETATM    8  C13 UNL     1       2.205   6.310  10.356  1.00  0.00    -0.006 C 
HETATM    9  C14 UNL     1       2.824   4.890  10.262  1.00  0.00     0.019 C 
HETATM   10  C15 UNL     1       2.998   7.206   9.375  1.00  0.00     0.013 C 
HETATM   11  C16 UNL     1       4.403   7.549   9.909  1.00  0.00     0.007 C 
HETATM   12  C17 UNL     1       4.338   8.264  11.287  1.00  0.00     0.011 C 
HETATM   13  C18 UNL     1       3.568   7.344  12.295  1.00  0.00     0.029 C 
HETATM   14  C19 UNL     1       3.455   7.989  13.686  1.00  0.00     0.043 C 
HETATM   15  C20 UNL     1       4.812   8.424  14.247  1.00  0.00     0.154 C 
HETATM   16  C21 UNL     1       5.547   9.366  13.264  1.00  0.00     0.098 C 
HETATM   17  C22 UNL     1       6.876   9.872  13.864  1.00  0.00     0.042 C 
HETATM   18  C23 UNL     1       7.543  10.905  12.953  1.00  0.00     0.010 C 
HETATM   19  C24 UNL     1       7.681  10.427  11.516  1.00  0.00     0.079 C 
HETATM   20  C25 UNL     1       6.391   9.819  10.988  1.00  0.00     0.138 C 
HETATM   21  O7  UNL     1       5.967  10.159   9.883  1.00  0.00    -0.297 OA
HETATM   22  C26 UNL     1       5.742   8.713  11.850  1.00  0.00     0.054 C 
HETATM   23  C27 UNL     1       6.728   7.518  11.831  1.00  0.00     0.027 C 
ENDROOT
BRANCH   1  24
HETATM   24  C6  UNL     1      -1.066   8.004  11.489  1.00  0.00     0.170 C 
HETATM   25  O3  UNL     1      -0.899   9.136  12.363  1.00  0.00    -0.309 OA
HETATM   26  C5  UNL     1      -1.882   9.434  13.254  1.00  0.00     0.292 C 
HETATM   27  C3  UNL     1      -2.929   8.403  13.494  1.00  0.00     0.042 C 
HETATM   28  O2  UNL     1      -1.896  10.507  13.850  1.00  0.00    -0.260 OA
HETATM   29  C2  UNL     1      -2.742   7.133  13.076  1.00  0.00    -0.067 C 
HETATM   30  C1  UNL     1      -3.675   5.988  13.352  1.00  0.00     0.044 C 
HETATM   31  C28 UNL     1      -1.506   6.775  12.292  1.00  0.00     0.070 C 
BRANCH  27  32
HETATM   32  C4  UNL     1      -4.128   8.905  14.240  1.00  0.00     0.209 C 
BRANCH  32  33
HETATM   33  O1  UNL     1      -5.276   8.833  13.407  1.00  0.00    -0.396 OA
HETATM   34  H6  UNL     1      -5.627   7.927  13.496  1.00  0.00     0.209 HD
ENDBRANCH  32  33
ENDBRANCH  27  32
ENDBRANCH   1  24
BRANCH  15  35
HETATM   35  O5  UNL     1       5.602   7.282  14.570  1.00  0.00    -0.392 OA
HETATM   36  H28 UNL     1       5.109   6.761  15.229  1.00  0.00     0.210 HD
ENDBRANCH  15  35
BRANCH  16  37
HETATM   37  O6  UNL     1       4.703  10.532  13.105  1.00  0.00    -0.386 OA
HETATM   38  H29 UNL     1       4.607  10.968  13.969  1.00  0.00     0.210 HD
ENDBRANCH  16  37
TORSDOF 5
ENDMDL
MODEL 3
REMARK minimizedAffinity -9.60541439
REMARK  5 active torsions:
REMARK  status: ('A' for Active; 'I' for Inactive)
REMARK    1  A    between atoms: C3_3  and  C4_4 
REMARK    2  A    between atoms: C4_4  and  O1_5 
REMARK    3  A    between atoms: C6_9  and  C7_10 
REMARK    4  A    between atoms: C20_24  and  O5_25 
REMARK    5  A    between atoms: C21_26  and  O6_27 
ROOT
HETATM    1  C7  UNL     1      -3.787   6.598  14.647  1.00  0.00     0.089 C 
HETATM    2  C8  UNL     1      -3.721   5.965  16.054  1.00  0.00     0.049 C 
HETATM    3  O4  UNL     1      -2.458   6.763  14.059  1.00  0.00    -0.365 OA
HETATM    4  C9  UNL     1      -2.308   8.186  13.720  1.00  0.00     0.074 C 
HETATM    5  C10 UNL     1      -3.294   8.481  12.563  1.00  0.00     0.040 C 
HETATM    6  C11 UNL     1      -4.653   8.523  13.290  1.00  0.00     0.011 C 
HETATM    7  C12 UNL     1      -4.260   8.082  14.724  1.00  0.00     0.034 C 
HETATM    8  C13 UNL     1      -2.930   8.889  14.932  1.00  0.00    -0.006 C 
HETATM    9  C14 UNL     1      -3.129  10.424  14.819  1.00  0.00     0.019 C 
HETATM   10  C15 UNL     1      -2.048   8.646  16.178  1.00  0.00     0.013 C 
HETATM   11  C16 UNL     1      -0.576   9.035  15.934  1.00  0.00     0.007 C 
HETATM   12  C17 UNL     1       0.036   8.256  14.737  1.00  0.00     0.011 C 
HETATM   13  C18 UNL     1      -0.833   8.528  13.462  1.00  0.00     0.029 C 
HETATM   14  C19 UNL     1      -0.292   7.782  12.232  1.00  0.00     0.043 C 
HETATM   15  C20 UNL     1       1.190   8.066  11.973  1.00  0.00     0.154 C 
HETATM   16  C21 UNL     1       2.046   7.752  13.223  1.00  0.00     0.098 C 
HETATM   17  C22 UNL     1       3.549   7.959  12.938  1.00  0.00     0.042 C 
HETATM   18  C23 UNL     1       4.408   7.526  14.127  1.00  0.00     0.010 C 
HETATM   19  C24 UNL     1       3.960   8.150  15.440  1.00  0.00     0.079 C 
HETATM   20  C25 UNL     1       2.457   8.043  15.641  1.00  0.00     0.138 C 
HETATM   21  O7  UNL     1       2.015   7.647  16.720  1.00  0.00    -0.297 OA
HETATM   22  C26 UNL     1       1.565   8.552  14.486  1.00  0.00     0.054 C 
HETATM   23  C27 UNL     1       1.802  10.080  14.401  1.00  0.00     0.027 C 
ENDROOT
BRANCH   1  24
HETATM   24  C6  UNL     1      -4.586   5.629  13.713  1.00  0.00     0.170 C 
HETATM   25  O3  UNL     1      -5.860   5.318  14.307  1.00  0.00    -0.309 OA
HETATM   26  C5  UNL     1      -6.659   4.393  13.713  1.00  0.00     0.292 C 
HETATM   27  C3  UNL     1      -6.048   3.529  12.665  1.00  0.00     0.042 C 
HETATM   28  O2  UNL     1      -7.834   4.264  14.040  1.00  0.00    -0.260 OA
HETATM   29  C2  UNL     1      -4.707   3.468  12.529  1.00  0.00    -0.067 C 
HETATM   30  C1  UNL     1      -3.976   2.558  11.584  1.00  0.00     0.044 C 
HETATM   31  C28 UNL     1      -3.826   4.339  13.386  1.00  0.00     0.070 C 
BRANCH  27  32
HETATM   32  C4  UNL     1      -7.041   2.755  11.850  1.00  0.00     0.209 C 
BRANCH  32  33
HETATM   33  O1  UNL     1      -7.763   1.867  12.690  1.00  0.00    -0.396 OA
HETATM   34  H6  UNL     1      -8.504   2.381  13.065  1.00  0.00     0.209 HD
ENDBRANCH  32  33
ENDBRANCH  27  32
ENDBRANCH   1  24
BRANCH  15  35
HETATM   35  O5  UNL     1       1.367   9.412  11.539  1.00  0.00    -0.392 OA
HETATM   36  H28 UNL     1       0.847   9.528  10.723  1.00  0.00     0.210 HD
ENDBRANCH  15  35
BRANCH  16  37
HETATM   37  O6  UNL     1       1.873   6.341  13.496  1.00  0.00    -0.386 OA
HETATM   38  H29 UNL     1       2.204   5.834  12.735  1.00  0.00     0.210 HD
ENDBRANCH  16  37
TORSDOF 5
ENDMDL
MODEL 4
REMARK minimizedAffinity -9.53441143
REMARK  5 active torsions:
REMARK  status: ('A' for Active; 'I' for Inactive)
REMARK    1  A    between atoms: C3_3  and  C4_4 
REMARK    2  A    between atoms: C4_4  and  O1_5 
REMARK    3  A    between atoms: C6_9  and  C7_10 
REMARK    4  A    between atoms: C20_24  and  O5_25 
REMARK    5  A    between atoms: C21_26  and  O6_27 
ROOT
HETATM    1  C7  UNL     1      -3.471   6.245  14.785  1.00  0.00     0.089 C 
HETATM    2  C8  UNL     1      -3.381   5.741  16.241  1.00  0.00     0.049 C 
HETATM    3  O4  UNL     1      -2.149   6.504  14.213  1.00  0.00    -0.365 OA
HETATM    4  C9  UNL     1      -2.139   7.902  13.758  1.00  0.00     0.074 C 
HETATM    5  C10 UNL     1      -3.115   7.993  12.559  1.00  0.00     0.040 C 
HETATM    6  C11 UNL     1      -4.493   7.949  13.251  1.00  0.00     0.011 C 
HETATM    7  C12 UNL     1      -4.099   7.672  14.725  1.00  0.00     0.034 C 
HETATM    8  C13 UNL     1      -2.868   8.631  14.892  1.00  0.00    -0.006 C 
HETATM    9  C14 UNL     1      -3.224  10.121  14.646  1.00  0.00     0.019 C 
HETATM   10  C15 UNL     1      -2.003   8.587  16.174  1.00  0.00     0.013 C 
HETATM   11  C16 UNL     1      -0.574   9.111  15.928  1.00  0.00     0.007 C 
HETATM   12  C17 UNL     1       0.152   8.306  14.816  1.00  0.00     0.011 C 
HETATM   13  C18 UNL     1      -0.701   8.378  13.503  1.00  0.00     0.029 C 
HETATM   14  C19 UNL     1      -0.048   7.596  12.353  1.00  0.00     0.043 C 
HETATM   15  C20 UNL     1       1.403   8.015  12.103  1.00  0.00     0.154 C 
HETATM   16  C21 UNL     1       2.249   7.899  13.393  1.00  0.00     0.098 C 
HETATM   17  C22 UNL     1       3.730   8.241  13.123  1.00  0.00     0.042 C 
HETATM   18  C23 UNL     1       4.593   8.002  14.363  1.00  0.00     0.010 C 
HETATM   19  C24 UNL     1       4.043   8.680  15.608  1.00  0.00     0.079 C 
HETATM   20  C25 UNL     1       2.554   8.430  15.786  1.00  0.00     0.138 C 
HETATM   21  O7  UNL     1       2.124   8.078  16.884  1.00  0.00    -0.297 OA
HETATM   22  C26 UNL     1       1.648   8.744  14.573  1.00  0.00     0.054 C 
HETATM   23  C27 UNL     1       1.726  10.276  14.363  1.00  0.00     0.027 C 
ENDROOT
BRANCH   1  24
HETATM   24  C6  UNL     1      -4.135   5.124  13.920  1.00  0.00     0.170 C 
HETATM   25  O3  UNL     1      -3.412   4.966  12.685  1.00  0.00    -0.309 OA
HETATM   26  C5  UNL     1      -3.899   4.126  11.735  1.00  0.00     0.292 C 
HETATM   27  C3  UNL     1      -5.304   3.655  11.888  1.00  0.00     0.042 C 
HETATM   28  O2  UNL     1      -3.213   3.781  10.778  1.00  0.00    -0.260 OA
HETATM   29  C2  UNL     1      -6.136   4.267  12.758  1.00  0.00    -0.067 C 
HETATM   30  C1  UNL     1      -7.595   3.950  12.923  1.00  0.00     0.044 C 
HETATM   31  C28 UNL     1      -5.619   5.377  13.635  1.00  0.00     0.070 C 
BRANCH  27  32
HETATM   32  C4  UNL     1      -5.671   2.510  10.992  1.00  0.00     0.209 C 
BRANCH  32  33
HETATM   33  O1  UNL     1      -4.837   1.396  11.272  1.00  0.00    -0.396 OA
HETATM   34  H6  UNL     1      -5.251   0.919  12.015  1.00  0.00     0.209 HD
ENDBRANCH  32  33
ENDBRANCH  27  32
ENDBRANCH   1  24
BRANCH  15  35
HETATM   35  O5  UNL     1       1.450   9.332  11.560  1.00  0.00    -0.392 OA
HETATM   36  H28 UNL     1       0.946   9.324  10.726  1.00  0.00     0.210 HD
ENDBRANCH  15  35
BRANCH  16  37
HETATM   37  O6  UNL     1       2.217   6.504  13.781  1.00  0.00    -0.386 OA
HETATM   38  H29 UNL     1       2.623   5.975  13.073  1.00  0.00     0.210 HD
ENDBRANCH  16  37
TORSDOF 5
ENDMDL
MODEL 5
REMARK minimizedAffinity -8.95346642
REMARK  5 active torsions:
REMARK  status: ('A' for Active; 'I' for Inactive)
REMARK    1  A    between atoms: C3_3  and  C4_4 
REMARK    2  A    between atoms: C4_4  and  O1_5 
REMARK    3  A    between atoms: C6_9  and  C7_10 
REMARK    4  A    between atoms: C20_24  and  O5_25 
REMARK    5  A    between atoms: C21_26  and  O6_27 
ROOT
HETATM    1  C7  UNL     1      -0.394   7.973  11.973  1.00  0.00     0.089 C 
HETATM    2  C8  UNL     1      -0.690   8.822  10.718  1.00  0.00     0.049 C 
HETATM    3  O4  UNL     1       0.929   8.261  12.529  1.00  0.00    -0.365 OA
HETATM    4  C9  UNL     1       1.662   6.989  12.584  1.00  0.00     0.074 C 
HETATM    5  C10 UNL     1       0.965   6.111  13.653  1.00  0.00     0.040 C 
HETATM    6  C11 UNL     1      -0.311   5.651  12.920  1.00  0.00     0.011 C 
HETATM    7  C12 UNL     1      -0.234   6.466  11.603  1.00  0.00     0.034 C 
HETATM    8  C13 UNL     1       1.290   6.326  11.253  1.00  0.00    -0.006 C 
HETATM    9  C14 UNL     1       1.734   4.852  11.061  1.00  0.00     0.019 C 
HETATM   10  C15 UNL     1       1.907   7.131  10.085  1.00  0.00     0.013 C 
HETATM   11  C16 UNL     1       3.424   7.340  10.261  1.00  0.00     0.007 C 
HETATM   12  C17 UNL     1       3.756   8.069  11.592  1.00  0.00     0.011 C 
HETATM   13  C18 UNL     1       3.165   7.239  12.783  1.00  0.00     0.029 C 
HETATM   14  C19 UNL     1       3.448   7.903  14.139  1.00  0.00     0.043 C 
HETATM   15  C20 UNL     1       4.934   8.208  14.350  1.00  0.00     0.154 C 
HETATM   16  C21 UNL     1       5.498   9.065  13.192  1.00  0.00     0.098 C 
HETATM   17  C22 UNL     1       6.973   9.443  13.445  1.00  0.00     0.042 C 
HETATM   18  C23 UNL     1       7.497  10.397  12.370  1.00  0.00     0.010 C 
HETATM   19  C24 UNL     1       7.244   9.895  10.957  1.00  0.00     0.079 C 
HETATM   20  C25 UNL     1       5.815   9.413  10.768  1.00  0.00     0.138 C 
HETATM   21  O7  UNL     1       5.174   9.783   9.784  1.00  0.00    -0.297 OA
HETATM   22  C26 UNL     1       5.289   8.383  11.793  1.00  0.00     0.054 C 
HETATM   23  C27 UNL     1       6.126   7.098  11.580  1.00  0.00     0.027 C 
ENDROOT
BRANCH   1  24
HETATM   24  C6  UNL     1      -1.444   8.343  13.072  1.00  0.00     0.170 C 
HETATM   25  O3  UNL     1      -2.769   8.326  12.507  1.00  0.00    -0.309 OA
HETATM   26  C5  UNL     1      -3.817   8.740  13.266  1.00  0.00     0.292 C 
HETATM   27  C3  UNL     1      -3.508   9.478  14.522  1.00  0.00     0.042 C 
HETATM   28  O2  UNL     1      -4.975   8.528  12.920  1.00  0.00    -0.260 OA
HETATM   29  C2  UNL     1      -2.268   9.967  14.737  1.00  0.00    -0.067 C 
HETATM   30  C1  UNL     1      -1.867  10.814  15.911  1.00  0.00     0.044 C 
HETATM   31  C28 UNL     1      -1.171   9.695  13.740  1.00  0.00     0.070 C 
BRANCH  27  32
HETATM   32  C4  UNL     1      -4.676   9.634  15.449  1.00  0.00     0.209 C 
BRANCH  32  33
HETATM   33  O1  UNL     1      -5.075   8.360  15.934  1.00  0.00    -0.396 OA
HETATM   34  H6  UNL     1      -4.513   8.171  16.709  1.00  0.00     0.209 HD
ENDBRANCH  32  33
ENDBRANCH  27  32
ENDBRANCH   1  24
BRANCH  15  35
HETATM   35  O5  UNL     1       5.668   6.997  14.514  1.00  0.00    -0.392 OA
HETATM   36  H28 UNL     1       5.299   6.532  15.287  1.00  0.00     0.210 HD
ENDBRANCH  15  35
BRANCH  16  37
HETATM   37  O6  UNL     1       4.753  10.306  13.199  1.00  0.00    -0.386 OA
HETATM   38  H29 UNL     1       4.906  10.757  14.048  1.00  0.00     0.210 HD
ENDBRANCH  16  37
TORSDOF 5
ENDMDL
MODEL 6
REMARK minimizedAffinity -8.62930584
REMARK  5 active torsions:
REMARK  status: ('A' for Active; 'I' for Inactive)
REMARK    1  A    between atoms: C3_3  and  C4_4 
REMARK    2  A    between atoms: C4_4  and  O1_5 
REMARK    3  A    between atoms: C6_9  and  C7_10 
REMARK    4  A    between atoms: C20_24  and  O5_25 
REMARK    5  A    between atoms: C21_26  and  O6_27 
ROOT
HETATM    1  C7  UNL     1       0.545   7.419  13.145  1.00  0.00     0.089 C 
HETATM    2  C8  UNL     1       1.699   6.834  13.987  1.00  0.00     0.049 C 
HETATM    3  O4  UNL     1       0.127   8.735  13.629  1.00  0.00    -0.365 OA
HETATM    4  C9  UNL     1      -1.312   8.652  13.920  1.00  0.00     0.074 C 
HETATM    5  C10 UNL     1      -2.037   8.480  12.562  1.00  0.00     0.040 C 
HETATM    6  C11 UNL     1      -1.750   7.004  12.220  1.00  0.00     0.011 C 
HETATM    7  C12 UNL     1      -0.767   6.601  13.349  1.00  0.00     0.034 C 
HETATM    8  C13 UNL     1      -1.442   7.281  14.592  1.00  0.00    -0.006 C 
HETATM    9  C14 UNL     1      -2.884   6.769  14.853  1.00  0.00     0.019 C 
HETATM   10  C15 UNL     1      -0.726   7.307  15.962  1.00  0.00     0.013 C 
HETATM   11  C16 UNL     1      -1.209   8.472  16.849  1.00  0.00     0.007 C 
HETATM   12  C17 UNL     1      -1.003   9.848  16.158  1.00  0.00     0.011 C 
HETATM   13  C18 UNL     1      -1.758   9.841  14.785  1.00  0.00     0.029 C 
HETATM   14  C19 UNL     1      -1.594  11.172  14.035  1.00  0.00     0.043 C 
HETATM   15  C20 UNL     1      -1.988  12.382  14.887  1.00  0.00     0.154 C 
HETATM   16  C21 UNL     1      -1.205  12.405  16.220  1.00  0.00     0.098 C 
HETATM   17  C22 UNL     1      -1.540  13.668  17.043  1.00  0.00     0.042 C 
HETATM   18  C23 UNL     1      -0.673  13.763  18.300  1.00  0.00     0.010 C 
HETATM   19  C24 UNL     1      -0.694  12.489  19.130  1.00  0.00     0.079 C 
HETATM   20  C25 UNL     1      -0.485  11.247  18.279  1.00  0.00     0.138 C 
HETATM   21  O7  UNL     1       0.328  10.394  18.637  1.00  0.00    -0.297 OA
HETATM   22  C26 UNL     1      -1.406  11.086  17.049  1.00  0.00     0.054 C 
HETATM   23  C27 UNL     1      -2.838  10.895  17.606  1.00  0.00     0.027 C 
ENDROOT
BRANCH   1  24
HETATM   24  C6  UNL     1       1.060   7.612  11.680  1.00  0.00     0.170 C 
HETATM   25  O3  UNL     1       0.035   8.230  10.879  1.00  0.00    -0.309 OA
HETATM   26  C5  UNL     1       0.236   8.372   9.543  1.00  0.00     0.292 C 
HETATM   27  C3  UNL     1       1.358   7.608   8.930  1.00  0.00     0.042 C 
HETATM   28  O2  UNL     1      -0.491   9.091   8.864  1.00  0.00    -0.260 OA
HETATM   29  C2  UNL     1       1.949   6.603   9.610  1.00  0.00    -0.067 C 
HETATM   30  C1  UNL     1       3.014   5.699   9.060  1.00  0.00     0.044 C 
HETATM   31  C28 UNL     1       1.527   6.306  11.026  1.00  0.00     0.070 C 
BRANCH  27  32
HETATM   32  C4  UNL     1       1.710   8.041   7.538  1.00  0.00     0.209 C 
BRANCH  32  33
HETATM   33  O1  UNL     1       2.889   8.830   7.565  1.00  0.00    -0.396 OA
HETATM   34  H6  UNL     1       3.641   8.207   7.539  1.00  0.00     0.209 HD
ENDBRANCH  32  33
ENDBRANCH  27  32
ENDBRANCH   1  24
BRANCH  15  35
HETATM   35  O5  UNL     1      -3.397  12.396  15.103  1.00  0.00    -0.392 OA
HETATM   36  H28 UNL     1      -3.828  12.435  14.230  1.00  0.00     0.210 HD
ENDBRANCH  15  35
BRANCH  16  37
HETATM   37  O6  UNL     1       0.197  12.505  15.873  1.00  0.00    -0.386 OA
HETATM   38  H29 UNL     1       0.339  13.339  15.392  1.00  0.00     0.210 HD
ENDBRANCH  16  37
TORSDOF 5
ENDMDL
MODEL 7
REMARK minimizedAffinity -8.60450077
REMARK  5 active torsions:
REMARK  status: ('A' for Active; 'I' for Inactive)
REMARK    1  A    between atoms: C3_3  and  C4_4 
REMARK    2  A    between atoms: C4_4  and  O1_5 
REMARK    3  A    between atoms: C6_9  and  C7_10 
REMARK    4  A    between atoms: C20_24  and  O5_25 
REMARK    5  A    between atoms: C21_26  and  O6_27 
ROOT
HETATM    1  C7  UNL     1      -0.861   6.601  13.494  1.00  0.00     0.089 C 
HETATM    2  C8  UNL     1      -0.721   5.887  14.856  1.00  0.00     0.049 C 
HETATM    3  O4  UNL     1       0.430   6.754  12.822  1.00  0.00    -0.365 OA
HETATM    4  C9  UNL     1       0.610   8.188  12.552  1.00  0.00     0.074 C 
HETATM    5  C10 UNL     1      -0.442   8.583  11.486  1.00  0.00     0.040 C 
HETATM    6  C11 UNL     1      -1.745   8.629  12.310  1.00  0.00     0.011 C 
HETATM    7  C12 UNL     1      -1.270   8.094  13.686  1.00  0.00     0.034 C 
HETATM    8  C13 UNL     1       0.101   8.841  13.842  1.00  0.00    -0.006 C 
HETATM    9  C14 UNL     1      -0.047  10.386  13.828  1.00  0.00     0.019 C 
HETATM   10  C15 UNL     1       1.058   8.498  15.007  1.00  0.00     0.013 C 
HETATM   11  C16 UNL     1       2.523   8.850  14.679  1.00  0.00     0.007 C 
HETATM   12  C17 UNL     1       3.020   8.120  13.401  1.00  0.00     0.011 C 
HETATM   13  C18 UNL     1       2.076   8.494  12.208  1.00  0.00     0.029 C 
HETATM   14  C19 UNL     1       2.501   7.802  10.904  1.00  0.00     0.043 C 
HETATM   15  C20 UNL     1       3.971   8.050  10.555  1.00  0.00     0.154 C 
HETATM   16  C21 UNL     1       4.899   7.636  11.722  1.00  0.00     0.098 C 
HETATM   17  C22 UNL     1       6.385   7.807  11.341  1.00  0.00     0.042 C 
HETATM   18  C23 UNL     1       7.308   7.278  12.440  1.00  0.00     0.010 C 
HETATM   19  C24 UNL     1       6.977   7.840  13.814  1.00  0.00     0.079 C 
HETATM   20  C25 UNL     1       5.488   7.774  14.117  1.00  0.00     0.138 C 
HETATM   21  O7  UNL     1       5.108   7.332  15.201  1.00  0.00    -0.297 OA
HETATM   22  C26 UNL     1       4.538   8.378  13.058  1.00  0.00     0.054 C 
HETATM   23  C27 UNL     1       4.827   9.900  13.040  1.00  0.00     0.027 C 
ENDROOT
BRANCH   1  24
HETATM   24  C6  UNL     1      -1.759   5.715  12.569  1.00  0.00     0.170 C 
HETATM   25  O3  UNL     1      -3.089   5.631  13.113  1.00  0.00    -0.309 OA
HETATM   26  C5  UNL     1      -3.993   4.805  12.525  1.00  0.00     0.292 C 
HETATM   27  C3  UNL     1      -3.480   3.805  11.548  1.00  0.00     0.042 C 
HETATM   28  O2  UNL     1      -5.187   4.871  12.800  1.00  0.00    -0.260 OA
HETATM   29  C2  UNL     1      -2.158   3.537  11.480  1.00  0.00    -0.067 C 
HETATM   30  C1  UNL     1      -1.537   2.479  10.614  1.00  0.00     0.044 C 
HETATM   31  C28 UNL     1      -1.191   4.311  12.338  1.00  0.00     0.070 C 
BRANCH  27  32
HETATM   32  C4  UNL     1      -4.544   3.147  10.722  1.00  0.00     0.209 C 
BRANCH  32  33
HETATM   33  O1  UNL     1      -4.428   3.566   9.370  1.00  0.00    -0.396 OA
HETATM   34  H6  UNL     1      -3.771   2.977   8.953  1.00  0.00     0.209 HD
ENDBRANCH  32  33
ENDBRANCH  27  32
ENDBRANCH   1  24
BRANCH  15  35
HETATM   35  O5  UNL     1       4.168   9.411  10.184  1.00  0.00    -0.392 OA
HETATM   36  H28 UNL     1       3.598   9.592   9.415  1.00  0.00     0.210 HD
ENDBRANCH  15  35
BRANCH  16  37
HETATM   37  O6  UNL     1       4.692   6.218  11.929  1.00  0.00    -0.386 OA
HETATM   38  H29 UNL     1       4.950   5.744  11.119  1.00  0.00     0.210 HD
ENDBRANCH  16  37
TORSDOF 5
ENDMDL
MODEL 8
REMARK minimizedAffinity -8.55297852
REMARK  5 active torsions:
REMARK  status: ('A' for Active; 'I' for Inactive)
REMARK    1  A    between atoms: C3_3  and  C4_4 
REMARK    2  A    between atoms: C4_4  and  O1_5 
REMARK    3  A    between atoms: C6_9  and  C7_10 
REMARK    4  A    between atoms: C20_24  and  O5_25 
REMARK    5  A    between atoms: C21_26  and  O6_27 
ROOT
HETATM    1  C7  UNL     1      -0.397  10.316  15.204  1.00  0.00     0.089 C 
HETATM    2  C8  UNL     1      -1.083  11.540  14.559  1.00  0.00     0.049 C 
HETATM    3  O4  UNL     1       0.459   9.606  14.254  1.00  0.00    -0.365 OA
HETATM    4  C9  UNL     1      -0.001   8.211  14.215  1.00  0.00     0.074 C 
HETATM    5  C10 UNL     1       0.332   7.586  15.592  1.00  0.00     0.040 C 
HETATM    6  C11 UNL     1      -0.752   8.198  16.502  1.00  0.00     0.011 C 
HETATM    7  C12 UNL     1      -1.439   9.207  15.545  1.00  0.00     0.034 C 
HETATM    8  C13 UNL     1      -1.527   8.358  14.228  1.00  0.00    -0.006 C 
HETATM    9  C14 UNL     1      -2.350   7.054  14.402  1.00  0.00     0.019 C 
HETATM   10  C15 UNL     1      -1.995   9.004  12.903  1.00  0.00     0.013 C 
HETATM   11  C16 UNL     1      -1.464   8.249  11.669  1.00  0.00     0.007 C 
HETATM   12  C17 UNL     1       0.088   8.176  11.661  1.00  0.00     0.011 C 
HETATM   13  C18 UNL     1       0.567   7.487  12.984  1.00  0.00     0.029 C 
HETATM   14  C19 UNL     1       2.099   7.384  13.053  1.00  0.00     0.043 C 
HETATM   15  C20 UNL     1       2.701   6.708  11.818  1.00  0.00     0.154 C 
HETATM   16  C21 UNL     1       2.259   7.421  10.519  1.00  0.00     0.098 C 
HETATM   17  C22 UNL     1       2.932   6.792   9.280  1.00  0.00     0.042 C 
HETATM   18  C23 UNL     1       2.601   7.574   8.007  1.00  0.00     0.010 C 
HETATM   19  C24 UNL     1       1.109   7.803   7.823  1.00  0.00     0.079 C 
HETATM   20  C25 UNL     1       0.445   8.305   9.095  1.00  0.00     0.138 C 
HETATM   21  O7  UNL     1      -0.317   9.271   9.042  1.00  0.00    -0.297 OA
HETATM   22  C26 UNL     1       0.696   7.483  10.380  1.00  0.00     0.054 C 
HETATM   23  C27 UNL     1       0.022   6.108  10.149  1.00  0.00     0.027 C 
ENDROOT
BRANCH   1  24
HETATM   24  C6  UNL     1       0.525  10.826  16.360  1.00  0.00     0.170 C 
HETATM   25  O3  UNL     1       1.852  10.293  16.199  1.00  0.00    -0.309 OA
HETATM   26  C5  UNL     1       2.777  10.516  17.170  1.00  0.00     0.292 C 
HETATM   27  C3  UNL     1       2.289  11.027  18.481  1.00  0.00     0.042 C 
HETATM   28  O2  UNL     1       3.967  10.288  16.978  1.00  0.00    -0.260 OA
HETATM   29  C2  UNL     1       0.974  10.984  18.782  1.00  0.00    -0.067 C 
HETATM   30  C1  UNL     1       0.379  11.370  20.106  1.00  0.00     0.044 C 
HETATM   31  C28 UNL     1      -0.014  10.493  17.756  1.00  0.00     0.070 C 
BRANCH  27  32
HETATM   32  C4  UNL     1       3.372  11.533  19.386  1.00  0.00     0.209 C 
BRANCH  32  33
HETATM   33  O1  UNL     1       3.950  10.447  20.095  1.00  0.00    -0.396 OA
HETATM   34  H6  UNL     1       4.640  10.073  19.515  1.00  0.00     0.209 HD
ENDBRANCH  32  33
ENDBRANCH  27  32
ENDBRANCH   1  24
BRANCH  15  35
HETATM   35  O5  UNL     1       2.364   5.323  11.800  1.00  0.00    -0.392 OA
HETATM   36  H28 UNL     1       2.716   4.924  12.616  1.00  0.00     0.210 HD
ENDBRANCH  15  35
BRANCH  16  37
HETATM   37  O6  UNL     1       2.754   8.779  10.606  1.00  0.00    -0.386 OA
HETATM   38  H29 UNL     1       3.725   8.754  10.654  1.00  0.00     0.210 HD
ENDBRANCH  16  37
TORSDOF 5
ENDMDL
MODEL 9
REMARK minimizedAffinity -8.54811573
REMARK  5 active torsions:
REMARK  status: ('A' for Active; 'I' for Inactive)
REMARK    1  A    between atoms: C3_3  and  C4_4 
REMARK    2  A    between atoms: C4_4  and  O1_5 
REMARK    3  A    between atoms: C6_9  and  C7_10 
REMARK    4  A    between atoms: C20_24  and  O5_25 
REMARK    5  A    between atoms: C21_26  and  O6_27 
ROOT
HETATM    1  C7  UNL     1       0.500   7.709  10.604  1.00  0.00     0.089 C 
HETATM    2  C8  UNL     1      -0.128   8.717   9.617  1.00  0.00     0.049 C 
HETATM    3  O4  UNL     1      -0.517   6.970  11.352  1.00  0.00    -0.365 OA
HETATM    4  C9  UNL     1      -0.246   7.183  12.781  1.00  0.00     0.074 C 
HETATM    5  C10 UNL     1       1.085   6.459  13.101  1.00  0.00     0.040 C 
HETATM    6  C11 UNL     1       2.132   7.410  12.487  1.00  0.00     0.011 C 
HETATM    7  C12 UNL     1       1.235   8.449  11.765  1.00  0.00     0.034 C 
HETATM    8  C13 UNL     1       0.112   8.672  12.838  1.00  0.00    -0.006 C 
HETATM    9  C14 UNL     1       0.662   9.204  14.188  1.00  0.00     0.019 C 
HETATM   10  C15 UNL     1      -1.139   9.517  12.505  1.00  0.00     0.013 C 
HETATM   11  C16 UNL     1      -2.345   9.144  13.389  1.00  0.00     0.007 C 
HETATM   12  C17 UNL     1      -2.716   7.641  13.256  1.00  0.00     0.011 C 
HETATM   13  C18 UNL     1      -1.462   6.778  13.629  1.00  0.00     0.029 C 
HETATM   14  C19 UNL     1      -1.749   5.273  13.513  1.00  0.00     0.043 C 
HETATM   15  C20 UNL     1      -2.983   4.844  14.311  1.00  0.00     0.154 C 
HETATM   16  C21 UNL     1      -4.226   5.671  13.905  1.00  0.00     0.098 C 
HETATM   17  C22 UNL     1      -5.488   5.183  14.649  1.00  0.00     0.042 C 
HETATM   18  C23 UNL     1      -6.742   5.909  14.156  1.00  0.00     0.010 C 
HETATM   19  C24 UNL     1      -6.593   7.422  14.165  1.00  0.00     0.079 C 
HETATM   20  C25 UNL     1      -5.284   7.873  13.537  1.00  0.00     0.138 C 
HETATM   21  O7  UNL     1      -5.288   8.781  12.706  1.00  0.00    -0.297 OA
HETATM   22  C26 UNL     1      -3.993   7.214  14.077  1.00  0.00     0.054 C 
HETATM   23  C27 UNL     1      -3.857   7.678  15.549  1.00  0.00     0.027 C 
ENDROOT
BRANCH   1  24
HETATM   24  C6  UNL     1       1.317   6.661   9.779  1.00  0.00     0.170 C 
HETATM   25  O3  UNL     1       2.532   6.329  10.477  1.00  0.00    -0.309 OA
HETATM   26  C5  UNL     1       3.445   5.527   9.870  1.00  0.00     0.292 C 
HETATM   27  C3  UNL     1       3.288   5.288   8.408  1.00  0.00     0.042 C 
HETATM   28  O2  UNL     1       4.374   5.031  10.500  1.00  0.00    -0.260 OA
HETATM   29  C2  UNL     1       2.462   6.066   7.676  1.00  0.00    -0.067 C 
HETATM   30  C1  UNL     1       2.302   5.989   6.185  1.00  0.00     0.044 C 
HETATM   31  C28 UNL     1       1.635   7.127   8.354  1.00  0.00     0.070 C 
BRANCH  27  32
HETATM   32  C4  UNL     1       4.131   4.170   7.872  1.00  0.00     0.209 C 
BRANCH  32  33
HETATM   33  O1  UNL     1       4.847   3.558   8.935  1.00  0.00    -0.396 OA
HETATM   34  H6  UNL     1       4.248   2.892   9.325  1.00  0.00     0.209 HD
ENDBRANCH  32  33
ENDBRANCH  27  32
ENDBRANCH   1  24
BRANCH  15  35
HETATM   35  O5  UNL     1      -2.724   4.936  15.710  1.00  0.00    -0.392 OA
HETATM   36  H28 UNL     1      -1.968   4.354  15.907  1.00  0.00     0.210 HD
ENDBRANCH  15  35
BRANCH  16  37
HETATM   37  O6  UNL     1      -4.454   5.408  12.500  1.00  0.00    -0.386 OA
HETATM   38  H29 UNL     1      -4.638   4.459  12.387  1.00  0.00     0.210 HD
ENDBRANCH  16  37
TORSDOF 5
ENDMDL
