MODEL 1
REMARK minimizedAffinity -9.37418365
REMARK  4 active torsions:
REMARK  status: ('A' for Active; 'I' for Inactive)
REMARK    1  A    between atoms: C4_4  and  C5_5 
REMARK    2  A    between atoms: C5_5  and  C6_6 
REMARK    3  A    between atoms: C6_6  and  C7_7 
REMARK    4  A    between atoms: C7_7  and  C9_9 
ROOT
HETATM    1  C9  UNL     1      -5.106   7.871  14.071  1.00  0.00    -0.002 C 
HETATM    2  C10 UNL     1      -4.678   9.159  14.838  1.00  0.00     0.006 C 
HETATM    3  C11 UNL     1      -3.141   9.172  14.917  1.00  0.00     0.011 C 
HETATM    4  C12 UNL     1      -2.683   8.113  13.900  1.00  0.00    -0.032 C 
HETATM    5  C13 UNL     1      -2.691   8.802  12.499  1.00  0.00     0.016 C 
HETATM    6  C14 UNL     1      -1.280   7.495  14.175  1.00  0.00     0.004 C 
HETATM    7  C15 UNL     1      -0.127   8.521  14.153  1.00  0.00     0.007 C 
HETATM    8  C16 UNL     1       0.604   8.636  12.821  1.00  0.00     0.007 C 
HETATM    9  C17 UNL     1       1.314   7.324  12.444  1.00  0.00     0.010 C 
HETATM   10  C18 UNL     1       2.169   7.465  11.134  1.00  0.00     0.018 C 
HETATM   11  C19 UNL     1       3.426   8.319  11.435  1.00  0.00     0.023 C 
HETATM   12  C20 UNL     1       1.420   8.140   9.968  1.00  0.00     0.023 C 
HETATM   13  C21 UNL     1       2.664   6.094  10.651  1.00  0.00     0.135 C 
HETATM   14  O1  UNL     1       3.730   5.960  10.042  1.00  0.00    -0.297 OA
HETATM   15  C22 UNL     1       1.815   4.879  10.922  1.00  0.00     0.080 C 
HETATM   16  C23 UNL     1       0.380   5.246  11.232  1.00  0.00     0.018 C 
HETATM   17  C24 UNL     1       0.308   6.153  12.447  1.00  0.00    -0.026 A 
HETATM   18  C25 UNL     1       0.179   5.427  13.765  1.00  0.00     0.021 A 
HETATM   19  C26 UNL     1      -1.005   6.249  13.290  1.00  0.00    -0.027 A 
HETATM   20  C27 UNL     1      -2.225   5.366  12.942  1.00  0.00     0.011 C 
HETATM   21  C28 UNL     1      -3.615   6.020  12.936  1.00  0.00     0.011 C 
HETATM   22  C29 UNL     1      -3.798   7.012  14.091  1.00  0.00    -0.032 C 
HETATM   23  C30 UNL     1      -3.709   6.250  15.451  1.00  0.00     0.016 C 
ENDROOT
BRANCH   1  24
HETATM   24  C7  UNL     1      -6.447   7.288  14.621  1.00  0.00    -0.014 C 
HETATM   25  C8  UNL     1      -7.348   8.425  15.143  1.00  0.00     0.010 C 
BRANCH  24  26
HETATM   26  C6  UNL     1      -7.206   6.447  13.569  1.00  0.00     0.008 C 
BRANCH  26  27
HETATM   27  C5  UNL     1      -7.163   4.931  13.808  1.00  0.00     0.028 C 
BRANCH  27  28
HETATM   28  C4  UNL     1      -6.324   4.250  12.758  1.00  0.00    -0.025 C 
HETATM   29  C2  UNL     1      -6.460   3.004  12.264  1.00  0.00    -0.091 C 
HETATM   30  C1  UNL     1      -5.509   2.495  11.212  1.00  0.00     0.042 C 
HETATM   31  C3  UNL     1      -7.521   2.016  12.663  1.00  0.00     0.042 C 
ENDBRANCH  27  28
ENDBRANCH  26  27
ENDBRANCH  24  26
ENDBRANCH   1  24
TORSDOF 4
ENDMDL
MODEL 2
REMARK minimizedAffinity -9.08700466
REMARK  4 active torsions:
REMARK  status: ('A' for Active; 'I' for Inactive)
REMARK    1  A    between atoms: C4_4  and  C5_5 
REMARK    2  A    between atoms: C5_5  and  C6_6 
REMARK    3  A    between atoms: C6_6  and  C7_7 
REMARK    4  A    between atoms: C7_7  and  C9_9 
ROOT
HETATM    1  C9  UNL     1      -6.609   7.247  14.333  1.00  0.00    -0.002 C 
HETATM    2  C10 UNL     1      -6.459   8.600  15.091  1.00  0.00     0.006 C 
HETATM    3  C11 UNL     1      -4.956   8.854  15.311  1.00  0.00     0.011 C 
HETATM    4  C12 UNL     1      -4.245   7.859  14.378  1.00  0.00    -0.032 C 
HETATM    5  C13 UNL     1      -4.224   8.510  12.960  1.00  0.00     0.016 C 
HETATM    6  C14 UNL     1      -2.798   7.472  14.803  1.00  0.00     0.004 C 
HETATM    7  C15 UNL     1      -1.819   8.664  14.852  1.00  0.00     0.007 C 
HETATM    8  C16 UNL     1      -0.988   8.865  13.590  1.00  0.00     0.007 C 
HETATM    9  C17 UNL     1      -0.053   7.672  13.325  1.00  0.00     0.010 C 
HETATM   10  C18 UNL     1       0.893   7.918  12.097  1.00  0.00     0.018 C 
HETATM   11  C19 UNL     1       1.969   8.962  12.483  1.00  0.00     0.023 C 
HETATM   12  C20 UNL     1       0.166   8.445  10.843  1.00  0.00     0.023 C 
HETATM   13  C21 UNL     1       1.636   6.632  11.708  1.00  0.00     0.135 C 
HETATM   14  O1  UNL     1       2.763   6.652  11.205  1.00  0.00    -0.297 OA
HETATM   15  C22 UNL     1       0.960   5.304  11.942  1.00  0.00     0.080 C 
HETATM   16  C23 UNL     1      -0.537   5.451  12.105  1.00  0.00     0.018 C 
HETATM   17  C24 UNL     1      -0.865   6.359  13.276  1.00  0.00    -0.026 A 
HETATM   18  C25 UNL     1      -1.007   5.648  14.601  1.00  0.00     0.021 A 
HETATM   19  C26 UNL     1      -2.252   6.267  13.990  1.00  0.00    -0.027 A 
HETATM   20  C27 UNL     1      -3.283   5.198  13.562  1.00  0.00     0.011 C 
HETATM   21  C28 UNL     1      -4.750   5.628  13.404  1.00  0.00     0.011 C 
HETATM   22  C29 UNL     1      -5.193   6.602  14.504  1.00  0.00    -0.032 C 
HETATM   23  C30 UNL     1      -5.120   5.890  15.891  1.00  0.00     0.016 C 
ENDROOT
BRANCH   1  24
HETATM   24  C7  UNL     1      -7.892   6.473  14.776  1.00  0.00    -0.014 C 
HETATM   25  C8  UNL     1      -8.601   7.227  15.918  1.00  0.00     0.010 C 
BRANCH  24  26
HETATM   26  C6  UNL     1      -8.874   6.231  13.607  1.00  0.00     0.008 C 
BRANCH  26  27
HETATM   27  C5  UNL     1      -8.294   5.415  12.442  1.00  0.00     0.028 C 
BRANCH  27  28
HETATM   28  C4  UNL     1      -8.144   3.968  12.830  1.00  0.00    -0.025 C 
HETATM   29  C2  UNL     1      -7.223   3.083  12.399  1.00  0.00    -0.091 C 
HETATM   30  C1  UNL     1      -7.238   1.663  12.903  1.00  0.00     0.042 C 
HETATM   31  C3  UNL     1      -6.115   3.378  11.427  1.00  0.00     0.042 C 
ENDBRANCH  27  28
ENDBRANCH  26  27
ENDBRANCH  24  26
ENDBRANCH   1  24
TORSDOF 4
ENDMDL
MODEL 3
REMARK minimizedAffinity -8.9438324
REMARK  4 active torsions:
REMARK  status: ('A' for Active; 'I' for Inactive)
REMARK    1  A    between atoms: C4_4  and  C5_5 
REMARK    2  A    between atoms: C5_5  and  C6_6 
REMARK    3  A    between atoms: C6_6  and  C7_7 
REMARK    4  A    between atoms: C7_7  and  C9_9 
ROOT
HETATM    1  C9  UNL     1      -6.564   7.246  14.381  1.00  0.00    -0.002 C 
HETATM    2  C10 UNL     1      -6.301   8.579  15.145  1.00  0.00     0.006 C 
HETATM    3  C11 UNL     1      -4.778   8.788  15.217  1.00  0.00     0.011 C 
HETATM    4  C12 UNL     1      -4.192   7.795  14.200  1.00  0.00    -0.032 C 
HETATM    5  C13 UNL     1      -4.294   8.474  12.798  1.00  0.00     0.016 C 
HETATM    6  C14 UNL     1      -2.721   7.361  14.469  1.00  0.00     0.004 C 
HETATM    7  C15 UNL     1      -1.708   8.525  14.441  1.00  0.00     0.007 C 
HETATM    8  C16 UNL     1      -1.003   8.730  13.105  1.00  0.00     0.007 C 
HETATM    9  C17 UNL     1      -0.133   7.518  12.727  1.00  0.00     0.010 C 
HETATM   10  C18 UNL     1       0.691   7.765  11.413  1.00  0.00     0.018 C 
HETATM   11  C19 UNL     1       1.830   8.772  11.708  1.00  0.00     0.023 C 
HETATM   12  C20 UNL     1      -0.142   8.337  10.249  1.00  0.00     0.023 C 
HETATM   13  C21 UNL     1       1.355   6.467  10.929  1.00  0.00     0.135 C 
HETATM   14  O1  UNL     1       2.426   6.468  10.316  1.00  0.00    -0.297 OA
HETATM   15  C22 UNL     1       0.669   5.154  11.206  1.00  0.00     0.080 C 
HETATM   16  C23 UNL     1      -0.800   5.336  11.522  1.00  0.00     0.018 C 
HETATM   17  C24 UNL     1      -0.983   6.229  12.736  1.00  0.00    -0.026 A 
HETATM   18  C25 UNL     1      -1.012   5.495  14.055  1.00  0.00     0.021 A 
HETATM   19  C26 UNL     1      -2.294   6.158  13.584  1.00  0.00    -0.027 A 
HETATM   20  C27 UNL     1      -3.393   5.126  13.242  1.00  0.00     0.011 C 
HETATM   21  C28 UNL     1      -4.855   5.598  13.241  1.00  0.00     0.011 C 
HETATM   22  C29 UNL     1      -5.158   6.561  14.397  1.00  0.00    -0.032 C 
HETATM   23  C30 UNL     1      -4.967   5.819  15.757  1.00  0.00     0.016 C 
ENDROOT
BRANCH   1  24
HETATM   24  C7  UNL     1      -7.818   6.498  14.937  1.00  0.00    -0.014 C 
HETATM   25  C8  UNL     1      -8.093   6.926  16.393  1.00  0.00     0.010 C 
BRANCH  24  26
HETATM   26  C6  UNL     1      -9.078   6.721  14.069  1.00  0.00     0.008 C 
BRANCH  26  27
HETATM   27  C5  UNL     1     -10.221   7.464  14.777  1.00  0.00     0.028 C 
BRANCH  27  28
HETATM   28  C4  UNL     1     -11.557   7.002  14.258  1.00  0.00    -0.025 C 
HETATM   29  C2  UNL     1     -12.324   7.576  13.310  1.00  0.00    -0.091 C 
HETATM   30  C1  UNL     1     -13.646   6.962  12.926  1.00  0.00     0.042 C 
HETATM   31  C3  UNL     1     -11.980   8.823  12.543  1.00  0.00     0.042 C 
ENDBRANCH  27  28
ENDBRANCH  26  27
ENDBRANCH  24  26
ENDBRANCH   1  24
TORSDOF 4
ENDMDL
MODEL 4
REMARK minimizedAffinity -8.93920231
REMARK  4 active torsions:
REMARK  status: ('A' for Active; 'I' for Inactive)
REMARK    1  A    between atoms: C4_4  and  C5_5 
REMARK    2  A    between atoms: C5_5  and  C6_6 
REMARK    3  A    between atoms: C6_6  and  C7_7 
REMARK    4  A    between atoms: C7_7  and  C9_9 
ROOT
HETATM    1  C9  UNL     1       0.380   5.994  11.370  1.00  0.00    -0.002 C 
HETATM    2  C10 UNL     1       0.526   4.445  11.278  1.00  0.00     0.006 C 
HETATM    3  C11 UNL     1      -0.662   3.814  12.026  1.00  0.00     0.011 C 
HETATM    4  C12 UNL     1      -1.663   4.965  12.224  1.00  0.00    -0.032 C 
HETATM    5  C13 UNL     1      -2.471   5.091  10.894  1.00  0.00     0.016 C 
HETATM    6  C14 UNL     1      -2.642   4.792  13.422  1.00  0.00     0.004 C 
HETATM    7  C15 UNL     1      -3.555   3.552  13.312  1.00  0.00     0.007 C 
HETATM    8  C16 UNL     1      -4.932   3.819  12.716  1.00  0.00     0.007 C 
HETATM    9  C17 UNL     1      -5.761   4.770  13.597  1.00  0.00     0.010 C 
HETATM   10  C18 UNL     1      -7.223   4.959  13.056  1.00  0.00     0.018 C 
HETATM   11  C19 UNL     1      -8.032   3.662  13.308  1.00  0.00     0.023 C 
HETATM   12  C20 UNL     1      -7.298   5.265  11.547  1.00  0.00     0.023 C 
HETATM   13  C21 UNL     1      -7.944   6.089  13.806  1.00  0.00     0.135 C 
HETATM   14  O1  UNL     1      -9.166   6.082  13.982  1.00  0.00    -0.297 OA
HETATM   15  C22 UNL     1      -7.133   7.245  14.332  1.00  0.00     0.080 C 
HETATM   16  C23 UNL     1      -5.786   7.350  13.650  1.00  0.00     0.018 C 
HETATM   17  C24 UNL     1      -4.981   6.078  13.850  1.00  0.00    -0.026 A 
HETATM   18  C25 UNL     1      -4.113   6.073  15.086  1.00  0.00     0.021 A 
HETATM   19  C26 UNL     1      -3.422   6.097  13.734  1.00  0.00    -0.027 A 
HETATM   20  C27 UNL     1      -2.672   7.426  13.487  1.00  0.00     0.011 C 
HETATM   21  C28 UNL     1      -1.542   7.438  12.447  1.00  0.00     0.011 C 
HETATM   22  C29 UNL     1      -0.682   6.169  12.507  1.00  0.00    -0.032 C 
HETATM   23  C30 UNL     1       0.035   6.090  13.891  1.00  0.00     0.016 C 
ENDROOT
BRANCH   1  24
HETATM   24  C7  UNL     1       1.769   6.702  11.465  1.00  0.00    -0.014 C 
HETATM   25  C8  UNL     1       2.856   5.836  10.799  1.00  0.00     0.010 C 
BRANCH  24  26
HETATM   26  C6  UNL     1       1.759   8.117  10.842  1.00  0.00     0.008 C 
BRANCH  26  27
HETATM   27  C5  UNL     1       0.598   8.383   9.873  1.00  0.00     0.028 C 
BRANCH  27  28
HETATM   28  C4  UNL     1       0.826   7.675   8.563  1.00  0.00    -0.025 C 
HETATM   29  C2  UNL     1       1.862   7.814   7.712  1.00  0.00    -0.091 C 
HETATM   30  C1  UNL     1       1.910   7.015   6.435  1.00  0.00     0.042 C 
HETATM   31  C3  UNL     1       3.044   8.720   7.915  1.00  0.00     0.042 C 
ENDBRANCH  27  28
ENDBRANCH  26  27
ENDBRANCH  24  26
ENDBRANCH   1  24
TORSDOF 4
ENDMDL
MODEL 5
REMARK minimizedAffinity -8.85709667
REMARK  4 active torsions:
REMARK  status: ('A' for Active; 'I' for Inactive)
REMARK    1  A    between atoms: C4_4  and  C5_5 
REMARK    2  A    between atoms: C5_5  and  C6_6 
REMARK    3  A    between atoms: C6_6  and  C7_7 
REMARK    4  A    between atoms: C7_7  and  C9_9 
ROOT
HETATM    1  C9  UNL     1      -4.698   7.958  13.860  1.00  0.00    -0.002 C 
HETATM    2  C10 UNL     1      -4.272   9.294  14.541  1.00  0.00     0.006 C 
HETATM    3  C11 UNL     1      -2.734   9.336  14.577  1.00  0.00     0.011 C 
HETATM    4  C12 UNL     1      -2.284   8.228  13.611  1.00  0.00    -0.032 C 
HETATM    5  C13 UNL     1      -2.341   8.834  12.173  1.00  0.00     0.016 C 
HETATM    6  C14 UNL     1      -0.864   7.648  13.882  1.00  0.00     0.004 C 
HETATM    7  C15 UNL     1       0.270   8.689  13.771  1.00  0.00     0.007 C 
HETATM    8  C16 UNL     1       0.964   8.739  12.415  1.00  0.00     0.007 C 
HETATM    9  C17 UNL     1       1.687   7.418  12.094  1.00  0.00     0.010 C 
HETATM   10  C18 UNL     1       2.505   7.497  10.756  1.00  0.00     0.018 C 
HETATM   11  C19 UNL     1       3.754   8.386  10.974  1.00  0.00     0.023 C 
HETATM   12  C20 UNL     1       1.714   8.092   9.574  1.00  0.00     0.023 C 
HETATM   13  C21 UNL     1       3.010   6.109  10.339  1.00  0.00     0.135 C 
HETATM   14  O1  UNL     1       4.062   5.956   9.710  1.00  0.00    -0.297 OA
HETATM   15  C22 UNL     1       2.190   4.898  10.702  1.00  0.00     0.080 C 
HETATM   16  C23 UNL     1       0.757   5.260  11.029  1.00  0.00     0.018 C 
HETATM   17  C24 UNL     1       0.701   6.234  12.191  1.00  0.00    -0.026 A 
HETATM   18  C25 UNL     1       0.619   5.583  13.552  1.00  0.00     0.021 A 
HETATM   19  C26 UNL     1      -0.591   6.358  13.063  1.00  0.00    -0.027 A 
HETATM   20  C27 UNL     1      -1.805   5.437  12.799  1.00  0.00     0.011 C 
HETATM   21  C28 UNL     1      -3.205   6.068  12.792  1.00  0.00     0.011 C 
HETATM   22  C29 UNL     1      -3.375   7.122  13.894  1.00  0.00    -0.032 C 
HETATM   23  C30 UNL     1      -3.238   6.441  15.292  1.00  0.00     0.016 C 
ENDROOT
BRANCH   1  24
HETATM   24  C7  UNL     1      -6.014   7.386  14.478  1.00  0.00    -0.014 C 
HETATM   25  C8  UNL     1      -6.879   8.531  15.043  1.00  0.00     0.010 C 
BRANCH  24  26
HETATM   26  C6  UNL     1      -6.831   6.549  13.467  1.00  0.00     0.008 C 
BRANCH  26  27
HETATM   27  C5  UNL     1      -8.069   5.859  14.059  1.00  0.00     0.028 C 
BRANCH  27  28
HETATM   28  C4  UNL     1      -9.311   6.260  13.309  1.00  0.00    -0.025 C 
HETATM   29  C2  UNL     1     -10.326   7.038  13.736  1.00  0.00    -0.091 C 
HETATM   30  C1  UNL     1     -11.498   7.324  12.832  1.00  0.00     0.042 C 
HETATM   31  C3  UNL     1     -10.416   7.695  15.085  1.00  0.00     0.042 C 
ENDBRANCH  27  28
ENDBRANCH  26  27
ENDBRANCH  24  26
ENDBRANCH   1  24
TORSDOF 4
ENDMDL
MODEL 6
REMARK minimizedAffinity -8.417202
REMARK  4 active torsions:
REMARK  status: ('A' for Active; 'I' for Inactive)
REMARK    1  A    between atoms: C4_4  and  C5_5 
REMARK    2  A    between atoms: C5_5  and  C6_6 
REMARK    3  A    between atoms: C6_6  and  C7_7 
REMARK    4  A    between atoms: C7_7  and  C9_9 
ROOT
HETATM    1  C9  UNL     1      -3.705   6.170  13.807  1.00  0.00    -0.002 C 
HETATM    2  C10 UNL     1      -2.423   6.245  12.925  1.00  0.00     0.006 C 
HETATM    3  C11 UNL     1      -1.797   7.639  13.119  1.00  0.00     0.011 C 
HETATM    4  C12 UNL     1      -2.494   8.216  14.362  1.00  0.00    -0.032 C 
HETATM    5  C13 UNL     1      -1.755   7.630  15.605  1.00  0.00     0.016 C 
HETATM    6  C14 UNL     1      -2.516   9.771  14.447  1.00  0.00     0.004 C 
HETATM    7  C15 UNL     1      -1.114  10.416  14.502  1.00  0.00     0.007 C 
HETATM    8  C16 UNL     1      -0.605  10.725  15.905  1.00  0.00     0.007 C 
HETATM    9  C17 UNL     1      -1.484  11.770  16.614  1.00  0.00     0.010 C 
HETATM   10  C18 UNL     1      -0.903  12.185  18.013  1.00  0.00     0.018 C 
HETATM   11  C19 UNL     1       0.356  13.062  17.802  1.00  0.00     0.023 C 
HETATM   12  C20 UNL     1      -0.494  10.993  18.900  1.00  0.00     0.023 C 
HETATM   13  C21 UNL     1      -1.914  13.035  18.797  1.00  0.00     0.135 C 
HETATM   14  O1  UNL     1      -1.557  13.903  19.599  1.00  0.00    -0.297 OA
HETATM   15  C22 UNL     1      -3.386  12.792  18.585  1.00  0.00     0.080 C 
HETATM   16  C23 UNL     1      -3.655  11.436  17.969  1.00  0.00     0.018 C 
HETATM   17  C24 UNL     1      -2.957  11.307  16.627  1.00  0.00    -0.026 A 
HETATM   18  C25 UNL     1      -3.779  11.766  15.446  1.00  0.00     0.021 A 
HETATM   19  C26 UNL     1      -3.468  10.284  15.561  1.00  0.00    -0.027 A 
HETATM   20  C27 UNL     1      -4.736   9.442  15.829  1.00  0.00     0.011 C 
HETATM   21  C28 UNL     1      -4.699   7.946  15.480  1.00  0.00     0.011 C 
HETATM   22  C29 UNL     1      -3.963   7.673  14.162  1.00  0.00    -0.032 C 
HETATM   23  C30 UNL     1      -4.734   8.349  12.985  1.00  0.00     0.016 C 
ENDROOT
BRANCH   1  24
HETATM   24  C7  UNL     1      -4.822   5.311  13.133  1.00  0.00    -0.014 C 
HETATM   25  C8  UNL     1      -4.230   3.993  12.596  1.00  0.00     0.010 C 
BRANCH  24  26
HETATM   26  C6  UNL     1      -6.002   5.015  14.087  1.00  0.00     0.008 C 
BRANCH  26  27
HETATM   27  C5  UNL     1      -7.067   4.067  13.515  1.00  0.00     0.028 C 
BRANCH  27  28
HETATM   28  C4  UNL     1      -7.768   4.700  12.342  1.00  0.00    -0.025 C 
HETATM   29  C2  UNL     1      -8.696   5.676  12.356  1.00  0.00    -0.091 C 
HETATM   30  C1  UNL     1      -9.292   6.179  11.066  1.00  0.00     0.042 C 
HETATM   31  C3  UNL     1      -9.223   6.364  13.585  1.00  0.00     0.042 C 
ENDBRANCH  27  28
ENDBRANCH  26  27
ENDBRANCH  24  26
ENDBRANCH   1  24
TORSDOF 4
ENDMDL
MODEL 7
REMARK minimizedAffinity -8.39643669
REMARK  4 active torsions:
REMARK  status: ('A' for Active; 'I' for Inactive)
REMARK    1  A    between atoms: C4_4  and  C5_5 
REMARK    2  A    between atoms: C5_5  and  C6_6 
REMARK    3  A    between atoms: C6_6  and  C7_7 
REMARK    4  A    between atoms: C7_7  and  C9_9 
ROOT
HETATM    1  C9  UNL     1      -3.283   6.396  13.169  1.00  0.00    -0.002 C 
HETATM    2  C10 UNL     1      -3.594   4.903  12.849  1.00  0.00     0.006 C 
HETATM    3  C11 UNL     1      -4.972   4.569  13.448  1.00  0.00     0.011 C 
HETATM    4  C12 UNL     1      -5.601   5.932  13.781  1.00  0.00    -0.032 C 
HETATM    5  C13 UNL     1      -6.225   6.475  12.457  1.00  0.00     0.016 C 
HETATM    6  C14 UNL     1      -6.682   5.907  14.902  1.00  0.00     0.004 C 
HETATM    7  C15 UNL     1      -7.908   5.030  14.571  1.00  0.00     0.007 C 
HETATM    8  C16 UNL     1      -9.091   5.781  13.972  1.00  0.00     0.007 C 
HETATM    9  C17 UNL     1      -9.671   6.812  14.956  1.00  0.00     0.010 C 
HETATM   10  C18 UNL     1     -10.963   7.508  14.397  1.00  0.00     0.018 C 
HETATM   11  C19 UNL     1     -12.136   6.497  14.419  1.00  0.00     0.023 C 
HETATM   12  C20 UNL     1     -10.821   8.021  12.951  1.00  0.00     0.023 C 
HETATM   13  C21 UNL     1     -11.376   8.692  15.283  1.00  0.00     0.135 C 
HETATM   14  O1  UNL     1     -12.555   9.034  15.411  1.00  0.00    -0.297 OA
HETATM   15  C22 UNL     1     -10.305   9.465  16.008  1.00  0.00     0.080 C 
HETATM   16  C23 UNL     1      -8.936   9.245  15.400  1.00  0.00     0.018 C 
HETATM   17  C24 UNL     1      -8.562   7.775  15.434  1.00  0.00    -0.026 A 
HETATM   18  C25 UNL     1      -7.837   7.340  16.686  1.00  0.00     0.021 A 
HETATM   19  C26 UNL     1      -7.063   7.334  15.380  1.00  0.00    -0.027 A 
HETATM   20  C27 UNL     1      -5.937   8.392  15.366  1.00  0.00     0.011 C 
HETATM   21  C28 UNL     1      -4.773   8.199  14.382  1.00  0.00     0.011 C 
HETATM   22  C29 UNL     1      -4.334   6.732  14.279  1.00  0.00    -0.032 C 
HETATM   23  C30 UNL     1      -3.787   6.254  15.661  1.00  0.00     0.016 C 
ENDROOT
BRANCH   1  24
HETATM   24  C7  UNL     1      -1.759   6.629  13.422  1.00  0.00    -0.014 C 
HETATM   25  C8  UNL     1      -1.332   5.968  14.748  1.00  0.00     0.010 C 
BRANCH  24  26
HETATM   26  C6  UNL     1      -0.878   6.113  12.261  1.00  0.00     0.008 C 
BRANCH  26  27
HETATM   27  C5  UNL     1      -0.382   7.204  11.300  1.00  0.00     0.028 C 
BRANCH  27  28
HETATM   28  C4  UNL     1       0.742   6.685  10.442  1.00  0.00    -0.025 C 
HETATM   29  C2  UNL     1       1.191   7.178   9.271  1.00  0.00    -0.091 C 
HETATM   30  C1  UNL     1       2.333   6.510   8.551  1.00  0.00     0.042 C 
HETATM   31  C3  UNL     1       0.653   8.396   8.572  1.00  0.00     0.042 C 
ENDBRANCH  27  28
ENDBRANCH  26  27
ENDBRANCH  24  26
ENDBRANCH   1  24
TORSDOF 4
ENDMDL
MODEL 8
REMARK minimizedAffinity -8.15770912
REMARK  4 active torsions:
REMARK  status: ('A' for Active; 'I' for Inactive)
REMARK    1  A    between atoms: C4_4  and  C5_5 
REMARK    2  A    between atoms: C5_5  and  C6_6 
REMARK    3  A    between atoms: C6_6  and  C7_7 
REMARK    4  A    between atoms: C7_7  and  C9_9 
ROOT
HETATM    1  C9  UNL     1      -5.204   5.571  14.417  1.00  0.00    -0.002 C 
HETATM    2  C10 UNL     1      -4.860   4.715  13.161  1.00  0.00     0.006 C 
HETATM    3  C11 UNL     1      -3.634   5.348  12.479  1.00  0.00     0.011 C 
HETATM    4  C12 UNL     1      -3.061   6.324  13.521  1.00  0.00    -0.032 C 
HETATM    5  C13 UNL     1      -2.178   5.477  14.492  1.00  0.00     0.016 C 
HETATM    6  C14 UNL     1      -2.224   7.500  12.937  1.00  0.00     0.004 C 
HETATM    7  C15 UNL     1      -0.971   7.050  12.156  1.00  0.00     0.007 C 
HETATM    8  C16 UNL     1       0.320   7.034  12.966  1.00  0.00     0.007 C 
HETATM    9  C17 UNL     1       0.710   8.443  13.447  1.00  0.00     0.010 C 
HETATM   10  C18 UNL     1       2.099   8.458  14.180  1.00  0.00     0.018 C 
HETATM   11  C19 UNL     1       3.228   8.258  13.139  1.00  0.00     0.023 C 
HETATM   12  C20 UNL     1       2.254   7.358  15.248  1.00  0.00     0.023 C 
HETATM   13  C21 UNL     1       2.348   9.814  14.856  1.00  0.00     0.135 C 
HETATM   14  O1  UNL     1       3.484  10.276  15.000  1.00  0.00    -0.297 OA
HETATM   15  C22 UNL     1       1.167  10.599  15.367  1.00  0.00     0.080 C 
HETATM   16  C23 UNL     1      -0.058   9.728  15.548  1.00  0.00     0.018 C 
HETATM   17  C24 UNL     1      -0.455   9.079  14.235  1.00  0.00    -0.026 A 
HETATM   18  C25 UNL     1      -1.420   9.890  13.402  1.00  0.00     0.021 A 
HETATM   19  C26 UNL     1      -1.921   8.588  14.002  1.00  0.00    -0.027 A 
HETATM   20  C27 UNL     1      -3.005   8.823  15.079  1.00  0.00     0.011 C 
HETATM   21  C28 UNL     1      -3.954   7.663  15.417  1.00  0.00     0.011 C 
HETATM   22  C29 UNL     1      -4.388   6.883  14.169  1.00  0.00    -0.032 C 
HETATM   23  C30 UNL     1      -5.205   7.821  13.226  1.00  0.00     0.016 C 
ENDROOT
BRANCH   1  24
HETATM   24  C7  UNL     1      -6.744   5.630  14.674  1.00  0.00    -0.014 C 
HETATM   25  C8  UNL     1      -7.439   4.416  14.027  1.00  0.00     0.010 C 
BRANCH  24  26
HETATM   26  C6  UNL     1      -7.093   5.705  16.178  1.00  0.00     0.008 C 
BRANCH  26  27
HETATM   27  C5  UNL     1      -7.761   7.017  16.616  1.00  0.00     0.028 C 
BRANCH  27  28
HETATM   28  C4  UNL     1      -9.100   7.182  15.945  1.00  0.00    -0.025 C 
HETATM   29  C2  UNL     1      -9.607   8.285  15.362  1.00  0.00    -0.091 C 
HETATM   30  C1  UNL     1     -10.981   8.256  14.744  1.00  0.00     0.042 C 
HETATM   31  C3  UNL     1      -8.910   9.612  15.244  1.00  0.00     0.042 C 
ENDBRANCH  27  28
ENDBRANCH  26  27
ENDBRANCH  24  26
ENDBRANCH   1  24
TORSDOF 4
ENDMDL
MODEL 9
REMARK minimizedAffinity -8.14409447
REMARK  4 active torsions:
REMARK  status: ('A' for Active; 'I' for Inactive)
REMARK    1  A    between atoms: C4_4  and  C5_5 
REMARK    2  A    between atoms: C5_5  and  C6_6 
REMARK    3  A    between atoms: C6_6  and  C7_7 
REMARK    4  A    between atoms: C7_7  and  C9_9 
ROOT
HETATM    1  C9  UNL     1      -2.803   8.666  14.561  1.00  0.00    -0.002 C 
HETATM    2  C10 UNL     1      -2.317   8.435  16.023  1.00  0.00     0.006 C 
HETATM    3  C11 UNL     1      -0.916   7.799  15.959  1.00  0.00     0.011 C 
HETATM    4  C12 UNL     1      -0.455   8.000  14.506  1.00  0.00    -0.032 C 
HETATM    5  C13 UNL     1       0.118   9.449  14.413  1.00  0.00     0.016 C 
HETATM    6  C14 UNL     1       0.607   6.980  14.001  1.00  0.00     0.004 C 
HETATM    7  C15 UNL     1       1.932   7.009  14.794  1.00  0.00     0.007 C 
HETATM    8  C16 UNL     1       3.027   7.875  14.183  1.00  0.00     0.007 C 
HETATM    9  C17 UNL     1       3.470   7.349  12.807  1.00  0.00     0.010 C 
HETATM   10  C18 UNL     1       4.679   8.161  12.220  1.00  0.00     0.018 C 
HETATM   11  C19 UNL     1       5.962   7.812  13.015  1.00  0.00     0.023 C 
HETATM   12  C20 UNL     1       4.496   9.690  12.286  1.00  0.00     0.023 C 
HETATM   13  C21 UNL     1       4.941   7.776  10.756  1.00  0.00     0.135 C 
HETATM   14  O1  UNL     1       6.071   7.816  10.260  1.00  0.00    -0.297 OA
HETATM   15  C22 UNL     1       3.778   7.346   9.900  1.00  0.00     0.080 C 
HETATM   16  C23 UNL     1       2.451   7.791  10.478  1.00  0.00     0.018 C 
HETATM   17  C24 UNL     1       2.251   7.217  11.868  1.00  0.00    -0.026 A 
HETATM   18  C25 UNL     1       1.567   5.871  11.898  1.00  0.00     0.021 A 
HETATM   19  C26 UNL     1       0.815   7.062  12.465  1.00  0.00    -0.027 A 
HETATM   20  C27 UNL     1      -0.427   7.422  11.618  1.00  0.00     0.011 C 
HETATM   21  C28 UNL     1      -1.548   8.234  12.285  1.00  0.00     0.011 C 
HETATM   22  C29 UNL     1      -1.813   7.786  13.728  1.00  0.00    -0.032 C 
HETATM   23  C30 UNL     1      -2.317   6.308  13.732  1.00  0.00     0.016 C 
ENDROOT
BRANCH   1  24
HETATM   24  C7  UNL     1      -4.347   8.468  14.426  1.00  0.00    -0.014 C 
HETATM   25  C8  UNL     1      -4.749   8.411  12.939  1.00  0.00     0.010 C 
BRANCH  24  26
HETATM   26  C6  UNL     1      -4.851   7.206  15.163  1.00  0.00     0.008 C 
BRANCH  26  27
HETATM   27  C5  UNL     1      -6.138   6.597  14.585  1.00  0.00     0.028 C 
BRANCH  27  28
HETATM   28  C4  UNL     1      -5.831   5.346  13.806  1.00  0.00    -0.025 C 
HETATM   29  C2  UNL     1      -6.681   4.579  13.096  1.00  0.00    -0.091 C 
HETATM   30  C1  UNL     1      -6.182   3.349  12.382  1.00  0.00     0.042 C 
HETATM   31  C3  UNL     1      -8.152   4.837  12.919  1.00  0.00     0.042 C 
ENDBRANCH  27  28
ENDBRANCH  26  27
ENDBRANCH  24  26
ENDBRANCH   1  24
TORSDOF 4
ENDMDL
