MODEL 1
REMARK minimizedAffinity -7.94974089
REMARK CNNscore 0.738798559
REMARK CNNaffinity 7.08137083
REMARK  7 active torsions:
REMARK  status: ('A' for Active; 'I' for Inactive)
REMARK    1  A    between atoms: C3_3  and  C4_4 
REMARK    2  A    between atoms: C5_6  and  C6_7 
REMARK    3  A    between atoms: C6_7  and  C7_9 
REMARK    4  A    between atoms: C7_9  and  O3_10 
REMARK    5  A    between atoms: O3_10  and  C8_11 
REMARK    6  A    between atoms: C8_11  and  C9_13 
REMARK    7  A    between atoms: C28_36  and  O7_37 
ROOT
HETATM    1  C4  UNL     1       1.747  52.137  -9.814  1.00  0.00     0.286 C 
HETATM    2  O1  UNL     1       0.361  52.281  -9.544  1.00  0.00    -0.338 OA
HETATM    3  C5  UNL     1      -0.154  53.610  -9.558  1.00  0.00     0.137 C 
HETATM    4  C14 UNL     1      -0.018  54.196 -10.991  1.00  0.00     0.050 C 
HETATM    5  C15 UNL     1       1.359  54.892 -11.005  1.00  0.00     0.043 C 
HETATM    6  C16 UNL     1       1.943  54.578  -9.620  1.00  0.00     0.079 C 
HETATM    7  O5  UNL     1       2.564  53.285  -9.675  1.00  0.00    -0.346 OA
HETATM    8  C17 UNL     1       3.036  55.526  -9.081  1.00  0.00     0.029 C 
HETATM    9  C18 UNL     1       4.234  55.710 -10.042  1.00  0.00     0.012 C 
HETATM   10  C19 UNL     1       5.543  55.114  -9.537  1.00  0.00     0.036 C 
HETATM   11  C20 UNL     1       5.898  55.521  -8.122  1.00  0.00    -0.068 C 
HETATM   12  C21 UNL     1       7.186  55.514  -7.736  1.00  0.00     0.053 C 
HETATM   13  C22 UNL     1       7.581  55.776  -6.332  1.00  0.00     0.149 C 
HETATM   14  O6  UNL     1       8.774  55.886  -6.056  1.00  0.00    -0.293 OA
HETATM   15  C23 UNL     1       6.504  55.918  -5.283  1.00  0.00     0.084 C 
HETATM   16  C24 UNL     1       5.167  55.340  -5.743  1.00  0.00     0.022 C 
HETATM   17  C25 UNL     1       4.744  55.823  -7.155  1.00  0.00    -0.014 C 
HETATM   18  C26 UNL     1       4.516  57.353  -7.116  1.00  0.00     0.020 C 
HETATM   19  C27 UNL     1       3.493  55.023  -7.664  1.00  0.00     0.034 C 
HETATM   20  C28 UNL     1       2.298  54.883  -6.685  1.00  0.00     0.124 C 
HETATM   21  C29 UNL     1       1.123  54.074  -7.286  1.00  0.00     0.048 C 
HETATM   22  C30 UNL     1       0.705  54.565  -8.692  1.00  0.00     0.029 C 
HETATM   23  C31 UNL     1      -0.004  55.948  -8.557  1.00  0.00     0.022 C 
ENDROOT
BRANCH   3  24
HETATM   24  C6  UNL     1      -1.628  53.538  -9.118  1.00  0.00     0.186 C 
HETATM   25  O2  UNL     1      -1.976  52.970  -8.077  1.00  0.00    -0.292 OA
BRANCH  24  26
HETATM   26  C7  UNL     1      -2.659  54.188 -10.043  1.00  0.00     0.260 C 
BRANCH  26  27
HETATM   27  O3  UNL     1      -3.861  53.422 -10.147  1.00  0.00    -0.310 OA
BRANCH  27  28
HETATM   28  C8  UNL     1      -4.045  52.839 -11.357  1.00  0.00     0.295 C 
HETATM   29  O4  UNL     1      -4.227  53.431 -12.410  1.00  0.00    -0.259 OA
BRANCH  28  30
HETATM   30  C9  UNL     1      -4.017  51.365 -11.247  1.00  0.00     0.054 A 
HETATM   31  C10 UNL     1      -4.601  50.747 -10.138  1.00  0.00     0.020 A 
HETATM   32  C11 UNL     1      -4.575  49.358 -10.032  1.00  0.00     0.018 A 
HETATM   33  C12 UNL     1      -3.959  48.633 -11.039  1.00  0.00     0.087 A 
HETATM   34  N1  UNL     1      -3.384  49.197 -12.124  1.00  0.00    -0.374 N 
HETATM   35  C13 UNL     1      -3.430  50.551 -12.206  1.00  0.00     0.105 A 
ATOM     36  H1  UNL     1      -2.936  48.632 -12.846  1.00  0.00     0.164 HD
ENDBRANCH  28  30
ENDBRANCH  27  28
ENDBRANCH  26  27
ENDBRANCH  24  26
ENDBRANCH   3  24
BRANCH   1  37
HETATM   37  C3  UNL     1       1.968  51.513 -11.162  1.00  0.00     0.029 C 
HETATM   38  C2  UNL     1       2.902  51.906 -12.044  1.00  0.00    -0.030 C 
HETATM   39  C1  UNL     1       3.093  51.285 -13.389  1.00  0.00     0.036 C 
ENDBRANCH   1  37
BRANCH  20  40
HETATM   40  O7  UNL     1       1.848  56.159  -6.258  1.00  0.00    -0.395 OA
HETATM   41  H32 UNL     1       1.097  56.024  -5.652  1.00  0.00     0.210 HD
ENDBRANCH  20  40
TORSDOF 7
ENDMDL
MODEL 2
REMARK minimizedAffinity -9.11163235
REMARK CNNscore 0.706175864
REMARK CNNaffinity 7.27265406
REMARK  7 active torsions:
REMARK  status: ('A' for Active; 'I' for Inactive)
REMARK    1  A    between atoms: C3_3  and  C4_4 
REMARK    2  A    between atoms: C5_6  and  C6_7 
REMARK    3  A    between atoms: C6_7  and  C7_9 
REMARK    4  A    between atoms: C7_9  and  O3_10 
REMARK    5  A    between atoms: O3_10  and  C8_11 
REMARK    6  A    between atoms: C8_11  and  C9_13 
REMARK    7  A    between atoms: C28_36  and  O7_37 
ROOT
HETATM    1  C4  UNL     1      -2.841  47.241 -19.834  1.00  0.00     0.286 C 
HETATM    2  O1  UNL     1      -2.352  48.080 -18.799  1.00  0.00    -0.338 OA
HETATM    3  C5  UNL     1      -2.960  49.363 -18.680  1.00  0.00     0.137 C 
HETATM    4  C14 UNL     1      -4.457  49.185 -18.300  1.00  0.00     0.050 C 
HETATM    5  C15 UNL     1      -5.202  49.126 -19.649  1.00  0.00     0.043 C 
HETATM    6  C16 UNL     1      -4.077  49.182 -20.693  1.00  0.00     0.079 C 
HETATM    7  O5  UNL     1      -3.570  47.853 -20.882  1.00  0.00    -0.346 OA
HETATM    8  C17 UNL     1      -4.449  49.676 -22.108  1.00  0.00     0.029 C 
HETATM    9  C18 UNL     1      -5.621  48.900 -22.753  1.00  0.00     0.012 C 
HETATM   10  C19 UNL     1      -5.227  48.051 -23.958  1.00  0.00     0.036 C 
HETATM   11  C20 UNL     1      -4.416  48.796 -24.996  1.00  0.00    -0.068 C 
HETATM   12  C21 UNL     1      -4.435  48.379 -26.274  1.00  0.00     0.053 C 
HETATM   13  C22 UNL     1      -3.562  48.986 -27.306  1.00  0.00     0.149 C 
HETATM   14  O6  UNL     1      -3.709  48.659 -28.482  1.00  0.00    -0.293 OA
HETATM   15  C23 UNL     1      -2.530  50.005 -26.885  1.00  0.00     0.084 C 
HETATM   16  C24 UNL     1      -2.236  49.947 -25.387  1.00  0.00     0.022 C 
HETATM   17  C25 UNL     1      -3.517  49.944 -24.511  1.00  0.00    -0.014 C 
HETATM   18  C26 UNL     1      -4.267  51.282 -24.712  1.00  0.00     0.020 C 
HETATM   19  C27 UNL     1      -3.162  49.650 -23.011  1.00  0.00     0.034 C 
HETATM   20  C28 UNL     1      -2.001  50.468 -22.387  1.00  0.00     0.124 C 
HETATM   21  C29 UNL     1      -1.734  50.096 -20.908  1.00  0.00     0.048 C 
HETATM   22  C30 UNL     1      -3.016  50.099 -20.041  1.00  0.00     0.029 C 
HETATM   23  C31 UNL     1      -3.485  51.572 -19.835  1.00  0.00     0.022 C 
ENDROOT
BRANCH   3  24
HETATM   24  C6  UNL     1      -2.193  50.137 -17.591  1.00  0.00     0.186 C 
HETATM   25  O2  UNL     1      -2.719  51.043 -16.935  1.00  0.00    -0.292 OA
BRANCH  24  26
HETATM   26  C7  UNL     1      -0.731  49.747 -17.364  1.00  0.00     0.260 C 
BRANCH  26  27
HETATM   27  O3  UNL     1       0.163  50.447 -18.233  1.00  0.00    -0.310 OA
BRANCH  27  28
HETATM   28  C8  UNL     1       0.392  51.734 -17.873  1.00  0.00     0.295 C 
HETATM   29  O4  UNL     1      -0.143  52.715 -18.367  1.00  0.00    -0.259 OA
BRANCH  28  30
HETATM   30  C9  UNL     1       1.403  51.814 -16.797  1.00  0.00     0.054 A 
HETATM   31  C10 UNL     1       2.589  52.518 -17.020  1.00  0.00     0.020 A 
HETATM   32  C11 UNL     1       3.544  52.594 -16.008  1.00  0.00     0.018 A 
HETATM   33  C12 UNL     1       3.280  51.958 -14.806  1.00  0.00     0.087 A 
HETATM   34  N1  UNL     1       2.145  51.268 -14.556  1.00  0.00    -0.374 N 
HETATM   35  C13 UNL     1       1.229  51.216 -15.556  1.00  0.00     0.105 A 
ATOM     36  H1  UNL     1       1.985  50.809 -13.659  1.00  0.00     0.164 HD
ENDBRANCH  28  30
ENDBRANCH  27  28
ENDBRANCH  26  27
ENDBRANCH  24  26
ENDBRANCH   3  24
BRANCH   1  37
HETATM   37  C3  UNL     1      -3.628  46.095 -19.266  1.00  0.00     0.029 C 
HETATM   38  C2  UNL     1      -4.023  45.017 -19.963  1.00  0.00    -0.030 C 
HETATM   39  C1  UNL     1      -4.822  43.895 -19.384  1.00  0.00     0.036 C 
ENDBRANCH   1  37
BRANCH  20  40
HETATM   40  O7  UNL     1      -2.246  51.860 -22.508  1.00  0.00    -0.395 OA
HETATM   41  H32 UNL     1      -1.497  52.332 -22.099  1.00  0.00     0.210 HD
ENDBRANCH  20  40
TORSDOF 7
ENDMDL
MODEL 3
REMARK minimizedAffinity -8.03894043
REMARK CNNscore 0.675724506
REMARK CNNaffinity 6.95108223
REMARK  7 active torsions:
REMARK  status: ('A' for Active; 'I' for Inactive)
REMARK    1  A    between atoms: C3_3  and  C4_4 
REMARK    2  A    between atoms: C5_6  and  C6_7 
REMARK    3  A    between atoms: C6_7  and  C7_9 
REMARK    4  A    between atoms: C7_9  and  O3_10 
REMARK    5  A    between atoms: O3_10  and  C8_11 
REMARK    6  A    between atoms: C8_11  and  C9_13 
REMARK    7  A    between atoms: C28_36  and  O7_37 
ROOT
HETATM    1  C4  UNL     1      -4.224  49.194 -22.718  1.00  0.00     0.286 C 
HETATM    2  O1  UNL     1      -3.010  49.799 -22.301  1.00  0.00    -0.338 OA
HETATM    3  C5  UNL     1      -2.279  49.120 -21.282  1.00  0.00     0.137 C 
HETATM    4  C14 UNL     1      -1.809  47.741 -21.825  1.00  0.00     0.050 C 
HETATM    5  C15 UNL     1      -2.941  46.763 -21.452  1.00  0.00     0.043 C 
HETATM    6  C16 UNL     1      -4.007  47.663 -20.810  1.00  0.00     0.079 C 
HETATM    7  O5  UNL     1      -4.807  48.233 -21.857  1.00  0.00    -0.346 OA
HETATM    8  C17 UNL     1      -5.018  46.993 -19.853  1.00  0.00     0.029 C 
HETATM    9  C18 UNL     1      -5.762  45.788 -20.475  1.00  0.00     0.012 C 
HETATM   10  C19 UNL     1      -7.253  46.017 -20.698  1.00  0.00     0.036 C 
HETATM   11  C20 UNL     1      -7.981  46.554 -19.484  1.00  0.00    -0.068 C 
HETATM   12  C21 UNL     1      -9.300  46.330 -19.352  1.00  0.00     0.053 C 
HETATM   13  C22 UNL     1     -10.090  46.939 -18.256  1.00  0.00     0.149 C 
HETATM   14  O6  UNL     1     -11.261  46.602 -18.102  1.00  0.00    -0.293 OA
HETATM   15  C23 UNL     1      -9.424  47.944 -17.347  1.00  0.00     0.084 C 
HETATM   16  C24 UNL     1      -8.145  48.519 -17.955  1.00  0.00     0.022 C 
HETATM   17  C25 UNL     1      -7.187  47.430 -18.505  1.00  0.00    -0.014 C 
HETATM   18  C26 UNL     1      -6.699  46.548 -17.331  1.00  0.00     0.020 C 
HETATM   19  C27 UNL     1      -6.013  48.084 -19.317  1.00  0.00     0.034 C 
HETATM   20  C28 UNL     1      -5.268  49.271 -18.652  1.00  0.00     0.124 C 
HETATM   21  C29 UNL     1      -4.135  49.841 -19.539  1.00  0.00     0.048 C 
HETATM   22  C30 UNL     1      -3.182  48.749 -20.081  1.00  0.00     0.029 C 
HETATM   23  C31 UNL     1      -2.312  48.207 -18.905  1.00  0.00     0.022 C 
ENDROOT
BRANCH   3  24
HETATM   24  C6  UNL     1      -1.082  50.012 -20.903  1.00  0.00     0.186 C 
HETATM   25  O2  UNL     1       0.052  49.550 -20.730  1.00  0.00    -0.292 OA
BRANCH  24  26
HETATM   26  C7  UNL     1      -1.360  51.506 -20.729  1.00  0.00     0.260 C 
BRANCH  26  27
HETATM   27  O3  UNL     1      -1.347  51.909 -19.357  1.00  0.00    -0.310 OA
BRANCH  27  28
HETATM   28  C8  UNL     1      -0.208  52.536 -18.973  1.00  0.00     0.295 C 
HETATM   29  O4  UNL     1       0.292  53.502 -19.528  1.00  0.00    -0.259 OA
BRANCH  28  30
HETATM   30  C9  UNL     1       0.380  51.887 -17.782  1.00  0.00     0.054 A 
HETATM   31  C10 UNL     1       1.437  52.508 -17.112  1.00  0.00     0.020 A 
HETATM   32  C11 UNL     1       1.993  51.898 -15.990  1.00  0.00     0.018 A 
HETATM   33  C12 UNL     1       1.475  50.681 -15.578  1.00  0.00     0.087 A 
HETATM   34  N1  UNL     1       0.456  50.051 -16.202  1.00  0.00    -0.374 N 
HETATM   35  C13 UNL     1      -0.073  50.671 -17.288  1.00  0.00     0.105 A 
ATOM     36  H1  UNL     1       0.100  49.153 -15.873  1.00  0.00     0.164 HD
ENDBRANCH  28  30
ENDBRANCH  27  28
ENDBRANCH  26  27
ENDBRANCH  24  26
ENDBRANCH   3  24
BRANCH   1  37
HETATM   37  C3  UNL     1      -4.090  48.625 -24.102  1.00  0.00     0.029 C 
HETATM   38  C2  UNL     1      -3.120  48.949 -24.973  1.00  0.00    -0.030 C 
HETATM   39  C1  UNL     1      -3.015  48.385 -26.352  1.00  0.00     0.036 C 
ENDBRANCH   1  37
BRANCH  20  40
HETATM   40  O7  UNL     1      -4.757  48.893 -17.383  1.00  0.00    -0.395 OA
HETATM   41  H32 UNL     1      -4.294  49.664 -17.006  1.00  0.00     0.210 HD
ENDBRANCH  20  40
TORSDOF 7
ENDMDL
MODEL 4
REMARK minimizedAffinity -8.28199482
REMARK CNNscore 0.588351369
REMARK CNNaffinity 7.11518812
REMARK  7 active torsions:
REMARK  status: ('A' for Active; 'I' for Inactive)
REMARK    1  A    between atoms: C3_3  and  C4_4 
REMARK    2  A    between atoms: C5_6  and  C6_7 
REMARK    3  A    between atoms: C6_7  and  C7_9 
REMARK    4  A    between atoms: C7_9  and  O3_10 
REMARK    5  A    between atoms: O3_10  and  C8_11 
REMARK    6  A    between atoms: C8_11  and  C9_13 
REMARK    7  A    between atoms: C28_36  and  O7_37 
ROOT
HETATM    1  C4  UNL     1      -4.515  48.862 -23.243  1.00  0.00     0.286 C 
HETATM    2  O1  UNL     1      -3.889  49.951 -22.583  1.00  0.00    -0.338 OA
HETATM    3  C5  UNL     1      -3.254  49.662 -21.340  1.00  0.00     0.137 C 
HETATM    4  C14 UNL     1      -2.071  48.683 -21.588  1.00  0.00     0.050 C 
HETATM    5  C15 UNL     1      -2.683  47.276 -21.429  1.00  0.00     0.043 C 
HETATM    6  C16 UNL     1      -4.176  47.550 -21.195  1.00  0.00     0.079 C 
HETATM    7  O5  UNL     1      -4.811  47.713 -22.472  1.00  0.00    -0.346 OA
HETATM    8  C17 UNL     1      -4.993  46.453 -20.477  1.00  0.00     0.029 C 
HETATM    9  C18 UNL     1      -4.890  45.061 -21.144  1.00  0.00     0.012 C 
HETATM   10  C19 UNL     1      -6.187  44.571 -21.781  1.00  0.00     0.036 C 
HETATM   11  C20 UNL     1      -7.392  44.664 -20.869  1.00  0.00    -0.068 C 
HETATM   12  C21 UNL     1      -8.438  43.842 -21.071  1.00  0.00     0.053 C 
HETATM   13  C22 UNL     1      -9.694  43.974 -20.297  1.00  0.00     0.149 C 
HETATM   14  O6  UNL     1     -10.570  43.122 -20.427  1.00  0.00    -0.293 OA
HETATM   15  C23 UNL     1      -9.854  45.144 -19.355  1.00  0.00     0.084 C 
HETATM   16  C24 UNL     1      -8.867  46.270 -19.657  1.00  0.00     0.022 C 
HETATM   17  C25 UNL     1      -7.404  45.777 -19.812  1.00  0.00    -0.014 C 
HETATM   18  C26 UNL     1      -6.925  45.188 -18.463  1.00  0.00     0.020 C 
HETATM   19  C27 UNL     1      -6.484  46.931 -20.346  1.00  0.00     0.034 C 
HETATM   20  C28 UNL     1      -6.591  48.306 -19.635  1.00  0.00     0.124 C 
HETATM   21  C29 UNL     1      -5.644  49.370 -20.243  1.00  0.00     0.048 C 
HETATM   22  C30 UNL     1      -4.187  48.871 -20.391  1.00  0.00     0.029 C 
HETATM   23  C31 UNL     1      -3.542  48.762 -18.975  1.00  0.00     0.022 C 
ENDROOT
BRANCH   3  24
HETATM   24  C6  UNL     1      -2.763  50.998 -20.752  1.00  0.00     0.186 C 
HETATM   25  O2  UNL     1      -3.493  51.720 -20.064  1.00  0.00    -0.292 OA
BRANCH  24  26
HETATM   26  C7  UNL     1      -1.323  51.407 -21.070  1.00  0.00     0.260 C 
BRANCH  26  27
HETATM   27  O3  UNL     1      -1.227  52.180 -22.269  1.00  0.00    -0.310 OA
BRANCH  27  28
HETATM   28  C8  UNL     1       0.038  52.324 -22.737  1.00  0.00     0.295 C 
HETATM   29  O4  UNL     1       1.039  52.447 -22.048  1.00  0.00    -0.259 OA
BRANCH  28  30
HETATM   30  C9  UNL     1       0.060  52.333 -24.215  1.00  0.00     0.054 A 
HETATM   31  C10 UNL     1      -0.378  51.207 -24.916  1.00  0.00     0.020 A 
HETATM   32  C11 UNL     1      -0.357  51.213 -26.309  1.00  0.00     0.018 A 
HETATM   33  C12 UNL     1       0.106  52.347 -26.955  1.00  0.00     0.087 A 
HETATM   34  N1  UNL     1       0.539  53.453 -26.310  1.00  0.00    -0.374 N 
HETATM   35  C13 UNL     1       0.501  53.423 -24.953  1.00  0.00     0.105 A 
ATOM     36  H1  UNL     1       0.877  54.270 -26.818  1.00  0.00     0.164 HD
ENDBRANCH  28  30
ENDBRANCH  27  28
ENDBRANCH  26  27
ENDBRANCH  24  26
ENDBRANCH   3  24
BRANCH   1  37
HETATM   37  C3  UNL     1      -3.746  48.469 -24.472  1.00  0.00     0.029 C 
HETATM   38  C2  UNL     1      -3.958  48.968 -25.701  1.00  0.00    -0.030 C 
HETATM   39  C1  UNL     1      -3.194  48.549 -26.915  1.00  0.00     0.036 C 
ENDBRANCH   1  37
BRANCH  20  40
HETATM   40  O7  UNL     1      -6.349  48.171 -18.244  1.00  0.00    -0.395 OA
HETATM   41  H32 UNL     1      -6.420  49.056 -17.841  1.00  0.00     0.210 HD
ENDBRANCH  20  40
TORSDOF 7
ENDMDL
MODEL 5
REMARK minimizedAffinity -8.90667152
REMARK CNNscore 0.577352822
REMARK CNNaffinity 7.15421295
REMARK  7 active torsions:
REMARK  status: ('A' for Active; 'I' for Inactive)
REMARK    1  A    between atoms: C3_3  and  C4_4 
REMARK    2  A    between atoms: C5_6  and  C6_7 
REMARK    3  A    between atoms: C6_7  and  C7_9 
REMARK    4  A    between atoms: C7_9  and  O3_10 
REMARK    5  A    between atoms: O3_10  and  C8_11 
REMARK    6  A    between atoms: C8_11  and  C9_13 
REMARK    7  A    between atoms: C28_36  and  O7_37 
ROOT
HETATM    1  C4  UNL     1      -4.524  50.147 -23.495  1.00  0.00     0.286 C 
HETATM    2  O1  UNL     1      -3.515  50.798 -22.738  1.00  0.00    -0.338 OA
HETATM    3  C5  UNL     1      -2.919  50.041 -21.688  1.00  0.00     0.137 C 
HETATM    4  C14 UNL     1      -2.164  48.828 -22.300  1.00  0.00     0.050 C 
HETATM    5  C15 UNL     1      -3.203  47.688 -22.326  1.00  0.00     0.043 C 
HETATM    6  C16 UNL     1      -4.490  48.352 -21.818  1.00  0.00     0.079 C 
HETATM    7  O5  UNL     1      -5.131  49.001 -22.926  1.00  0.00    -0.346 OA
HETATM    8  C17 UNL     1      -5.571  47.431 -21.211  1.00  0.00     0.029 C 
HETATM    9  C18 UNL     1      -6.001  46.275 -22.144  1.00  0.00     0.012 C 
HETATM   10  C19 UNL     1      -7.433  46.380 -22.658  1.00  0.00     0.036 C 
HETATM   11  C20 UNL     1      -8.459  46.630 -21.573  1.00  0.00    -0.068 C 
HETATM   12  C21 UNL     1      -9.733  46.249 -21.769  1.00  0.00     0.053 C 
HETATM   13  C22 UNL     1     -10.805  46.583 -20.801  1.00  0.00     0.149 C 
HETATM   14  O6  UNL     1     -11.925  46.104 -20.959  1.00  0.00    -0.293 OA
HETATM   15  C23 UNL     1     -10.482  47.488 -19.636  1.00  0.00     0.084 C 
HETATM   16  C24 UNL     1      -9.198  48.286 -19.859  1.00  0.00     0.022 C 
HETATM   17  C25 UNL     1      -8.007  47.410 -20.330  1.00  0.00    -0.014 C 
HETATM   18  C26 UNL     1      -7.651  46.402 -19.211  1.00  0.00     0.020 C 
HETATM   19  C27 UNL     1      -6.795  48.308 -20.763  1.00  0.00     0.034 C 
HETATM   20  C28 UNL     1      -6.371  49.440 -19.790  1.00  0.00     0.124 C 
HETATM   21  C29 UNL     1      -5.171  50.265 -20.317  1.00  0.00     0.048 C 
HETATM   22  C30 UNL     1      -3.987  49.383 -20.780  1.00  0.00     0.029 C 
HETATM   23  C31 UNL     1      -3.307  48.748 -19.528  1.00  0.00     0.022 C 
ENDROOT
BRANCH   3  24
HETATM   24  C6  UNL     1      -1.958  50.978 -20.932  1.00  0.00     0.186 C 
HETATM   25  O2  UNL     1      -2.329  51.665 -19.975  1.00  0.00    -0.292 OA
BRANCH  24  26
HETATM   26  C7  UNL     1      -0.513  51.036 -21.432  1.00  0.00     0.260 C 
BRANCH  26  27
HETATM   27  O3  UNL     1      -0.428  51.346 -22.825  1.00  0.00    -0.310 OA
BRANCH  27  28
HETATM   28  C8  UNL     1       0.338  52.428 -23.107  1.00  0.00     0.295 C 
HETATM   29  O4  UNL     1       0.952  53.096 -22.289  1.00  0.00    -0.259 OA
BRANCH  28  30
HETATM   30  C9  UNL     1       0.330  52.722 -24.556  1.00  0.00     0.054 A 
HETATM   31  C10 UNL     1       0.548  51.687 -25.469  1.00  0.00     0.020 A 
HETATM   32  C11 UNL     1       0.542  51.961 -26.835  1.00  0.00     0.018 A 
HETATM   33  C12 UNL     1       0.320  53.266 -27.243  1.00  0.00     0.087 A 
HETATM   34  N1  UNL     1       0.106  54.292 -26.389  1.00  0.00    -0.374 N 
HETATM   35  C13 UNL     1       0.111  53.996 -25.064  1.00  0.00     0.105 A 
ATOM     36  H1  UNL     1      -0.051  55.243 -26.723  1.00  0.00     0.164 HD
ENDBRANCH  28  30
ENDBRANCH  27  28
ENDBRANCH  26  27
ENDBRANCH  24  26
ENDBRANCH   3  24
BRANCH   1  37
HETATM   37  C3  UNL     1      -4.036  49.832 -24.879  1.00  0.00     0.029 C 
HETATM   38  C2  UNL     1      -4.272  48.682 -25.531  1.00  0.00    -0.030 C 
HETATM   39  C1  UNL     1      -3.761  48.380 -26.903  1.00  0.00     0.036 C 
ENDBRANCH   1  37
BRANCH  20  40
HETATM   40  O7  UNL     1      -6.080  48.914 -18.505  1.00  0.00    -0.395 OA
HETATM   41  H32 UNL     1      -5.814  49.655 -17.931  1.00  0.00     0.210 HD
ENDBRANCH  20  40
TORSDOF 7
ENDMDL
MODEL 6
REMARK minimizedAffinity -9.15914822
REMARK CNNscore 0.574868143
REMARK CNNaffinity 7.41977119
REMARK  7 active torsions:
REMARK  status: ('A' for Active; 'I' for Inactive)
REMARK    1  A    between atoms: C3_3  and  C4_4 
REMARK    2  A    between atoms: C5_6  and  C6_7 
REMARK    3  A    between atoms: C6_7  and  C7_9 
REMARK    4  A    between atoms: C7_9  and  O3_10 
REMARK    5  A    between atoms: O3_10  and  C8_11 
REMARK    6  A    between atoms: C8_11  and  C9_13 
REMARK    7  A    between atoms: C28_36  and  O7_37 
ROOT
HETATM    1  C4  UNL     1      -2.691  48.661 -21.087  1.00  0.00     0.286 C 
HETATM    2  O1  UNL     1      -1.806  49.332 -21.970  1.00  0.00    -0.338 OA
HETATM    3  C5  UNL     1      -2.348  50.428 -22.702  1.00  0.00     0.137 C 
HETATM    4  C14 UNL     1      -2.760  51.550 -21.708  1.00  0.00     0.050 C 
HETATM    5  C15 UNL     1      -4.233  51.250 -21.363  1.00  0.00     0.043 C 
HETATM    6  C16 UNL     1      -4.525  49.939 -22.106  1.00  0.00     0.079 C 
HETATM    7  O5  UNL     1      -4.080  48.847 -21.287  1.00  0.00    -0.346 OA
HETATM    8  C17 UNL     1      -6.001  49.622 -22.431  1.00  0.00     0.029 C 
HETATM    9  C18 UNL     1      -6.933  49.656 -21.198  1.00  0.00     0.012 C 
HETATM   10  C19 UNL     1      -7.501  48.297 -20.801  1.00  0.00     0.036 C 
HETATM   11  C20 UNL     1      -8.125  47.533 -21.949  1.00  0.00    -0.068 C 
HETATM   12  C21 UNL     1      -9.076  46.616 -21.694  1.00  0.00     0.053 C 
HETATM   13  C22 UNL     1      -9.628  45.747 -22.759  1.00  0.00     0.149 C 
HETATM   14  O6  UNL     1     -10.583  45.018 -22.501  1.00  0.00    -0.293 OA
HETATM   15  C23 UNL     1      -9.012  45.798 -24.137  1.00  0.00     0.084 C 
HETATM   16  C24 UNL     1      -7.619  46.425 -24.127  1.00  0.00     0.022 C 
HETATM   17  C25 UNL     1      -7.559  47.770 -23.356  1.00  0.00    -0.014 C 
HETATM   18  C26 UNL     1      -8.450  48.806 -24.083  1.00  0.00     0.020 C 
HETATM   19  C27 UNL     1      -6.073  48.243 -23.183  1.00  0.00     0.034 C 
HETATM   20  C28 UNL     1      -5.173  48.225 -24.446  1.00  0.00     0.124 C 
HETATM   21  C29 UNL     1      -3.729  48.707 -24.161  1.00  0.00     0.048 C 
HETATM   22  C30 UNL     1      -3.679  50.051 -23.396  1.00  0.00     0.029 C 
HETATM   23  C31 UNL     1      -4.126  51.197 -24.355  1.00  0.00     0.022 C 
ENDROOT
BRANCH   3  24
HETATM   24  C6  UNL     1      -1.259  50.914 -23.677  1.00  0.00     0.186 C 
HETATM   25  O2  UNL     1      -0.983  50.299 -24.713  1.00  0.00    -0.292 OA
BRANCH  24  26
HETATM   26  C7  UNL     1      -0.511  52.194 -23.297  1.00  0.00     0.260 C 
BRANCH  26  27
HETATM   27  O3  UNL     1      -0.785  53.274 -24.194  1.00  0.00    -0.310 OA
BRANCH  27  28
HETATM   28  C8  UNL     1       0.309  53.756 -24.833  1.00  0.00     0.295 C 
HETATM   29  O4  UNL     1       1.038  54.645 -24.421  1.00  0.00    -0.259 OA
BRANCH  28  30
HETATM   30  C9  UNL     1       0.511  53.073 -26.129  1.00  0.00     0.054 A 
HETATM   31  C10 UNL     1       1.576  52.181 -26.277  1.00  0.00     0.020 A 
HETATM   32  C11 UNL     1       1.768  51.537 -27.498  1.00  0.00     0.018 A 
HETATM   33  C12 UNL     1       0.889  51.811 -28.533  1.00  0.00     0.087 A 
HETATM   34  N1  UNL     1      -0.150  52.668 -28.425  1.00  0.00    -0.374 N 
HETATM   35  C13 UNL     1      -0.319  53.276 -27.223  1.00  0.00     0.105 A 
ATOM     36  H1  UNL     1      -0.777  52.849 -29.209  1.00  0.00     0.164 HD
ENDBRANCH  28  30
ENDBRANCH  27  28
ENDBRANCH  26  27
ENDBRANCH  24  26
ENDBRANCH   3  24
BRANCH   1  37
HETATM   37  C3  UNL     1      -2.338  48.947 -19.656  1.00  0.00     0.029 C 
HETATM   38  C2  UNL     1      -1.094  49.174 -19.204  1.00  0.00    -0.030 C 
HETATM   39  C1  UNL     1      -0.761  49.440 -17.772  1.00  0.00     0.036 C 
ENDBRANCH   1  37
BRANCH  20  40
HETATM   40  O7  UNL     1      -5.753  48.997 -25.486  1.00  0.00    -0.395 OA
HETATM   41  H32 UNL     1      -5.154  48.962 -26.254  1.00  0.00     0.210 HD
ENDBRANCH  20  40
TORSDOF 7
ENDMDL
MODEL 7
REMARK minimizedAffinity -8.45977211
REMARK CNNscore 0.56780386
REMARK CNNaffinity 7.13208532
REMARK  7 active torsions:
REMARK  status: ('A' for Active; 'I' for Inactive)
REMARK    1  A    between atoms: C3_3  and  C4_4 
REMARK    2  A    between atoms: C5_6  and  C6_7 
REMARK    3  A    between atoms: C6_7  and  C7_9 
REMARK    4  A    between atoms: C7_9  and  O3_10 
REMARK    5  A    between atoms: O3_10  and  C8_11 
REMARK    6  A    between atoms: C8_11  and  C9_13 
REMARK    7  A    between atoms: C28_36  and  O7_37 
ROOT
HETATM    1  C4  UNL     1      -4.611  50.951 -21.758  1.00  0.00     0.286 C 
HETATM    2  O1  UNL     1      -3.292  50.943 -21.236  1.00  0.00    -0.338 OA
HETATM    3  C5  UNL     1      -2.753  49.670 -20.889  1.00  0.00     0.137 C 
HETATM    4  C14 UNL     1      -2.621  48.804 -22.174  1.00  0.00     0.050 C 
HETATM    5  C15 UNL     1      -3.958  48.041 -22.275  1.00  0.00     0.043 C 
HETATM    6  C16 UNL     1      -4.783  48.590 -21.102  1.00  0.00     0.079 C 
HETATM    7  O5  UNL     1      -5.414  49.808 -21.525  1.00  0.00    -0.346 OA
HETATM    8  C17 UNL     1      -5.933  47.706 -20.570  1.00  0.00     0.029 C 
HETATM    9  C18 UNL     1      -6.938  47.267 -21.660  1.00  0.00     0.012 C 
HETATM   10  C19 UNL     1      -8.330  47.874 -21.515  1.00  0.00     0.036 C 
HETATM   11  C20 UNL     1      -8.918  47.737 -20.127  1.00  0.00    -0.068 C 
HETATM   12  C21 UNL     1     -10.254  47.745 -19.972  1.00  0.00     0.053 C 
HETATM   13  C22 UNL     1     -10.884  47.746 -18.631  1.00  0.00     0.149 C 
HETATM   14  O6  UNL     1     -12.104  47.624 -18.542  1.00  0.00    -0.293 OA
HETATM   15  C23 UNL     1     -10.005  47.877 -17.410  1.00  0.00     0.084 C 
HETATM   16  C24 UNL     1      -8.622  48.429 -17.748  1.00  0.00     0.022 C 
HETATM   17  C25 UNL     1      -7.946  47.699 -18.939  1.00  0.00    -0.014 C 
HETATM   18  C26 UNL     1      -7.694  46.223 -18.548  1.00  0.00     0.020 C 
HETATM   19  C27 UNL     1      -6.644  48.454 -19.384  1.00  0.00     0.034 C 
HETATM   20  C28 UNL     1      -5.642  48.854 -18.269  1.00  0.00     0.124 C 
HETATM   21  C29 UNL     1      -4.398  49.594 -18.818  1.00  0.00     0.048 C 
HETATM   22  C30 UNL     1      -3.729  48.858 -20.002  1.00  0.00     0.029 C 
HETATM   23  C31 UNL     1      -3.024  47.573 -19.468  1.00  0.00     0.022 C 
ENDROOT
BRANCH   3  24
HETATM   24  C6  UNL     1      -1.381  49.913 -20.233  1.00  0.00     0.186 C 
HETATM   25  O2  UNL     1      -1.203  49.789 -19.017  1.00  0.00    -0.292 OA
BRANCH  24  26
HETATM   26  C7  UNL     1      -0.237  50.338 -21.158  1.00  0.00     0.260 C 
BRANCH  26  27
HETATM   27  O3  UNL     1      -0.591  51.442 -21.994  1.00  0.00    -0.310 OA
BRANCH  27  28
HETATM   28  C8  UNL     1       0.461  52.201 -22.387  1.00  0.00     0.295 C 
HETATM   29  O4  UNL     1       1.366  52.588 -21.663  1.00  0.00    -0.259 OA
BRANCH  28  30
HETATM   30  C9  UNL     1       0.374  52.526 -23.826  1.00  0.00     0.054 A 
HETATM   31  C10 UNL     1       0.057  51.518 -24.741  1.00  0.00     0.020 A 
HETATM   32  C11 UNL     1      -0.025  51.822 -26.098  1.00  0.00     0.018 A 
HETATM   33  C12 UNL     1       0.218  53.126 -26.496  1.00  0.00     0.087 A 
HETATM   34  N1  UNL     1       0.527  54.126 -25.640  1.00  0.00    -0.374 N 
HETATM   35  C13 UNL     1       0.594  53.804 -24.323  1.00  0.00     0.105 A 
ATOM     36  H1  UNL     1       0.703  55.075 -25.968  1.00  0.00     0.164 HD
ENDBRANCH  28  30
ENDBRANCH  27  28
ENDBRANCH  26  27
ENDBRANCH  24  26
ENDBRANCH   3  24
BRANCH   1  37
HETATM   37  C3  UNL     1      -4.605  51.280 -23.223  1.00  0.00     0.029 C 
HETATM   38  C2  UNL     1      -3.593  51.884 -23.868  1.00  0.00    -0.030 C 
HETATM   39  C1  UNL     1      -3.614  52.219 -25.324  1.00  0.00     0.036 C 
ENDBRANCH   1  37
BRANCH  20  40
HETATM   40  O7  UNL     1      -5.247  47.716 -17.519  1.00  0.00    -0.395 OA
HETATM   41  H32 UNL     1      -4.617  48.013 -16.836  1.00  0.00     0.210 HD
ENDBRANCH  20  40
TORSDOF 7
ENDMDL
MODEL 8
REMARK minimizedAffinity -8.88588715
REMARK CNNscore 0.505806327
REMARK CNNaffinity 7.11867714
REMARK  7 active torsions:
REMARK  status: ('A' for Active; 'I' for Inactive)
REMARK    1  A    between atoms: C3_3  and  C4_4 
REMARK    2  A    between atoms: C5_6  and  C6_7 
REMARK    3  A    between atoms: C6_7  and  C7_9 
REMARK    4  A    between atoms: C7_9  and  O3_10 
REMARK    5  A    between atoms: O3_10  and  C8_11 
REMARK    6  A    between atoms: C8_11  and  C9_13 
REMARK    7  A    between atoms: C28_36  and  O7_37 
ROOT
HETATM    1  C4  UNL     1      -2.372  51.830 -22.587  1.00  0.00     0.286 C 
HETATM    2  O1  UNL     1      -2.121  51.978 -21.198  1.00  0.00    -0.338 OA
HETATM    3  C5  UNL     1      -2.103  50.782 -20.424  1.00  0.00     0.137 C 
HETATM    4  C14 UNL     1      -0.921  49.888 -20.894  1.00  0.00     0.050 C 
HETATM    5  C15 UNL     1      -1.521  48.987 -21.994  1.00  0.00     0.043 C 
HETATM    6  C16 UNL     1      -2.965  49.489 -22.133  1.00  0.00     0.079 C 
HETATM    7  O5  UNL     1      -2.966  50.619 -23.019  1.00  0.00    -0.346 OA
HETATM    8  C17 UNL     1      -4.001  48.511 -22.729  1.00  0.00     0.029 C 
HETATM    9  C18 UNL     1      -3.593  47.930 -24.103  1.00  0.00     0.012 C 
HETATM   10  C19 UNL     1      -4.463  48.394 -25.266  1.00  0.00     0.036 C 
HETATM   11  C20 UNL     1      -5.949  48.247 -25.019  1.00  0.00    -0.068 C 
HETATM   12  C21 UNL     1      -6.784  48.123 -26.066  1.00  0.00     0.053 C 
HETATM   13  C22 UNL     1      -8.255  48.107 -25.893  1.00  0.00     0.149 C 
HETATM   14  O6  UNL     1      -8.970  47.862 -26.863  1.00  0.00    -0.293 OA
HETATM   15  C23 UNL     1      -8.834  48.374 -24.524  1.00  0.00     0.084 C 
HETATM   16  C24 UNL     1      -7.832  49.054 -23.593  1.00  0.00     0.022 C 
HETATM   17  C25 UNL     1      -6.447  48.355 -23.570  1.00  0.00    -0.014 C 
HETATM   18  C26 UNL     1      -6.612  46.929 -22.993  1.00  0.00     0.020 C 
HETATM   19  C27 UNL     1      -5.401  49.224 -22.786  1.00  0.00     0.034 C 
HETATM   20  C28 UNL     1      -5.831  49.767 -21.398  1.00  0.00     0.124 C 
HETATM   21  C29 UNL     1      -4.728  50.611 -20.716  1.00  0.00     0.048 C 
HETATM   22  C30 UNL     1      -3.351  49.906 -20.694  1.00  0.00     0.029 C 
HETATM   23  C31 UNL     1      -3.404  48.722 -19.681  1.00  0.00     0.022 C 
ENDROOT
BRANCH   3  24
HETATM   24  C6  UNL     1      -1.944  51.190 -18.948  1.00  0.00     0.186 C 
HETATM   25  O2  UNL     1      -2.735  51.960 -18.390  1.00  0.00    -0.292 OA
BRANCH  24  26
HETATM   26  C7  UNL     1      -0.744  50.612 -18.195  1.00  0.00     0.260 C 
BRANCH  26  27
HETATM   27  O3  UNL     1       0.481  51.267 -18.533  1.00  0.00    -0.310 OA
BRANCH  27  28
HETATM   28  C8  UNL     1       0.704  52.416 -17.847  1.00  0.00     0.295 C 
HETATM   29  O4  UNL     1       0.223  53.506 -18.113  1.00  0.00    -0.259 OA
BRANCH  28  30
HETATM   30  C9  UNL     1       1.637  52.190 -16.722  1.00  0.00     0.054 A 
HETATM   31  C10 UNL     1       2.936  52.699 -16.794  1.00  0.00     0.020 A 
HETATM   32  C11 UNL     1       3.817  52.487 -15.735  1.00  0.00     0.018 A 
HETATM   33  C12 UNL     1       3.368  51.768 -14.639  1.00  0.00     0.087 A 
HETATM   34  N1  UNL     1       2.119  51.261 -14.537  1.00  0.00    -0.374 N 
HETATM   35  C13 UNL     1       1.280  51.488 -15.579  1.00  0.00     0.105 A 
ATOM     36  H1  UNL     1       1.823  50.733 -13.716  1.00  0.00     0.164 HD
ENDBRANCH  28  30
ENDBRANCH  27  28
ENDBRANCH  26  27
ENDBRANCH  24  26
ENDBRANCH   3  24
BRANCH   1  37
HETATM   37  C3  UNL     1      -1.131  52.104 -23.387  1.00  0.00     0.029 C 
HETATM   38  C2  UNL     1      -0.897  51.632 -24.623  1.00  0.00    -0.030 C 
HETATM   39  C1  UNL     1       0.354  51.901 -25.395  1.00  0.00     0.036 C 
ENDBRANCH   1  37
BRANCH  20  40
HETATM   40  O7  UNL     1      -6.234  48.705 -20.548  1.00  0.00    -0.395 OA
HETATM   41  H32 UNL     1      -6.490  49.090 -19.689  1.00  0.00     0.210 HD
ENDBRANCH  20  40
TORSDOF 7
ENDMDL
MODEL 9
REMARK minimizedAffinity -9.67818737
REMARK CNNscore 0.465683073
REMARK CNNaffinity 7.77269888
REMARK  7 active torsions:
REMARK  status: ('A' for Active; 'I' for Inactive)
REMARK    1  A    between atoms: C3_3  and  C4_4 
REMARK    2  A    between atoms: C5_6  and  C6_7 
REMARK    3  A    between atoms: C6_7  and  C7_9 
REMARK    4  A    between atoms: C7_9  and  O3_10 
REMARK    5  A    between atoms: O3_10  and  C8_11 
REMARK    6  A    between atoms: C8_11  and  C9_13 
REMARK    7  A    between atoms: C28_36  and  O7_37 
ROOT
HETATM    1  C4  UNL     1      -0.355  50.183 -25.931  1.00  0.00     0.286 C 
HETATM    2  O1  UNL     1      -1.387  49.752 -26.805  1.00  0.00    -0.338 OA
HETATM    3  C5  UNL     1      -2.691  50.269 -26.553  1.00  0.00     0.137 C 
HETATM    4  C14 UNL     1      -2.678  51.809 -26.766  1.00  0.00     0.050 C 
HETATM    5  C15 UNL     1      -2.343  52.397 -25.380  1.00  0.00     0.043 C 
HETATM    6  C16 UNL     1      -2.101  51.159 -24.505  1.00  0.00     0.079 C 
HETATM    7  O5  UNL     1      -0.741  50.737 -24.686  1.00  0.00    -0.346 OA
HETATM    8  C17 UNL     1      -2.269  51.326 -22.979  1.00  0.00     0.029 C 
HETATM    9  C18 UNL     1      -1.422  52.473 -22.379  1.00  0.00     0.012 C 
HETATM   10  C19 UNL     1      -0.299  52.010 -21.458  1.00  0.00     0.036 C 
HETATM   11  C20 UNL     1      -0.742  51.030 -20.392  1.00  0.00    -0.068 C 
HETATM   12  C21 UNL     1      -0.040  50.934 -19.249  1.00  0.00     0.053 C 
HETATM   13  C22 UNL     1      -0.348  49.905 -18.229  1.00  0.00     0.149 C 
HETATM   14  O6  UNL     1       0.236  49.941 -17.148  1.00  0.00    -0.293 OA
HETATM   15  C23 UNL     1      -1.385  48.853 -18.540  1.00  0.00     0.084 C 
HETATM   16  C24 UNL     1      -1.663  48.738 -20.038  1.00  0.00     0.022 C 
HETATM   17  C25 UNL     1      -1.926  50.108 -20.718  1.00  0.00    -0.014 C 
HETATM   18  C26 UNL     1      -3.216  50.724 -20.127  1.00  0.00     0.020 C 
HETATM   19  C27 UNL     1      -1.972  49.950 -22.279  1.00  0.00     0.034 C 
HETATM   20  C28 UNL     1      -2.855  48.809 -22.849  1.00  0.00     0.124 C 
HETATM   21  C29 UNL     1      -2.825  48.743 -24.395  1.00  0.00     0.048 C 
HETATM   22  C30 UNL     1      -3.091  50.112 -25.066  1.00  0.00     0.029 C 
HETATM   23  C31 UNL     1      -4.593  50.487 -24.873  1.00  0.00     0.022 C 
ENDROOT
BRANCH   3  24
HETATM   24  C6  UNL     1      -3.658  49.575 -27.530  1.00  0.00     0.186 C 
HETATM   25  O2  UNL     1      -3.804  49.961 -28.695  1.00  0.00    -0.292 OA
BRANCH  24  26
HETATM   26  C7  UNL     1      -4.453  48.385 -26.988  1.00  0.00     0.260 C 
BRANCH  26  27
HETATM   27  O3  UNL     1      -5.119  47.656 -28.022  1.00  0.00    -0.310 OA
BRANCH  27  28
HETATM   28  C8  UNL     1      -6.468  47.620 -27.896  1.00  0.00     0.295 C 
HETATM   29  O4  UNL     1      -7.079  47.278 -26.895  1.00  0.00    -0.259 OA
BRANCH  28  30
HETATM   30  C9  UNL     1      -7.130  48.037 -29.150  1.00  0.00     0.054 A 
HETATM   31  C10 UNL     1      -8.478  48.407 -29.126  1.00  0.00     0.020 A 
HETATM   32  C11 UNL     1      -9.104  48.800 -30.306  1.00  0.00     0.018 A 
HETATM   33  C12 UNL     1      -8.361  48.807 -31.475  1.00  0.00     0.087 A 
HETATM   34  N1  UNL     1      -7.057  48.455 -31.536  1.00  0.00    -0.374 N 
HETATM   35  C13 UNL     1      -6.469  48.083 -30.370  1.00  0.00     0.105 A 
ATOM     36  H1  UNL     1      -6.540  48.469 -32.415  1.00  0.00     0.164 HD
ENDBRANCH  28  30
ENDBRANCH  27  28
ENDBRANCH  26  27
ENDBRANCH  24  26
ENDBRANCH   3  24
BRANCH   1  37
HETATM   37  C3  UNL     1       0.588  51.116 -26.635  1.00  0.00     0.029 C 
HETATM   38  C2  UNL     1       1.927  51.011 -26.614  1.00  0.00    -0.030 C 
HETATM   39  C1  UNL     1       2.849  51.961 -27.306  1.00  0.00     0.036 C 
ENDBRANCH   1  37
BRANCH  20  40
HETATM   40  O7  UNL     1      -4.191  48.931 -22.388  1.00  0.00    -0.395 OA
HETATM   41  H32 UNL     1      -4.708  48.200 -22.773  1.00  0.00     0.210 HD
ENDBRANCH  20  40
TORSDOF 7
ENDMDL
