MODEL 1
REMARK minimizedAffinity -8.24500561
REMARK  7 active torsions:
REMARK  status: ('A' for Active; 'I' for Inactive)
REMARK    1  A    between atoms: N1_2  and  C2_3 
REMARK    2  A    between atoms: C2_3  and  C3_4 
REMARK    3  A    between atoms: C3_4  and  O1_5 
REMARK    4  A    between atoms: O1_5  and  C4_6 
REMARK    5  A    between atoms: C4_6  and  C5_8 
REMARK    6  A    between atoms: C19_23  and  C21_25 
REMARK    7  A    between atoms: C21_25  and  O5_27 
ROOT
HETATM    1  C5  UNL     1      -3.887  49.786 -28.060  1.00  0.00     0.085 C 
HETATM    2  C6  UNL     1      -3.049  49.648 -27.012  1.00  0.00    -0.070 C 
HETATM    3  C7  UNL     1      -2.683  48.353 -26.323  1.00  0.00     0.035 C 
HETATM    4  C8  UNL     1      -2.938  48.429 -24.814  1.00  0.00     0.010 C 
HETATM    5  C9  UNL     1      -2.255  49.649 -24.150  1.00  0.00     0.006 C 
HETATM    6  C10 UNL     1      -2.703  50.936 -24.888  1.00  0.00     0.068 C 
HETATM    7  C11 UNL     1      -2.162  52.197 -24.229  1.00  0.00     0.132 C 
HETATM    8  O3  UNL     1      -1.800  53.180 -24.879  1.00  0.00    -0.298 OA
HETATM    9  C12 UNL     1      -2.243  52.275 -22.723  1.00  0.00     0.085 C 
HETATM   10  C13 UNL     1      -1.683  51.002 -22.070  1.00  0.00     0.019 C 
HETATM   11  C14 UNL     1      -2.449  49.724 -22.579  1.00  0.00    -0.034 C 
HETATM   12  C15 UNL     1      -3.953  49.747 -22.217  1.00  0.00     0.016 C 
HETATM   13  C16 UNL     1      -1.804  48.464 -21.940  1.00  0.00     0.010 C 
HETATM   14  C17 UNL     1      -1.667  48.536 -20.426  1.00  0.00     0.002 C 
HETATM   15  C18 UNL     1      -0.882  49.765 -19.991  1.00  0.00     0.020 C 
HETATM   16  C19 UNL     1      -1.467  51.105 -20.515  1.00  0.00     0.049 C 
HETATM   17  C20 UNL     1      -0.412  52.191 -20.179  1.00  0.00     0.026 C 
HETATM   18  C23 UNL     1      -2.384  50.883 -26.405  1.00  0.00     0.022 C 
HETATM   19  C24 UNL     1      -0.886  50.893 -26.752  1.00  0.00     0.015 C 
ENDROOT
BRANCH   1  20
HETATM   20  C4  UNL     1      -4.630  48.717 -28.773  1.00  0.00     0.283 C 
HETATM   21  O2  UNL     1      -5.199  47.766 -28.270  1.00  0.00    -0.260 OA
BRANCH  20  22
HETATM   22  O1  UNL     1      -4.570  49.001 -30.100  1.00  0.00    -0.316 OA
BRANCH  22  23
HETATM   23  C3  UNL     1      -5.732  48.584 -30.837  1.00  0.00     0.209 C 
BRANCH  23  24
HETATM   24  C2  UNL     1      -5.281  47.794 -32.071  1.00  0.00     0.295 C 
BRANCH  24  25
HETATM   25  N1  UNL     1      -4.339  48.577 -32.881  1.00  0.00     0.081 N 
HETATM   26  C1  UNL     1      -3.600  47.723 -33.800  1.00  0.00     0.306 C 
HETATM   27  H4  UNL     1      -4.866  49.274 -33.410  1.00  0.00     0.315 HD
ENDBRANCH  24  25
ENDBRANCH  23  24
ENDBRANCH  22  23
ENDBRANCH  20  22
ENDBRANCH   1  20
BRANCH  16  28
HETATM   28  C21 UNL     1      -2.727  51.460 -19.704  1.00  0.00     0.267 C 
HETATM   29  O4  UNL     1      -3.874  51.407 -20.130  1.00  0.00    -0.264 OA
BRANCH  28  30
HETATM   30  O5  UNL     1      -2.414  51.822 -18.429  1.00  0.00    -0.326 OA
HETATM   31  C22 UNL     1      -2.831  50.889 -17.431  1.00  0.00     0.213 C 
ENDBRANCH  28  30
ENDBRANCH  16  28
TORSDOF 7
ENDMDL
MODEL 2
REMARK minimizedAffinity -8.07635117
REMARK  7 active torsions:
REMARK  status: ('A' for Active; 'I' for Inactive)
REMARK    1  A    between atoms: N1_2  and  C2_3 
REMARK    2  A    between atoms: C2_3  and  C3_4 
REMARK    3  A    between atoms: C3_4  and  O1_5 
REMARK    4  A    between atoms: O1_5  and  C4_6 
REMARK    5  A    between atoms: C4_6  and  C5_8 
REMARK    6  A    between atoms: C19_23  and  C21_25 
REMARK    7  A    between atoms: C21_25  and  O5_27 
ROOT
HETATM    1  C5  UNL     1      -2.174  52.570 -23.493  1.00  0.00     0.085 C 
HETATM    2  C6  UNL     1      -1.488  51.819 -22.607  1.00  0.00    -0.070 C 
HETATM    3  C7  UNL     1      -1.757  50.373 -22.261  1.00  0.00     0.035 C 
HETATM    4  C8  UNL     1      -1.937  50.183 -20.750  1.00  0.00     0.010 C 
HETATM    5  C9  UNL     1      -0.763  50.764 -19.927  1.00  0.00     0.006 C 
HETATM    6  C10 UNL     1      -0.571  52.252 -20.313  1.00  0.00     0.068 C 
HETATM    7  C11 UNL     1       0.497  52.935 -19.469  1.00  0.00     0.132 C 
HETATM    8  O3  UNL     1       1.268  53.778 -19.932  1.00  0.00    -0.298 OA
HETATM    9  C12 UNL     1       0.472  52.668 -17.982  1.00  0.00     0.085 C 
HETATM   10  C13 UNL     1       0.385  51.163 -17.689  1.00  0.00     0.019 C 
HETATM   11  C14 UNL     1      -0.889  50.530 -18.365  1.00  0.00    -0.034 C 
HETATM   12  C15 UNL     1      -2.209  51.133 -17.829  1.00  0.00     0.016 C 
HETATM   13  C16 UNL     1      -0.895  49.001 -18.093  1.00  0.00     0.010 C 
HETATM   14  C17 UNL     1      -0.730  48.630 -16.626  1.00  0.00     0.002 C 
HETATM   15  C18 UNL     1       0.538  49.231 -16.034  1.00  0.00     0.020 C 
HETATM   16  C19 UNL     1       0.635  50.773 -16.186  1.00  0.00     0.049 C 
HETATM   17  C20 UNL     1       2.075  51.154 -15.753  1.00  0.00     0.026 C 
HETATM   18  C23 UNL     1      -0.323  52.437 -21.833  1.00  0.00     0.022 C 
HETATM   19  C24 UNL     1       1.008  51.862 -22.347  1.00  0.00     0.015 C 
ENDROOT
BRANCH   1  20
HETATM   20  C4  UNL     1      -3.332  52.157 -24.325  1.00  0.00     0.283 C 
HETATM   21  O2  UNL     1      -4.271  51.465 -23.974  1.00  0.00    -0.260 OA
BRANCH  20  22
HETATM   22  O1  UNL     1      -3.161  52.705 -25.555  1.00  0.00    -0.316 OA
BRANCH  22  23
HETATM   23  C3  UNL     1      -2.962  51.737 -26.600  1.00  0.00     0.209 C 
BRANCH  23  24
HETATM   24  C2  UNL     1      -1.643  52.045 -27.319  1.00  0.00     0.295 C 
BRANCH  24  25
HETATM   25  N1  UNL     1      -1.652  53.406 -27.874  1.00  0.00     0.081 N 
HETATM   26  C1  UNL     1      -0.326  54.003 -27.822  1.00  0.00     0.306 C 
HETATM   27  H4  UNL     1      -1.970  53.360 -28.843  1.00  0.00     0.315 HD
ENDBRANCH  24  25
ENDBRANCH  23  24
ENDBRANCH  22  23
ENDBRANCH  20  22
ENDBRANCH   1  20
BRANCH  16  28
HETATM   28  C21 UNL     1      -0.313  51.443 -15.172  1.00  0.00     0.267 C 
HETATM   29  O4  UNL     1      -1.463  51.088 -14.946  1.00  0.00    -0.264 OA
BRANCH  28  30
HETATM   30  O5  UNL     1       0.296  52.477 -14.529  1.00  0.00    -0.326 OA
HETATM   31  C22 UNL     1       0.010  52.553 -13.131  1.00  0.00     0.213 C 
ENDBRANCH  28  30
ENDBRANCH  16  28
TORSDOF 7
ENDMDL
MODEL 3
REMARK minimizedAffinity -7.89037228
REMARK  7 active torsions:
REMARK  status: ('A' for Active; 'I' for Inactive)
REMARK    1  A    between atoms: N1_2  and  C2_3 
REMARK    2  A    between atoms: C2_3  and  C3_4 
REMARK    3  A    between atoms: C3_4  and  O1_5 
REMARK    4  A    between atoms: O1_5  and  C4_6 
REMARK    5  A    between atoms: C4_6  and  C5_8 
REMARK    6  A    between atoms: C19_23  and  C21_25 
REMARK    7  A    between atoms: C21_25  and  O5_27 
ROOT
HETATM    1  C5  UNL     1       0.491  50.922 -26.129  1.00  0.00     0.085 C 
HETATM    2  C6  UNL     1      -0.239  51.289 -25.056  1.00  0.00    -0.070 C 
HETATM    3  C7  UNL     1       0.147  52.320 -24.021  1.00  0.00     0.035 C 
HETATM    4  C8  UNL     1       0.082  51.742 -22.602  1.00  0.00     0.010 C 
HETATM    5  C9  UNL     1      -1.283  51.087 -22.283  1.00  0.00     0.006 C 
HETATM    6  C10 UNL     1      -1.593  50.024 -23.366  1.00  0.00     0.068 C 
HETATM    7  C11 UNL     1      -2.872  49.252 -23.068  1.00  0.00     0.132 C 
HETATM    8  O3  UNL     1      -3.650  48.894 -23.954  1.00  0.00    -0.298 OA
HETATM    9  C12 UNL     1      -3.074  48.781 -21.647  1.00  0.00     0.085 C 
HETATM   10  C13 UNL     1      -2.848  49.923 -20.645  1.00  0.00     0.019 C 
HETATM   11  C14 UNL     1      -1.405  50.533 -20.803  1.00  0.00    -0.034 C 
HETATM   12  C15 UNL     1      -0.288  49.503 -20.514  1.00  0.00     0.016 C 
HETATM   13  C16 UNL     1      -1.251  51.722 -19.815  1.00  0.00     0.010 C 
HETATM   14  C17 UNL     1      -1.622  51.387 -18.378  1.00  0.00     0.002 C 
HETATM   15  C18 UNL     1      -3.041  50.843 -18.277  1.00  0.00     0.020 C 
HETATM   16  C19 UNL     1      -3.307  49.605 -19.175  1.00  0.00     0.049 C 
HETATM   17  C20 UNL     1      -4.837  49.358 -19.119  1.00  0.00     0.026 C 
HETATM   18  C23 UNL     1      -1.591  50.625 -24.796  1.00  0.00     0.022 C 
HETATM   19  C24 UNL     1      -2.726  51.624 -25.080  1.00  0.00     0.015 C 
ENDROOT
BRANCH   1  20
HETATM   20  C4  UNL     1       1.820  51.439 -26.540  1.00  0.00     0.283 C 
HETATM   21  O2  UNL     1       2.902  50.934 -26.304  1.00  0.00    -0.260 OA
BRANCH  20  22
HETATM   22  O1  UNL     1       1.608  52.580 -27.246  1.00  0.00    -0.316 OA
BRANCH  22  23
HETATM   23  C3  UNL     1       0.461  52.524 -28.111  1.00  0.00     0.209 C 
BRANCH  23  24
HETATM   24  C2  UNL     1      -0.325  53.834 -27.980  1.00  0.00     0.295 C 
BRANCH  24  25
HETATM   25  N1  UNL     1      -0.006  54.514 -26.717  1.00  0.00     0.081 N 
HETATM   26  C1  UNL     1       0.052  55.957 -26.897  1.00  0.00     0.306 C 
HETATM   27  H4  UNL     1      -0.728  54.283 -26.032  1.00  0.00     0.315 HD
ENDBRANCH  24  25
ENDBRANCH  23  24
ENDBRANCH  22  23
ENDBRANCH  20  22
ENDBRANCH   1  20
BRANCH  16  28
HETATM   28  C21 UNL     1      -2.646  48.366 -18.540  1.00  0.00     0.267 C 
HETATM   29  O4  UNL     1      -2.417  47.315 -19.126  1.00  0.00    -0.264 OA
BRANCH  28  30
HETATM   30  O5  UNL     1      -2.317  48.588 -17.237  1.00  0.00    -0.326 OA
HETATM   31  C22 UNL     1      -2.867  47.642 -16.319  1.00  0.00     0.213 C 
ENDBRANCH  28  30
ENDBRANCH  16  28
TORSDOF 7
ENDMDL
MODEL 4
REMARK minimizedAffinity -7.74574852
REMARK  7 active torsions:
REMARK  status: ('A' for Active; 'I' for Inactive)
REMARK    1  A    between atoms: N1_2  and  C2_3 
REMARK    2  A    between atoms: C2_3  and  C3_4 
REMARK    3  A    between atoms: C3_4  and  O1_5 
REMARK    4  A    between atoms: O1_5  and  C4_6 
REMARK    5  A    between atoms: C4_6  and  C5_8 
REMARK    6  A    between atoms: C19_23  and  C21_25 
REMARK    7  A    between atoms: C21_25  and  O5_27 
ROOT
HETATM    1  C5  UNL     1      -0.517  50.745 -17.408  1.00  0.00     0.085 C 
HETATM    2  C6  UNL     1      -0.972  51.434 -18.475  1.00  0.00    -0.070 C 
HETATM    3  C7  UNL     1      -2.410  51.534 -18.929  1.00  0.00     0.035 C 
HETATM    4  C8  UNL     1      -2.563  51.127 -20.399  1.00  0.00     0.010 C 
HETATM    5  C9  UNL     1      -1.606  51.900 -21.339  1.00  0.00     0.006 C 
HETATM    6  C10 UNL     1      -0.154  51.724 -20.828  1.00  0.00     0.068 C 
HETATM    7  C11 UNL     1       0.867  52.364 -21.759  1.00  0.00     0.132 C 
HETATM    8  O3  UNL     1       1.878  52.931 -21.342  1.00  0.00    -0.298 OA
HETATM    9  C12 UNL     1       0.688  52.129 -23.240  1.00  0.00     0.085 C 
HETATM   10  C13 UNL     1      -0.754  52.427 -23.680  1.00  0.00     0.019 C 
HETATM   11  C14 UNL     1      -1.781  51.547 -22.874  1.00  0.00    -0.034 C 
HETATM   12  C15 UNL     1      -1.582  50.031 -23.109  1.00  0.00     0.016 C 
HETATM   13  C16 UNL     1      -3.222  51.931 -23.308  1.00  0.00     0.010 C 
HETATM   14  C17 UNL     1      -3.443  51.909 -24.814  1.00  0.00     0.002 C 
HETATM   15  C18 UNL     1      -2.453  52.810 -25.540  1.00  0.00     0.020 C 
HETATM   16  C19 UNL     1      -0.965  52.483 -25.237  1.00  0.00     0.049 C 
HETATM   17  C20 UNL     1      -0.140  53.638 -25.861  1.00  0.00     0.026 C 
HETATM   18  C23 UNL     1       0.013  52.197 -19.360  1.00  0.00     0.022 C 
HETATM   19  C24 UNL     1      -0.156  53.710 -19.145  1.00  0.00     0.015 C 
ENDROOT
BRANCH   1  20
HETATM   20  C4  UNL     1      -1.309  49.940 -16.445  1.00  0.00     0.283 C 
HETATM   21  O2  UNL     1      -1.254  48.735 -16.284  1.00  0.00    -0.260 OA
BRANCH  20  22
HETATM   22  O1  UNL     1      -2.105  50.801 -15.759  1.00  0.00    -0.316 OA
BRANCH  22  23
HETATM   23  C3  UNL     1      -1.745  50.948 -14.374  1.00  0.00     0.209 C 
BRANCH  23  24
HETATM   24  C2  UNL     1      -3.006  51.274 -13.565  1.00  0.00     0.295 C 
BRANCH  24  25
HETATM   25  N1  UNL     1      -3.045  52.698 -13.205  1.00  0.00     0.081 N 
HETATM   26  C1  UNL     1      -3.816  52.911 -11.989  1.00  0.00     0.306 C 
HETATM   27  H4  UNL     1      -2.087  53.025 -13.065  1.00  0.00     0.315 HD
ENDBRANCH  24  25
ENDBRANCH  23  24
ENDBRANCH  22  23
ENDBRANCH  20  22
ENDBRANCH   1  20
BRANCH  16  28
HETATM   28  C21 UNL     1      -0.561  51.204 -25.996  1.00  0.00     0.267 C 
HETATM   29  O4  UNL     1      -1.299  50.249 -26.204  1.00  0.00    -0.264 OA
BRANCH  28  30
HETATM   30  O5  UNL     1       0.725  51.272 -26.439  1.00  0.00    -0.326 OA
HETATM   31  C22 UNL     1       0.856  51.384 -27.857  1.00  0.00     0.213 C 
ENDBRANCH  28  30
ENDBRANCH  16  28
TORSDOF 7
ENDMDL
MODEL 5
REMARK minimizedAffinity -7.66199255
REMARK  7 active torsions:
REMARK  status: ('A' for Active; 'I' for Inactive)
REMARK    1  A    between atoms: N1_2  and  C2_3 
REMARK    2  A    between atoms: C2_3  and  C3_4 
REMARK    3  A    between atoms: C3_4  and  O1_5 
REMARK    4  A    between atoms: O1_5  and  C4_6 
REMARK    5  A    between atoms: C4_6  and  C5_8 
REMARK    6  A    between atoms: C19_23  and  C21_25 
REMARK    7  A    between atoms: C21_25  and  O5_27 
ROOT
HETATM    1  C5  UNL     1       0.340  54.014 -24.340  1.00  0.00     0.085 C 
HETATM    2  C6  UNL     1       0.191  52.804 -23.763  1.00  0.00    -0.070 C 
HETATM    3  C7  UNL     1       0.006  51.487 -24.481  1.00  0.00     0.035 C 
HETATM    4  C8  UNL     1      -1.247  50.753 -23.992  1.00  0.00     0.010 C 
HETATM    5  C9  UNL     1      -1.282  50.581 -22.454  1.00  0.00     0.006 C 
HETATM    6  C10 UNL     1      -1.119  51.973 -21.793  1.00  0.00     0.068 C 
HETATM    7  C11 UNL     1      -1.251  51.911 -20.277  1.00  0.00     0.132 C 
HETATM    8  O3  UNL     1      -0.570  52.610 -19.524  1.00  0.00    -0.298 OA
HETATM    9  C12 UNL     1      -2.380  51.076 -19.719  1.00  0.00     0.085 C 
HETATM   10  C13 UNL     1      -2.404  49.677 -20.354  1.00  0.00     0.019 C 
HETATM   11  C14 UNL     1      -2.536  49.772 -21.920  1.00  0.00    -0.034 C 
HETATM   12  C15 UNL     1      -3.852  50.452 -22.367  1.00  0.00     0.016 C 
HETATM   13  C16 UNL     1      -2.490  48.339 -22.517  1.00  0.00     0.010 C 
HETATM   14  C17 UNL     1      -3.471  47.368 -21.875  1.00  0.00     0.002 C 
HETATM   15  C18 UNL     1      -3.271  47.281 -20.368  1.00  0.00     0.020 C 
HETATM   16  C19 UNL     1      -3.358  48.651 -19.642  1.00  0.00     0.049 C 
HETATM   17  C20 UNL     1      -2.894  48.390 -18.185  1.00  0.00     0.026 C 
HETATM   18  C23 UNL     1       0.184  52.687 -22.239  1.00  0.00     0.022 C 
HETATM   19  C24 UNL     1       1.484  52.019 -21.761  1.00  0.00     0.015 C 
ENDROOT
BRANCH   1  20
HETATM   20  C4  UNL     1       0.362  54.330 -25.790  1.00  0.00     0.283 C 
HETATM   21  O2  UNL     1       0.115  55.405 -26.305  1.00  0.00    -0.260 OA
BRANCH  20  22
HETATM   22  O1  UNL     1       0.723  53.196 -26.444  1.00  0.00    -0.316 OA
BRANCH  22  23
HETATM   23  C3  UNL     1       0.185  53.095 -27.774  1.00  0.00     0.209 C 
BRANCH  23  24
HETATM   24  C2  UNL     1      -0.629  51.800 -27.884  1.00  0.00     0.295 C 
BRANCH  24  25
HETATM   25  N1  UNL     1      -2.071  52.082 -27.875  1.00  0.00     0.081 N 
HETATM   26  C1  UNL     1      -2.842  50.872 -27.634  1.00  0.00     0.306 C 
HETATM   27  H4  UNL     1      -2.264  52.764 -27.140  1.00  0.00     0.315 HD
ENDBRANCH  24  25
ENDBRANCH  23  24
ENDBRANCH  22  23
ENDBRANCH  20  22
ENDBRANCH   1  20
BRANCH  16  28
HETATM   28  C21 UNL     1      -4.834  49.086 -19.553  1.00  0.00     0.267 C 
HETATM   29  O4  UNL     1      -5.234  50.238 -19.665  1.00  0.00    -0.264 OA
BRANCH  28  30
HETATM   30  O5  UNL     1      -5.658  48.019 -19.358  1.00  0.00    -0.326 OA
HETATM   31  C22 UNL     1      -6.563  48.164 -18.263  1.00  0.00     0.213 C 
ENDBRANCH  28  30
ENDBRANCH  16  28
TORSDOF 7
ENDMDL
MODEL 6
REMARK minimizedAffinity -7.65513992
REMARK  7 active torsions:
REMARK  status: ('A' for Active; 'I' for Inactive)
REMARK    1  A    between atoms: N1_2  and  C2_3 
REMARK    2  A    between atoms: C2_3  and  C3_4 
REMARK    3  A    between atoms: C3_4  and  O1_5 
REMARK    4  A    between atoms: O1_5  and  C4_6 
REMARK    5  A    between atoms: C4_6  and  C5_8 
REMARK    6  A    between atoms: C19_23  and  C21_25 
REMARK    7  A    between atoms: C21_25  and  O5_27 
ROOT
HETATM    1  C5  UNL     1       0.473  50.829 -17.623  1.00  0.00     0.085 C 
HETATM    2  C6  UNL     1      -0.403  51.372 -18.492  1.00  0.00    -0.070 C 
HETATM    3  C7  UNL     1      -1.901  51.462 -18.314  1.00  0.00     0.035 C 
HETATM    4  C8  UNL     1      -2.645  50.852 -19.508  1.00  0.00     0.010 C 
HETATM    5  C9  UNL     1      -2.189  51.440 -20.865  1.00  0.00     0.006 C 
HETATM    6  C10 UNL     1      -0.652  51.283 -20.986  1.00  0.00     0.068 C 
HETATM    7  C11 UNL     1      -0.131  51.739 -22.342  1.00  0.00     0.132 C 
HETATM    8  O3  UNL     1       0.947  52.321 -22.475  1.00  0.00    -0.298 OA
HETATM    9  C12 UNL     1      -0.907  51.298 -23.561  1.00  0.00     0.085 C 
HETATM   10  C13 UNL     1      -2.408  51.585 -23.398  1.00  0.00     0.019 C 
HETATM   11  C14 UNL     1      -2.981  50.874 -22.115  1.00  0.00    -0.034 C 
HETATM   12  C15 UNL     1      -2.860  49.334 -22.184  1.00  0.00     0.016 C 
HETATM   13  C16 UNL     1      -4.481  51.248 -21.961  1.00  0.00     0.010 C 
HETATM   14  C17 UNL     1      -5.310  51.015 -23.215  1.00  0.00     0.002 C 
HETATM   15  C18 UNL     1      -4.738  51.759 -24.414  1.00  0.00     0.020 C 
HETATM   16  C19 UNL     1      -3.252  51.422 -24.714  1.00  0.00     0.049 C 
HETATM   17  C20 UNL     1      -2.794  52.440 -25.790  1.00  0.00     0.026 C 
HETATM   18  C23 UNL     1       0.102  51.959 -19.811  1.00  0.00     0.022 C 
HETATM   19  C24 UNL     1      -0.000  53.493 -19.773  1.00  0.00     0.015 C 
ENDROOT
BRANCH   1  20
HETATM   20  C4  UNL     1       0.178  50.206 -16.309  1.00  0.00     0.283 C 
HETATM   21  O2  UNL     1       0.074  49.016 -16.074  1.00  0.00    -0.260 OA
BRANCH  20  22
HETATM   22  O1  UNL     1       0.056  51.211 -15.404  1.00  0.00    -0.316 OA
BRANCH  22  23
HETATM   23  C3  UNL     1       1.121  52.176 -15.460  1.00  0.00     0.209 C 
BRANCH  23  24
HETATM   24  C2  UNL     1       2.278  51.690 -14.579  1.00  0.00     0.295 C 
BRANCH  24  25
HETATM   25  N1  UNL     1       3.468  52.533 -14.761  1.00  0.00     0.081 N 
HETATM   26  C1  UNL     1       3.924  52.504 -16.143  1.00  0.00     0.306 C 
HETATM   27  H4  UNL     1       3.231  53.491 -14.498  1.00  0.00     0.315 HD
ENDBRANCH  24  25
ENDBRANCH  23  24
ENDBRANCH  22  23
ENDBRANCH  20  22
ENDBRANCH   1  20
BRANCH  16  28
HETATM   28  C21 UNL     1      -3.171  50.031 -25.372  1.00  0.00     0.267 C 
HETATM   29  O4  UNL     1      -2.162  49.551 -25.875  1.00  0.00    -0.264 OA
BRANCH  28  30
HETATM   30  O5  UNL     1      -4.363  49.377 -25.307  1.00  0.00    -0.326 OA
HETATM   31  C22 UNL     1      -4.565  48.411 -26.340  1.00  0.00     0.213 C 
ENDBRANCH  28  30
ENDBRANCH  16  28
TORSDOF 7
ENDMDL
MODEL 7
REMARK minimizedAffinity -7.53929377
REMARK  7 active torsions:
REMARK  status: ('A' for Active; 'I' for Inactive)
REMARK    1  A    between atoms: N1_2  and  C2_3 
REMARK    2  A    between atoms: C2_3  and  C3_4 
REMARK    3  A    between atoms: C3_4  and  O1_5 
REMARK    4  A    between atoms: O1_5  and  C4_6 
REMARK    5  A    between atoms: C4_6  and  C5_8 
REMARK    6  A    between atoms: C19_23  and  C21_25 
REMARK    7  A    between atoms: C21_25  and  O5_27 
ROOT
HETATM    1  C5  UNL     1      -0.255  53.393 -23.986  1.00  0.00     0.085 C 
HETATM    2  C6  UNL     1      -0.659  52.192 -23.522  1.00  0.00    -0.070 C 
HETATM    3  C7  UNL     1      -0.986  50.975 -24.355  1.00  0.00     0.035 C 
HETATM    4  C8  UNL     1      -2.386  50.438 -24.037  1.00  0.00     0.010 C 
HETATM    5  C9  UNL     1      -2.602  50.179 -22.527  1.00  0.00     0.006 C 
HETATM    6  C10 UNL     1      -2.278  51.477 -21.746  1.00  0.00     0.068 C 
HETATM    7  C11 UNL     1      -2.569  51.343 -20.257  1.00  0.00     0.132 C 
HETATM    8  O3  UNL     1      -1.861  51.866 -19.395  1.00  0.00    -0.298 OA
HETATM    9  C12 UNL     1      -3.871  50.682 -19.868  1.00  0.00     0.085 C 
HETATM   10  C13 UNL     1      -4.062  49.351 -20.611  1.00  0.00     0.019 C 
HETATM   11  C14 UNL     1      -4.019  49.566 -22.171  1.00  0.00    -0.034 C 
HETATM   12  C15 UNL     1      -5.153  50.489 -22.676  1.00  0.00     0.016 C 
HETATM   13  C16 UNL     1      -4.152  48.186 -22.872  1.00  0.00     0.010 C 
HETATM   14  C17 UNL     1      -5.339  47.361 -22.398  1.00  0.00     0.002 C 
HETATM   15  C18 UNL     1      -5.308  47.146 -20.891  1.00  0.00     0.020 C 
HETATM   16  C19 UNL     1      -5.239  48.461 -20.068  1.00  0.00     0.049 C 
HETATM   17  C20 UNL     1      -4.972  48.033 -18.602  1.00  0.00     0.026 C 
HETATM   18  C23 UNL     1      -0.837  51.982 -22.018  1.00  0.00     0.022 C 
HETATM   19  C24 UNL     1       0.280  51.072 -21.482  1.00  0.00     0.015 C 
ENDROOT
BRANCH   1  20
HETATM   20  C4  UNL     1      -0.036  53.791 -25.399  1.00  0.00     0.283 C 
HETATM   21  O2  UNL     1       0.309  54.886 -25.802  1.00  0.00    -0.260 OA
BRANCH  20  22
HETATM   22  O1  UNL     1      -0.282  52.699 -26.168  1.00  0.00    -0.316 OA
BRANCH  22  23
HETATM   23  C3  UNL     1      -0.014  52.900 -27.567  1.00  0.00     0.209 C 
BRANCH  23  24
HETATM   24  C2  UNL     1       1.097  51.938 -28.004  1.00  0.00     0.295 C 
BRANCH  24  25
HETATM   25  N1  UNL     1       2.317  52.151 -27.214  1.00  0.00     0.081 N 
HETATM   26  C1  UNL     1       2.530  51.061 -26.273  1.00  0.00     0.306 C 
HETATM   27  H4  UNL     1       3.112  52.213 -27.852  1.00  0.00     0.315 HD
ENDBRANCH  24  25
ENDBRANCH  23  24
ENDBRANCH  22  23
ENDBRANCH  20  22
ENDBRANCH   1  20
BRANCH  16  28
HETATM   28  C21 UNL     1      -6.624  49.137 -20.076  1.00  0.00     0.267 C 
HETATM   29  O4  UNL     1      -6.815  50.344 -20.167  1.00  0.00    -0.264 OA
BRANCH  28  30
HETATM   30  O5  UNL     1      -7.627  48.220 -19.994  1.00  0.00    -0.326 OA
HETATM   31  C22 UNL     1      -8.694  48.588 -19.117  1.00  0.00     0.213 C 
ENDBRANCH  28  30
ENDBRANCH  16  28
TORSDOF 7
ENDMDL
MODEL 8
REMARK minimizedAffinity -7.53531551
REMARK  7 active torsions:
REMARK  status: ('A' for Active; 'I' for Inactive)
REMARK    1  A    between atoms: N1_2  and  C2_3 
REMARK    2  A    between atoms: C2_3  and  C3_4 
REMARK    3  A    between atoms: C3_4  and  O1_5 
REMARK    4  A    between atoms: O1_5  and  C4_6 
REMARK    5  A    between atoms: C4_6  and  C5_8 
REMARK    6  A    between atoms: C19_23  and  C21_25 
REMARK    7  A    between atoms: C21_25  and  O5_27 
ROOT
HETATM    1  C5  UNL     1      -1.354  52.866 -24.728  1.00  0.00     0.085 C 
HETATM    2  C6  UNL     1      -0.905  52.047 -23.754  1.00  0.00    -0.070 C 
HETATM    3  C7  UNL     1      -1.107  50.552 -23.679  1.00  0.00     0.035 C 
HETATM    4  C8  UNL     1      -1.735  50.138 -22.343  1.00  0.00     0.010 C 
HETATM    5  C9  UNL     1      -0.955  50.677 -21.120  1.00  0.00     0.006 C 
HETATM    6  C10 UNL     1      -0.817  52.214 -21.253  1.00  0.00     0.068 C 
HETATM    7  C11 UNL     1      -0.155  52.842 -20.035  1.00  0.00     0.132 C 
HETATM    8  O3  UNL     1       0.624  53.793 -20.121  1.00  0.00    -0.298 OA
HETATM    9  C12 UNL     1      -0.621  52.367 -18.678  1.00  0.00     0.085 C 
HETATM   10  C13 UNL     1      -0.629  50.833 -18.599  1.00  0.00     0.019 C 
HETATM   11  C14 UNL     1      -1.544  50.216 -19.722  1.00  0.00    -0.034 C 
HETATM   12  C15 UNL     1      -3.024  50.645 -19.587  1.00  0.00     0.016 C 
HETATM   13  C16 UNL     1      -1.466  48.667 -19.639  1.00  0.00     0.010 C 
HETATM   14  C17 UNL     1      -1.735  48.106 -18.251  1.00  0.00     0.002 C 
HETATM   15  C18 UNL     1      -0.795  48.702 -17.212  1.00  0.00     0.020 C 
HETATM   16  C19 UNL     1      -0.827  50.253 -17.151  1.00  0.00     0.049 C 
HETATM   17  C20 UNL     1       0.349  50.667 -16.228  1.00  0.00     0.026 C 
HETATM   18  C23 UNL     1      -0.122  52.628 -22.577  1.00  0.00     0.022 C 
HETATM   19  C24 UNL     1       1.358  52.224 -22.684  1.00  0.00     0.015 C 
ENDROOT
BRANCH   1  20
HETATM   20  C4  UNL     1      -2.134  52.496 -25.935  1.00  0.00     0.283 C 
HETATM   21  O2  UNL     1      -3.305  52.751 -26.151  1.00  0.00    -0.260 OA
BRANCH  20  22
HETATM   22  O1  UNL     1      -1.296  51.826 -26.767  1.00  0.00    -0.316 OA
BRANCH  22  23
HETATM   23  C3  UNL     1      -0.453  52.683 -27.557  1.00  0.00     0.209 C 
BRANCH  23  24
HETATM   24  C2  UNL     1       0.786  51.894 -27.995  1.00  0.00     0.295 C 
BRANCH  24  25
HETATM   25  N1  UNL     1       1.958  52.268 -27.192  1.00  0.00     0.081 N 
HETATM   26  C1  UNL     1       2.285  51.231 -26.225  1.00  0.00     0.306 C 
HETATM   27  H4  UNL     1       2.750  52.413 -27.820  1.00  0.00     0.315 HD
ENDBRANCH  24  25
ENDBRANCH  23  24
ENDBRANCH  22  23
ENDBRANCH  20  22
ENDBRANCH   1  20
BRANCH  16  28
HETATM   28  C21 UNL     1      -2.115  50.707 -16.438  1.00  0.00     0.267 C 
HETATM   29  O4  UNL     1      -2.944  51.477 -16.908  1.00  0.00    -0.264 OA
BRANCH  28  30
HETATM   30  O5  UNL     1      -2.240  50.123 -15.214  1.00  0.00    -0.326 OA
HETATM   31  C22 UNL     1      -2.906  50.929 -14.240  1.00  0.00     0.213 C 
ENDBRANCH  28  30
ENDBRANCH  16  28
TORSDOF 7
ENDMDL
MODEL 9
REMARK minimizedAffinity -7.50812101
REMARK  7 active torsions:
REMARK  status: ('A' for Active; 'I' for Inactive)
REMARK    1  A    between atoms: N1_2  and  C2_3 
REMARK    2  A    between atoms: C2_3  and  C3_4 
REMARK    3  A    between atoms: C3_4  and  O1_5 
REMARK    4  A    between atoms: O1_5  and  C4_6 
REMARK    5  A    between atoms: C4_6  and  C5_8 
REMARK    6  A    between atoms: C19_23  and  C21_25 
REMARK    7  A    between atoms: C21_25  and  O5_27 
ROOT
HETATM    1  C5  UNL     1      -1.767  52.814 -23.439  1.00  0.00     0.085 C 
HETATM    2  C6  UNL     1      -1.170  51.994 -22.550  1.00  0.00    -0.070 C 
HETATM    3  C7  UNL     1      -1.528  50.550 -22.284  1.00  0.00     0.035 C 
HETATM    4  C8  UNL     1      -1.804  50.305 -20.797  1.00  0.00     0.010 C 
HETATM    5  C9  UNL     1      -0.653  50.792 -19.884  1.00  0.00     0.006 C 
HETATM    6  C10 UNL     1      -0.367  52.283 -20.192  1.00  0.00     0.068 C 
HETATM    7  C11 UNL     1       0.682  52.875 -19.260  1.00  0.00     0.132 C 
HETATM    8  O3  UNL     1       1.517  53.696 -19.641  1.00  0.00    -0.298 OA
HETATM    9  C12 UNL     1       0.557  52.548 -17.790  1.00  0.00     0.085 C 
HETATM   10  C13 UNL     1       0.381  51.037 -17.570  1.00  0.00     0.019 C 
HETATM   11  C14 UNL     1      -0.880  50.499 -18.343  1.00  0.00    -0.034 C 
HETATM   12  C15 UNL     1      -2.199  51.145 -17.856  1.00  0.00     0.016 C 
HETATM   13  C16 UNL     1      -0.976  48.962 -18.141  1.00  0.00     0.010 C 
HETATM   14  C17 UNL     1      -0.914  48.523 -16.685  1.00  0.00     0.002 C 
HETATM   15  C18 UNL     1       0.345  49.032 -15.997  1.00  0.00     0.020 C 
HETATM   16  C19 UNL     1       0.525  50.573 -16.074  1.00  0.00     0.049 C 
HETATM   17  C20 UNL     1       1.954  50.862 -15.545  1.00  0.00     0.026 C 
HETATM   18  C23 UNL     1      -0.023  52.518 -21.686  1.00  0.00     0.022 C 
HETATM   19  C24 UNL     1       1.305  51.899 -22.150  1.00  0.00     0.015 C 
ENDROOT
BRANCH   1  20
HETATM   20  C4  UNL     1      -2.894  52.495 -24.351  1.00  0.00     0.283 C 
HETATM   21  O2  UNL     1      -2.910  52.626 -25.561  1.00  0.00    -0.260 OA
BRANCH  20  22
HETATM   22  O1  UNL     1      -3.908  52.015 -23.587  1.00  0.00    -0.316 OA
BRANCH  22  23
HETATM   23  C3  UNL     1      -4.925  51.328 -24.335  1.00  0.00     0.209 C 
BRANCH  23  24
HETATM   24  C2  UNL     1      -5.554  50.249 -23.446  1.00  0.00     0.295 C 
BRANCH  24  25
HETATM   25  N1  UNL     1      -6.805  50.728 -22.843  1.00  0.00     0.081 N 
HETATM   26  C1  UNL     1      -7.258  49.830 -21.790  1.00  0.00     0.306 C 
HETATM   27  H4  UNL     1      -6.643  51.658 -22.454  1.00  0.00     0.315 HD
ENDBRANCH  24  25
ENDBRANCH  23  24
ENDBRANCH  22  23
ENDBRANCH  20  22
ENDBRANCH   1  20
BRANCH  16  28
HETATM   28  C21 UNL     1      -0.446  51.247 -15.086  1.00  0.00     0.267 C 
HETATM   29  O4  UNL     1      -1.588  50.869 -14.856  1.00  0.00    -0.264 OA
BRANCH  28  30
HETATM   30  O5  UNL     1       0.131  52.315 -14.469  1.00  0.00    -0.326 OA
HETATM   31  C22 UNL     1      -0.211  52.456 -13.089  1.00  0.00     0.213 C 
ENDBRANCH  28  30
ENDBRANCH  16  28
TORSDOF 7
ENDMDL
