MODEL 1
REMARK minimizedAffinity -8.95045567
REMARK CNNscore 0.51785934
REMARK CNNaffinity 6.88714743
REMARK  8 active torsions:
REMARK  status: ('A' for Active; 'I' for Inactive)
REMARK    1  A    between atoms: C4_4  and  C5_5 
REMARK    2  A    between atoms: C5_5  and  C6_6 
REMARK    3  A    between atoms: C6_6  and  C7_7 
REMARK    4  A    between atoms: C7_7  and  C9_9 
REMARK    5  A    between atoms: C25_26  and  C27_28 
REMARK    6  A    between atoms: C27_28  and  O3_30 
REMARK    7  A    between atoms: C28_31  and  O4_32 
REMARK    8  A    between atoms: C30_34  and  O5_35 
ROOT
HETATM    1  C9  UNL     1      -1.151  50.511 -22.228  1.00  0.00    -0.002 C 
HETATM    2  C10 UNL     1      -1.366  50.491 -20.686  1.00  0.00     0.007 C 
HETATM    3  C11 UNL     1      -2.678  49.733 -20.410  1.00  0.00     0.015 C 
HETATM    4  C12 UNL     1      -3.035  49.043 -21.739  1.00  0.00    -0.005 C 
HETATM    5  C13 UNL     1      -2.219  47.713 -21.796  1.00  0.00     0.021 C 
HETATM    6  C14 UNL     1      -4.472  48.618 -22.032  1.00  0.00    -0.000 C 
HETATM    7  C15 UNL     1      -4.961  48.602 -23.304  1.00  0.00    -0.058 C 
HETATM    8  C16 UNL     1      -4.088  49.056 -24.475  1.00  0.00     0.036 C 
HETATM    9  C17 UNL     1      -2.661  49.546 -24.162  1.00  0.00     0.015 C 
HETATM   10  C18 UNL     1      -2.574  50.158 -22.761  1.00  0.00    -0.028 C 
HETATM   11  C19 UNL     1      -3.468  51.440 -22.721  1.00  0.00     0.016 C 
HETATM   12  C20 UNL     1      -6.438  48.185 -23.638  1.00  0.00     0.011 C 
HETATM   13  C21 UNL     1      -7.240  49.500 -23.514  1.00  0.00     0.023 C 
HETATM   14  C22 UNL     1      -6.820  47.081 -22.591  1.00  0.00     0.029 C 
HETATM   15  C23 UNL     1      -6.709  47.618 -21.163  1.00  0.00     0.090 C 
HETATM   16  C24 UNL     1      -5.323  48.154 -20.885  1.00  0.00     0.157 C 
HETATM   17  O1  UNL     1      -4.915  48.205 -19.726  1.00  0.00    -0.293 OA
HETATM   18  C25 UNL     1      -8.071  46.172 -22.908  1.00  0.00     0.072 C 
HETATM   19  C26 UNL     1      -7.516  44.733 -23.165  1.00  0.00     0.030 C 
HETATM   20  C28 UNL     1      -8.856  46.570 -24.175  1.00  0.00     0.139 C 
HETATM   21  C29 UNL     1      -7.983  46.924 -25.373  1.00  0.00     0.065 C 
HETATM   22  C30 UNL     1      -6.610  47.540 -25.057  1.00  0.00     0.133 C 
ENDROOT
BRANCH   1  23
HETATM   23  C7  UNL     1      -0.448  51.819 -22.693  1.00  0.00    -0.014 C 
HETATM   24  C8  UNL     1       0.635  52.248 -21.685  1.00  0.00     0.010 C 
BRANCH  23  25
HETATM   25  C6  UNL     1       0.160  51.772 -24.114  1.00  0.00     0.008 C 
BRANCH  25  26
HETATM   26  C5  UNL     1      -0.096  53.013 -24.975  1.00  0.00     0.028 C 
BRANCH  26  27
HETATM   27  C4  UNL     1       0.083  52.708 -26.438  1.00  0.00    -0.025 C 
HETATM   28  C2  UNL     1       1.106  52.055 -27.025  1.00  0.00    -0.091 C 
HETATM   29  C1  UNL     1       2.330  51.549 -26.313  1.00  0.00     0.042 C 
HETATM   30  C3  UNL     1       1.090  51.777 -28.506  1.00  0.00     0.042 C 
ENDBRANCH  26  27
ENDBRANCH  25  26
ENDBRANCH  23  25
ENDBRANCH   1  23
BRANCH  22  31
HETATM   31  O5  UNL     1      -6.315  48.441 -26.128  1.00  0.00    -0.394 OA
HETATM   32  H46 UNL     1      -6.969  49.161 -26.112  1.00  0.00     0.210 HD
ENDBRANCH  22  31
BRANCH  18  33
HETATM   33  C27 UNL     1      -9.088  46.007 -21.769  1.00  0.00     0.151 C 
HETATM   34  O2  UNL     1      -9.461  44.942 -21.292  1.00  0.00    -0.649 OA
BRANCH  33  35
HETATM   35  O3  UNL     1      -9.617  47.150 -21.298  1.00  0.00    -0.776 OA
HETATM   36  H40 UNL     1     -10.259  46.851 -20.619  1.00  0.00     0.167 HD
ENDBRANCH  33  35
ENDBRANCH  18  33
BRANCH  20  37
HETATM   37  O4  UNL     1      -9.724  47.676 -23.931  1.00  0.00    -0.394 OA
HETATM   38  H42 UNL     1     -10.393  47.694 -24.638  1.00  0.00     0.210 HD
ENDBRANCH  20  37
TORSDOF 8
ENDMDL
MODEL 2
REMARK minimizedAffinity -8.17304897
REMARK CNNscore 0.495325506
REMARK CNNaffinity 6.65145159
REMARK  8 active torsions:
REMARK  status: ('A' for Active; 'I' for Inactive)
REMARK    1  A    between atoms: C4_4  and  C5_5 
REMARK    2  A    between atoms: C5_5  and  C6_6 
REMARK    3  A    between atoms: C6_6  and  C7_7 
REMARK    4  A    between atoms: C7_7  and  C9_9 
REMARK    5  A    between atoms: C25_26  and  C27_28 
REMARK    6  A    between atoms: C27_28  and  O3_30 
REMARK    7  A    between atoms: C28_31  and  O4_32 
REMARK    8  A    between atoms: C30_34  and  O5_35 
ROOT
HETATM    1  C9  UNL     1      -1.866  50.567 -23.431  1.00  0.00    -0.002 C 
HETATM    2  C10 UNL     1      -1.718  52.049 -22.977  1.00  0.00     0.007 C 
HETATM    3  C11 UNL     1      -1.704  52.064 -21.437  1.00  0.00     0.015 C 
HETATM    4  C12 UNL     1      -1.511  50.594 -21.019  1.00  0.00    -0.005 C 
HETATM    5  C13 UNL     1       0.021  50.300 -21.081  1.00  0.00     0.021 C 
HETATM    6  C14 UNL     1      -1.932  50.121 -19.630  1.00  0.00    -0.000 C 
HETATM    7  C15 UNL     1      -2.367  48.847 -19.417  1.00  0.00    -0.058 C 
HETATM    8  C16 UNL     1      -2.488  47.865 -20.584  1.00  0.00     0.036 C 
HETATM    9  C17 UNL     1      -2.125  48.373 -21.993  1.00  0.00     0.015 C 
HETATM   10  C18 UNL     1      -2.378  49.877 -22.130  1.00  0.00    -0.028 C 
HETATM   11  C19 UNL     1      -3.912  50.138 -21.980  1.00  0.00     0.016 C 
HETATM   12  C20 UNL     1      -2.822  48.332 -18.005  1.00  0.00     0.011 C 
HETATM   13  C21 UNL     1      -4.323  48.690 -17.937  1.00  0.00     0.023 C 
HETATM   14  C22 UNL     1      -1.919  49.082 -16.964  1.00  0.00     0.029 C 
HETATM   15  C23 UNL     1      -2.093  50.598 -17.080  1.00  0.00     0.090 C 
HETATM   16  C24 UNL     1      -1.794  51.078 -18.482  1.00  0.00     0.157 C 
HETATM   17  O1  UNL     1      -1.447  52.245 -18.661  1.00  0.00    -0.293 OA
HETATM   18  C25 UNL     1      -1.839  48.491 -15.503  1.00  0.00     0.072 C 
HETATM   19  C26 UNL     1      -0.379  47.960 -15.321  1.00  0.00     0.030 C 
HETATM   20  C28 UNL     1      -2.776  47.294 -15.237  1.00  0.00     0.139 C 
HETATM   21  C29 UNL     1      -2.817  46.263 -16.359  1.00  0.00     0.065 C 
HETATM   22  C30 UNL     1      -2.586  46.798 -17.783  1.00  0.00     0.133 C 
ENDROOT
BRANCH   1  23
HETATM   23  C7  UNL     1      -2.686  50.449 -24.749  1.00  0.00    -0.014 C 
HETATM   24  C8  UNL     1      -3.359  51.790 -25.097  1.00  0.00     0.010 C 
BRANCH  23  25
HETATM   25  C6  UNL     1      -1.895  49.937 -25.974  1.00  0.00     0.008 C 
BRANCH  25  26
HETATM   26  C5  UNL     1      -1.354  51.028 -26.904  1.00  0.00     0.028 C 
BRANCH  26  27
HETATM   27  C4  UNL     1       0.143  50.944 -27.030  1.00  0.00    -0.025 C 
HETATM   28  C2  UNL     1       1.070  51.607 -26.310  1.00  0.00    -0.091 C 
HETATM   29  C1  UNL     1       0.770  52.636 -25.255  1.00  0.00     0.042 C 
HETATM   30  C3  UNL     1       2.539  51.350 -26.526  1.00  0.00     0.042 C 
ENDBRANCH  26  27
ENDBRANCH  25  26
ENDBRANCH  23  25
ENDBRANCH   1  23
BRANCH  22  31
HETATM   31  O5  UNL     1      -3.365  45.973 -18.655  1.00  0.00    -0.394 OA
HETATM   32  H46 UNL     1      -4.305  46.104 -18.442  1.00  0.00     0.210 HD
ENDBRANCH  22  31
BRANCH  18  33
HETATM   33  C27 UNL     1      -2.041  49.495 -14.359  1.00  0.00     0.151 C 
HETATM   34  O2  UNL     1      -3.114  49.971 -14.006  1.00  0.00    -0.649 OA
BRANCH  33  35
HETATM   35  O3  UNL     1      -0.919  49.887 -13.729  1.00  0.00    -0.776 OA
HETATM   36  H40 UNL     1      -1.234  50.543 -13.071  1.00  0.00     0.167 HD
ENDBRANCH  33  35
ENDBRANCH  18  33
BRANCH  20  37
HETATM   37  O4  UNL     1      -4.115  47.717 -14.989  1.00  0.00    -0.394 OA
HETATM   38  H42 UNL     1      -4.583  46.988 -14.544  1.00  0.00     0.210 HD
ENDBRANCH  20  37
TORSDOF 8
ENDMDL
MODEL 3
REMARK minimizedAffinity -8.43745232
REMARK CNNscore 0.472445369
REMARK CNNaffinity 6.64893293
REMARK  8 active torsions:
REMARK  status: ('A' for Active; 'I' for Inactive)
REMARK    1  A    between atoms: C4_4  and  C5_5 
REMARK    2  A    between atoms: C5_5  and  C6_6 
REMARK    3  A    between atoms: C6_6  and  C7_7 
REMARK    4  A    between atoms: C7_7  and  C9_9 
REMARK    5  A    between atoms: C25_26  and  C27_28 
REMARK    6  A    between atoms: C27_28  and  O3_30 
REMARK    7  A    between atoms: C28_31  and  O4_32 
REMARK    8  A    between atoms: C30_34  and  O5_35 
ROOT
HETATM    1  C9  UNL     1      -1.182  50.188 -21.876  1.00  0.00    -0.002 C 
HETATM    2  C10 UNL     1      -1.152  49.878 -20.350  1.00  0.00     0.007 C 
HETATM    3  C11 UNL     1      -2.346  48.957 -20.040  1.00  0.00     0.015 C 
HETATM    4  C12 UNL     1      -2.856  48.477 -21.412  1.00  0.00    -0.005 C 
HETATM    5  C13 UNL     1      -1.964  47.265 -21.830  1.00  0.00     0.021 C 
HETATM    6  C14 UNL     1      -4.286  47.968 -21.574  1.00  0.00    -0.000 C 
HETATM    7  C15 UNL     1      -4.965  48.126 -22.745  1.00  0.00    -0.058 C 
HETATM    8  C16 UNL     1      -4.320  48.862 -23.922  1.00  0.00     0.036 C 
HETATM    9  C17 UNL     1      -2.901  49.430 -23.725  1.00  0.00     0.015 C 
HETATM   10  C18 UNL     1      -2.641  49.794 -22.260  1.00  0.00    -0.028 C 
HETATM   11  C19 UNL     1      -3.609  50.953 -21.856  1.00  0.00     0.016 C 
HETATM   12  C20 UNL     1      -6.441  47.629 -22.941  1.00  0.00     0.011 C 
HETATM   13  C21 UNL     1      -7.307  48.815 -22.462  1.00  0.00     0.023 C 
HETATM   14  C22 UNL     1      -6.574  46.326 -22.077  1.00  0.00     0.029 C 
HETATM   15  C23 UNL     1      -6.281  46.614 -20.604  1.00  0.00     0.090 C 
HETATM   16  C24 UNL     1      -4.911  47.228 -20.427  1.00  0.00     0.157 C 
HETATM   17  O1  UNL     1      -4.332  47.116 -19.348  1.00  0.00    -0.293 OA
HETATM   18  C25 UNL     1      -7.790  45.366 -22.381  1.00  0.00     0.072 C 
HETATM   19  C26 UNL     1      -7.179  44.057 -22.978  1.00  0.00     0.030 C 
HETATM   20  C28 UNL     1      -8.790  45.899 -23.427  1.00  0.00     0.139 C 
HETATM   21  C29 UNL     1      -8.143  46.542 -24.648  1.00  0.00     0.065 C 
HETATM   22  C30 UNL     1      -6.785  47.228 -24.418  1.00  0.00     0.133 C 
ENDROOT
BRANCH   1  23
HETATM   23  C7  UNL     1      -0.657  51.622 -22.180  1.00  0.00    -0.014 C 
HETATM   24  C8  UNL     1      -0.045  52.261 -20.920  1.00  0.00     0.010 C 
BRANCH  23  25
HETATM   25  C6  UNL     1       0.350  51.720 -23.349  1.00  0.00     0.008 C 
BRANCH  25  26
HETATM   26  C5  UNL     1      -0.275  51.768 -24.747  1.00  0.00     0.028 C 
BRANCH  26  27
HETATM   27  C4  UNL     1       0.747  51.473 -25.812  1.00  0.00    -0.025 C 
HETATM   28  C2  UNL     1       0.951  52.137 -26.967  1.00  0.00    -0.091 C 
HETATM   29  C1  UNL     1       0.126  53.298 -27.453  1.00  0.00     0.042 C 
HETATM   30  C3  UNL     1       2.072  51.741 -27.894  1.00  0.00     0.042 C 
ENDBRANCH  26  27
ENDBRANCH  25  26
ENDBRANCH  23  25
ENDBRANCH   1  23
BRANCH  22  31
HETATM   31  O5  UNL     1      -6.727  48.326 -25.332  1.00  0.00    -0.394 OA
HETATM   32  H46 UNL     1      -7.421  48.963 -25.089  1.00  0.00     0.210 HD
ENDBRANCH  22  31
BRANCH  18  33
HETATM   33  C27 UNL     1      -8.602  44.904 -21.162  1.00  0.00     0.151 C 
HETATM   34  O2  UNL     1      -9.691  45.350 -20.818  1.00  0.00    -0.649 OA
BRANCH  33  35
HETATM   35  O3  UNL     1      -8.027  43.947 -20.412  1.00  0.00    -0.776 OA
HETATM   36  H40 UNL     1      -8.659  43.812 -19.675  1.00  0.00     0.167 HD
ENDBRANCH  33  35
ENDBRANCH  18  33
BRANCH  20  37
HETATM   37  O4  UNL     1      -9.688  46.852 -22.861  1.00  0.00    -0.394 OA
HETATM   38  H42 UNL     1     -10.458  46.927 -23.452  1.00  0.00     0.210 HD
ENDBRANCH  20  37
TORSDOF 8
ENDMDL
MODEL 4
REMARK minimizedAffinity -8.21175385
REMARK CNNscore 0.440629452
REMARK CNNaffinity 6.43733931
REMARK  8 active torsions:
REMARK  status: ('A' for Active; 'I' for Inactive)
REMARK    1  A    between atoms: C4_4  and  C5_5 
REMARK    2  A    between atoms: C5_5  and  C6_6 
REMARK    3  A    between atoms: C6_6  and  C7_7 
REMARK    4  A    between atoms: C7_7  and  C9_9 
REMARK    5  A    between atoms: C25_26  and  C27_28 
REMARK    6  A    between atoms: C27_28  and  O3_30 
REMARK    7  A    between atoms: C28_31  and  O4_32 
REMARK    8  A    between atoms: C30_34  and  O5_35 
ROOT
HETATM    1  C9  UNL     1      -2.398  48.390 -19.861  1.00  0.00    -0.002 C 
HETATM    2  C10 UNL     1      -3.251  47.967 -18.628  1.00  0.00     0.007 C 
HETATM    3  C11 UNL     1      -4.621  47.497 -19.150  1.00  0.00     0.015 C 
HETATM    4  C12 UNL     1      -4.442  47.336 -20.672  1.00  0.00    -0.005 C 
HETATM    5  C13 UNL     1      -3.810  45.928 -20.909  1.00  0.00     0.021 C 
HETATM    6  C14 UNL     1      -5.650  47.372 -21.603  1.00  0.00    -0.000 C 
HETATM    7  C15 UNL     1      -5.550  47.849 -22.876  1.00  0.00    -0.058 C 
HETATM    8  C16 UNL     1      -4.222  48.408 -23.391  1.00  0.00     0.036 C 
HETATM    9  C17 UNL     1      -3.025  48.428 -22.421  1.00  0.00     0.015 C 
HETATM   10  C18 UNL     1      -3.485  48.560 -20.966  1.00  0.00    -0.028 C 
HETATM   11  C19 UNL     1      -4.184  49.947 -20.789  1.00  0.00     0.016 C 
HETATM   12  C20 UNL     1      -6.776  47.914 -23.855  1.00  0.00     0.011 C 
HETATM   13  C21 UNL     1      -7.424  49.285 -23.559  1.00  0.00     0.023 C 
HETATM   14  C22 UNL     1      -7.671  46.674 -23.505  1.00  0.00     0.029 C 
HETATM   15  C23 UNL     1      -8.128  46.723 -22.046  1.00  0.00     0.090 C 
HETATM   16  C24 UNL     1      -6.948  46.806 -21.105  1.00  0.00     0.157 C 
HETATM   17  O1  UNL     1      -7.070  46.413 -19.945  1.00  0.00    -0.293 OA
HETATM   18  C25 UNL     1      -8.748  46.224 -24.568  1.00  0.00     0.072 C 
HETATM   19  C26 UNL     1      -8.276  44.837 -25.113  1.00  0.00     0.030 C 
HETATM   20  C28 UNL     1      -8.877  47.155 -25.792  1.00  0.00     0.139 C 
HETATM   21  C29 UNL     1      -7.547  47.629 -26.367  1.00  0.00     0.065 C 
HETATM   22  C30 UNL     1      -6.387  47.778 -25.368  1.00  0.00     0.133 C 
ENDROOT
BRANCH   1  23
HETATM   23  C7  UNL     1      -1.443  49.571 -19.520  1.00  0.00    -0.014 C 
HETATM   24  C8  UNL     1      -0.776  49.358 -18.148  1.00  0.00     0.010 C 
BRANCH  23  25
HETATM   25  C6  UNL     1      -0.357  49.867 -20.580  1.00  0.00     0.008 C 
BRANCH  25  26
HETATM   26  C5  UNL     1       0.144  51.315 -20.615  1.00  0.00     0.028 C 
BRANCH  26  27
HETATM   27  C4  UNL     1       0.120  51.867 -22.014  1.00  0.00    -0.025 C 
HETATM   28  C2  UNL     1       0.672  53.014 -22.458  1.00  0.00    -0.091 C 
HETATM   29  C1  UNL     1       1.385  54.020 -21.596  1.00  0.00     0.042 C 
HETATM   30  C3  UNL     1       0.608  53.383 -23.918  1.00  0.00     0.042 C 
ENDBRANCH  26  27
ENDBRANCH  25  26
ENDBRANCH  23  25
ENDBRANCH   1  23
BRANCH  22  31
HETATM   31  O5  UNL     1      -5.580  48.857 -25.846  1.00  0.00    -0.394 OA
HETATM   32  H46 UNL     1      -6.106  49.675 -25.807  1.00  0.00     0.210 HD
ENDBRANCH  22  31
BRANCH  18  33
HETATM   33  C27 UNL     1     -10.164  45.978 -24.027  1.00  0.00     0.151 C 
HETATM   34  O2  UNL     1     -10.727  44.891 -23.966  1.00  0.00    -0.649 OA
BRANCH  33  35
HETATM   35  O3  UNL     1     -10.826  47.075 -23.621  1.00  0.00    -0.776 OA
HETATM   36  H40 UNL     1     -11.706  46.735 -23.351  1.00  0.00     0.167 HD
ENDBRANCH  33  35
ENDBRANCH  18  33
BRANCH  20  37
HETATM   37  O4  UNL     1      -9.656  48.312 -25.495  1.00  0.00    -0.394 OA
HETATM   38  H42 UNL     1      -9.955  48.698 -26.338  1.00  0.00     0.210 HD
ENDBRANCH  20  37
TORSDOF 8
ENDMDL
MODEL 5
REMARK minimizedAffinity -7.91091204
REMARK CNNscore 0.434406698
REMARK CNNaffinity 6.58577776
REMARK  8 active torsions:
REMARK  status: ('A' for Active; 'I' for Inactive)
REMARK    1  A    between atoms: C4_4  and  C5_5 
REMARK    2  A    between atoms: C5_5  and  C6_6 
REMARK    3  A    between atoms: C6_6  and  C7_7 
REMARK    4  A    between atoms: C7_7  and  C9_9 
REMARK    5  A    between atoms: C25_26  and  C27_28 
REMARK    6  A    between atoms: C27_28  and  O3_30 
REMARK    7  A    between atoms: C28_31  and  O4_32 
REMARK    8  A    between atoms: C30_34  and  O5_35 
ROOT
HETATM    1  C9  UNL     1      -2.116  49.805 -23.212  1.00  0.00    -0.002 C 
HETATM    2  C10 UNL     1      -1.319  50.910 -22.457  1.00  0.00     0.007 C 
HETATM    3  C11 UNL     1      -1.446  50.625 -20.949  1.00  0.00     0.015 C 
HETATM    4  C12 UNL     1      -2.022  49.200 -20.852  1.00  0.00    -0.005 C 
HETATM    5  C13 UNL     1      -0.820  48.212 -20.989  1.00  0.00     0.021 C 
HETATM    6  C14 UNL     1      -2.748  48.741 -19.590  1.00  0.00    -0.000 C 
HETATM    7  C15 UNL     1      -3.759  47.829 -19.646  1.00  0.00    -0.058 C 
HETATM    8  C16 UNL     1      -4.225  47.271 -20.993  1.00  0.00     0.036 C 
HETATM    9  C17 UNL     1      -3.530  47.791 -22.266  1.00  0.00     0.015 C 
HETATM   10  C18 UNL     1      -3.017  49.222 -22.080  1.00  0.00    -0.028 C 
HETATM   11  C19 UNL     1      -4.244  50.167 -21.864  1.00  0.00     0.016 C 
HETATM   12  C20 UNL     1      -4.536  47.347 -18.369  1.00  0.00     0.011 C 
HETATM   13  C21 UNL     1      -5.681  48.372 -18.214  1.00  0.00     0.023 C 
HETATM   14  C22 UNL     1      -3.488  47.348 -17.203  1.00  0.00     0.029 C 
HETATM   15  C23 UNL     1      -2.901  48.745 -16.995  1.00  0.00     0.090 C 
HETATM   16  C24 UNL     1      -2.277  49.272 -18.267  1.00  0.00     0.157 C 
HETATM   17  O1  UNL     1      -1.398  50.130 -18.200  1.00  0.00    -0.293 OA
HETATM   18  C25 UNL     1      -3.840  46.529 -15.900  1.00  0.00     0.072 C 
HETATM   19  C26 UNL     1      -2.839  45.330 -15.848  1.00  0.00     0.030 C 
HETATM   20  C28 UNL     1      -5.257  45.918 -15.883  1.00  0.00     0.139 C 
HETATM   21  C29 UNL     1      -5.680  45.272 -17.197  1.00  0.00     0.065 C 
HETATM   22  C30 UNL     1      -5.088  45.882 -18.479  1.00  0.00     0.133 C 
ENDROOT
BRANCH   1  23
HETATM   23  C7  UNL     1      -2.763  50.354 -24.517  1.00  0.00    -0.014 C 
HETATM   24  C8  UNL     1      -2.661  51.890 -24.575  1.00  0.00     0.010 C 
BRANCH  23  25
HETATM   25  C6  UNL     1      -2.212  49.752 -25.829  1.00  0.00     0.008 C 
BRANCH  25  26
HETATM   26  C5  UNL     1      -1.421  50.724 -26.712  1.00  0.00     0.028 C 
BRANCH  26  27
HETATM   27  C4  UNL     1       0.042  50.714 -26.359  1.00  0.00    -0.025 C 
HETATM   28  C2  UNL     1       1.051  51.326 -27.009  1.00  0.00    -0.091 C 
HETATM   29  C1  UNL     1       0.908  52.107 -28.287  1.00  0.00     0.042 C 
HETATM   30  C3  UNL     1       2.459  51.266 -26.474  1.00  0.00     0.042 C 
ENDBRANCH  26  27
ENDBRANCH  25  26
ENDBRANCH  23  25
ENDBRANCH   1  23
BRANCH  22  31
HETATM   31  O5  UNL     1      -6.080  45.725 -19.497  1.00  0.00    -0.394 OA
HETATM   32  H46 UNL     1      -6.857  46.256 -19.252  1.00  0.00     0.210 HD
ENDBRANCH  22  31
BRANCH  18  33
HETATM   33  C27 UNL     1      -3.643  47.268 -14.568  1.00  0.00     0.151 C 
HETATM   34  O2  UNL     1      -2.707  48.011 -14.294  1.00  0.00    -0.649 OA
BRANCH  33  35
HETATM   35  O3  UNL     1      -4.582  47.035 -13.633  1.00  0.00    -0.776 OA
HETATM   36  H40 UNL     1      -4.275  47.549 -12.856  1.00  0.00     0.167 HD
ENDBRANCH  33  35
ENDBRANCH  18  33
BRANCH  20  37
HETATM   37  O4  UNL     1      -6.245  46.887 -15.539  1.00  0.00    -0.394 OA
HETATM   38  H42 UNL     1      -7.046  46.411 -15.253  1.00  0.00     0.210 HD
ENDBRANCH  20  37
TORSDOF 8
ENDMDL
MODEL 6
REMARK minimizedAffinity -8.04883862
REMARK CNNscore 0.411456615
REMARK CNNaffinity 6.45588112
REMARK  8 active torsions:
REMARK  status: ('A' for Active; 'I' for Inactive)
REMARK    1  A    between atoms: C4_4  and  C5_5 
REMARK    2  A    between atoms: C5_5  and  C6_6 
REMARK    3  A    between atoms: C6_6  and  C7_7 
REMARK    4  A    between atoms: C7_7  and  C9_9 
REMARK    5  A    between atoms: C25_26  and  C27_28 
REMARK    6  A    between atoms: C27_28  and  O3_30 
REMARK    7  A    between atoms: C28_31  and  O4_32 
REMARK    8  A    between atoms: C30_34  and  O5_35 
ROOT
HETATM    1  C9  UNL     1      -0.968  50.090 -21.345  1.00  0.00    -0.002 C 
HETATM    2  C10 UNL     1      -1.121  49.706 -19.842  1.00  0.00     0.007 C 
HETATM    3  C11 UNL     1      -2.404  48.866 -19.706  1.00  0.00     0.015 C 
HETATM    4  C12 UNL     1      -2.800  48.492 -21.147  1.00  0.00    -0.005 C 
HETATM    5  C13 UNL     1      -1.958  47.237 -21.539  1.00  0.00     0.021 C 
HETATM    6  C14 UNL     1      -4.238  48.104 -21.481  1.00  0.00    -0.000 C 
HETATM    7  C15 UNL     1      -4.778  48.369 -22.704  1.00  0.00    -0.058 C 
HETATM    8  C16 UNL     1      -3.962  49.109 -23.766  1.00  0.00     0.036 C 
HETATM    9  C17 UNL     1      -2.534  49.555 -23.396  1.00  0.00     0.015 C 
HETATM   10  C18 UNL     1      -2.404  49.828 -21.895  1.00  0.00    -0.028 C 
HETATM   11  C19 UNL     1      -3.322  51.038 -21.528  1.00  0.00     0.016 C 
HETATM   12  C20 UNL     1      -6.257  47.997 -23.074  1.00  0.00     0.011 C 
HETATM   13  C21 UNL     1      -7.081  49.223 -22.620  1.00  0.00     0.023 C 
HETATM   14  C22 UNL     1      -6.573  46.669 -22.302  1.00  0.00     0.029 C 
HETATM   15  C23 UNL     1      -6.415  46.863 -20.792  1.00  0.00     0.090 C 
HETATM   16  C24 UNL     1      -5.031  47.361 -20.445  1.00  0.00     0.157 C 
HETATM   17  O1  UNL     1      -4.578  47.154 -19.321  1.00  0.00    -0.293 OA
HETATM   18  C25 UNL     1      -7.816  45.821 -22.779  1.00  0.00     0.072 C 
HETATM   19  C26 UNL     1      -7.241  44.498 -23.383  1.00  0.00     0.030 C 
HETATM   20  C28 UNL     1      -8.660  46.479 -23.890  1.00  0.00     0.139 C 
HETATM   21  C29 UNL     1      -7.844  47.127 -25.002  1.00  0.00     0.065 C 
HETATM   22  C30 UNL     1      -6.472  47.694 -24.598  1.00  0.00     0.133 C 
ENDROOT
BRANCH   1  23
HETATM   23  C7  UNL     1      -0.313  51.491 -21.515  1.00  0.00    -0.014 C 
HETATM   24  C8  UNL     1      -0.544  52.035 -22.937  1.00  0.00     0.010 C 
BRANCH  23  25
HETATM   25  C6  UNL     1      -0.750  52.553 -20.480  1.00  0.00     0.008 C 
BRANCH  25  26
HETATM   26  C5  UNL     1      -0.657  52.114 -19.015  1.00  0.00     0.028 C 
BRANCH  26  27
HETATM   27  C4  UNL     1       0.600  52.630 -18.369  1.00  0.00    -0.025 C 
HETATM   28  C2  UNL     1       1.211  52.162 -17.263  1.00  0.00    -0.091 C 
HETATM   29  C1  UNL     1       0.699  51.039 -16.403  1.00  0.00     0.042 C 
HETATM   30  C3  UNL     1       2.511  52.761 -16.791  1.00  0.00     0.042 C 
ENDBRANCH  26  27
ENDBRANCH  25  26
ENDBRANCH  23  25
ENDBRANCH   1  23
BRANCH  22  31
HETATM   31  O5  UNL     1      -6.240  48.827 -25.440  1.00  0.00    -0.394 OA
HETATM   32  H46 UNL     1      -6.908  49.504 -25.234  1.00  0.00     0.210 HD
ENDBRANCH  22  31
BRANCH  18  33
HETATM   33  C27 UNL     1      -8.783  45.366 -21.675  1.00  0.00     0.151 C 
HETATM   34  O2  UNL     1      -8.485  45.158 -20.505  1.00  0.00    -0.649 OA
BRANCH  33  35
HETATM   35  O3  UNL     1     -10.052  45.159 -22.068  1.00  0.00    -0.776 OA
HETATM   36  H40 UNL     1     -10.502  44.843 -21.257  1.00  0.00     0.167 HD
ENDBRANCH  33  35
ENDBRANCH  18  33
BRANCH  20  37
HETATM   37  O4  UNL     1      -9.541  47.470 -23.365  1.00  0.00    -0.394 OA
HETATM   38  H42 UNL     1     -10.238  47.633 -24.026  1.00  0.00     0.210 HD
ENDBRANCH  20  37
TORSDOF 8
ENDMDL
MODEL 7
REMARK minimizedAffinity -7.03783703
REMARK CNNscore 0.405006826
REMARK CNNaffinity 6.2498703
REMARK  8 active torsions:
REMARK  status: ('A' for Active; 'I' for Inactive)
REMARK    1  A    between atoms: C4_4  and  C5_5 
REMARK    2  A    between atoms: C5_5  and  C6_6 
REMARK    3  A    between atoms: C6_6  and  C7_7 
REMARK    4  A    between atoms: C7_7  and  C9_9 
REMARK    5  A    between atoms: C25_26  and  C27_28 
REMARK    6  A    between atoms: C27_28  and  O3_30 
REMARK    7  A    between atoms: C28_31  and  O4_32 
REMARK    8  A    between atoms: C30_34  and  O5_35 
ROOT
HETATM    1  C9  UNL     1       4.125  54.432 -10.137  1.00  0.00    -0.002 C 
HETATM    2  C10 UNL     1       4.761  53.058  -9.770  1.00  0.00     0.007 C 
HETATM    3  C11 UNL     1       3.662  51.987  -9.902  1.00  0.00     0.015 C 
HETATM    4  C12 UNL     1       2.509  52.680 -10.651  1.00  0.00    -0.005 C 
HETATM    5  C13 UNL     1       2.841  52.599 -12.174  1.00  0.00     0.021 C 
HETATM    6  C14 UNL     1       1.083  52.145 -10.545  1.00  0.00    -0.000 C 
HETATM    7  C15 UNL     1       0.006  52.976 -10.623  1.00  0.00    -0.058 C 
HETATM    8  C16 UNL     1       0.203  54.486 -10.775  1.00  0.00     0.036 C 
HETATM    9  C17 UNL     1       1.647  55.023 -10.813  1.00  0.00     0.015 C 
HETATM   10  C18 UNL     1       2.600  54.126 -10.019  1.00  0.00    -0.028 C 
HETATM   11  C19 UNL     1       2.184  54.169  -8.513  1.00  0.00     0.016 C 
HETATM   12  C20 UNL     1      -1.472  52.460 -10.503  1.00  0.00     0.011 C 
HETATM   13  C21 UNL     1      -1.760  52.486  -8.985  1.00  0.00     0.023 C 
HETATM   14  C22 UNL     1      -1.482  51.032 -11.151  1.00  0.00     0.029 C 
HETATM   15  C23 UNL     1      -0.512  50.096 -10.428  1.00  0.00     0.090 C 
HETATM   16  C24 UNL     1       0.889  50.661 -10.417  1.00  0.00     0.157 C 
HETATM   17  O1  UNL     1       1.848  49.900 -10.298  1.00  0.00    -0.293 OA
HETATM   18  C25 UNL     1      -2.880  50.422 -11.559  1.00  0.00     0.072 C 
HETATM   19  C26 UNL     1      -2.893  50.355 -13.121  1.00  0.00     0.030 C 
HETATM   20  C28 UNL     1      -4.102  51.271 -11.148  1.00  0.00     0.139 C 
HETATM   21  C29 UNL     1      -3.942  52.766 -11.395  1.00  0.00     0.065 C 
HETATM   22  C30 UNL     1      -2.512  53.324 -11.299  1.00  0.00     0.133 C 
ENDROOT
BRANCH   1  23
HETATM   23  C7  UNL     1       4.752  55.593  -9.313  1.00  0.00    -0.014 C 
HETATM   24  C8  UNL     1       3.696  56.663  -8.981  1.00  0.00     0.010 C 
BRANCH  23  25
HETATM   25  C6  UNL     1       5.476  55.164  -8.015  1.00  0.00     0.008 C 
BRANCH  25  26
HETATM   26  C5  UNL     1       6.966  55.518  -7.951  1.00  0.00     0.028 C 
BRANCH  26  27
HETATM   27  C4  UNL     1       7.435  55.649  -6.528  1.00  0.00    -0.025 C 
HETATM   28  C2  UNL     1       7.140  56.628  -5.649  1.00  0.00    -0.091 C 
HETATM   29  C1  UNL     1       6.310  57.845  -5.958  1.00  0.00     0.042 C 
HETATM   30  C3  UNL     1       7.646  56.567  -4.231  1.00  0.00     0.042 C 
ENDBRANCH  26  27
ENDBRANCH  25  26
ENDBRANCH  23  25
ENDBRANCH   1  23
BRANCH  22  31
HETATM   31  O5  UNL     1      -2.632  54.662 -10.807  1.00  0.00    -0.394 OA
HETATM   32  H46 UNL     1      -2.993  54.625  -9.905  1.00  0.00     0.210 HD
ENDBRANCH  22  31
BRANCH  18  33
HETATM   33  C27 UNL     1      -3.146  48.982 -11.097  1.00  0.00     0.151 C 
HETATM   34  O2  UNL     1      -2.291  48.126 -10.897  1.00  0.00    -0.649 OA
BRANCH  33  35
HETATM   35  O3  UNL     1      -4.440  48.656 -10.936  1.00  0.00    -0.776 OA
HETATM   36  H40 UNL     1      -4.416  47.709 -10.682  1.00  0.00     0.167 HD
ENDBRANCH  33  35
ENDBRANCH  18  33
BRANCH  20  37
HETATM   37  O4  UNL     1      -4.428  51.093  -9.771  1.00  0.00    -0.394 OA
HETATM   38  H42 UNL     1      -5.345  51.393  -9.638  1.00  0.00     0.210 HD
ENDBRANCH  20  37
TORSDOF 8
ENDMDL
MODEL 8
REMARK minimizedAffinity -7.5316391
REMARK CNNscore 0.381135225
REMARK CNNaffinity 6.24915934
REMARK  8 active torsions:
REMARK  status: ('A' for Active; 'I' for Inactive)
REMARK    1  A    between atoms: C4_4  and  C5_5 
REMARK    2  A    between atoms: C5_5  and  C6_6 
REMARK    3  A    between atoms: C6_6  and  C7_7 
REMARK    4  A    between atoms: C7_7  and  C9_9 
REMARK    5  A    between atoms: C25_26  and  C27_28 
REMARK    6  A    between atoms: C27_28  and  O3_30 
REMARK    7  A    between atoms: C28_31  and  O4_32 
REMARK    8  A    between atoms: C30_34  and  O5_35 
ROOT
HETATM    1  C9  UNL     1      -2.707  48.589 -19.920  1.00  0.00    -0.002 C 
HETATM    2  C10 UNL     1      -3.652  48.224 -18.737  1.00  0.00     0.007 C 
HETATM    3  C11 UNL     1      -4.982  47.735 -19.339  1.00  0.00     0.015 C 
HETATM    4  C12 UNL     1      -4.692  47.505 -20.833  1.00  0.00    -0.005 C 
HETATM    5  C13 UNL     1      -4.053  46.086 -20.960  1.00  0.00     0.021 C 
HETATM    6  C14 UNL     1      -5.827  47.502 -21.853  1.00  0.00    -0.000 C 
HETATM    7  C15 UNL     1      -5.630  47.922 -23.135  1.00  0.00    -0.058 C 
HETATM    8  C16 UNL     1      -4.263  48.453 -23.574  1.00  0.00     0.036 C 
HETATM    9  C17 UNL     1      -3.142  48.513 -22.519  1.00  0.00     0.015 C 
HETATM   10  C18 UNL     1      -3.708  48.712 -21.110  1.00  0.00    -0.028 C 
HETATM   11  C19 UNL     1      -4.409  50.107 -21.048  1.00  0.00     0.016 C 
HETATM   12  C20 UNL     1      -6.779  47.946 -24.205  1.00  0.00     0.011 C 
HETATM   13  C21 UNL     1      -7.439  49.331 -24.020  1.00  0.00     0.023 C 
HETATM   14  C22 UNL     1      -7.705  46.726 -23.868  1.00  0.00     0.029 C 
HETATM   15  C23 UNL     1      -8.269  46.841 -22.451  1.00  0.00     0.090 C 
HETATM   16  C24 UNL     1      -7.162  46.963 -21.428  1.00  0.00     0.157 C 
HETATM   17  O1  UNL     1      -7.373  46.623 -20.265  1.00  0.00    -0.293 OA
HETATM   18  C25 UNL     1      -8.703  46.232 -24.987  1.00  0.00     0.072 C 
HETATM   19  C26 UNL     1      -8.201  44.820 -25.433  1.00  0.00     0.030 C 
HETATM   20  C28 UNL     1      -8.735  47.107 -26.258  1.00  0.00     0.139 C 
HETATM   21  C29 UNL     1      -7.363  47.550 -26.752  1.00  0.00     0.065 C 
HETATM   22  C30 UNL     1      -6.279  47.741 -25.677  1.00  0.00     0.133 C 
ENDROOT
BRANCH   1  23
HETATM   23  C7  UNL     1      -1.773  49.781 -19.562  1.00  0.00    -0.014 C 
HETATM   24  C8  UNL     1      -2.507  51.124 -19.736  1.00  0.00     0.010 C 
BRANCH  23  25
HETATM   25  C6  UNL     1      -1.137  49.720 -18.154  1.00  0.00     0.008 C 
BRANCH  25  26
HETATM   26  C5  UNL     1      -0.019  50.736 -17.899  1.00  0.00     0.028 C 
BRANCH  26  27
HETATM   27  C4  UNL     1       0.582  50.553 -16.531  1.00  0.00    -0.025 C 
HETATM   28  C2  UNL     1       1.490  51.338 -15.918  1.00  0.00    -0.091 C 
HETATM   29  C1  UNL     1       2.140  52.548 -16.530  1.00  0.00     0.042 C 
HETATM   30  C3  UNL     1       1.936  51.041 -14.509  1.00  0.00     0.042 C 
ENDBRANCH  26  27
ENDBRANCH  25  26
ENDBRANCH  23  25
ENDBRANCH   1  23
BRANCH  22  31
HETATM   31  O5  UNL     1      -5.432  48.796 -26.141  1.00  0.00    -0.394 OA
HETATM   32  H46 UNL     1      -5.955  49.615 -26.178  1.00  0.00     0.210 HD
ENDBRANCH  22  31
BRANCH  18  33
HETATM   33  C27 UNL     1     -10.157  46.014 -24.543  1.00  0.00     0.151 C 
HETATM   34  O2  UNL     1     -10.732  44.933 -24.484  1.00  0.00    -0.649 OA
BRANCH  33  35
HETATM   35  O3  UNL     1     -10.837  47.130 -24.225  1.00  0.00    -0.776 OA
HETATM   36  H40 UNL     1     -11.737  46.805 -24.009  1.00  0.00     0.167 HD
ENDBRANCH  33  35
ENDBRANCH  18  33
BRANCH  20  37
HETATM   37  O4  UNL     1      -9.527  48.278 -26.071  1.00  0.00    -0.394 OA
HETATM   38  H42 UNL     1      -9.759  48.626 -26.951  1.00  0.00     0.210 HD
ENDBRANCH  20  37
TORSDOF 8
ENDMDL
MODEL 9
REMARK minimizedAffinity -7.06016159
REMARK CNNscore 0.369643569
REMARK CNNaffinity 6.32313681
REMARK  8 active torsions:
REMARK  status: ('A' for Active; 'I' for Inactive)
REMARK    1  A    between atoms: C4_4  and  C5_5 
REMARK    2  A    between atoms: C5_5  and  C6_6 
REMARK    3  A    between atoms: C6_6  and  C7_7 
REMARK    4  A    between atoms: C7_7  and  C9_9 
REMARK    5  A    between atoms: C25_26  and  C27_28 
REMARK    6  A    between atoms: C27_28  and  O3_30 
REMARK    7  A    between atoms: C28_31  and  O4_32 
REMARK    8  A    between atoms: C30_34  and  O5_35 
ROOT
HETATM    1  C9  UNL     1      -1.723  52.622 -11.364  1.00  0.00    -0.002 C 
HETATM    2  C10 UNL     1      -2.691  52.421 -10.160  1.00  0.00     0.007 C 
HETATM    3  C11 UNL     1      -2.063  53.117  -8.939  1.00  0.00     0.015 C 
HETATM    4  C12 UNL     1      -0.924  53.985  -9.507  1.00  0.00    -0.005 C 
HETATM    5  C13 UNL     1      -1.570  55.318  -9.999  1.00  0.00     0.021 C 
HETATM    6  C14 UNL     1       0.231  54.430  -8.614  1.00  0.00    -0.000 C 
HETATM    7  C15 UNL     1       1.483  54.621  -9.118  1.00  0.00    -0.058 C 
HETATM    8  C16 UNL     1       1.773  54.347 -10.596  1.00  0.00     0.036 C 
HETATM    9  C17 UNL     1       0.615  53.834 -11.473  1.00  0.00     0.015 C 
HETATM   10  C18 UNL     1      -0.398  53.030 -10.652  1.00  0.00    -0.028 C 
HETATM   11  C19 UNL     1       0.309  51.746 -10.109  1.00  0.00     0.016 C 
HETATM   12  C20 UNL     1       2.697  55.064  -8.226  1.00  0.00     0.011 C 
HETATM   13  C21 UNL     1       3.282  53.736  -7.697  1.00  0.00     0.023 C 
HETATM   14  C22 UNL     1       2.098  56.004  -7.123  1.00  0.00     0.029 C 
HETATM   15  C23 UNL     1       1.042  55.272  -6.293  1.00  0.00     0.090 C 
HETATM   16  C24 UNL     1      -0.058  54.718  -7.169  1.00  0.00     0.157 C 
HETATM   17  O1  UNL     1      -1.169  54.508  -6.686  1.00  0.00    -0.293 OA
HETATM   18  C25 UNL     1       3.097  56.935  -6.331  1.00  0.00     0.072 C 
HETATM   19  C26 UNL     1       2.765  58.402  -6.758  1.00  0.00     0.030 C 
HETATM   20  C28 UNL     1       4.588  56.711  -6.659  1.00  0.00     0.139 C 
HETATM   21  C29 UNL     1       4.888  56.540  -8.144  1.00  0.00     0.065 C 
HETATM   22  C30 UNL     1       3.777  55.901  -8.995  1.00  0.00     0.133 C 
ENDROOT
BRANCH   1  23
HETATM   23  C7  UNL     1      -1.745  51.400 -12.328  1.00  0.00    -0.014 C 
HETATM   24  C8  UNL     1      -3.183  50.889 -12.533  1.00  0.00     0.010 C 
BRANCH  23  25
HETATM   25  C6  UNL     1      -1.081  51.635 -13.704  1.00  0.00     0.008 C 
BRANCH  25  26
HETATM   26  C5  UNL     1       0.162  50.783 -13.983  1.00  0.00     0.028 C 
BRANCH  26  27
HETATM   27  C4  UNL     1       1.234  51.588 -14.666  1.00  0.00    -0.025 C 
HETATM   28  C2  UNL     1       1.415  51.766 -15.989  1.00  0.00    -0.091 C 
HETATM   29  C1  UNL     1       0.590  51.121 -17.069  1.00  0.00     0.042 C 
HETATM   30  C3  UNL     1       2.509  52.667 -16.501  1.00  0.00     0.042 C 
ENDBRANCH  26  27
ENDBRANCH  25  26
ENDBRANCH  23  25
ENDBRANCH   1  23
BRANCH  22  31
HETATM   31  O5  UNL     1       4.434  55.165 -10.030  1.00  0.00    -0.394 OA
HETATM   32  H46 UNL     1       4.940  54.443  -9.619  1.00  0.00     0.210 HD
ENDBRANCH  22  31
BRANCH  18  33
HETATM   33  C27 UNL     1       2.957  56.926  -4.802  1.00  0.00     0.151 C 
HETATM   34  O2  UNL     1       3.265  55.998  -4.062  1.00  0.00    -0.649 OA
BRANCH  33  35
HETATM   35  O3  UNL     1       2.420  58.035  -4.263  1.00  0.00    -0.776 OA
HETATM   36  H40 UNL     1       2.374  57.834  -3.304  1.00  0.00     0.167 HD
ENDBRANCH  33  35
ENDBRANCH  18  33
BRANCH  20  37
HETATM   37  O4  UNL     1       5.112  55.573  -5.978  1.00  0.00    -0.394 OA
HETATM   38  H42 UNL     1       6.083  55.647  -5.973  1.00  0.00     0.210 HD
ENDBRANCH  20  37
TORSDOF 8
ENDMDL
