MODEL 1
REMARK minimizedAffinity -10.0351295
REMARK  7 active torsions:
REMARK  status: ('A' for Active; 'I' for Inactive)
REMARK    1  A    between atoms: C2_2  and  C30_32 
REMARK    2  A    between atoms: C3_3  and  C4_4 
REMARK    3  A    between atoms: C4_4  and  C5_5 
REMARK    4  A    between atoms: C5_5  and  C6_6 
REMARK    5  A    between atoms: C6_6  and  C8_8 
REMARK    6  A    between atoms: C10_10  and  O1_11 
REMARK    7  A    between atoms: C30_32  and  O4_34 
ROOT
HETATM    1  C8  UNL     1      -2.983   8.260  15.234  1.00  0.00     0.001 C 
HETATM    2  C9  UNL     1      -1.976   8.052  16.394  1.00  0.00     0.038 C 
HETATM    3  C10 UNL     1      -0.589   7.824  15.751  1.00  0.00     0.128 C 
HETATM    4  C11 UNL     1      -0.748   8.280  14.278  1.00  0.00    -0.006 C 
HETATM    5  C12 UNL     1      -0.567   9.835  14.283  1.00  0.00     0.019 C 
HETATM    6  C13 UNL     1       0.233   7.652  13.249  1.00  0.00     0.006 C 
HETATM    7  C14 UNL     1       1.680   8.147  13.392  1.00  0.00     0.007 C 
HETATM    8  C15 UNL     1       2.589   7.434  12.395  1.00  0.00     0.007 C 
HETATM    9  C16 UNL     1       2.256   7.872  10.961  1.00  0.00     0.010 C 
HETATM   10  C17 UNL     1       3.120   7.212   9.831  1.00  0.00     0.018 C 
HETATM   11  C18 UNL     1       4.235   8.187   9.404  1.00  0.00     0.023 C 
HETATM   12  C19 UNL     1       3.783   5.891  10.273  1.00  0.00     0.023 C 
HETATM   13  C20 UNL     1       2.285   6.918   8.569  1.00  0.00     0.135 C 
HETATM   14  O2  UNL     1       2.557   5.981   7.813  1.00  0.00    -0.297 OA
HETATM   15  C21 UNL     1       1.171   7.866   8.172  1.00  0.00     0.080 C 
HETATM   16  C22 UNL     1       0.482   8.542   9.343  1.00  0.00     0.018 C 
HETATM   17  C23 UNL     1       0.764   7.809  10.637  1.00  0.00    -0.026 A 
HETATM   18  C24 UNL     1      -0.025   6.558  10.905  1.00  0.00     0.021 A 
HETATM   19  C25 UNL     1      -0.279   7.780  11.785  1.00  0.00    -0.027 A 
HETATM   20  C26 UNL     1      -1.600   8.526  11.556  1.00  0.00     0.011 C 
HETATM   21  C27 UNL     1      -2.665   8.494  12.665  1.00  0.00     0.011 C 
HETATM   22  C28 UNL     1      -2.214   7.801  13.956  1.00  0.00    -0.030 C 
HETATM   23  C29 UNL     1      -2.366   6.275  13.738  1.00  0.00     0.016 C 
ENDROOT
BRANCH   1  24
HETATM   24  C6  UNL     1      -4.468   7.865  15.488  1.00  0.00    -0.013 C 
HETATM   25  C7  UNL     1      -4.539   6.372  15.867  1.00  0.00     0.010 C 
BRANCH  24  26
HETATM   26  C5  UNL     1      -5.586   8.180  14.463  1.00  0.00     0.008 C 
BRANCH  26  27
HETATM   27  C4  UNL     1      -5.748   7.236  13.272  1.00  0.00     0.028 C 
BRANCH  27  28
HETATM   28  C3  UNL     1      -6.716   6.127  13.587  1.00  0.00    -0.013 C 
HETATM   29  C2  UNL     1      -6.575   4.807  13.345  1.00  0.00     0.008 C 
HETATM   30  C1  UNL     1      -5.402   4.154  12.671  1.00  0.00     0.055 C 
BRANCH  29  31
HETATM   31  C30 UNL     1      -7.638   3.845  13.743  1.00  0.00     0.171 C 
HETATM   32  O3  UNL     1      -8.270   3.136  12.978  1.00  0.00    -0.646 OA
BRANCH  31  33
HETATM   33  O4  UNL     1      -7.866   3.794  15.066  1.00  0.00    -0.773 OA
HETATM   34  H46 UNL     1      -8.583   3.130  15.150  1.00  0.00     0.167 HD
ENDBRANCH  31  33
ENDBRANCH  29  31
ENDBRANCH  27  28
ENDBRANCH  26  27
ENDBRANCH  24  26
ENDBRANCH   1  24
BRANCH   3  35
HETATM   35  O1  UNL     1      -0.233   6.451  15.851  1.00  0.00    -0.395 OA
HETATM   36  H17 UNL     1      -0.208   6.219  16.795  1.00  0.00     0.210 HD
ENDBRANCH   3  35
TORSDOF 7
ENDMDL
MODEL 2
REMARK minimizedAffinity -9.79083061
REMARK  7 active torsions:
REMARK  status: ('A' for Active; 'I' for Inactive)
REMARK    1  A    between atoms: C2_2  and  C30_32 
REMARK    2  A    between atoms: C3_3  and  C4_4 
REMARK    3  A    between atoms: C4_4  and  C5_5 
REMARK    4  A    between atoms: C5_5  and  C6_6 
REMARK    5  A    between atoms: C6_6  and  C8_8 
REMARK    6  A    between atoms: C10_10  and  O1_11 
REMARK    7  A    between atoms: C30_32  and  O4_34 
ROOT
HETATM    1  C8  UNL     1      -2.506   7.242  14.391  1.00  0.00     0.001 C 
HETATM    2  C9  UNL     1      -2.105   7.635  15.835  1.00  0.00     0.038 C 
HETATM    3  C10 UNL     1      -0.593   7.953  15.813  1.00  0.00     0.128 C 
HETATM    4  C11 UNL     1      -0.236   8.109  14.313  1.00  0.00    -0.006 C 
HETATM    5  C12 UNL     1      -0.620   9.577  13.926  1.00  0.00     0.019 C 
HETATM    6  C13 UNL     1       1.244   7.845  13.920  1.00  0.00     0.006 C 
HETATM    7  C14 UNL     1       2.216   8.931  14.407  1.00  0.00     0.007 C 
HETATM    8  C15 UNL     1       3.652   8.564  14.045  1.00  0.00     0.007 C 
HETATM    9  C16 UNL     1       3.852   8.635  12.523  1.00  0.00     0.010 C 
HETATM   10  C17 UNL     1       5.291   8.280  12.011  1.00  0.00     0.018 C 
HETATM   11  C18 UNL     1       6.071   9.580  11.734  1.00  0.00     0.023 C 
HETATM   12  C19 UNL     1       6.101   7.441  13.021  1.00  0.00     0.023 C 
HETATM   13  C20 UNL     1       5.250   7.501  10.681  1.00  0.00     0.135 C 
HETATM   14  O2  UNL     1       6.127   6.688  10.376  1.00  0.00    -0.297 OA
HETATM   15  C21 UNL     1       4.172   7.817   9.663  1.00  0.00     0.080 C 
HETATM   16  C22 UNL     1       2.855   8.267  10.269  1.00  0.00     0.018 C 
HETATM   17  C23 UNL     1       2.774   7.894  11.733  1.00  0.00    -0.026 A 
HETATM   18  C24 UNL     1       2.430   6.468  12.062  1.00  0.00     0.021 A 
HETATM   19  C25 UNL     1       1.416   7.558  12.401  1.00  0.00    -0.027 A 
HETATM   20  C26 UNL     1       0.162   7.624  11.519  1.00  0.00     0.011 C 
HETATM   21  C27 UNL     1      -1.198   7.272  12.145  1.00  0.00     0.011 C 
HETATM   22  C28 UNL     1      -1.151   7.007  13.654  1.00  0.00    -0.030 C 
HETATM   23  C29 UNL     1      -0.659   5.551  13.853  1.00  0.00     0.016 C 
ENDROOT
BRANCH   1  24
HETATM   24  C6  UNL     1      -3.717   6.279  14.215  1.00  0.00    -0.013 C 
HETATM   25  C7  UNL     1      -4.515   6.219  15.534  1.00  0.00     0.010 C 
BRANCH  24  26
HETATM   26  C5  UNL     1      -3.547   4.842  13.663  1.00  0.00     0.008 C 
BRANCH  26  27
HETATM   27  C4  UNL     1      -4.206   4.509  12.325  1.00  0.00     0.028 C 
BRANCH  27  28
HETATM   28  C3  UNL     1      -5.441   3.670  12.523  1.00  0.00    -0.013 C 
HETATM   29  C2  UNL     1      -6.692   4.089  12.807  1.00  0.00     0.008 C 
HETATM   30  C1  UNL     1      -7.121   5.513  13.014  1.00  0.00     0.055 C 
BRANCH  29  31
HETATM   31  C30 UNL     1      -7.804   3.110  12.955  1.00  0.00     0.171 C 
HETATM   32  O3  UNL     1      -7.687   1.897  12.909  1.00  0.00    -0.646 OA
BRANCH  31  33
HETATM   33  O4  UNL     1      -9.006   3.673  13.162  1.00  0.00    -0.773 OA
HETATM   34  H46 UNL     1      -9.611   2.903  13.230  1.00  0.00     0.167 HD
ENDBRANCH  31  33
ENDBRANCH  29  31
ENDBRANCH  27  28
ENDBRANCH  26  27
ENDBRANCH  24  26
ENDBRANCH   1  24
BRANCH   3  35
HETATM   35  O1  UNL     1       0.130   6.892  16.427  1.00  0.00    -0.395 OA
HETATM   36  H17 UNL     1      -0.183   6.813  17.344  1.00  0.00     0.210 HD
ENDBRANCH   3  35
TORSDOF 7
ENDMDL
MODEL 3
REMARK minimizedAffinity -9.64585018
REMARK  7 active torsions:
REMARK  status: ('A' for Active; 'I' for Inactive)
REMARK    1  A    between atoms: C2_2  and  C30_32 
REMARK    2  A    between atoms: C3_3  and  C4_4 
REMARK    3  A    between atoms: C4_4  and  C5_5 
REMARK    4  A    between atoms: C5_5  and  C6_6 
REMARK    5  A    between atoms: C6_6  and  C8_8 
REMARK    6  A    between atoms: C10_10  and  O1_11 
REMARK    7  A    between atoms: C30_32  and  O4_34 
ROOT
HETATM    1  C8  UNL     1      -2.708   7.110  14.242  1.00  0.00     0.001 C 
HETATM    2  C9  UNL     1      -2.345   7.515  15.693  1.00  0.00     0.038 C 
HETATM    3  C10 UNL     1      -0.839   7.858  15.702  1.00  0.00     0.128 C 
HETATM    4  C11 UNL     1      -0.452   8.015  14.210  1.00  0.00    -0.006 C 
HETATM    5  C12 UNL     1      -0.852   9.474  13.809  1.00  0.00     0.019 C 
HETATM    6  C13 UNL     1       1.041   7.774  13.852  1.00  0.00     0.006 C 
HETATM    7  C14 UNL     1       1.984   8.878  14.356  1.00  0.00     0.007 C 
HETATM    8  C15 UNL     1       3.433   8.534  14.026  1.00  0.00     0.007 C 
HETATM    9  C16 UNL     1       3.666   8.602  12.509  1.00  0.00     0.010 C 
HETATM   10  C17 UNL     1       5.122   8.269  12.031  1.00  0.00     0.018 C 
HETATM   11  C18 UNL     1       5.886   9.581  11.766  1.00  0.00     0.023 C 
HETATM   12  C19 UNL     1       5.923   7.448  13.062  1.00  0.00     0.023 C 
HETATM   13  C20 UNL     1       5.123   7.485  10.704  1.00  0.00     0.135 C 
HETATM   14  O2  UNL     1       6.020   6.686  10.422  1.00  0.00    -0.297 OA
HETATM   15  C21 UNL     1       4.063   7.779   9.661  1.00  0.00     0.080 C 
HETATM   16  C22 UNL     1       2.726   8.209  10.235  1.00  0.00     0.018 C 
HETATM   17  C23 UNL     1       2.619   7.840  11.699  1.00  0.00    -0.026 A 
HETATM   18  C24 UNL     1       2.291   6.410  12.026  1.00  0.00     0.021 A 
HETATM   19  C25 UNL     1       1.251   7.484  12.338  1.00  0.00    -0.027 A 
HETATM   20  C26 UNL     1       0.016   7.526  11.428  1.00  0.00     0.011 C 
HETATM   21  C27 UNL     1      -1.351   7.153  12.025  1.00  0.00     0.011 C 
HETATM   22  C28 UNL     1      -1.333   6.895  13.536  1.00  0.00    -0.030 C 
HETATM   23  C29 UNL     1      -0.822   5.448  13.752  1.00  0.00     0.016 C 
ENDROOT
BRANCH   1  24
HETATM   24  C6  UNL     1      -3.899   6.126  14.043  1.00  0.00    -0.013 C 
HETATM   25  C7  UNL     1      -4.783   6.137  15.306  1.00  0.00     0.010 C 
BRANCH  24  26
HETATM   26  C5  UNL     1      -3.683   4.661  13.591  1.00  0.00     0.008 C 
BRANCH  26  27
HETATM   27  C4  UNL     1      -3.844   4.340  12.105  1.00  0.00     0.028 C 
BRANCH  27  28
HETATM   28  C3  UNL     1      -2.609   3.674  11.558  1.00  0.00    -0.013 C 
HETATM   29  C2  UNL     1      -2.386   2.355  11.384  1.00  0.00     0.008 C 
HETATM   30  C1  UNL     1      -3.336   1.245  11.733  1.00  0.00     0.055 C 
BRANCH  29  31
HETATM   31  C30 UNL     1      -1.100   1.872  10.811  1.00  0.00     0.171 C 
HETATM   32  O3  UNL     1       0.010   2.190  11.201  1.00  0.00    -0.646 OA
BRANCH  31  33
HETATM   33  O4  UNL     1      -1.244   1.013   9.788  1.00  0.00    -0.773 OA
HETATM   34  H46 UNL     1      -0.320   0.804   9.532  1.00  0.00     0.167 HD
ENDBRANCH  31  33
ENDBRANCH  29  31
ENDBRANCH  27  28
ENDBRANCH  26  27
ENDBRANCH  24  26
ENDBRANCH   1  24
BRANCH   3  35
HETATM   35  O1  UNL     1      -0.113   6.812  16.337  1.00  0.00    -0.395 OA
HETATM   36  H17 UNL     1      -0.444   6.731  17.247  1.00  0.00     0.210 HD
ENDBRANCH   3  35
TORSDOF 7
ENDMDL
MODEL 4
REMARK minimizedAffinity -9.37250328
REMARK  7 active torsions:
REMARK  status: ('A' for Active; 'I' for Inactive)
REMARK    1  A    between atoms: C2_2  and  C30_32 
REMARK    2  A    between atoms: C3_3  and  C4_4 
REMARK    3  A    between atoms: C4_4  and  C5_5 
REMARK    4  A    between atoms: C5_5  and  C6_6 
REMARK    5  A    between atoms: C6_6  and  C8_8 
REMARK    6  A    between atoms: C10_10  and  O1_11 
REMARK    7  A    between atoms: C30_32  and  O4_34 
ROOT
HETATM    1  C8  UNL     1      -2.940   5.066  12.962  1.00  0.00     0.001 C 
HETATM    2  C9  UNL     1      -2.899   5.454  14.462  1.00  0.00     0.038 C 
HETATM    3  C10 UNL     1      -1.562   6.190  14.702  1.00  0.00     0.128 C 
HETATM    4  C11 UNL     1      -1.040   6.548  13.287  1.00  0.00    -0.006 C 
HETATM    5  C12 UNL     1      -1.773   7.869  12.876  1.00  0.00     0.019 C 
HETATM    6  C13 UNL     1       0.495   6.746  13.144  1.00  0.00     0.006 C 
HETATM    7  C14 UNL     1       1.018   8.026  13.813  1.00  0.00     0.007 C 
HETATM    8  C15 UNL     1       2.536   8.111  13.689  1.00  0.00     0.007 C 
HETATM    9  C16 UNL     1       2.940   8.345  12.225  1.00  0.00     0.010 C 
HETATM   10  C17 UNL     1       4.481   8.452  11.955  1.00  0.00     0.018 C 
HETATM   11  C18 UNL     1       4.879   9.937  11.844  1.00  0.00     0.023 C 
HETATM   12  C19 UNL     1       5.335   7.809  13.067  1.00  0.00     0.023 C 
HETATM   13  C20 UNL     1       4.875   7.791  10.619  1.00  0.00     0.135 C 
HETATM   14  O2  UNL     1       5.989   7.286  10.448  1.00  0.00    -0.297 OA
HETATM   15  C21 UNL     1       3.924   7.859   9.442  1.00  0.00     0.080 C 
HETATM   16  C22 UNL     1       2.456   7.870   9.827  1.00  0.00     0.018 C 
HETATM   17  C23 UNL     1       2.262   7.385  11.248  1.00  0.00    -0.026 A 
HETATM   18  C24 UNL     1       2.305   5.901  11.481  1.00  0.00     0.021 A 
HETATM   19  C25 UNL     1       0.976   6.629  11.669  1.00  0.00    -0.027 A 
HETATM   20  C26 UNL     1      -0.091   6.398  10.590  1.00  0.00     0.011 C 
HETATM   21  C27 UNL     1      -1.367   5.629  10.969  1.00  0.00     0.011 C 
HETATM   22  C28 UNL     1      -1.478   5.281  12.458  1.00  0.00    -0.030 C 
HETATM   23  C29 UNL     1      -0.618   4.016  12.703  1.00  0.00     0.016 C 
ENDROOT
BRANCH   1  24
HETATM   24  C6  UNL     1      -3.773   3.813  12.561  1.00  0.00    -0.013 C 
HETATM   25  C7  UNL     1      -3.007   3.017  11.485  1.00  0.00     0.010 C 
BRANCH  24  26
HETATM   26  C5  UNL     1      -5.261   3.917  12.148  1.00  0.00     0.008 C 
BRANCH  26  27
HETATM   27  C4  UNL     1      -6.311   3.361  13.110  1.00  0.00     0.028 C 
BRANCH  27  28
HETATM   28  C3  UNL     1      -7.585   4.160  13.043  1.00  0.00    -0.013 C 
HETATM   29  C2  UNL     1      -7.762   5.466  13.329  1.00  0.00     0.008 C 
HETATM   30  C1  UNL     1      -6.703   6.416  13.811  1.00  0.00     0.055 C 
BRANCH  29  31
HETATM   31  C30 UNL     1      -9.102   6.098  13.190  1.00  0.00     0.171 C 
HETATM   32  O3  UNL     1      -9.673   6.319  12.136  1.00  0.00    -0.646 OA
BRANCH  31  33
HETATM   33  O4  UNL     1      -9.681   6.420  14.360  1.00  0.00    -0.773 OA
HETATM   34  H46 UNL     1     -10.535   6.822  14.090  1.00  0.00     0.167 HD
ENDBRANCH  31  33
ENDBRANCH  29  31
ENDBRANCH  27  28
ENDBRANCH  26  27
ENDBRANCH  24  26
ENDBRANCH   1  24
BRANCH   3  35
HETATM   35  O1  UNL     1      -0.664   5.338  15.404  1.00  0.00    -0.395 OA
HETATM   36  H17 UNL     1      -1.077   5.107  16.253  1.00  0.00     0.210 HD
ENDBRANCH   3  35
TORSDOF 7
ENDMDL
MODEL 5
REMARK minimizedAffinity -9.15822124
REMARK  7 active torsions:
REMARK  status: ('A' for Active; 'I' for Inactive)
REMARK    1  A    between atoms: C2_2  and  C30_32 
REMARK    2  A    between atoms: C3_3  and  C4_4 
REMARK    3  A    between atoms: C4_4  and  C5_5 
REMARK    4  A    between atoms: C5_5  and  C6_6 
REMARK    5  A    between atoms: C6_6  and  C8_8 
REMARK    6  A    between atoms: C10_10  and  O1_11 
REMARK    7  A    between atoms: C30_32  and  O4_34 
ROOT
HETATM    1  C8  UNL     1       0.185   8.023  12.821  1.00  0.00     0.001 C 
HETATM    2  C9  UNL     1       0.403   9.323  13.636  1.00  0.00     0.038 C 
HETATM    3  C10 UNL     1      -0.927   9.631  14.359  1.00  0.00     0.128 C 
HETATM    4  C11 UNL     1      -1.752   8.323  14.260  1.00  0.00    -0.006 C 
HETATM    5  C12 UNL     1      -1.251   7.405  15.426  1.00  0.00     0.019 C 
HETATM    6  C13 UNL     1      -3.297   8.468  14.349  1.00  0.00     0.006 C 
HETATM    7  C14 UNL     1      -3.803   8.845  15.750  1.00  0.00     0.007 C 
HETATM    8  C15 UNL     1      -5.316   9.037  15.737  1.00  0.00     0.007 C 
HETATM    9  C16 UNL     1      -6.023   7.692  15.509  1.00  0.00     0.010 C 
HETATM   10  C17 UNL     1      -7.589   7.745  15.473  1.00  0.00     0.018 C 
HETATM   11  C18 UNL     1      -8.148   7.309  16.841  1.00  0.00     0.023 C 
HETATM   12  C19 UNL     1      -8.138   9.153  15.158  1.00  0.00     0.023 C 
HETATM   13  C20 UNL     1      -8.172   6.771  14.430  1.00  0.00     0.135 C 
HETATM   14  O2  UNL     1      -9.241   6.997  13.855  1.00  0.00    -0.297 OA
HETATM   15  C21 UNL     1      -7.483   5.445  14.179  1.00  0.00     0.080 C 
HETATM   16  C22 UNL     1      -5.977   5.481  14.360  1.00  0.00     0.018 C 
HETATM   17  C23 UNL     1      -5.459   6.903  14.328  1.00  0.00    -0.026 A 
HETATM   18  C24 UNL     1      -5.306   7.549  12.979  1.00  0.00     0.021 A 
HETATM   19  C25 UNL     1      -4.045   7.228  13.780  1.00  0.00    -0.027 A 
HETATM   20  C26 UNL     1      -3.196   6.053  13.278  1.00  0.00     0.011 C 
HETATM   21  C27 UNL     1      -1.799   6.346  12.706  1.00  0.00     0.011 C 
HETATM   22  C28 UNL     1      -1.362   7.811  12.822  1.00  0.00    -0.030 C 
HETATM   23  C29 UNL     1      -2.025   8.585  11.655  1.00  0.00     0.016 C 
ENDROOT
BRANCH   1  24
HETATM   24  C6  UNL     1       1.044   7.821  11.538  1.00  0.00    -0.013 C 
HETATM   25  C7  UNL     1       0.776   6.415  10.964  1.00  0.00     0.010 C 
BRANCH  24  26
HETATM   26  C5  UNL     1       2.568   8.091  11.522  1.00  0.00     0.008 C 
BRANCH  26  27
HETATM   27  C4  UNL     1       3.259   8.212  10.164  1.00  0.00     0.028 C 
BRANCH  27  28
HETATM   28  C3  UNL     1       3.433   6.862   9.522  1.00  0.00    -0.013 C 
HETATM   29  C2  UNL     1       2.919   6.425   8.354  1.00  0.00     0.008 C 
HETATM   30  C1  UNL     1       2.023   7.207   7.437  1.00  0.00     0.055 C 
BRANCH  29  31
HETATM   31  C30 UNL     1       3.212   5.051   7.862  1.00  0.00     0.171 C 
HETATM   32  O3  UNL     1       3.734   4.165   8.516  1.00  0.00    -0.646 OA
BRANCH  31  33
HETATM   33  O4  UNL     1       2.838   4.832   6.591  1.00  0.00    -0.773 OA
HETATM   34  H46 UNL     1       3.103   3.900   6.430  1.00  0.00     0.167 HD
ENDBRANCH  31  33
ENDBRANCH  29  31
ENDBRANCH  27  28
ENDBRANCH  26  27
ENDBRANCH  24  26
ENDBRANCH   1  24
BRANCH   3  35
HETATM   35  O1  UNL     1      -1.579  10.723  13.722  1.00  0.00    -0.395 OA
HETATM   36  H17 UNL     1      -0.985  11.492  13.770  1.00  0.00     0.210 HD
ENDBRANCH   3  35
TORSDOF 7
ENDMDL
MODEL 6
REMARK minimizedAffinity -9.09738636
REMARK  7 active torsions:
REMARK  status: ('A' for Active; 'I' for Inactive)
REMARK    1  A    between atoms: C2_2  and  C30_32 
REMARK    2  A    between atoms: C3_3  and  C4_4 
REMARK    3  A    between atoms: C4_4  and  C5_5 
REMARK    4  A    between atoms: C5_5  and  C6_6 
REMARK    5  A    between atoms: C6_6  and  C8_8 
REMARK    6  A    between atoms: C10_10  and  O1_11 
REMARK    7  A    between atoms: C30_32  and  O4_34 
ROOT
HETATM    1  C8  UNL     1      -1.777   5.774  12.293  1.00  0.00     0.001 C 
HETATM    2  C9  UNL     1      -2.284   6.587  13.512  1.00  0.00     0.038 C 
HETATM    3  C10 UNL     1      -1.162   7.579  13.891  1.00  0.00     0.128 C 
HETATM    4  C11 UNL     1      -0.205   7.590  12.673  1.00  0.00    -0.006 C 
HETATM    5  C12 UNL     1      -0.831   8.585  11.638  1.00  0.00     0.019 C 
HETATM    6  C13 UNL     1       1.268   7.998  12.952  1.00  0.00     0.006 C 
HETATM    7  C14 UNL     1       1.446   9.488  13.280  1.00  0.00     0.007 C 
HETATM    8  C15 UNL     1       2.904   9.792  13.609  1.00  0.00     0.007 C 
HETATM    9  C16 UNL     1       3.776   9.651  12.352  1.00  0.00     0.010 C 
HETATM   10  C17 UNL     1       5.304   9.937  12.550  1.00  0.00     0.018 C 
HETATM   11  C18 UNL     1       5.622  11.369  12.076  1.00  0.00     0.023 C 
HETATM   12  C19 UNL     1       5.758   9.806  14.019  1.00  0.00     0.023 C 
HETATM   13  C20 UNL     1       6.179   8.991  11.704  1.00  0.00     0.135 C 
HETATM   14  O2  UNL     1       7.311   8.657  12.063  1.00  0.00    -0.297 OA
HETATM   15  C21 UNL     1       5.693   8.544  10.339  1.00  0.00     0.080 C 
HETATM   16  C22 UNL     1       4.185   8.416  10.226  1.00  0.00     0.018 C 
HETATM   17  C23 UNL     1       3.541   8.345  11.594  1.00  0.00    -0.026 A 
HETATM   18  C24 UNL     1       3.592   7.025  12.311  1.00  0.00     0.021 A 
HETATM   19  C25 UNL     1       2.238   7.536  11.825  1.00  0.00    -0.027 A 
HETATM   20  C26 UNL     1       1.629   6.818  10.613  1.00  0.00     0.011 C 
HETATM   21  C27 UNL     1       0.351   5.988  10.816  1.00  0.00     0.011 C 
HETATM   22  C28 UNL     1      -0.248   6.080  12.224  1.00  0.00    -0.030 C 
HETATM   23  C29 UNL     1       0.550   5.110  13.130  1.00  0.00     0.016 C 
ENDROOT
BRANCH   1  24
HETATM   24  C6  UNL     1      -2.340   4.335  12.100  1.00  0.00    -0.013 C 
HETATM   25  C7  UNL     1      -2.305   3.974  10.601  1.00  0.00     0.010 C 
BRANCH  24  26
HETATM   26  C5  UNL     1      -3.704   3.903  12.692  1.00  0.00     0.008 C 
BRANCH  26  27
HETATM   27  C4  UNL     1      -4.663   3.130  11.786  1.00  0.00     0.028 C 
BRANCH  27  28
HETATM   28  C3  UNL     1      -6.096   3.413  12.149  1.00  0.00    -0.013 C 
HETATM   29  C2  UNL     1      -6.591   4.481  12.808  1.00  0.00     0.008 C 
HETATM   30  C1  UNL     1      -5.792   5.630  13.352  1.00  0.00     0.055 C 
BRANCH  29  31
HETATM   31  C30 UNL     1      -8.051   4.602  13.068  1.00  0.00     0.171 C 
HETATM   32  O3  UNL     1      -8.670   5.650  13.146  1.00  0.00    -0.646 OA
BRANCH  31  33
HETATM   33  O4  UNL     1      -8.683   3.425  13.211  1.00  0.00    -0.773 OA
HETATM   34  H46 UNL     1      -9.615   3.683  13.378  1.00  0.00     0.167 HD
ENDBRANCH  31  33
ENDBRANCH  29  31
ENDBRANCH  27  28
ENDBRANCH  26  27
ENDBRANCH  24  26
ENDBRANCH   1  24
BRANCH   3  35
HETATM   35  O1  UNL     1      -0.513   7.139  15.078  1.00  0.00    -0.395 OA
HETATM   36  H17 UNL     1      -1.180   7.101  15.784  1.00  0.00     0.210 HD
ENDBRANCH   3  35
TORSDOF 7
ENDMDL
MODEL 7
REMARK minimizedAffinity -9.03250694
REMARK  7 active torsions:
REMARK  status: ('A' for Active; 'I' for Inactive)
REMARK    1  A    between atoms: C2_2  and  C30_32 
REMARK    2  A    between atoms: C3_3  and  C4_4 
REMARK    3  A    between atoms: C4_4  and  C5_5 
REMARK    4  A    between atoms: C5_5  and  C6_6 
REMARK    5  A    between atoms: C6_6  and  C8_8 
REMARK    6  A    between atoms: C10_10  and  O1_11 
REMARK    7  A    between atoms: C30_32  and  O4_34 
ROOT
HETATM    1  C8  UNL     1      -1.194   6.218  13.030  1.00  0.00     0.001 C 
HETATM    2  C9  UNL     1      -0.554   7.054  11.893  1.00  0.00     0.038 C 
HETATM    3  C10 UNL     1      -0.688   8.540  12.294  1.00  0.00     0.128 C 
HETATM    4  C11 UNL     1      -1.047   8.519  13.802  1.00  0.00    -0.006 C 
HETATM    5  C12 UNL     1       0.309   8.363  14.568  1.00  0.00     0.019 C 
HETATM    6  C13 UNL     1      -1.808   9.758  14.350  1.00  0.00     0.006 C 
HETATM    7  C14 UNL     1      -0.946  11.027  14.431  1.00  0.00     0.007 C 
HETATM    8  C15 UNL     1      -1.781  12.210  14.911  1.00  0.00     0.007 C 
HETATM    9  C16 UNL     1      -2.182  12.019  16.382  1.00  0.00     0.010 C 
HETATM   10  C17 UNL     1      -3.047  13.169  17.005  1.00  0.00     0.018 C 
HETATM   11  C18 UNL     1      -2.140  14.104  17.828  1.00  0.00     0.023 C 
HETATM   12  C19 UNL     1      -3.774  14.020  15.943  1.00  0.00     0.023 C 
HETATM   13  C20 UNL     1      -4.112  12.622  17.976  1.00  0.00     0.135 C 
HETATM   14  O2  UNL     1      -5.187  13.201  18.154  1.00  0.00    -0.297 OA
HETATM   15  C21 UNL     1      -3.795  11.408  18.826  1.00  0.00     0.080 C 
HETATM   16  C22 UNL     1      -2.851  10.417  18.169  1.00  0.00     0.018 C 
HETATM   17  C23 UNL     1      -2.778  10.643  16.675  1.00  0.00    -0.026 A 
HETATM   18  C24 UNL     1      -3.908  10.106  15.842  1.00  0.00     0.021 A 
HETATM   19  C25 UNL     1      -2.530   9.465  15.697  1.00  0.00    -0.027 A 
HETATM   20  C26 UNL     1      -2.357   8.068  16.307  1.00  0.00     0.011 C 
HETATM   21  C27 UNL     1      -2.135   6.875  15.363  1.00  0.00     0.011 C 
HETATM   22  C28 UNL     1      -1.986   7.256  13.885  1.00  0.00    -0.030 C 
HETATM   23  C29 UNL     1      -3.412   7.467  13.316  1.00  0.00     0.016 C 
ENDROOT
BRANCH   1  24
HETATM   24  C6  UNL     1      -1.793   4.829  12.657  1.00  0.00    -0.013 C 
HETATM   25  C7  UNL     1      -1.445   4.504  11.190  1.00  0.00     0.010 C 
BRANCH  24  26
HETATM   26  C5  UNL     1      -3.281   4.485  12.912  1.00  0.00     0.008 C 
BRANCH  26  27
HETATM   27  C4  UNL     1      -4.173   4.230  11.698  1.00  0.00     0.028 C 
BRANCH  27  28
HETATM   28  C3  UNL     1      -5.427   3.496  12.091  1.00  0.00    -0.013 C 
HETATM   29  C2  UNL     1      -6.525   3.994  12.697  1.00  0.00     0.008 C 
HETATM   30  C1  UNL     1      -6.721   5.415  13.141  1.00  0.00     0.055 C 
BRANCH  29  31
HETATM   31  C30 UNL     1      -7.688   3.116  12.999  1.00  0.00     0.171 C 
HETATM   32  O3  UNL     1      -7.683   1.898  12.955  1.00  0.00    -0.646 OA
BRANCH  31  33
HETATM   33  O4  UNL     1      -8.801   3.781  13.352  1.00  0.00    -0.773 OA
HETATM   34  H46 UNL     1      -9.456   3.067  13.507  1.00  0.00     0.167 HD
ENDBRANCH  31  33
ENDBRANCH  29  31
ENDBRANCH  27  28
ENDBRANCH  26  27
ENDBRANCH  24  26
ENDBRANCH   1  24
BRANCH   3  35
HETATM   35  O1  UNL     1      -1.702   9.159  11.511  1.00  0.00    -0.395 OA
HETATM   36  H17 UNL     1      -1.441   9.086  10.577  1.00  0.00     0.210 HD
ENDBRANCH   3  35
TORSDOF 7
ENDMDL
MODEL 8
REMARK minimizedAffinity -9.01643753
REMARK  7 active torsions:
REMARK  status: ('A' for Active; 'I' for Inactive)
REMARK    1  A    between atoms: C2_2  and  C30_32 
REMARK    2  A    between atoms: C3_3  and  C4_4 
REMARK    3  A    between atoms: C4_4  and  C5_5 
REMARK    4  A    between atoms: C5_5  and  C6_6 
REMARK    5  A    between atoms: C6_6  and  C8_8 
REMARK    6  A    between atoms: C10_10  and  O1_11 
REMARK    7  A    between atoms: C30_32  and  O4_34 
ROOT
HETATM    1  C8  UNL     1       0.492   8.226  12.627  1.00  0.00     0.001 C 
HETATM    2  C9  UNL     1       0.693   9.484  13.508  1.00  0.00     0.038 C 
HETATM    3  C10 UNL     1      -0.627   9.712  14.278  1.00  0.00     0.128 C 
HETATM    4  C11 UNL     1      -1.417   8.388  14.124  1.00  0.00    -0.006 C 
HETATM    5  C12 UNL     1      -0.862   7.422  15.224  1.00  0.00     0.019 C 
HETATM    6  C13 UNL     1      -2.963   8.483  14.256  1.00  0.00     0.006 C 
HETATM    7  C14 UNL     1      -3.445   8.767  15.687  1.00  0.00     0.007 C 
HETATM    8  C15 UNL     1      -4.963   8.915  15.719  1.00  0.00     0.007 C 
HETATM    9  C16 UNL     1      -5.637   7.564  15.431  1.00  0.00     0.010 C 
HETATM   10  C17 UNL     1      -7.205   7.574  15.434  1.00  0.00     0.018 C 
HETATM   11  C18 UNL     1      -7.717   7.045  16.789  1.00  0.00     0.023 C 
HETATM   12  C19 UNL     1      -7.800   8.980  15.212  1.00  0.00     0.023 C 
HETATM   13  C20 UNL     1      -7.785   6.643  14.351  1.00  0.00     0.135 C 
HETATM   14  O2  UNL     1      -8.874   6.869  13.815  1.00  0.00    -0.297 OA
HETATM   15  C21 UNL     1      -7.066   5.353  14.011  1.00  0.00     0.080 C 
HETATM   16  C22 UNL     1      -5.557   5.423  14.159  1.00  0.00     0.018 C 
HETATM   17  C23 UNL     1      -5.080   6.859  14.195  1.00  0.00    -0.026 A 
HETATM   18  C24 UNL     1      -4.978   7.584  12.882  1.00  0.00     0.021 A 
HETATM   19  C25 UNL     1      -3.690   7.256  13.635  1.00  0.00    -0.027 A 
HETATM   20  C26 UNL     1      -2.820   6.136  13.049  1.00  0.00     0.011 C 
HETATM   21  C27 UNL     1      -1.447   6.501  12.462  1.00  0.00     0.011 C 
HETATM   22  C28 UNL     1      -1.048   7.969  12.650  1.00  0.00    -0.030 C 
HETATM   23  C29 UNL     1      -1.761   8.788  11.544  1.00  0.00     0.016 C 
ENDROOT
BRANCH   1  24
HETATM   24  C6  UNL     1       1.324   8.121  11.315  1.00  0.00    -0.013 C 
HETATM   25  C7  UNL     1       0.414   8.436  10.110  1.00  0.00     0.010 C 
BRANCH  24  26
HETATM   26  C5  UNL     1       2.183   6.875  10.987  1.00  0.00     0.008 C 
BRANCH  26  27
HETATM   27  C4  UNL     1       3.134   6.957   9.793  1.00  0.00     0.028 C 
BRANCH  27  28
HETATM   28  C3  UNL     1       4.170   8.030   9.999  1.00  0.00    -0.013 C 
HETATM   29  C2  UNL     1       5.350   7.931  10.646  1.00  0.00     0.008 C 
HETATM   30  C1  UNL     1       5.878   6.707  11.337  1.00  0.00     0.055 C 
BRANCH  29  31
HETATM   31  C30 UNL     1       6.264   9.102  10.739  1.00  0.00     0.171 C 
HETATM   32  O3  UNL     1       6.130  10.151  10.133  1.00  0.00    -0.646 OA
BRANCH  31  33
HETATM   33  O4  UNL     1       7.296   8.927  11.582  1.00  0.00    -0.773 OA
HETATM   34  H46 UNL     1       7.790   9.773  11.519  1.00  0.00     0.167 HD
ENDBRANCH  31  33
ENDBRANCH  29  31
ENDBRANCH  27  28
ENDBRANCH  26  27
ENDBRANCH  24  26
ENDBRANCH   1  24
BRANCH   3  35
HETATM   35  O1  UNL     1      -1.324  10.819  13.719  1.00  0.00    -0.395 OA
HETATM   36  H17 UNL     1      -0.751  11.601  13.796  1.00  0.00     0.210 HD
ENDBRANCH   3  35
TORSDOF 7
ENDMDL
MODEL 9
REMARK minimizedAffinity -8.97793007
REMARK  7 active torsions:
REMARK  status: ('A' for Active; 'I' for Inactive)
REMARK    1  A    between atoms: C2_2  and  C30_32 
REMARK    2  A    between atoms: C3_3  and  C4_4 
REMARK    3  A    between atoms: C4_4  and  C5_5 
REMARK    4  A    between atoms: C5_5  and  C6_6 
REMARK    5  A    between atoms: C6_6  and  C8_8 
REMARK    6  A    between atoms: C10_10  and  O1_11 
REMARK    7  A    between atoms: C30_32  and  O4_34 
ROOT
HETATM    1  C8  UNL     1      -2.503   6.065  12.915  1.00  0.00     0.001 C 
HETATM    2  C9  UNL     1      -3.771   5.830  13.774  1.00  0.00     0.038 C 
HETATM    3  C10 UNL     1      -3.695   6.806  14.969  1.00  0.00     0.128 C 
HETATM    4  C11 UNL     1      -2.602   7.835  14.580  1.00  0.00    -0.006 C 
HETATM    5  C12 UNL     1      -3.309   8.895  13.670  1.00  0.00     0.019 C 
HETATM    6  C13 UNL     1      -1.884   8.560  15.752  1.00  0.00     0.006 C 
HETATM    7  C14 UNL     1      -2.773   9.574  16.488  1.00  0.00     0.007 C 
HETATM    8  C15 UNL     1      -2.019  10.190  17.663  1.00  0.00     0.007 C 
HETATM    9  C16 UNL     1      -0.883  11.091  17.156  1.00  0.00     0.010 C 
HETATM   10  C17 UNL     1      -0.024  11.790  18.266  1.00  0.00     0.018 C 
HETATM   11  C18 UNL     1      -0.506  13.243  18.447  1.00  0.00     0.023 C 
HETATM   12  C19 UNL     1      -0.113  11.082  19.633  1.00  0.00     0.023 C 
HETATM   13  C20 UNL     1       1.465  11.867  17.874  1.00  0.00     0.135 C 
HETATM   14  O2  UNL     1       2.362  11.861  18.722  1.00  0.00    -0.297 OA
HETATM   15  C21 UNL     1       1.846  12.072  16.421  1.00  0.00     0.080 C 
HETATM   16  C22 UNL     1       0.877  11.455  15.430  1.00  0.00     0.018 C 
HETATM   17  C23 UNL     1      -0.003  10.422  16.100  1.00  0.00    -0.026 A 
HETATM   18  C24 UNL     1       0.594   9.066  16.350  1.00  0.00     0.021 A 
HETATM   19  C25 UNL     1      -0.527   9.189  15.321  1.00  0.00    -0.027 A 
HETATM   20  C26 UNL     1      -0.121   9.061  13.846  1.00  0.00     0.011 C 
HETATM   21  C27 UNL     1      -0.604   7.836  13.054  1.00  0.00     0.011 C 
HETATM   22  C28 UNL     1      -1.565   6.922  13.823  1.00  0.00    -0.030 C 
HETATM   23  C29 UNL     1      -0.706   6.015  14.740  1.00  0.00     0.016 C 
ENDROOT
BRANCH   1  24
HETATM   24  C6  UNL     1      -1.968   4.869  12.074  1.00  0.00    -0.013 C 
HETATM   25  C7  UNL     1      -0.729   5.324  11.276  1.00  0.00     0.010 C 
BRANCH  24  26
HETATM   26  C5  UNL     1      -2.891   4.044  11.145  1.00  0.00     0.008 C 
BRANCH  26  27
HETATM   27  C4  UNL     1      -3.520   2.770  11.710  1.00  0.00     0.028 C 
BRANCH  27  28
HETATM   28  C3  UNL     1      -4.890   3.046  12.272  1.00  0.00    -0.013 C 
HETATM   29  C2  UNL     1      -6.031   2.362  12.050  1.00  0.00     0.008 C 
HETATM   30  C1  UNL     1      -6.184   1.167  11.153  1.00  0.00     0.055 C 
BRANCH  29  31
HETATM   31  C30 UNL     1      -7.301   2.772  12.708  1.00  0.00     0.171 C 
HETATM   32  O3  UNL     1      -7.467   3.799  13.344  1.00  0.00    -0.646 OA
BRANCH  31  33
HETATM   33  O4  UNL     1      -8.311   1.901  12.543  1.00  0.00    -0.773 OA
HETATM   34  H46 UNL     1      -9.053   2.314  13.034  1.00  0.00     0.167 HD
ENDBRANCH  31  33
ENDBRANCH  29  31
ENDBRANCH  27  28
ENDBRANCH  26  27
ENDBRANCH  24  26
ENDBRANCH   1  24
BRANCH   3  35
HETATM   35  O1  UNL     1      -3.360   6.092  16.153  1.00  0.00    -0.395 OA
HETATM   36  H17 UNL     1      -4.054   5.428  16.305  1.00  0.00     0.210 HD
ENDBRANCH   3  35
TORSDOF 7
ENDMDL
