MODEL 1
REMARK minimizedAffinity -10.6338768
REMARK CNNscore 0.386108339
REMARK CNNaffinity 7.12173223
REMARK  11 active torsions:
REMARK  status: ('A' for Active; 'I' for Inactive)
REMARK    1  A    between atoms: C2_2  and  C4_4 
REMARK    2  A    between atoms: C4_4  and  C6_6 
REMARK    3  A    between atoms: C7_7  and  C8_8 
REMARK    4  A    between atoms: C8_8  and  C10_10 
REMARK    5  A    between atoms: C24_24  and  O1_25 
REMARK    6  A    between atoms: O1_25  and  C25_26 
REMARK    7  A    between atoms: C26_28  and  C27_29 
REMARK    8  A    between atoms: C27_29  and  O3_30 
REMARK    9  A    between atoms: C28_31  and  O4_32 
REMARK   10  A    between atoms: C29_33  and  O5_34 
REMARK   11  A    between atoms: C30_35  and  O6_36 
ROOT
HETATM    1  C10 UNL     1      -6.599   7.178  14.243  1.00  0.00     0.002 C 
HETATM    2  C11 UNL     1      -6.749   8.552  14.948  1.00  0.00     0.006 C 
HETATM    3  C12 UNL     1      -5.346   9.186  14.969  1.00  0.00     0.009 C 
HETATM    4  C13 UNL     1      -4.495   8.241  14.128  1.00  0.00     0.041 C 
HETATM    5  C14 UNL     1      -5.088   6.836  14.397  1.00  0.00    -0.029 C 
HETATM    6  C15 UNL     1      -4.745   6.269  15.788  1.00  0.00     0.016 C 
HETATM    7  C16 UNL     1      -4.539   5.885  13.306  1.00  0.00     0.037 C 
HETATM    8  C17 UNL     1      -3.050   6.053  13.078  1.00  0.00    -0.019 C 
HETATM    9  C18 UNL     1      -2.336   7.125  13.486  1.00  0.00    -0.030 C 
HETATM   10  C19 UNL     1      -2.967   8.333  14.205  1.00  0.00     0.142 C 
HETATM   11  C20 UNL     1      -2.330   8.486  15.571  1.00  0.00     0.018 C 
HETATM   12  C21 UNL     1      -0.993   8.619  15.536  1.00  0.00     0.014 C 
HETATM   13  C22 UNL     1      -0.436   8.610  14.124  1.00  0.00     0.127 C 
HETATM   14  C23 UNL     1       1.066   8.925  14.075  1.00  0.00     0.078 C 
HETATM   15  C24 UNL     1       1.700   8.692  12.685  1.00  0.00     0.128 C 
HETATM   16  C31 UNL     1       0.666   8.480  11.574  1.00  0.00     0.033 C 
HETATM   17  C32 UNL     1      -0.369   7.382  11.870  1.00  0.00     0.020 C 
HETATM   18  C33 UNL     1      -0.805   7.287  13.357  1.00  0.00     0.021 C 
HETATM   19  C34 UNL     1      -0.133   6.059  14.019  1.00  0.00     0.024 C 
HETATM   20  O7  UNL     1      -1.108   9.725  13.468  1.00  0.00    -0.223 OA
HETATM   21  O8  UNL     1      -2.589   9.506  13.436  1.00  0.00    -0.219 OA
ENDROOT
BRANCH  15  22
HETATM   22  O1  UNL     1       2.589   7.572  12.815  1.00  0.00    -0.353 OA
BRANCH  22  23
HETATM   23  C25 UNL     1       3.973   7.886  12.598  1.00  0.00     0.292 C 
HETATM   24  O2  UNL     1       4.624   6.848  11.872  1.00  0.00    -0.348 OA
HETATM   25  C26 UNL     1       5.921   7.273  11.405  1.00  0.00     0.179 C 
HETATM   26  C28 UNL     1       6.678   8.138  12.449  1.00  0.00     0.180 C 
HETATM   27  C29 UNL     1       6.173   7.871  13.880  1.00  0.00     0.183 C 
HETATM   28  C30 UNL     1       4.636   7.980  13.988  1.00  0.00     0.204 C 
BRANCH  25  29
HETATM   29  C27 UNL     1       6.698   6.013  11.004  1.00  0.00     0.198 C 
BRANCH  29  30
HETATM   30  O3  UNL     1       5.830   5.024  10.461  1.00  0.00    -0.398 OA
HETATM   31  H39 UNL     1       6.180   4.158  10.746  1.00  0.00     0.209 HD
ENDBRANCH  29  30
ENDBRANCH  25  29
BRANCH  26  32
HETATM   32  O4  UNL     1       6.441   9.524  12.131  1.00  0.00    -0.390 OA
HETATM   33  H41 UNL     1       6.975  10.057  12.748  1.00  0.00     0.210 HD
ENDBRANCH  26  32
BRANCH  27  34
HETATM   34  O5  UNL     1       6.624   6.581  14.322  1.00  0.00    -0.390 OA
HETATM   35  H43 UNL     1       6.036   5.901  13.945  1.00  0.00     0.210 HD
ENDBRANCH  27  34
BRANCH  28  36
HETATM   36  O6  UNL     1       4.252   9.203  14.634  1.00  0.00    -0.388 OA
HETATM   37  H45 UNL     1       3.277   9.182  14.675  1.00  0.00     0.210 HD
ENDBRANCH  28  36
ENDBRANCH  22  23
ENDBRANCH  15  22
BRANCH   1  38
HETATM   38  C8  UNL     1      -7.660   6.103  14.593  1.00  0.00     0.008 C 
HETATM   39  C9  UNL     1      -7.332   5.478  15.956  1.00  0.00     0.014 C 
BRANCH  38  40
HETATM   40  C7  UNL     1      -7.826   4.969  13.604  1.00  0.00    -0.026 C 
HETATM   41  C6  UNL     1      -6.803   4.275  13.073  1.00  0.00    -0.026 C 
BRANCH  41  42
HETATM   42  C4  UNL     1      -6.857   3.152  12.049  1.00  0.00     0.007 C 
HETATM   43  C5  UNL     1      -7.654   1.986  12.652  1.00  0.00     0.014 C 
BRANCH  42  44
HETATM   44  C2  UNL     1      -5.489   2.701  11.448  1.00  0.00    -0.015 C 
HETATM   45  C1  UNL     1      -5.299   3.246  10.023  1.00  0.00     0.010 C 
HETATM   46  C3  UNL     1      -5.281   1.179  11.437  1.00  0.00     0.010 C 
ENDBRANCH  42  44
ENDBRANCH  41  42
ENDBRANCH  38  40
ENDBRANCH   1  38
TORSDOF 11
ENDMDL
MODEL 2
REMARK minimizedAffinity -11.0730972
REMARK CNNscore 0.313873053
REMARK CNNaffinity 7.11156321
REMARK  11 active torsions:
REMARK  status: ('A' for Active; 'I' for Inactive)
REMARK    1  A    between atoms: C2_2  and  C4_4 
REMARK    2  A    between atoms: C4_4  and  C6_6 
REMARK    3  A    between atoms: C7_7  and  C8_8 
REMARK    4  A    between atoms: C8_8  and  C10_10 
REMARK    5  A    between atoms: C24_24  and  O1_25 
REMARK    6  A    between atoms: O1_25  and  C25_26 
REMARK    7  A    between atoms: C26_28  and  C27_29 
REMARK    8  A    between atoms: C27_29  and  O3_30 
REMARK    9  A    between atoms: C28_31  and  O4_32 
REMARK   10  A    between atoms: C29_33  and  O5_34 
REMARK   11  A    between atoms: C30_35  and  O6_36 
ROOT
HETATM    1  C10 UNL     1      -5.969   7.163  14.060  1.00  0.00     0.002 C 
HETATM    2  C11 UNL     1      -5.953   8.626  14.574  1.00  0.00     0.006 C 
HETATM    3  C12 UNL     1      -4.540   9.170  14.295  1.00  0.00     0.009 C 
HETATM    4  C13 UNL     1      -3.869   8.069  13.481  1.00  0.00     0.041 C 
HETATM    5  C14 UNL     1      -4.468   6.753  14.035  1.00  0.00    -0.029 C 
HETATM    6  C15 UNL     1      -3.935   6.360  15.426  1.00  0.00     0.016 C 
HETATM    7  C16 UNL     1      -4.134   5.630  13.023  1.00  0.00     0.037 C 
HETATM    8  C17 UNL     1      -2.694   5.673  12.554  1.00  0.00    -0.019 C 
HETATM    9  C18 UNL     1      -1.882   6.745  12.693  1.00  0.00    -0.030 C 
HETATM   10  C19 UNL     1      -2.344   8.076  13.316  1.00  0.00     0.142 C 
HETATM   11  C20 UNL     1      -1.497   8.374  14.535  1.00  0.00     0.018 C 
HETATM   12  C21 UNL     1      -0.177   8.419  14.283  1.00  0.00     0.014 C 
HETATM   13  C22 UNL     1       0.152   8.184  12.819  1.00  0.00     0.127 C 
HETATM   14  C23 UNL     1       1.639   8.396  12.502  1.00  0.00     0.078 C 
HETATM   15  C24 UNL     1       2.038   7.937  11.082  1.00  0.00     0.128 C 
HETATM   16  C31 UNL     1       0.836   7.639  10.180  1.00  0.00     0.033 C 
HETATM   17  C32 UNL     1      -0.183   6.658  10.781  1.00  0.00     0.020 C 
HETATM   18  C33 UNL     1      -0.385   6.793  12.315  1.00  0.00     0.021 C 
HETATM   19  C34 UNL     1       0.332   5.628  13.040  1.00  0.00     0.024 C 
HETATM   20  O7  UNL     1      -0.570   9.238  12.118  1.00  0.00    -0.223 OA
HETATM   21  O8  UNL     1      -2.045   9.108  12.338  1.00  0.00    -0.219 OA
ENDROOT
BRANCH  15  22
HETATM   22  O1  UNL     1       2.891   6.792  11.238  1.00  0.00    -0.353 OA
BRANCH  22  23
HETATM   23  C25 UNL     1       4.126   7.063  11.919  1.00  0.00     0.292 C 
HETATM   24  O2  UNL     1       4.195   8.425  12.328  1.00  0.00    -0.348 OA
HETATM   25  C26 UNL     1       5.286   8.638  13.249  1.00  0.00     0.179 C 
HETATM   26  C28 UNL     1       6.558   7.835  12.864  1.00  0.00     0.180 C 
HETATM   27  C29 UNL     1       6.575   7.485  11.364  1.00  0.00     0.183 C 
HETATM   28  C30 UNL     1       5.262   6.814  10.903  1.00  0.00     0.204 C 
BRANCH  25  29
HETATM   29  C27 UNL     1       5.537  10.149  13.319  1.00  0.00     0.198 C 
BRANCH  29  30
HETATM   30  O3  UNL     1       4.864  10.832  12.267  1.00  0.00    -0.398 OA
HETATM   31  H39 UNL     1       5.440  11.575  12.002  1.00  0.00     0.209 HD
ENDBRANCH  29  30
ENDBRANCH  25  29
BRANCH  26  32
HETATM   32  O4  UNL     1       6.553   6.609  13.621  1.00  0.00    -0.390 OA
HETATM   33  H41 UNL     1       7.388   6.145  13.425  1.00  0.00     0.210 HD
ENDBRANCH  26  32
BRANCH  27  34
HETATM   34  O5  UNL     1       6.841   8.666  10.592  1.00  0.00    -0.390 OA
HETATM   35  H43 UNL     1       6.013   9.173  10.504  1.00  0.00     0.210 HD
ENDBRANCH  27  34
BRANCH  28  36
HETATM   36  O6  UNL     1       5.446   5.404  10.707  1.00  0.00    -0.388 OA
HETATM   37  H45 UNL     1       4.581   5.068  10.405  1.00  0.00     0.210 HD
ENDBRANCH  28  36
ENDBRANCH  22  23
ENDBRANCH  15  22
BRANCH   1  38
HETATM   38  C8  UNL     1      -7.005   6.212  14.715  1.00  0.00     0.008 C 
HETATM   39  C9  UNL     1      -6.658   6.013  16.197  1.00  0.00     0.014 C 
BRANCH  38  40
HETATM   40  C7  UNL     1      -7.150   4.838  14.096  1.00  0.00    -0.026 C 
HETATM   41  C6  UNL     1      -6.867   4.557  12.812  1.00  0.00    -0.026 C 
BRANCH  41  42
HETATM   42  C4  UNL     1      -7.014   3.229  12.084  1.00  0.00     0.007 C 
HETATM   43  C5  UNL     1      -7.829   2.278  12.971  1.00  0.00     0.014 C 
BRANCH  42  44
HETATM   44  C2  UNL     1      -5.694   2.581  11.558  1.00  0.00    -0.015 C 
HETATM   45  C1  UNL     1      -5.153   3.337  10.333  1.00  0.00     0.010 C 
HETATM   46  C3  UNL     1      -5.822   1.090  11.214  1.00  0.00     0.010 C 
ENDBRANCH  42  44
ENDBRANCH  41  42
ENDBRANCH  38  40
ENDBRANCH   1  38
TORSDOF 11
ENDMDL
MODEL 3
REMARK minimizedAffinity -10.1095924
REMARK CNNscore 0.290458709
REMARK CNNaffinity 6.62710333
REMARK  11 active torsions:
REMARK  status: ('A' for Active; 'I' for Inactive)
REMARK    1  A    between atoms: C2_2  and  C4_4 
REMARK    2  A    between atoms: C4_4  and  C6_6 
REMARK    3  A    between atoms: C7_7  and  C8_8 
REMARK    4  A    between atoms: C8_8  and  C10_10 
REMARK    5  A    between atoms: C24_24  and  O1_25 
REMARK    6  A    between atoms: O1_25  and  C25_26 
REMARK    7  A    between atoms: C26_28  and  C27_29 
REMARK    8  A    between atoms: C27_29  and  O3_30 
REMARK    9  A    between atoms: C28_31  and  O4_32 
REMARK   10  A    between atoms: C29_33  and  O5_34 
REMARK   11  A    between atoms: C30_35  and  O6_36 
ROOT
HETATM    1  C10 UNL     1      -7.252   7.230  14.128  1.00  0.00     0.002 C 
HETATM    2  C11 UNL     1      -7.419   8.453  15.068  1.00  0.00     0.006 C 
HETATM    3  C12 UNL     1      -6.009   9.030  15.288  1.00  0.00     0.009 C 
HETATM    4  C13 UNL     1      -5.125   8.233  14.334  1.00  0.00     0.041 C 
HETATM    5  C14 UNL     1      -5.760   6.821  14.301  1.00  0.00    -0.029 C 
HETATM    6  C15 UNL     1      -5.515   5.994  15.578  1.00  0.00     0.016 C 
HETATM    7  C16 UNL     1      -5.162   6.073  13.084  1.00  0.00     0.037 C 
HETATM    8  C17 UNL     1      -3.659   6.236  12.977  1.00  0.00    -0.019 C 
HETATM    9  C18 UNL     1      -2.952   7.191  13.619  1.00  0.00    -0.030 C 
HETATM   10  C19 UNL     1      -3.603   8.263  14.515  1.00  0.00     0.142 C 
HETATM   11  C20 UNL     1      -3.049   8.140  15.919  1.00  0.00     0.018 C 
HETATM   12  C21 UNL     1      -1.711   8.236  15.987  1.00  0.00     0.014 C 
HETATM   13  C22 UNL     1      -1.067   8.474  14.632  1.00  0.00     0.127 C 
HETATM   14  C23 UNL     1       0.440   8.748  14.729  1.00  0.00     0.078 C 
HETATM   15  C24 UNL     1       1.154   8.758  13.358  1.00  0.00     0.128 C 
HETATM   16  C31 UNL     1       0.188   8.787  12.170  1.00  0.00     0.033 C 
HETATM   17  C32 UNL     1      -0.884   7.686  12.195  1.00  0.00     0.020 C 
HETATM   18  C33 UNL     1      -1.413   7.328  13.611  1.00  0.00     0.021 C 
HETATM   19  C34 UNL     1      -0.807   5.979  14.068  1.00  0.00     0.024 C 
HETATM   20  O7  UNL     1      -1.677   9.711  14.160  1.00  0.00    -0.223 OA
HETATM   21  O8  UNL     1      -3.157   9.546  14.002  1.00  0.00    -0.219 OA
ENDROOT
BRANCH  15  22
HETATM   22  O1  UNL     1       2.012   7.607  13.327  1.00  0.00    -0.353 OA
BRANCH  22  23
HETATM   23  C25 UNL     1       2.906   7.566  12.203  1.00  0.00     0.292 C 
HETATM   24  O2  UNL     1       2.784   6.334  11.500  1.00  0.00    -0.348 OA
HETATM   25  C26 UNL     1       3.457   6.393  10.224  1.00  0.00     0.179 C 
HETATM   26  C28 UNL     1       4.802   7.164  10.294  1.00  0.00     0.180 C 
HETATM   27  C29 UNL     1       5.376   7.175  11.724  1.00  0.00     0.183 C 
HETATM   28  C30 UNL     1       4.341   7.650  12.767  1.00  0.00     0.204 C 
BRANCH  25  29
HETATM   29  C27 UNL     1       3.623   4.952   9.728  1.00  0.00     0.198 C 
BRANCH  29  30
HETATM   30  O3  UNL     1       2.659   4.088  10.320  1.00  0.00    -0.398 OA
HETATM   31  H39 UNL     1       3.099   3.227  10.454  1.00  0.00     0.209 HD
ENDBRANCH  29  30
ENDBRANCH  25  29
BRANCH  26  32
HETATM   32  O4  UNL     1       4.555   8.525   9.889  1.00  0.00    -0.390 OA
HETATM   33  H41 UNL     1       5.416   8.982   9.870  1.00  0.00     0.210 HD
ENDBRANCH  26  32
BRANCH  27  34
HETATM   34  O5  UNL     1       5.874   5.870  12.058  1.00  0.00    -0.390 OA
HETATM   35  H43 UNL     1       5.121   5.309  12.322  1.00  0.00     0.210 HD
ENDBRANCH  27  34
BRANCH  28  36
HETATM   36  O6  UNL     1       4.622   8.990  13.197  1.00  0.00    -0.388 OA
HETATM   37  H45 UNL     1       3.936   9.201  13.859  1.00  0.00     0.210 HD
ENDBRANCH  28  36
ENDBRANCH  22  23
ENDBRANCH  15  22
BRANCH   1  38
HETATM   38  C8  UNL     1      -8.352   6.141  14.208  1.00  0.00     0.008 C 
HETATM   39  C9  UNL     1      -8.472   5.427  12.853  1.00  0.00     0.014 C 
BRANCH  38  40
HETATM   40  C7  UNL     1      -9.738   6.605  14.598  1.00  0.00    -0.026 C 
HETATM   41  C6  UNL     1     -10.735   6.822  13.721  1.00  0.00    -0.026 C 
BRANCH  41  42
HETATM   42  C4  UNL     1     -12.144   7.323  14.001  1.00  0.00     0.007 C 
HETATM   43  C5  UNL     1     -13.003   6.131  14.445  1.00  0.00     0.014 C 
BRANCH  42  44
HETATM   44  C2  UNL     1     -12.815   8.162  12.869  1.00  0.00    -0.015 C 
HETATM   45  C1  UNL     1     -12.550   9.664  13.056  1.00  0.00     0.010 C 
HETATM   46  C3  UNL     1     -14.327   7.931  12.731  1.00  0.00     0.010 C 
ENDBRANCH  42  44
ENDBRANCH  41  42
ENDBRANCH  38  40
ENDBRANCH   1  38
TORSDOF 11
ENDMDL
MODEL 4
REMARK minimizedAffinity -7.5869875
REMARK CNNscore 0.264084667
REMARK CNNaffinity 6.92812586
REMARK  11 active torsions:
REMARK  status: ('A' for Active; 'I' for Inactive)
REMARK    1  A    between atoms: C2_2  and  C4_4 
REMARK    2  A    between atoms: C4_4  and  C6_6 
REMARK    3  A    between atoms: C7_7  and  C8_8 
REMARK    4  A    between atoms: C8_8  and  C10_10 
REMARK    5  A    between atoms: C24_24  and  O1_25 
REMARK    6  A    between atoms: O1_25  and  C25_26 
REMARK    7  A    between atoms: C26_28  and  C27_29 
REMARK    8  A    between atoms: C27_29  and  O3_30 
REMARK    9  A    between atoms: C28_31  and  O4_32 
REMARK   10  A    between atoms: C29_33  and  O5_34 
REMARK   11  A    between atoms: C30_35  and  O6_36 
ROOT
HETATM    1  C10 UNL     1      -7.102   7.128  14.380  1.00  0.00     0.002 C 
HETATM    2  C11 UNL     1      -7.378   5.814  13.604  1.00  0.00     0.006 C 
HETATM    3  C12 UNL     1      -8.868   5.840  13.217  1.00  0.00     0.009 C 
HETATM    4  C13 UNL     1      -9.337   7.233  13.627  1.00  0.00     0.041 C 
HETATM    5  C14 UNL     1      -8.505   7.569  14.890  1.00  0.00    -0.029 C 
HETATM    6  C15 UNL     1      -8.947   6.802  16.152  1.00  0.00     0.016 C 
HETATM    7  C16 UNL     1      -8.640   9.090  15.142  1.00  0.00     0.037 C 
HETATM    8  C17 UNL     1     -10.068   9.581  15.017  1.00  0.00    -0.019 C 
HETATM    9  C18 UNL     1     -11.059   8.888  14.411  1.00  0.00    -0.030 C 
HETATM   10  C19 UNL     1     -10.839   7.521  13.736  1.00  0.00     0.142 C 
HETATM   11  C20 UNL     1     -11.716   6.487  14.411  1.00  0.00     0.018 C 
HETATM   12  C21 UNL     1     -13.024   6.796  14.406  1.00  0.00     0.014 C 
HETATM   13  C22 UNL     1     -13.317   8.107  13.697  1.00  0.00     0.127 C 
HETATM   14  C23 UNL     1     -14.821   8.378  13.549  1.00  0.00     0.078 C 
HETATM   15  C24 UNL     1     -15.143   9.804  13.046  1.00  0.00     0.128 C 
HETATM   16  C31 UNL     1     -13.914  10.555  12.523  1.00  0.00     0.033 C 
HETATM   17  C32 UNL     1     -12.731  10.599  13.502  1.00  0.00     0.020 C 
HETATM   18  C33 UNL     1     -12.543   9.311  14.350  1.00  0.00     0.021 C 
HETATM   19  C34 UNL     1     -13.033   9.564  15.797  1.00  0.00     0.024 C 
HETATM   20  O7  UNL     1     -12.803   7.905  12.348  1.00  0.00    -0.223 OA
HETATM   21  O8  UNL     1     -11.327   7.657  12.375  1.00  0.00    -0.219 OA
ENDROOT
BRANCH  15  22
HETATM   22  O1  UNL     1     -15.774  10.496  14.135  1.00  0.00    -0.353 OA
BRANCH  22  23
HETATM   23  C25 UNL     1     -16.018  11.890  13.888  1.00  0.00     0.292 C 
HETATM   24  O2  UNL     1     -15.381  12.701  14.869  1.00  0.00    -0.348 OA
HETATM   25  C26 UNL     1     -15.379  14.090  14.475  1.00  0.00     0.179 C 
HETATM   26  C28 UNL     1     -16.707  14.521  13.797  1.00  0.00     0.180 C 
HETATM   27  C29 UNL     1     -17.876  13.603  14.205  1.00  0.00     0.183 C 
HETATM   28  C30 UNL     1     -17.542  12.107  14.009  1.00  0.00     0.204 C 
BRANCH  25  29
HETATM   29  C27 UNL     1     -15.055  14.918  15.725  1.00  0.00     0.198 C 
BRANCH  29  30
HETATM   30  O3  UNL     1     -16.001  15.966  15.908  1.00  0.00    -0.398 OA
HETATM   31  H39 UNL     1     -15.509  16.725  16.276  1.00  0.00     0.209 HD
ENDBRANCH  29  30
ENDBRANCH  25  29
BRANCH  26  32
HETATM   32  O4  UNL     1     -16.527  14.426  12.371  1.00  0.00    -0.390 OA
HETATM   33  H41 UNL     1     -17.341  14.764  11.953  1.00  0.00     0.210 HD
ENDBRANCH  26  32
BRANCH  27  34
HETATM   34  O5  UNL     1     -18.249  13.867  15.566  1.00  0.00    -0.390 OA
HETATM   35  H43 UNL     1     -17.627  13.402  16.155  1.00  0.00     0.210 HD
ENDBRANCH  27  34
BRANCH  28  36
HETATM   36  O6  UNL     1     -18.208  11.579  12.853  1.00  0.00    -0.388 OA
HETATM   37  H45 UNL     1     -17.956  10.636  12.815  1.00  0.00     0.210 HD
ENDBRANCH  28  36
ENDBRANCH  22  23
ENDBRANCH  15  22
BRANCH   1  38
HETATM   38  C8  UNL     1      -5.907   7.110  15.368  1.00  0.00     0.008 C 
HETATM   39  C9  UNL     1      -5.268   8.504  15.430  1.00  0.00     0.014 C 
BRANCH  38  40
HETATM   40  C7  UNL     1      -4.802   6.118  15.076  1.00  0.00    -0.026 C 
HETATM   41  C6  UNL     1      -4.121   6.068  13.917  1.00  0.00    -0.026 C 
BRANCH  41  42
HETATM   42  C4  UNL     1      -3.027   5.093  13.508  1.00  0.00     0.007 C 
HETATM   43  C5  UNL     1      -1.838   5.899  12.966  1.00  0.00     0.014 C 
BRANCH  42  44
HETATM   44  C2  UNL     1      -3.456   3.935  12.554  1.00  0.00    -0.015 C 
HETATM   45  C1  UNL     1      -2.654   3.968  11.243  1.00  0.00     0.010 C 
HETATM   46  C3  UNL     1      -4.956   3.917  12.226  1.00  0.00     0.010 C 
ENDBRANCH  42  44
ENDBRANCH  41  42
ENDBRANCH  38  40
ENDBRANCH   1  38
TORSDOF 11
ENDMDL
MODEL 5
REMARK minimizedAffinity -7.94222593
REMARK CNNscore 0.236348197
REMARK CNNaffinity 6.51415205
REMARK  11 active torsions:
REMARK  status: ('A' for Active; 'I' for Inactive)
REMARK    1  A    between atoms: C2_2  and  C4_4 
REMARK    2  A    between atoms: C4_4  and  C6_6 
REMARK    3  A    between atoms: C7_7  and  C8_8 
REMARK    4  A    between atoms: C8_8  and  C10_10 
REMARK    5  A    between atoms: C24_24  and  O1_25 
REMARK    6  A    between atoms: O1_25  and  C25_26 
REMARK    7  A    between atoms: C26_28  and  C27_29 
REMARK    8  A    between atoms: C27_29  and  O3_30 
REMARK    9  A    between atoms: C28_31  and  O4_32 
REMARK   10  A    between atoms: C29_33  and  O5_34 
REMARK   11  A    between atoms: C30_35  and  O6_36 
ROOT
HETATM    1  C10 UNL     1       0.005   6.560  12.931  1.00  0.00     0.002 C 
HETATM    2  C11 UNL     1       1.452   6.808  13.431  1.00  0.00     0.006 C 
HETATM    3  C12 UNL     1       1.364   7.931  14.481  1.00  0.00     0.009 C 
HETATM    4  C13 UNL     1      -0.134   8.153  14.667  1.00  0.00     0.041 C 
HETATM    5  C14 UNL     1      -0.746   7.880  13.270  1.00  0.00    -0.029 C 
HETATM    6  C15 UNL     1      -0.479   8.997  12.242  1.00  0.00     0.016 C 
HETATM    7  C16 UNL     1      -2.273   7.712  13.459  1.00  0.00     0.037 C 
HETATM    8  C17 UNL     1      -2.873   8.772  14.360  1.00  0.00    -0.019 C 
HETATM    9  C18 UNL     1      -2.153   9.553  15.196  1.00  0.00    -0.030 C 
HETATM   10  C19 UNL     1      -0.626   9.428  15.360  1.00  0.00     0.142 C 
HETATM   11  C20 UNL     1       0.023  10.742  14.981  1.00  0.00     0.018 C 
HETATM   12  C21 UNL     1      -0.429  11.796  15.681  1.00  0.00     0.014 C 
HETATM   13  C22 UNL     1      -1.474  11.412  16.715  1.00  0.00     0.127 C 
HETATM   14  C23 UNL     1      -1.869  12.584  17.624  1.00  0.00     0.078 C 
HETATM   15  C24 UNL     1      -3.091  12.283  18.521  1.00  0.00     0.128 C 
HETATM   16  C31 UNL     1      -3.479  10.801  18.541  1.00  0.00     0.033 C 
HETATM   17  C32 UNL     1      -3.682  10.178  17.151  1.00  0.00     0.020 C 
HETATM   18  C33 UNL     1      -2.716  10.707  16.056  1.00  0.00     0.021 C 
HETATM   19  C34 UNL     1      -3.473  11.681  15.120  1.00  0.00     0.024 C 
HETATM   20  O7  UNL     1      -0.793  10.445  17.567  1.00  0.00    -0.223 OA
HETATM   21  O8  UNL     1      -0.384   9.239  16.780  1.00  0.00    -0.219 OA
ENDROOT
BRANCH  15  22
HETATM   22  O1  UNL     1      -4.165  13.114  18.054  1.00  0.00    -0.353 OA
BRANCH  22  23
HETATM   23  C25 UNL     1      -4.522  14.178  18.951  1.00  0.00     0.292 C 
HETATM   24  O2  UNL     1      -3.422  14.539  19.778  1.00  0.00    -0.348 OA
HETATM   25  C26 UNL     1      -3.676  15.778  20.473  1.00  0.00     0.179 C 
HETATM   26  C28 UNL     1      -5.142  15.896  20.968  1.00  0.00     0.180 C 
HETATM   27  C29 UNL     1      -5.800  14.512  21.128  1.00  0.00     0.183 C 
HETATM   28  C30 UNL     1      -5.646  13.640  19.863  1.00  0.00     0.204 C 
BRANCH  25  29
HETATM   29  C27 UNL     1      -2.655  15.881  21.613  1.00  0.00     0.198 C 
BRANCH  29  30
HETATM   30  O3  UNL     1      -3.274  15.681  22.879  1.00  0.00    -0.398 OA
HETATM   31  H39 UNL     1      -2.816  16.267  23.510  1.00  0.00     0.209 HD
ENDBRANCH  29  30
ENDBRANCH  25  29
BRANCH  26  32
HETATM   32  O4  UNL     1      -5.883  16.643  19.983  1.00  0.00    -0.390 OA
HETATM   33  H41 UNL     1      -6.784  16.771  20.334  1.00  0.00     0.210 HD
ENDBRANCH  26  32
BRANCH  27  34
HETATM   34  O5  UNL     1      -5.252  13.844  22.276  1.00  0.00    -0.390 OA
HETATM   35  H43 UNL     1      -4.395  13.452  22.028  1.00  0.00     0.210 HD
ENDBRANCH  27  34
BRANCH  28  36
HETATM   36  O6  UNL     1      -6.880  13.569  19.133  1.00  0.00    -0.388 OA
HETATM   37  H45 UNL     1      -6.698  12.992  18.367  1.00  0.00     0.210 HD
ENDBRANCH  28  36
ENDBRANCH  22  23
ENDBRANCH  15  22
BRANCH   1  38
HETATM   38  C8  UNL     1      -0.142   5.946  11.514  1.00  0.00     0.008 C 
HETATM   39  C9  UNL     1       0.295   4.475  11.541  1.00  0.00     0.014 C 
BRANCH  38  40
HETATM   40  C7  UNL     1       0.624   6.625  10.399  1.00  0.00    -0.026 C 
HETATM   41  C6  UNL     1       1.864   6.272  10.013  1.00  0.00    -0.026 C 
BRANCH  41  42
HETATM   42  C4  UNL     1       2.733   6.907   8.939  1.00  0.00     0.007 C 
HETATM   43  C5  UNL     1       3.858   7.691   9.628  1.00  0.00     0.014 C 
BRANCH  42  44
HETATM   44  C2  UNL     1       1.986   7.749   7.857  1.00  0.00    -0.015 C 
HETATM   45  C1  UNL     1       0.621   8.234   8.373  1.00  0.00     0.010 C 
HETATM   46  C3  UNL     1       1.789   7.018   6.521  1.00  0.00     0.010 C 
ENDBRANCH  42  44
ENDBRANCH  41  42
ENDBRANCH  38  40
ENDBRANCH   1  38
TORSDOF 11
ENDMDL
MODEL 6
REMARK minimizedAffinity -7.52821255
REMARK CNNscore 0.229500964
REMARK CNNaffinity 6.9157238
REMARK  11 active torsions:
REMARK  status: ('A' for Active; 'I' for Inactive)
REMARK    1  A    between atoms: C2_2  and  C4_4 
REMARK    2  A    between atoms: C4_4  and  C6_6 
REMARK    3  A    between atoms: C7_7  and  C8_8 
REMARK    4  A    between atoms: C8_8  and  C10_10 
REMARK    5  A    between atoms: C24_24  and  O1_25 
REMARK    6  A    between atoms: O1_25  and  C25_26 
REMARK    7  A    between atoms: C26_28  and  C27_29 
REMARK    8  A    between atoms: C27_29  and  O3_30 
REMARK    9  A    between atoms: C28_31  and  O4_32 
REMARK   10  A    between atoms: C29_33  and  O5_34 
REMARK   11  A    between atoms: C30_35  and  O6_36 
ROOT
HETATM    1  C10 UNL     1      -6.930   6.609  13.913  1.00  0.00     0.002 C 
HETATM    2  C11 UNL     1      -7.433   5.412  13.065  1.00  0.00     0.006 C 
HETATM    3  C12 UNL     1      -8.944   5.625  12.864  1.00  0.00     0.009 C 
HETATM    4  C13 UNL     1      -9.208   7.010  13.446  1.00  0.00     0.041 C 
HETATM    5  C14 UNL     1      -8.211   7.135  14.624  1.00  0.00    -0.029 C 
HETATM    6  C15 UNL     1      -8.592   6.295  15.859  1.00  0.00     0.016 C 
HETATM    7  C16 UNL     1      -8.149   8.629  15.022  1.00  0.00     0.037 C 
HETATM    8  C17 UNL     1      -9.519   9.270  15.112  1.00  0.00    -0.019 C 
HETATM    9  C18 UNL     1     -10.640   8.742  14.572  1.00  0.00    -0.030 C 
HETATM   10  C19 UNL     1     -10.648   7.433  13.759  1.00  0.00     0.142 C 
HETATM   11  C20 UNL     1     -11.554   6.430  14.442  1.00  0.00     0.018 C 
HETATM   12  C21 UNL     1     -12.812   6.867  14.621  1.00  0.00     0.014 C 
HETATM   13  C22 UNL     1     -13.036   8.264  14.069  1.00  0.00     0.127 C 
HETATM   14  C23 UNL     1     -14.508   8.697  14.126  1.00  0.00     0.078 C 
HETATM   15  C24 UNL     1     -14.724  10.190  13.792  1.00  0.00     0.128 C 
HETATM   16  C31 UNL     1     -13.486  10.864  13.192  1.00  0.00     0.033 C 
HETATM   17  C32 UNL     1     -12.204  10.692  14.022  1.00  0.00     0.020 C 
HETATM   18  C33 UNL     1     -12.067   9.314  14.726  1.00  0.00     0.021 C 
HETATM   19  C34 UNL     1     -12.363   9.470  16.238  1.00  0.00     0.024 C 
HETATM   20  O7  UNL     1     -12.699   8.146  12.656  1.00  0.00    -0.223 OA
HETATM   21  O8  UNL     1     -11.266   7.751  12.484  1.00  0.00    -0.219 OA
ENDROOT
BRANCH  15  22
HETATM   22  O1  UNL     1     -15.151  10.831  15.004  1.00  0.00    -0.353 OA
BRANCH  22  23
HETATM   23  C25 UNL     1     -16.531  11.228  15.009  1.00  0.00     0.292 C 
HETATM   24  O2  UNL     1     -17.389  10.095  14.917  1.00  0.00    -0.348 OA
HETATM   25  C26 UNL     1     -18.757  10.452  15.205  1.00  0.00     0.179 C 
HETATM   26  C28 UNL     1     -19.155  11.828  14.606  1.00  0.00     0.180 C 
HETATM   27  C29 UNL     1     -18.257  12.208  13.413  1.00  0.00     0.183 C 
HETATM   28  C30 UNL     1     -16.754  12.096  13.752  1.00  0.00     0.204 C 
BRANCH  25  29
HETATM   29  C27 UNL     1     -19.644   9.307  14.701  1.00  0.00     0.198 C 
BRANCH  29  30
HETATM   30  O3  UNL     1     -18.966   8.058  14.778  1.00  0.00    -0.398 OA
HETATM   31  H39 UNL     1     -19.258   7.533  14.009  1.00  0.00     0.209 HD
ENDBRANCH  29  30
ENDBRANCH  25  29
BRANCH  26  32
HETATM   32  O4  UNL     1     -18.993  12.823  15.636  1.00  0.00    -0.390 OA
HETATM   33  H41 UNL     1     -19.310  13.670  15.273  1.00  0.00     0.210 HD
ENDBRANCH  26  32
BRANCH  27  34
HETATM   34  O5  UNL     1     -18.585  11.392  12.278  1.00  0.00    -0.390 OA
HETATM   35  H43 UNL     1     -18.149  10.526  12.381  1.00  0.00     0.210 HD
ENDBRANCH  27  34
BRANCH  28  36
HETATM   36  O6  UNL     1     -16.171  13.394  13.941  1.00  0.00    -0.388 OA
HETATM   37  H45 UNL     1     -15.228  13.231  14.133  1.00  0.00     0.210 HD
ENDBRANCH  28  36
ENDBRANCH  22  23
ENDBRANCH  15  22
BRANCH   1  38
HETATM   38  C8  UNL     1      -5.643   6.375  14.745  1.00  0.00     0.008 C 
HETATM   39  C9  UNL     1      -4.788   7.650  14.744  1.00  0.00     0.014 C 
BRANCH  38  40
HETATM   40  C7  UNL     1      -4.751   5.233  14.307  1.00  0.00    -0.026 C 
HETATM   41  C6  UNL     1      -4.066   5.213  13.150  1.00  0.00    -0.026 C 
BRANCH  41  42
HETATM   42  C4  UNL     1      -3.179   4.106  12.599  1.00  0.00     0.007 C 
HETATM   43  C5  UNL     1      -1.854   4.731  12.141  1.00  0.00     0.014 C 
BRANCH  42  44
HETATM   44  C2  UNL     1      -3.820   3.186  11.513  1.00  0.00    -0.015 C 
HETATM   45  C1  UNL     1      -3.530   3.711  10.097  1.00  0.00     0.010 C 
HETATM   46  C3  UNL     1      -5.333   2.985  11.676  1.00  0.00     0.010 C 
ENDBRANCH  42  44
ENDBRANCH  41  42
ENDBRANCH  38  40
ENDBRANCH   1  38
TORSDOF 11
ENDMDL
MODEL 7
REMARK minimizedAffinity -10.5538836
REMARK CNNscore 0.212786555
REMARK CNNaffinity 6.97662687
REMARK  11 active torsions:
REMARK  status: ('A' for Active; 'I' for Inactive)
REMARK    1  A    between atoms: C2_2  and  C4_4 
REMARK    2  A    between atoms: C4_4  and  C6_6 
REMARK    3  A    between atoms: C7_7  and  C8_8 
REMARK    4  A    between atoms: C8_8  and  C10_10 
REMARK    5  A    between atoms: C24_24  and  O1_25 
REMARK    6  A    between atoms: O1_25  and  C25_26 
REMARK    7  A    between atoms: C26_28  and  C27_29 
REMARK    8  A    between atoms: C27_29  and  O3_30 
REMARK    9  A    between atoms: C28_31  and  O4_32 
REMARK   10  A    between atoms: C29_33  and  O5_34 
REMARK   11  A    between atoms: C30_35  and  O6_36 
ROOT
HETATM    1  C10 UNL     1      -5.906   6.509  13.596  1.00  0.00     0.002 C 
HETATM    2  C11 UNL     1      -6.087   7.977  14.062  1.00  0.00     0.006 C 
HETATM    3  C12 UNL     1      -4.724   8.667  13.867  1.00  0.00     0.009 C 
HETATM    4  C13 UNL     1      -3.879   7.627  13.139  1.00  0.00     0.041 C 
HETATM    5  C14 UNL     1      -4.371   6.267  13.691  1.00  0.00    -0.029 C 
HETATM    6  C15 UNL     1      -3.905   5.969  15.129  1.00  0.00     0.016 C 
HETATM    7  C16 UNL     1      -3.843   5.164  12.742  1.00  0.00     0.037 C 
HETATM    8  C17 UNL     1      -2.385   5.355  12.376  1.00  0.00    -0.019 C 
HETATM    9  C18 UNL     1      -1.707   6.513  12.538  1.00  0.00    -0.030 C 
HETATM   10  C19 UNL     1      -2.356   7.799  13.084  1.00  0.00     0.142 C 
HETATM   11  C20 UNL     1      -1.639   8.219  14.350  1.00  0.00     0.018 C 
HETATM   12  C21 UNL     1      -0.317   8.402  14.192  1.00  0.00     0.014 C 
HETATM   13  C22 UNL     1       0.144   8.170  12.764  1.00  0.00     0.127 C 
HETATM   14  C23 UNL     1       1.618   8.538  12.548  1.00  0.00     0.078 C 
HETATM   15  C24 UNL     1       2.170   8.092  11.175  1.00  0.00     0.128 C 
HETATM   16  C31 UNL     1       1.078   7.642  10.199  1.00  0.00     0.033 C 
HETATM   17  C32 UNL     1       0.130   6.569  10.757  1.00  0.00     0.020 C 
HETATM   18  C33 UNL     1      -0.200   6.717  12.267  1.00  0.00     0.021 C 
HETATM   19  C34 UNL     1       0.583   5.656  13.078  1.00  0.00     0.024 C 
HETATM   20  O7  UNL     1      -0.634   9.121  11.979  1.00  0.00    -0.223 OA
HETATM   21  O8  UNL     1      -2.098   8.834  12.098  1.00  0.00    -0.219 OA
ENDROOT
BRANCH  15  22
HETATM   22  O1  UNL     1       3.128   7.053  11.428  1.00  0.00    -0.353 OA
BRANCH  22  23
HETATM   23  C25 UNL     1       4.322   7.497  12.090  1.00  0.00     0.292 C 
HETATM   24  O2  UNL     1       4.401   8.919  12.100  1.00  0.00    -0.348 OA
HETATM   25  C26 UNL     1       5.434   9.377  12.998  1.00  0.00     0.179 C 
HETATM   26  C28 UNL     1       6.706   8.489  12.950  1.00  0.00     0.180 C 
HETATM   27  C29 UNL     1       6.813   7.725  11.616  1.00  0.00     0.183 C 
HETATM   28  C30 UNL     1       5.516   6.961  11.272  1.00  0.00     0.204 C 
BRANCH  25  29
HETATM   29  C27 UNL     1       5.721  10.844  12.654  1.00  0.00     0.198 C 
BRANCH  29  30
HETATM   30  O3  UNL     1       5.662  11.064  11.249  1.00  0.00    -0.398 OA
HETATM   31  H39 UNL     1       6.342  11.734  11.042  1.00  0.00     0.209 HD
ENDBRANCH  29  30
ENDBRANCH  25  29
BRANCH  26  32
HETATM   32  O4  UNL     1       6.617   7.529  14.021  1.00  0.00    -0.390 OA
HETATM   33  H41 UNL     1       7.450   7.022  14.025  1.00  0.00     0.210 HD
ENDBRANCH  26  32
BRANCH  27  34
HETATM   34  O5  UNL     1       7.163   8.636  10.561  1.00  0.00    -0.390 OA
HETATM   35  H43 UNL     1       6.356   9.102  10.274  1.00  0.00     0.210 HD
ENDBRANCH  27  34
BRANCH  28  36
HETATM   36  O6  UNL     1       5.674   5.552  11.497  1.00  0.00    -0.388 OA
HETATM   37  H45 UNL     1       4.822   5.150  11.242  1.00  0.00     0.210 HD
ENDBRANCH  28  36
ENDBRANCH  22  23
ENDBRANCH  15  22
BRANCH   1  38
HETATM   38  C8  UNL     1      -6.878   5.466  14.204  1.00  0.00     0.008 C 
HETATM   39  C9  UNL     1      -7.120   4.335  13.195  1.00  0.00     0.014 C 
BRANCH  38  40
HETATM   40  C7  UNL     1      -8.233   5.977  14.643  1.00  0.00    -0.026 C 
HETATM   41  C6  UNL     1      -9.165   6.460  13.802  1.00  0.00    -0.026 C 
BRANCH  41  42
HETATM   42  C4  UNL     1     -10.534   7.032  14.140  1.00  0.00     0.007 C 
HETATM   43  C5  UNL     1     -11.291   7.283  12.829  1.00  0.00     0.014 C 
BRANCH  42  44
HETATM   44  C2  UNL     1     -10.548   8.269  15.092  1.00  0.00    -0.015 C 
HETATM   45  C1  UNL     1     -10.821   9.567  14.314  1.00  0.00     0.010 C 
HETATM   46  C3  UNL     1      -9.266   8.437  15.919  1.00  0.00     0.010 C 
ENDBRANCH  42  44
ENDBRANCH  41  42
ENDBRANCH  38  40
ENDBRANCH   1  38
TORSDOF 11
ENDMDL
MODEL 8
REMARK minimizedAffinity -8.25570107
REMARK CNNscore 0.202153653
REMARK CNNaffinity 6.82402182
REMARK  11 active torsions:
REMARK  status: ('A' for Active; 'I' for Inactive)
REMARK    1  A    between atoms: C2_2  and  C4_4 
REMARK    2  A    between atoms: C4_4  and  C6_6 
REMARK    3  A    between atoms: C7_7  and  C8_8 
REMARK    4  A    between atoms: C8_8  and  C10_10 
REMARK    5  A    between atoms: C24_24  and  O1_25 
REMARK    6  A    between atoms: O1_25  and  C25_26 
REMARK    7  A    between atoms: C26_28  and  C27_29 
REMARK    8  A    between atoms: C27_29  and  O3_30 
REMARK    9  A    between atoms: C28_31  and  O4_32 
REMARK   10  A    between atoms: C29_33  and  O5_34 
REMARK   11  A    between atoms: C30_35  and  O6_36 
ROOT
HETATM    1  C10 UNL     1      -6.806   6.464  15.103  1.00  0.00     0.002 C 
HETATM    2  C11 UNL     1      -6.354   5.522  16.249  1.00  0.00     0.006 C 
HETATM    3  C12 UNL     1      -4.815   5.563  16.266  1.00  0.00     0.009 C 
HETATM    4  C13 UNL     1      -4.459   6.650  15.257  1.00  0.00     0.041 C 
HETATM    5  C14 UNL     1      -5.561   6.555  14.173  1.00  0.00    -0.029 C 
HETATM    6  C15 UNL     1      -5.422   5.333  13.245  1.00  0.00     0.016 C 
HETATM    7  C16 UNL     1      -5.493   7.850  13.328  1.00  0.00     0.037 C 
HETATM    8  C17 UNL     1      -4.076   8.225  12.943  1.00  0.00    -0.019 C 
HETATM    9  C18 UNL     1      -2.970   7.729  13.542  1.00  0.00    -0.030 C 
HETATM   10  C19 UNL     1      -3.024   6.744  14.725  1.00  0.00     0.142 C 
HETATM   11  C20 UNL     1      -2.323   5.459  14.334  1.00  0.00     0.018 C 
HETATM   12  C21 UNL     1      -1.051   5.632  13.937  1.00  0.00     0.014 C 
HETATM   13  C22 UNL     1      -0.605   7.082  14.001  1.00  0.00     0.127 C 
HETATM   14  C23 UNL     1       0.891   7.258  13.706  1.00  0.00     0.078 C 
HETATM   15  C24 UNL     1       1.316   8.734  13.533  1.00  0.00     0.128 C 
HETATM   16  C31 UNL     1       0.240   9.731  13.975  1.00  0.00     0.033 C 
HETATM   17  C32 UNL     1      -1.138   9.504  13.335  1.00  0.00     0.020 C 
HETATM   18  C33 UNL     1      -1.513   8.013  13.114  1.00  0.00     0.021 C 
HETATM   19  C34 UNL     1      -1.373   7.656  11.615  1.00  0.00     0.024 C 
HETATM   20  O7  UNL     1      -0.792   7.451  15.398  1.00  0.00    -0.223 OA
HETATM   21  O8  UNL     1      -2.234   7.341  15.787  1.00  0.00    -0.219 OA
ENDROOT
BRANCH  15  22
HETATM   22  O1  UNL     1       1.676   8.905  12.154  1.00  0.00    -0.353 OA
BRANCH  22  23
HETATM   23  C25 UNL     1       3.084   9.068  11.925  1.00  0.00     0.292 C 
HETATM   24  O2  UNL     1       3.742   7.807  11.870  1.00  0.00    -0.348 OA
HETATM   25  C26 UNL     1       5.087   7.941  11.364  1.00  0.00     0.179 C 
HETATM   26  C28 UNL     1       5.801   9.212  11.897  1.00  0.00     0.180 C 
HETATM   27  C29 UNL     1       5.183   9.696  13.222  1.00  0.00     0.183 C 
HETATM   28  C30 UNL     1       3.649   9.845  13.134  1.00  0.00     0.204 C 
BRANCH  25  29
HETATM   29  C27 UNL     1       5.837   6.649  11.710  1.00  0.00     0.198 C 
BRANCH  29  30
HETATM   30  O3  UNL     1       5.563   5.624  10.761  1.00  0.00    -0.398 OA
HETATM   31  H39 UNL     1       5.548   4.782  11.255  1.00  0.00     0.209 HD
ENDBRANCH  29  30
ENDBRANCH  25  29
BRANCH  26  32
HETATM   32  O4  UNL     1       5.646  10.253  10.912  1.00  0.00    -0.390 OA
HETATM   33  H41 UNL     1       6.156  11.024  11.223  1.00  0.00     0.210 HD
ENDBRANCH  26  32
BRANCH  27  34
HETATM   34  O5  UNL     1       5.547   8.800  14.284  1.00  0.00    -0.390 OA
HETATM   35  H43 UNL     1       4.960   8.022  14.249  1.00  0.00     0.210 HD
ENDBRANCH  27  34
BRANCH  28  36
HETATM   36  O6  UNL     1       3.270  11.227  13.050  1.00  0.00    -0.388 OA
HETATM   37  H45 UNL     1       2.295  11.229  13.014  1.00  0.00     0.210 HD
ENDBRANCH  28  36
ENDBRANCH  22  23
ENDBRANCH  15  22
BRANCH   1  38
HETATM   38  C8  UNL     1      -8.198   6.178  14.481  1.00  0.00     0.008 C 
HETATM   39  C9  UNL     1      -8.111   6.282  12.952  1.00  0.00     0.014 C 
BRANCH  38  40
HETATM   40  C7  UNL     1      -9.337   7.066  14.931  1.00  0.00    -0.026 C 
HETATM   41  C6  UNL     1      -9.551   8.311  14.467  1.00  0.00    -0.026 C 
BRANCH  41  42
HETATM   42  C4  UNL     1     -10.635   9.296  14.878  1.00  0.00     0.007 C 
HETATM   43  C5  UNL     1     -10.870   9.155  16.388  1.00  0.00     0.014 C 
BRANCH  42  44
HETATM   44  C2  UNL     1     -11.959   9.247  14.053  1.00  0.00    -0.015 C 
HETATM   45  C1  UNL     1     -11.711   8.715  12.633  1.00  0.00     0.010 C 
HETATM   46  C3  UNL     1     -12.693  10.593  13.966  1.00  0.00     0.010 C 
ENDBRANCH  42  44
ENDBRANCH  41  42
ENDBRANCH  38  40
ENDBRANCH   1  38
TORSDOF 11
ENDMDL
MODEL 9
REMARK minimizedAffinity -9.46558189
REMARK CNNscore 0.201987207
REMARK CNNaffinity 6.38216352
REMARK  11 active torsions:
REMARK  status: ('A' for Active; 'I' for Inactive)
REMARK    1  A    between atoms: C2_2  and  C4_4 
REMARK    2  A    between atoms: C4_4  and  C6_6 
REMARK    3  A    between atoms: C7_7  and  C8_8 
REMARK    4  A    between atoms: C8_8  and  C10_10 
REMARK    5  A    between atoms: C24_24  and  O1_25 
REMARK    6  A    between atoms: O1_25  and  C25_26 
REMARK    7  A    between atoms: C26_28  and  C27_29 
REMARK    8  A    between atoms: C27_29  and  O3_30 
REMARK    9  A    between atoms: C28_31  and  O4_32 
REMARK   10  A    between atoms: C29_33  and  O5_34 
REMARK   11  A    between atoms: C30_35  and  O6_36 
ROOT
HETATM    1  C10 UNL     1      -4.819   8.217  14.246  1.00  0.00     0.002 C 
HETATM    2  C11 UNL     1      -5.003   9.397  15.235  1.00  0.00     0.006 C 
HETATM    3  C12 UNL     1      -3.592   9.933  15.541  1.00  0.00     0.009 C 
HETATM    4  C13 UNL     1      -2.684   9.162  14.588  1.00  0.00     0.041 C 
HETATM    5  C14 UNL     1      -3.345   7.767  14.461  1.00  0.00    -0.029 C 
HETATM    6  C15 UNL     1      -3.170   6.877  15.706  1.00  0.00     0.016 C 
HETATM    7  C16 UNL     1      -2.710   7.064  13.236  1.00  0.00     0.037 C 
HETATM    8  C17 UNL     1      -1.202   7.199  13.199  1.00  0.00    -0.019 C 
HETATM    9  C18 UNL     1      -0.503   8.108  13.915  1.00  0.00    -0.030 C 
HETATM   10  C19 UNL     1      -1.171   9.151  14.833  1.00  0.00     0.142 C 
HETATM   11  C20 UNL     1      -0.680   8.950  16.251  1.00  0.00     0.018 C 
HETATM   12  C21 UNL     1       0.656   9.015  16.379  1.00  0.00     0.014 C 
HETATM   13  C22 UNL     1       1.362   9.301  15.065  1.00  0.00     0.127 C 
HETATM   14  C23 UNL     1       2.868   9.537  15.237  1.00  0.00     0.078 C 
HETATM   15  C24 UNL     1       3.640   9.596  13.900  1.00  0.00     0.128 C 
HETATM   16  C31 UNL     1       2.726   9.701  12.675  1.00  0.00     0.033 C 
HETATM   17  C32 UNL     1       1.633   8.623  12.603  1.00  0.00     0.020 C 
HETATM   18  C33 UNL     1       1.037   8.212  13.977  1.00  0.00     0.021 C 
HETATM   19  C34 UNL     1       1.596   6.830  14.395  1.00  0.00     0.024 C 
HETATM   20  O7  UNL     1       0.797  10.572  14.627  1.00  0.00    -0.223 OA
HETATM   21  O8  UNL     1      -0.678  10.446  14.401  1.00  0.00    -0.219 OA
ENDROOT
BRANCH  15  22
HETATM   22  O1  UNL     1       4.476   8.429  13.849  1.00  0.00    -0.353 OA
BRANCH  22  23
HETATM   23  C25 UNL     1       5.689   8.536  14.611  1.00  0.00     0.292 C 
HETATM   24  O2  UNL     1       6.251   9.839  14.494  1.00  0.00    -0.348 OA
HETATM   25  C26 UNL     1       7.297  10.044  15.467  1.00  0.00     0.179 C 
HETATM   26  C28 UNL     1       8.185   8.786  15.664  1.00  0.00     0.180 C 
HETATM   27  C29 UNL     1       8.137   7.860  14.434  1.00  0.00     0.183 C 
HETATM   28  C30 UNL     1       6.691   7.531  14.004  1.00  0.00     0.204 C 
BRANCH  25  29
HETATM   29  C27 UNL     1       8.099  11.273  15.023  1.00  0.00     0.198 C 
BRANCH  29  30
HETATM   30  O3  UNL     1       9.374  11.312  15.656  1.00  0.00    -0.398 OA
HETATM   31  H39 UNL     1       9.578  12.254  15.817  1.00  0.00     0.209 HD
ENDBRANCH  29  30
ENDBRANCH  25  29
BRANCH  26  32
HETATM   32  O4  UNL     1       7.680   8.061  16.803  1.00  0.00    -0.390 OA
HETATM   33  H41 UNL     1       8.284   7.313  16.960  1.00  0.00     0.210 HD
ENDBRANCH  26  32
BRANCH  27  34
HETATM   34  O5  UNL     1       8.868   8.455  13.349  1.00  0.00    -0.390 OA
HETATM   35  H43 UNL     1       8.299   9.120  12.920  1.00  0.00     0.210 HD
ENDBRANCH  27  34
BRANCH  28  36
HETATM   36  O6  UNL     1       6.334   6.193  14.382  1.00  0.00    -0.388 OA
HETATM   37  H45 UNL     1       5.421   6.065  14.061  1.00  0.00     0.210 HD
ENDBRANCH  28  36
ENDBRANCH  22  23
ENDBRANCH  15  22
BRANCH   1  38
HETATM   38  C8  UNL     1      -5.943   7.149  14.228  1.00  0.00     0.008 C 
HETATM   39  C9  UNL     1      -6.734   7.209  15.543  1.00  0.00     0.014 C 
BRANCH  38  40
HETATM   40  C7  UNL     1      -5.511   5.713  14.027  1.00  0.00    -0.026 C 
HETATM   41  C6  UNL     1      -5.390   5.123  12.823  1.00  0.00    -0.026 C 
BRANCH  41  42
HETATM   42  C4  UNL     1      -5.004   3.685  12.513  1.00  0.00     0.007 C 
HETATM   43  C5  UNL     1      -4.212   3.670  11.198  1.00  0.00     0.014 C 
BRANCH  42  44
HETATM   44  C2  UNL     1      -6.164   2.641  12.531  1.00  0.00    -0.015 C 
HETATM   45  C1  UNL     1      -6.045   1.656  11.356  1.00  0.00     0.010 C 
HETATM   46  C3  UNL     1      -7.568   3.264  12.526  1.00  0.00     0.010 C 
ENDBRANCH  42  44
ENDBRANCH  41  42
ENDBRANCH  38  40
ENDBRANCH   1  38
TORSDOF 11
ENDMDL
