MODEL 1
REMARK minimizedAffinity -10.0537014
REMARK  7 active torsions:
REMARK  status: ('A' for Active; 'I' for Inactive)
REMARK    1  A    between atoms: C2_2  and  C30_33 
REMARK    2  A    between atoms: C3_3  and  C4_4 
REMARK    3  A    between atoms: C4_4  and  C5_5 
REMARK    4  A    between atoms: C5_5  and  C6_6 
REMARK    5  A    between atoms: C6_6  and  C8_8 
REMARK    6  A    between atoms: C15_15  and  O1_16 
REMARK    7  A    between atoms: C30_33  and  O5_35 
ROOT
HETATM    1  C8  UNL     1      -0.643  50.275 -21.795  1.00  0.00    -0.002 C 
HETATM    2  C9  UNL     1      -0.742  49.787 -20.326  1.00  0.00     0.007 C 
HETATM    3  C10 UNL     1      -2.059  49.006 -20.176  1.00  0.00     0.015 C 
HETATM    4  C11 UNL     1      -2.537  48.737 -21.613  1.00  0.00    -0.005 C 
HETATM    5  C12 UNL     1      -1.782  47.467 -22.113  1.00  0.00     0.021 C 
HETATM    6  C13 UNL     1      -4.011  48.456 -21.890  1.00  0.00     0.002 C 
HETATM    7  C14 UNL     1      -4.583  48.774 -23.084  1.00  0.00    -0.032 C 
HETATM    8  C15 UNL     1      -3.728  49.440 -24.182  1.00  0.00     0.149 C 
HETATM    9  C16 UNL     1      -2.295  49.900 -23.816  1.00  0.00     0.047 C 
HETATM   10  C17 UNL     1      -2.113  50.092 -22.301  1.00  0.00    -0.026 C 
HETATM   11  C18 UNL     1      -2.967  51.309 -21.822  1.00  0.00     0.016 C 
HETATM   12  C19 UNL     1      -6.068  48.427 -23.430  1.00  0.00    -0.012 C 
HETATM   13  C20 UNL     1      -6.923  49.707 -23.256  1.00  0.00     0.021 C 
HETATM   14  C21 UNL     1      -6.179  47.914 -24.894  1.00  0.00     0.021 C 
HETATM   15  C22 UNL     1      -7.412  47.085 -25.241  1.00  0.00     0.080 C 
HETATM   16  C23 UNL     1      -8.488  47.108 -24.189  1.00  0.00     0.135 C 
HETATM   17  O2  UNL     1      -9.669  47.245 -24.517  1.00  0.00    -0.297 OA
HETATM   18  C24 UNL     1      -8.071  46.832 -22.739  1.00  0.00     0.018 C 
HETATM   19  C25 UNL     1      -8.195  45.307 -22.529  1.00  0.00     0.023 C 
HETATM   20  C26 UNL     1      -9.083  47.514 -21.792  1.00  0.00     0.023 C 
HETATM   21  C27 UNL     1      -6.581  47.267 -22.507  1.00  0.00     0.020 C 
HETATM   22  C28 UNL     1      -6.276  47.562 -21.039  1.00  0.00     0.090 C 
HETATM   23  C29 UNL     1      -4.801  47.753 -20.829  1.00  0.00     0.157 C 
HETATM   24  O3  UNL     1      -4.275  47.362 -19.790  1.00  0.00    -0.293 OA
ENDROOT
BRANCH   1  25
HETATM   25  C6  UNL     1       0.051  51.670 -21.923  1.00  0.00    -0.014 C 
HETATM   26  C7  UNL     1      -0.343  52.609 -20.774  1.00  0.00     0.010 C 
BRANCH  25  27
HETATM   27  C5  UNL     1      -0.296  52.404 -23.253  1.00  0.00     0.008 C 
BRANCH  27  28
HETATM   28  C4  UNL     1       0.814  52.548 -24.307  1.00  0.00     0.028 C 
BRANCH  28  29
HETATM   29  C3  UNL     1       0.370  52.387 -25.736  1.00  0.00    -0.013 C 
HETATM   30  C2  UNL     1       1.060  51.886 -26.782  1.00  0.00     0.008 C 
HETATM   31  C1  UNL     1       0.445  51.763 -28.145  1.00  0.00     0.055 C 
BRANCH  30  32
HETATM   32  C30 UNL     1       2.471  51.455 -26.645  1.00  0.00     0.171 C 
HETATM   33  O4  UNL     1       2.908  50.573 -25.929  1.00  0.00    -0.646 OA
BRANCH  32  34
HETATM   34  O5  UNL     1       3.283  52.187 -27.426  1.00  0.00    -0.773 OA
HETATM   35  H44 UNL     1       4.169  51.808 -27.249  1.00  0.00     0.167 HD
ENDBRANCH  32  34
ENDBRANCH  30  32
ENDBRANCH  28  29
ENDBRANCH  27  28
ENDBRANCH  25  27
ENDBRANCH   1  25
BRANCH   8  36
HETATM   36  O1  UNL     1      -4.419  50.567 -24.713  1.00  0.00    -0.391 OA
HETATM   37  H22 UNL     1      -4.395  51.274 -24.048  1.00  0.00     0.210 HD
ENDBRANCH   8  36
TORSDOF 7
ENDMDL
MODEL 2
REMARK minimizedAffinity -9.70955944
REMARK  7 active torsions:
REMARK  status: ('A' for Active; 'I' for Inactive)
REMARK    1  A    between atoms: C2_2  and  C30_33 
REMARK    2  A    between atoms: C3_3  and  C4_4 
REMARK    3  A    between atoms: C4_4  and  C5_5 
REMARK    4  A    between atoms: C5_5  and  C6_6 
REMARK    5  A    between atoms: C6_6  and  C8_8 
REMARK    6  A    between atoms: C15_15  and  O1_16 
REMARK    7  A    between atoms: C30_33  and  O5_35 
ROOT
HETATM    1  C8  UNL     1      -0.740  50.288 -21.936  1.00  0.00    -0.002 C 
HETATM    2  C9  UNL     1      -0.760  49.814 -20.460  1.00  0.00     0.007 C 
HETATM    3  C10 UNL     1      -2.063  49.029 -20.232  1.00  0.00     0.015 C 
HETATM    4  C11 UNL     1      -2.614  48.741 -21.639  1.00  0.00    -0.005 C 
HETATM    5  C12 UNL     1      -1.878  47.471 -22.166  1.00  0.00     0.021 C 
HETATM    6  C13 UNL     1      -4.099  48.449 -21.837  1.00  0.00     0.002 C 
HETATM    7  C14 UNL     1      -4.734  48.752 -23.002  1.00  0.00    -0.032 C 
HETATM    8  C15 UNL     1      -3.941  49.411 -24.150  1.00  0.00     0.149 C 
HETATM    9  C16 UNL     1      -2.493  49.883 -23.864  1.00  0.00     0.047 C 
HETATM   10  C17 UNL     1      -2.234  50.091 -22.363  1.00  0.00    -0.026 C 
HETATM   11  C18 UNL     1      -3.069  51.308 -21.853  1.00  0.00     0.016 C 
HETATM   12  C19 UNL     1      -6.233  48.394 -23.267  1.00  0.00    -0.012 C 
HETATM   13  C20 UNL     1      -7.085  49.671 -23.062  1.00  0.00     0.021 C 
HETATM   14  C21 UNL     1      -6.417  47.864 -24.717  1.00  0.00     0.021 C 
HETATM   15  C22 UNL     1      -7.661  47.025 -24.991  1.00  0.00     0.080 C 
HETATM   16  C23 UNL     1      -8.681  47.054 -23.885  1.00  0.00     0.135 C 
HETATM   17  O2  UNL     1      -9.878  47.181 -24.152  1.00  0.00    -0.297 OA
HETATM   18  C24 UNL     1      -8.188  46.795 -22.456  1.00  0.00     0.018 C 
HETATM   19  C25 UNL     1      -8.291  45.272 -22.224  1.00  0.00     0.023 C 
HETATM   20  C26 UNL     1      -9.153  47.482 -21.464  1.00  0.00     0.023 C 
HETATM   21  C27 UNL     1      -6.690  47.241 -22.306  1.00  0.00     0.020 C 
HETATM   22  C28 UNL     1      -6.310  47.553 -20.860  1.00  0.00     0.090 C 
HETATM   23  C29 UNL     1      -4.828  47.754 -20.729  1.00  0.00     0.157 C 
HETATM   24  O3  UNL     1      -4.246  47.377 -19.714  1.00  0.00    -0.293 OA
ENDROOT
BRANCH   1  25
HETATM   25  C6  UNL     1      -0.063  51.684 -22.115  1.00  0.00    -0.014 C 
HETATM   26  C7  UNL     1      -0.294  52.590 -20.896  1.00  0.00     0.010 C 
BRANCH  25  27
HETATM   27  C5  UNL     1      -0.580  52.458 -23.364  1.00  0.00     0.008 C 
BRANCH  27  28
HETATM   28  C4  UNL     1       0.455  53.176 -24.246  1.00  0.00     0.028 C 
BRANCH  28  29
HETATM   29  C3  UNL     1       0.909  52.409 -25.459  1.00  0.00    -0.013 C 
HETATM   30  C2  UNL     1       0.602  52.622 -26.756  1.00  0.00     0.008 C 
HETATM   31  C1  UNL     1       1.179  51.775 -27.851  1.00  0.00     0.055 C 
BRANCH  30  32
HETATM   32  C30 UNL     1      -0.342  53.689 -27.164  1.00  0.00     0.171 C 
HETATM   33  O4  UNL     1      -1.439  53.550 -27.672  1.00  0.00    -0.646 OA
BRANCH  32  34
HETATM   34  O5  UNL     1       0.164  54.910 -26.917  1.00  0.00    -0.773 OA
HETATM   35  H44 UNL     1      -0.544  55.514 -27.223  1.00  0.00     0.167 HD
ENDBRANCH  32  34
ENDBRANCH  30  32
ENDBRANCH  28  29
ENDBRANCH  27  28
ENDBRANCH  25  27
ENDBRANCH   1  25
BRANCH   8  36
HETATM   36  O1  UNL     1      -4.665  50.529 -24.655  1.00  0.00    -0.391 OA
HETATM   37  H22 UNL     1      -4.611  51.243 -24.000  1.00  0.00     0.210 HD
ENDBRANCH   8  36
TORSDOF 7
ENDMDL
MODEL 3
REMARK minimizedAffinity -9.49824238
REMARK  7 active torsions:
REMARK  status: ('A' for Active; 'I' for Inactive)
REMARK    1  A    between atoms: C2_2  and  C30_33 
REMARK    2  A    between atoms: C3_3  and  C4_4 
REMARK    3  A    between atoms: C4_4  and  C5_5 
REMARK    4  A    between atoms: C5_5  and  C6_6 
REMARK    5  A    between atoms: C6_6  and  C8_8 
REMARK    6  A    between atoms: C15_15  and  O1_16 
REMARK    7  A    between atoms: C30_33  and  O5_35 
ROOT
HETATM    1  C8  UNL     1      -1.174  51.023 -23.078  1.00  0.00    -0.002 C 
HETATM    2  C9  UNL     1      -0.551  52.442 -23.138  1.00  0.00     0.007 C 
HETATM    3  C10 UNL     1       0.039  52.758 -21.753  1.00  0.00     0.015 C 
HETATM    4  C11 UNL     1       0.081  51.410 -21.013  1.00  0.00    -0.005 C 
HETATM    5  C12 UNL     1       1.386  50.684 -21.461  1.00  0.00     0.021 C 
HETATM    6  C13 UNL     1       0.112  51.374 -19.488  1.00  0.00     0.002 C 
HETATM    7  C14 UNL     1      -0.412  50.328 -18.791  1.00  0.00    -0.032 C 
HETATM    8  C15 UNL     1      -1.059  49.154 -19.555  1.00  0.00     0.149 C 
HETATM    9  C16 UNL     1      -1.263  49.300 -21.084  1.00  0.00     0.047 C 
HETATM   10  C17 UNL     1      -1.263  50.769 -21.536  1.00  0.00    -0.026 C 
HETATM   11  C18 UNL     1      -2.533  51.487 -20.978  1.00  0.00     0.016 C 
HETATM   12  C19 UNL     1      -0.326  50.222 -17.233  1.00  0.00    -0.012 C 
HETATM   13  C20 UNL     1      -1.691  50.645 -16.636  1.00  0.00     0.021 C 
HETATM   14  C21 UNL     1       0.007  48.763 -16.807  1.00  0.00     0.021 C 
HETATM   15  C22 UNL     1       0.605  48.572 -15.416  1.00  0.00     0.080 C 
HETATM   16  C23 UNL     1       0.537  49.795 -14.541  1.00  0.00     0.135 C 
HETATM   17  O2  UNL     1       0.194  49.691 -13.361  1.00  0.00    -0.297 OA
HETATM   18  C24 UNL     1       1.025  51.122 -15.135  1.00  0.00     0.018 C 
HETATM   19  C25 UNL     1       2.529  51.227 -14.801  1.00  0.00     0.023 C 
HETATM   20  C26 UNL     1       0.307  52.284 -14.413  1.00  0.00     0.023 C 
HETATM   21  C27 UNL     1       0.839  51.124 -16.694  1.00  0.00     0.020 C 
HETATM   22  C28 UNL     1       0.750  52.534 -17.275  1.00  0.00     0.090 C 
HETATM   23  C29 UNL     1       0.800  52.497 -18.775  1.00  0.00     0.157 C 
HETATM   24  O3  UNL     1       1.373  53.393 -19.391  1.00  0.00    -0.293 OA
ENDROOT
BRANCH   1  25
HETATM   25  C6  UNL     1      -2.458  50.888 -23.959  1.00  0.00    -0.014 C 
HETATM   26  C7  UNL     1      -2.815  49.417 -24.222  1.00  0.00     0.010 C 
BRANCH  25  27
HETATM   27  C5  UNL     1      -2.321  51.581 -25.347  1.00  0.00     0.008 C 
BRANCH  27  28
HETATM   28  C4  UNL     1      -1.638  50.798 -26.479  1.00  0.00     0.028 C 
BRANCH  28  29
HETATM   29  C3  UNL     1      -0.137  50.726 -26.397  1.00  0.00    -0.013 C 
HETATM   30  C2  UNL     1       0.771  51.682 -26.687  1.00  0.00     0.008 C 
HETATM   31  C1  UNL     1       2.243  51.450 -26.511  1.00  0.00     0.055 C 
BRANCH  30  32
HETATM   32  C30 UNL     1       0.362  53.004 -27.218  1.00  0.00     0.171 C 
HETATM   33  O4  UNL     1       0.316  54.060 -26.615  1.00  0.00    -0.646 OA
BRANCH  32  34
HETATM   34  O5  UNL     1       0.008  52.922 -28.512  1.00  0.00    -0.773 OA
HETATM   35  H44 UNL     1      -0.233  53.844 -28.739  1.00  0.00     0.167 HD
ENDBRANCH  32  34
ENDBRANCH  30  32
ENDBRANCH  28  29
ENDBRANCH  27  28
ENDBRANCH  25  27
ENDBRANCH   1  25
BRANCH   8  36
HETATM   36  O1  UNL     1      -2.326  48.846 -18.980  1.00  0.00    -0.391 OA
HETATM   37  H22 UNL     1      -2.946  49.551 -19.225  1.00  0.00     0.210 HD
ENDBRANCH   8  36
TORSDOF 7
ENDMDL
MODEL 4
REMARK minimizedAffinity -9.49382114
REMARK  7 active torsions:
REMARK  status: ('A' for Active; 'I' for Inactive)
REMARK    1  A    between atoms: C2_2  and  C30_33 
REMARK    2  A    between atoms: C3_3  and  C4_4 
REMARK    3  A    between atoms: C4_4  and  C5_5 
REMARK    4  A    between atoms: C5_5  and  C6_6 
REMARK    5  A    between atoms: C6_6  and  C8_8 
REMARK    6  A    between atoms: C15_15  and  O1_16 
REMARK    7  A    between atoms: C30_33  and  O5_35 
ROOT
HETATM    1  C8  UNL     1      -4.296  49.736 -25.385  1.00  0.00    -0.002 C 
HETATM    2  C9  UNL     1      -5.290  48.700 -24.801  1.00  0.00     0.007 C 
HETATM    3  C10 UNL     1      -5.050  48.618 -23.283  1.00  0.00     0.015 C 
HETATM    4  C11 UNL     1      -4.188  49.845 -22.942  1.00  0.00    -0.005 C 
HETATM    5  C12 UNL     1      -5.159  51.053 -22.776  1.00  0.00     0.021 C 
HETATM    6  C13 UNL     1      -3.329  49.852 -21.681  1.00  0.00     0.002 C 
HETATM    7  C14 UNL     1      -2.176  50.573 -21.610  1.00  0.00    -0.032 C 
HETATM    8  C15 UNL     1      -1.719  51.397 -22.832  1.00  0.00     0.149 C 
HETATM    9  C16 UNL     1      -2.490  51.221 -24.164  1.00  0.00     0.047 C 
HETATM   10  C17 UNL     1      -3.262  49.892 -24.220  1.00  0.00    -0.026 C 
HETATM   11  C18 UNL     1      -2.251  48.703 -24.280  1.00  0.00     0.016 C 
HETATM   12  C19 UNL     1      -1.315  50.665 -20.308  1.00  0.00    -0.012 C 
HETATM   13  C20 UNL     1      -0.108  49.705 -20.449  1.00  0.00     0.021 C 
HETATM   14  C21 UNL     1      -0.808  52.120 -20.095  1.00  0.00     0.021 C 
HETATM   15  C22 UNL     1      -0.393  52.504 -18.678  1.00  0.00     0.080 C 
HETATM   16  C23 UNL     1      -0.272  51.339 -17.733  1.00  0.00     0.135 C 
HETATM   17  O2  UNL     1       0.692  51.262 -16.967  1.00  0.00    -0.297 OA
HETATM   18  C24 UNL     1      -1.438  50.344 -17.678  1.00  0.00     0.018 C 
HETATM   19  C25 UNL     1      -2.402  50.856 -16.586  1.00  0.00     0.023 C 
HETATM   20  C26 UNL     1      -0.899  48.972 -17.215  1.00  0.00     0.023 C 
HETATM   21  C27 UNL     1      -2.188  50.306 -19.056  1.00  0.00     0.020 C 
HETATM   22  C28 UNL     1      -2.948  48.999 -19.278  1.00  0.00     0.090 C 
HETATM   23  C29 UNL     1      -3.827  49.092 -20.491  1.00  0.00     0.157 C 
HETATM   24  O3  UNL     1      -4.918  48.525 -20.502  1.00  0.00    -0.293 OA
ENDROOT
BRANCH   1  25
HETATM   25  C6  UNL     1      -3.797  49.357 -26.816  1.00  0.00    -0.014 C 
HETATM   26  C7  UNL     1      -2.579  48.422 -26.765  1.00  0.00     0.010 C 
BRANCH  25  27
HETATM   27  C5  UNL     1      -3.388  50.595 -27.669  1.00  0.00     0.008 C 
BRANCH  27  28
HETATM   28  C4  UNL     1      -2.330  51.549 -27.092  1.00  0.00     0.028 C 
BRANCH  28  29
HETATM   29  C3  UNL     1      -0.927  51.336 -27.596  1.00  0.00    -0.013 C 
HETATM   30  C2  UNL     1       0.111  52.197 -27.589  1.00  0.00     0.008 C 
HETATM   31  C1  UNL     1       1.464  51.804 -28.104  1.00  0.00     0.055 C 
BRANCH  30  32
HETATM   32  C30 UNL     1      -0.037  53.587 -27.096  1.00  0.00     0.171 C 
HETATM   33  O4  UNL     1      -0.554  54.525 -27.674  1.00  0.00    -0.646 OA
BRANCH  32  34
HETATM   34  O5  UNL     1       0.501  53.731 -25.873  1.00  0.00    -0.773 OA
HETATM   35  H44 UNL     1       0.338  54.674 -25.664  1.00  0.00     0.167 HD
ENDBRANCH  32  34
ENDBRANCH  30  32
ENDBRANCH  28  29
ENDBRANCH  27  28
ENDBRANCH  25  27
ENDBRANCH   1  25
BRANCH   8  36
HETATM   36  O1  UNL     1      -0.342  51.145 -23.096  1.00  0.00    -0.391 OA
HETATM   37  H22 UNL     1      -0.267  50.254 -23.474  1.00  0.00     0.210 HD
ENDBRANCH   8  36
TORSDOF 7
ENDMDL
MODEL 5
REMARK minimizedAffinity -9.36915207
REMARK  7 active torsions:
REMARK  status: ('A' for Active; 'I' for Inactive)
REMARK    1  A    between atoms: C2_2  and  C30_33 
REMARK    2  A    between atoms: C3_3  and  C4_4 
REMARK    3  A    between atoms: C4_4  and  C5_5 
REMARK    4  A    between atoms: C5_5  and  C6_6 
REMARK    5  A    between atoms: C6_6  and  C8_8 
REMARK    6  A    between atoms: C15_15  and  O1_16 
REMARK    7  A    between atoms: C30_33  and  O5_35 
ROOT
HETATM    1  C8  UNL     1      -2.259  50.402 -22.132  1.00  0.00    -0.002 C 
HETATM    2  C9  UNL     1      -1.770  51.852 -22.384  1.00  0.00     0.007 C 
HETATM    3  C10 UNL     1      -0.944  52.291 -21.163  1.00  0.00     0.015 C 
HETATM    4  C11 UNL     1      -0.654  50.997 -20.383  1.00  0.00    -0.005 C 
HETATM    5  C12 UNL     1       0.588  50.332 -21.050  1.00  0.00     0.021 C 
HETATM    6  C13 UNL     1      -0.320  51.058 -18.895  1.00  0.00     0.002 C 
HETATM    7  C14 UNL     1      -0.616  50.025 -18.058  1.00  0.00    -0.032 C 
HETATM    8  C15 UNL     1      -1.310  48.767 -18.619  1.00  0.00     0.149 C 
HETATM    9  C16 UNL     1      -1.822  48.803 -20.081  1.00  0.00     0.047 C 
HETATM   10  C17 UNL     1      -2.022  50.239 -20.593  1.00  0.00    -0.026 C 
HETATM   11  C18 UNL     1      -3.209  50.906 -19.827  1.00  0.00     0.016 C 
HETATM   12  C19 UNL     1      -0.216  50.021 -16.546  1.00  0.00    -0.012 C 
HETATM   13  C20 UNL     1      -1.465  50.391 -15.708  1.00  0.00     0.021 C 
HETATM   14  C21 UNL     1       0.305  48.617 -16.126  1.00  0.00     0.021 C 
HETATM   15  C22 UNL     1       1.178  48.552 -14.877  1.00  0.00     0.080 C 
HETATM   16  C23 UNL     1       1.191  49.819 -14.066  1.00  0.00     0.135 C 
HETATM   17  O2  UNL     1       1.096  49.767 -12.837  1.00  0.00    -0.297 OA
HETATM   18  C24 UNL     1       1.449  51.136 -14.808  1.00  0.00     0.018 C 
HETATM   19  C25 UNL     1       2.977  51.360 -14.789  1.00  0.00     0.023 C 
HETATM   20  C26 UNL     1       0.801  52.291 -14.013  1.00  0.00     0.023 C 
HETATM   21  C27 UNL     1       0.960  51.029 -16.296  1.00  0.00     0.020 C 
HETATM   22  C28 UNL     1       0.651  52.392 -16.914  1.00  0.00     0.090 C 
HETATM   23  C29 UNL     1       0.407  52.265 -18.390  1.00  0.00     0.157 C 
HETATM   24  O3  UNL     1       0.777  53.157 -19.151  1.00  0.00    -0.293 OA
ENDROOT
BRANCH   1  25
HETATM   25  C6  UNL     1      -3.677  50.129 -22.729  1.00  0.00    -0.014 C 
HETATM   26  C7  UNL     1      -4.141  48.690 -22.461  1.00  0.00     0.010 C 
BRANCH  25  27
HETATM   27  C5  UNL     1      -3.744  50.352 -24.270  1.00  0.00     0.008 C 
BRANCH  27  28
HETATM   28  C4  UNL     1      -2.957  49.389 -25.172  1.00  0.00     0.028 C 
BRANCH  28  29
HETATM   29  C3  UNL     1      -3.776  48.651 -26.197  1.00  0.00    -0.013 C 
HETATM   30  C2  UNL     1      -3.996  48.970 -27.490  1.00  0.00     0.008 C 
HETATM   31  C1  UNL     1      -4.817  48.093 -28.388  1.00  0.00     0.055 C 
BRANCH  30  32
HETATM   32  C30 UNL     1      -3.459  50.217 -28.083  1.00  0.00     0.171 C 
HETATM   33  O4  UNL     1      -2.901  51.130 -27.502  1.00  0.00    -0.646 OA
BRANCH  32  34
HETATM   34  O5  UNL     1      -3.671  50.259 -29.409  1.00  0.00    -0.773 OA
HETATM   35  H44 UNL     1      -3.275  51.114 -29.675  1.00  0.00     0.167 HD
ENDBRANCH  32  34
ENDBRANCH  30  32
ENDBRANCH  28  29
ENDBRANCH  27  28
ENDBRANCH  25  27
ENDBRANCH   1  25
BRANCH   8  36
HETATM   36  O1  UNL     1      -2.411  48.413 -17.788  1.00  0.00    -0.391 OA
HETATM   37  H22 UNL     1      -3.119  49.060 -17.936  1.00  0.00     0.210 HD
ENDBRANCH   8  36
TORSDOF 7
ENDMDL
MODEL 6
REMARK minimizedAffinity -9.29590797
REMARK  7 active torsions:
REMARK  status: ('A' for Active; 'I' for Inactive)
REMARK    1  A    between atoms: C2_2  and  C30_33 
REMARK    2  A    between atoms: C3_3  and  C4_4 
REMARK    3  A    between atoms: C4_4  and  C5_5 
REMARK    4  A    between atoms: C5_5  and  C6_6 
REMARK    5  A    between atoms: C6_6  and  C8_8 
REMARK    6  A    between atoms: C15_15  and  O1_16 
REMARK    7  A    between atoms: C30_33  and  O5_35 
ROOT
HETATM    1  C8  UNL     1      -1.466  51.555 -23.119  1.00  0.00    -0.002 C 
HETATM    2  C9  UNL     1      -1.468  50.801 -24.474  1.00  0.00     0.007 C 
HETATM    3  C10 UNL     1      -2.678  49.851 -24.484  1.00  0.00     0.015 C 
HETATM    4  C11 UNL     1      -3.564  50.309 -23.313  1.00  0.00    -0.005 C 
HETATM    5  C12 UNL     1      -4.428  51.498 -23.833  1.00  0.00     0.021 C 
HETATM    6  C13 UNL     1      -4.561  49.342 -22.681  1.00  0.00     0.002 C 
HETATM    7  C14 UNL     1      -4.925  49.450 -21.374  1.00  0.00    -0.032 C 
HETATM    8  C15 UNL     1      -4.314  50.568 -20.505  1.00  0.00     0.149 C 
HETATM    9  C16 UNL     1      -3.159  51.411 -21.102  1.00  0.00     0.047 C 
HETATM   10  C17 UNL     1      -2.451  50.691 -22.261  1.00  0.00    -0.026 C 
HETATM   11  C18 UNL     1      -1.682  49.447 -21.712  1.00  0.00     0.016 C 
HETATM   12  C19 UNL     1      -6.003  48.526 -20.717  1.00  0.00    -0.012 C 
HETATM   13  C20 UNL     1      -5.276  47.431 -19.898  1.00  0.00     0.021 C 
HETATM   14  C21 UNL     1      -6.931  49.354 -19.784  1.00  0.00     0.021 C 
HETATM   15  C22 UNL     1      -8.295  48.753 -19.460  1.00  0.00     0.080 C 
HETATM   16  C23 UNL     1      -8.448  47.313 -19.868  1.00  0.00     0.135 C 
HETATM   17  O2  UNL     1      -8.977  46.506 -19.100  1.00  0.00    -0.297 OA
HETATM   18  C24 UNL     1      -8.041  46.931 -21.297  1.00  0.00     0.018 C 
HETATM   19  C25 UNL     1      -9.304  47.092 -22.171  1.00  0.00     0.023 C 
HETATM   20  C26 UNL     1      -7.647  45.438 -21.321  1.00  0.00     0.023 C 
HETATM   21  C27 UNL     1      -6.922  47.898 -21.822  1.00  0.00     0.020 C 
HETATM   22  C28 UNL     1      -6.085  47.278 -22.940  1.00  0.00     0.090 C 
HETATM   23  C29 UNL     1      -5.183  48.305 -23.564  1.00  0.00     0.157 C 
HETATM   24  O3  UNL     1      -4.948  48.261 -24.769  1.00  0.00    -0.293 OA
ENDROOT
BRANCH   1  25
HETATM   25  C6  UNL     1      -0.025  51.842 -22.587  1.00  0.00    -0.014 C 
HETATM   26  C7  UNL     1      -0.016  52.095 -21.073  1.00  0.00     0.010 C 
BRANCH  25  27
HETATM   27  C5  UNL     1       0.640  53.079 -23.262  1.00  0.00     0.008 C 
BRANCH  27  28
HETATM   28  C4  UNL     1       0.192  53.452 -24.684  1.00  0.00     0.028 C 
BRANCH  28  29
HETATM   29  C3  UNL     1       0.859  52.682 -25.792  1.00  0.00    -0.013 C 
HETATM   30  C2  UNL     1       0.525  52.624 -27.099  1.00  0.00     0.008 C 
HETATM   31  C1  UNL     1       1.330  51.827 -28.083  1.00  0.00     0.055 C 
BRANCH  30  32
HETATM   32  C30 UNL     1      -0.670  53.324 -27.625  1.00  0.00     0.171 C 
HETATM   33  O4  UNL     1      -0.831  54.525 -27.741  1.00  0.00    -0.646 OA
BRANCH  32  34
HETATM   34  O5  UNL     1      -1.632  52.453 -27.974  1.00  0.00    -0.773 OA
HETATM   35  H44 UNL     1      -2.352  53.031 -28.302  1.00  0.00     0.167 HD
ENDBRANCH  32  34
ENDBRANCH  30  32
ENDBRANCH  28  29
ENDBRANCH  27  28
ENDBRANCH  25  27
ENDBRANCH   1  25
BRANCH   8  36
HETATM   36  O1  UNL     1      -3.855  50.023 -19.271  1.00  0.00    -0.391 OA
HETATM   37  H22 UNL     1      -3.051  49.510 -19.451  1.00  0.00     0.210 HD
ENDBRANCH   8  36
TORSDOF 7
ENDMDL
MODEL 7
REMARK minimizedAffinity -9.29287815
REMARK  7 active torsions:
REMARK  status: ('A' for Active; 'I' for Inactive)
REMARK    1  A    between atoms: C2_2  and  C30_33 
REMARK    2  A    between atoms: C3_3  and  C4_4 
REMARK    3  A    between atoms: C4_4  and  C5_5 
REMARK    4  A    between atoms: C5_5  and  C6_6 
REMARK    5  A    between atoms: C6_6  and  C8_8 
REMARK    6  A    between atoms: C15_15  and  O1_16 
REMARK    7  A    between atoms: C30_33  and  O5_35 
ROOT
HETATM    1  C8  UNL     1      -1.250  50.340 -23.106  1.00  0.00    -0.002 C 
HETATM    2  C9  UNL     1      -0.893  50.548 -21.612  1.00  0.00     0.007 C 
HETATM    3  C10 UNL     1      -2.013  49.919 -20.766  1.00  0.00     0.015 C 
HETATM    4  C11 UNL     1      -2.818  49.045 -21.744  1.00  0.00    -0.005 C 
HETATM    5  C12 UNL     1      -2.068  47.683 -21.860  1.00  0.00     0.021 C 
HETATM    6  C13 UNL     1      -4.264  48.676 -21.430  1.00  0.00     0.002 C 
HETATM    7  C14 UNL     1      -5.168  48.438 -22.420  1.00  0.00    -0.032 C 
HETATM    8  C15 UNL     1      -4.727  48.550 -23.894  1.00  0.00     0.149 C 
HETATM    9  C16 UNL     1      -3.318  49.119 -24.196  1.00  0.00     0.047 C 
HETATM   10  C17 UNL     1      -2.766  49.957 -23.031  1.00  0.00    -0.026 C 
HETATM   11  C18 UNL     1      -3.609  51.264 -22.882  1.00  0.00     0.016 C 
HETATM   12  C19 UNL     1      -6.636  47.980 -22.134  1.00  0.00    -0.012 C 
HETATM   13  C20 UNL     1      -7.569  49.208 -22.273  1.00  0.00     0.021 C 
HETATM   14  C21 UNL     1      -7.065  46.874 -23.140  1.00  0.00     0.021 C 
HETATM   15  C22 UNL     1      -8.231  45.982 -22.726  1.00  0.00     0.080 C 
HETATM   16  C23 UNL     1      -8.983  46.469 -21.517  1.00  0.00     0.135 C 
HETATM   17  O2  UNL     1     -10.216  46.452 -21.508  1.00  0.00    -0.297 OA
HETATM   18  C24 UNL     1      -8.165  46.858 -20.279  1.00  0.00     0.018 C 
HETATM   19  C25 UNL     1      -8.034  45.582 -19.419  1.00  0.00     0.023 C 
HETATM   20  C26 UNL     1      -8.967  47.891 -19.457  1.00  0.00     0.023 C 
HETATM   21  C27 UNL     1      -6.734  47.346 -20.702  1.00  0.00     0.020 C 
HETATM   22  C28 UNL     1      -6.089  48.256 -19.657  1.00  0.00     0.090 C 
HETATM   23  C29 UNL     1      -4.649  48.515 -19.992  1.00  0.00     0.157 C 
HETATM   24  O3  UNL     1      -3.820  48.620 -19.090  1.00  0.00    -0.293 OA
ENDROOT
BRANCH   1  25
HETATM   25  C6  UNL     1      -0.797  51.533 -24.008  1.00  0.00    -0.014 C 
HETATM   26  C7  UNL     1      -0.084  52.623 -23.195  1.00  0.00     0.010 C 
BRANCH  25  27
HETATM   27  C5  UNL     1      -1.982  52.219 -24.752  1.00  0.00     0.008 C 
BRANCH  27  28
HETATM   28  C4  UNL     1      -2.273  51.785 -26.198  1.00  0.00     0.028 C 
BRANCH  28  29
HETATM   29  C3  UNL     1      -1.059  51.525 -27.049  1.00  0.00    -0.013 C 
HETATM   30  C2  UNL     1      -0.258  52.415 -27.669  1.00  0.00     0.008 C 
HETATM   31  C1  UNL     1       0.944  51.980 -28.455  1.00  0.00     0.055 C 
BRANCH  30  32
HETATM   32  C30 UNL     1      -0.537  53.870 -27.629  1.00  0.00     0.171 C 
HETATM   33  O4  UNL     1       0.064  54.720 -26.999  1.00  0.00    -0.646 OA
BRANCH  32  34
HETATM   34  O5  UNL     1      -1.597  54.185 -28.392  1.00  0.00    -0.773 OA
HETATM   35  H44 UNL     1      -1.674  55.156 -28.284  1.00  0.00     0.167 HD
ENDBRANCH  32  34
ENDBRANCH  30  32
ENDBRANCH  28  29
ENDBRANCH  27  28
ENDBRANCH  25  27
ENDBRANCH   1  25
BRANCH   8  36
HETATM   36  O1  UNL     1      -5.670  49.331 -24.621  1.00  0.00    -0.391 OA
HETATM   37  H22 UNL     1      -5.560  50.258 -24.356  1.00  0.00     0.210 HD
ENDBRANCH   8  36
TORSDOF 7
ENDMDL
MODEL 8
REMARK minimizedAffinity -9.28184891
REMARK  7 active torsions:
REMARK  status: ('A' for Active; 'I' for Inactive)
REMARK    1  A    between atoms: C2_2  and  C30_33 
REMARK    2  A    between atoms: C3_3  and  C4_4 
REMARK    3  A    between atoms: C4_4  and  C5_5 
REMARK    4  A    between atoms: C5_5  and  C6_6 
REMARK    5  A    between atoms: C6_6  and  C8_8 
REMARK    6  A    between atoms: C15_15  and  O1_16 
REMARK    7  A    between atoms: C30_33  and  O5_35 
ROOT
HETATM    1  C8  UNL     1       6.951  65.151 -35.644  1.00  0.00    -0.002 C 
HETATM    2  C9  UNL     1       7.871  65.486 -36.846  1.00  0.00     0.007 C 
HETATM    3  C10 UNL     1       7.038  66.270 -37.874  1.00  0.00     0.015 C 
HETATM    4  C11 UNL     1       5.765  66.697 -37.124  1.00  0.00    -0.005 C 
HETATM    5  C12 UNL     1       6.113  67.997 -36.337  1.00  0.00     0.021 C 
HETATM    6  C13 UNL     1       4.494  67.033 -37.900  1.00  0.00     0.002 C 
HETATM    7  C14 UNL     1       3.260  66.851 -37.355  1.00  0.00    -0.032 C 
HETATM    8  C15 UNL     1       3.136  66.286 -35.925  1.00  0.00     0.149 C 
HETATM    9  C16 UNL     1       4.420  65.764 -35.230  1.00  0.00     0.047 C 
HETATM   10  C17 UNL     1       5.527  65.413 -36.238  1.00  0.00    -0.026 C 
HETATM   11  C18 UNL     1       5.093  64.169 -37.077  1.00  0.00     0.016 C 
HETATM   12  C19 UNL     1       1.942  67.259 -38.091  1.00  0.00    -0.012 C 
HETATM   13  C20 UNL     1       1.304  65.984 -38.697  1.00  0.00     0.021 C 
HETATM   14  C21 UNL     1       0.948  67.924 -37.097  1.00  0.00     0.021 C 
HETATM   15  C22 UNL     1      -0.140  68.807 -37.698  1.00  0.00     0.080 C 
HETATM   16  C23 UNL     1      -0.271  68.694 -39.193  1.00  0.00     0.135 C 
HETATM   17  O2  UNL     1      -1.387  68.614 -39.712  1.00  0.00    -0.297 OA
HETATM   18  C24 UNL     1       1.010  68.811 -40.030  1.00  0.00     0.018 C 
HETATM   19  C25 UNL     1       1.178  70.308 -40.370  1.00  0.00     0.023 C 
HETATM   20  C26 UNL     1       0.805  68.053 -41.360  1.00  0.00     0.023 C 
HETATM   21  C27 UNL     1       2.250  68.326 -39.199  1.00  0.00     0.020 C 
HETATM   22  C28 UNL     1       3.411  67.874 -40.084  1.00  0.00     0.090 C 
HETATM   23  C29 UNL     1       4.645  67.635 -39.263  1.00  0.00     0.157 C 
HETATM   24  O3  UNL     1       5.751  67.906 -39.726  1.00  0.00    -0.293 OA
ENDROOT
BRANCH   1  25
HETATM   25  C6  UNL     1       7.277  63.765 -35.000  1.00  0.00    -0.014 C 
HETATM   26  C7  UNL     1       6.182  63.321 -34.018  1.00  0.00     0.010 C 
BRANCH  25  27
HETATM   27  C5  UNL     1       8.624  63.756 -34.217  1.00  0.00     0.008 C 
BRANCH  27  28
HETATM   28  C4  UNL     1       9.646  62.659 -34.554  1.00  0.00     0.028 C 
BRANCH  28  29
HETATM   29  C3  UNL     1       9.959  61.705 -33.432  1.00  0.00    -0.013 C 
HETATM   30  C2  UNL     1      10.607  61.949 -32.274  1.00  0.00     0.008 C 
HETATM   31  C1  UNL     1      10.803  60.880 -31.240  1.00  0.00     0.055 C 
BRANCH  30  32
HETATM   32  C30 UNL     1      11.183  63.281 -31.973  1.00  0.00     0.171 C 
HETATM   33  O4  UNL     1      12.352  63.551 -31.767  1.00  0.00    -0.646 OA
BRANCH  32  34
HETATM   34  O5  UNL     1      10.230  64.227 -31.931  1.00  0.00    -0.773 OA
HETATM   35  H44 UNL     1      10.731  65.045 -31.730  1.00  0.00     0.167 HD
ENDBRANCH  32  34
ENDBRANCH  30  32
ENDBRANCH  28  29
ENDBRANCH  27  28
ENDBRANCH  25  27
ENDBRANCH   1  25
BRANCH   8  36
HETATM   36  O1  UNL     1       2.178  65.234 -35.903  1.00  0.00    -0.391 OA
HETATM   37  H22 UNL     1       2.570  64.461 -36.341  1.00  0.00     0.210 HD
ENDBRANCH   8  36
TORSDOF 7
ENDMDL
MODEL 9
REMARK minimizedAffinity -9.26433945
REMARK  7 active torsions:
REMARK  status: ('A' for Active; 'I' for Inactive)
REMARK    1  A    between atoms: C2_2  and  C30_33 
REMARK    2  A    between atoms: C3_3  and  C4_4 
REMARK    3  A    between atoms: C4_4  and  C5_5 
REMARK    4  A    between atoms: C5_5  and  C6_6 
REMARK    5  A    between atoms: C6_6  and  C8_8 
REMARK    6  A    between atoms: C15_15  and  O1_16 
REMARK    7  A    between atoms: C30_33  and  O5_35 
ROOT
HETATM    1  C8  UNL     1      -5.700  49.257 -21.365  1.00  0.00    -0.002 C 
HETATM    2  C9  UNL     1      -4.739  49.473 -20.168  1.00  0.00     0.007 C 
HETATM    3  C10 UNL     1      -3.502  50.227 -20.685  1.00  0.00     0.015 C 
HETATM    4  C11 UNL     1      -3.901  50.757 -22.073  1.00  0.00    -0.005 C 
HETATM    5  C12 UNL     1      -4.682  52.088 -21.846  1.00  0.00     0.021 C 
HETATM    6  C13 UNL     1      -2.827  51.098 -23.102  1.00  0.00     0.002 C 
HETATM    7  C14 UNL     1      -3.068  51.007 -24.439  1.00  0.00    -0.032 C 
HETATM    8  C15 UNL     1      -4.454  50.540 -24.931  1.00  0.00     0.149 C 
HETATM    9  C16 UNL     1      -5.462  50.007 -23.881  1.00  0.00     0.047 C 
HETATM   10  C17 UNL     1      -4.769  49.544 -22.590  1.00  0.00    -0.026 C 
HETATM   11  C18 UNL     1      -3.915  48.269 -22.883  1.00  0.00     0.016 C 
HETATM   12  C19 UNL     1      -2.017  51.425 -25.518  1.00  0.00    -0.012 C 
HETATM   13  C20 UNL     1      -1.341  50.143 -26.067  1.00  0.00     0.021 C 
HETATM   14  C21 UNL     1      -2.708  52.195 -26.679  1.00  0.00     0.021 C 
HETATM   15  C22 UNL     1      -1.819  53.086 -27.540  1.00  0.00     0.080 C 
HETATM   16  C23 UNL     1      -0.343  52.884 -27.319  1.00  0.00     0.135 C 
HETATM   17  O2  UNL     1       0.423  52.821 -28.283  1.00  0.00    -0.297 OA
HETATM   18  C24 UNL     1       0.166  52.891 -25.872  1.00  0.00     0.018 C 
HETATM   19  C25 UNL     1       0.532  54.354 -25.541  1.00  0.00     0.023 C 
HETATM   20  C26 UNL     1       1.466  52.059 -25.799  1.00  0.00     0.023 C 
HETATM   21  C27 UNL     1      -0.962  52.405 -24.895  1.00  0.00     0.020 C 
HETATM   22  C28 UNL     1      -0.407  51.847 -23.585  1.00  0.00     0.090 C 
HETATM   23  C29 UNL     1      -1.512  51.606 -22.597  1.00  0.00     0.157 C 
HETATM   24  O3  UNL     1      -1.314  51.798 -21.399  1.00  0.00    -0.293 OA
ENDROOT
BRANCH   1  25
HETATM   25  C6  UNL     1      -6.474  47.901 -21.282  1.00  0.00    -0.014 C 
HETATM   26  C7  UNL     1      -5.725  46.774 -22.009  1.00  0.00     0.010 C 
BRANCH  25  27
HETATM   27  C5  UNL     1      -7.902  47.975 -21.901  1.00  0.00     0.008 C 
BRANCH  27  28
HETATM   28  C4  UNL     1      -8.074  48.729 -23.228  1.00  0.00     0.028 C 
BRANCH  28  29
HETATM   29  C3  UNL     1      -7.785  47.926 -24.468  1.00  0.00    -0.013 C 
HETATM   30  C2  UNL     1      -8.420  47.954 -25.658  1.00  0.00     0.008 C 
HETATM   31  C1  UNL     1      -7.972  47.104 -26.810  1.00  0.00     0.055 C 
BRANCH  30  32
HETATM   32  C30 UNL     1      -9.611  48.807 -25.882  1.00  0.00     0.171 C 
HETATM   33  O4  UNL     1     -10.777  48.512 -25.697  1.00  0.00    -0.646 OA
BRANCH  32  34
HETATM   34  O5  UNL     1      -9.264  50.016 -26.355  1.00  0.00    -0.773 OA
HETATM   35  H44 UNL     1     -10.123  50.475 -26.455  1.00  0.00     0.167 HD
ENDBRANCH  32  34
ENDBRANCH  30  32
ENDBRANCH  28  29
ENDBRANCH  27  28
ENDBRANCH  25  27
ENDBRANCH   1  25
BRANCH   8  36
HETATM   36  O1  UNL     1      -4.298  49.534 -25.927  1.00  0.00    -0.391 OA
HETATM   37  H22 UNL     1      -4.008  48.719 -25.487  1.00  0.00     0.210 HD
ENDBRANCH   8  36
TORSDOF 7
ENDMDL
