MODEL 1
REMARK minimizedAffinity -7.31825256
REMARK CNNscore 0.789074004
REMARK CNNaffinity 7.1288662
REMARK  6 active torsions:
REMARK  status: ('A' for Active; 'I' for Inactive)
REMARK    1  A    between atoms: C2_2  and  C30_31 
REMARK    2  A    between atoms: C3_3  and  C4_4 
REMARK    3  A    between atoms: C4_4  and  C5_5 
REMARK    4  A    between atoms: C5_5  and  C6_6 
REMARK    5  A    between atoms: C6_6  and  C8_8 
REMARK    6  A    between atoms: C30_31  and  O3_33 
ROOT
HETATM    1  C8  UNL     1       2.221  56.101  -8.792  1.00  0.00    -0.002 C 
HETATM    2  C9  UNL     1       1.876  56.124  -7.279  1.00  0.00     0.007 C 
HETATM    3  C10 UNL     1       0.560  55.324  -7.103  1.00  0.00     0.015 C 
HETATM    4  C11 UNL     1       0.019  55.130  -8.537  1.00  0.00    -0.013 C 
HETATM    5  C12 UNL     1      -0.755  56.442  -8.875  1.00  0.00     0.021 C 
HETATM    6  C13 UNL     1      -0.895  53.958  -8.880  1.00  0.00    -0.070 C 
HETATM    7  C14 UNL     1      -1.309  53.047  -7.980  1.00  0.00    -0.022 C 
HETATM    8  C15 UNL     1      -2.034  51.781  -8.333  1.00  0.00     0.034 C 
HETATM    9  C16 UNL     1      -1.935  51.439  -9.837  1.00  0.00     0.013 C 
HETATM   10  C17 UNL     1      -2.650  50.102 -10.278  1.00  0.00     0.018 C 
HETATM   11  C18 UNL     1      -1.595  49.117 -10.833  1.00  0.00     0.023 C 
HETATM   12  C19 UNL     1      -3.372  49.383  -9.117  1.00  0.00     0.023 C 
HETATM   13  C20 UNL     1      -3.666  50.313 -11.414  1.00  0.00     0.135 C 
HETATM   14  O1  UNL     1      -4.718  49.668 -11.475  1.00  0.00    -0.297 OA
HETATM   15  C21 UNL     1      -3.327  51.264 -12.539  1.00  0.00     0.080 C 
HETATM   16  C22 UNL     1      -2.263  52.288 -12.177  1.00  0.00     0.017 C 
HETATM   17  C23 UNL     1      -2.284  52.699 -10.691  1.00  0.00    -0.031 C 
HETATM   18  C24 UNL     1      -3.695  53.260 -10.339  1.00  0.00     0.016 C 
HETATM   19  C25 UNL     1      -1.236  53.844 -10.380  1.00  0.00     0.024 C 
HETATM   20  C26 UNL     1       0.066  53.811 -11.226  1.00  0.00     0.010 C 
HETATM   21  C27 UNL     1       1.100  54.893 -10.835  1.00  0.00     0.011 C 
HETATM   22  C28 UNL     1       1.370  54.906  -9.318  1.00  0.00    -0.029 C 
HETATM   23  C29 UNL     1       2.067  53.555  -8.955  1.00  0.00     0.016 C 
ENDROOT
BRANCH   1  24
HETATM   24  C6  UNL     1       3.726  56.131  -9.191  1.00  0.00    -0.014 C 
HETATM   25  C7  UNL     1       4.034  55.936 -10.679  1.00  0.00     0.010 C 
BRANCH  24  26
HETATM   26  C5  UNL     1       4.569  55.148  -8.337  1.00  0.00     0.008 C 
BRANCH  26  27
HETATM   27  C4  UNL     1       5.947  55.665  -7.899  1.00  0.00     0.028 C 
BRANCH  27  28
HETATM   28  C3  UNL     1       5.816  56.819  -6.938  1.00  0.00    -0.013 C 
HETATM   29  C2  UNL     1       6.606  57.097  -5.881  1.00  0.00     0.008 C 
HETATM   30  C1  UNL     1       6.336  58.277  -4.991  1.00  0.00     0.055 C 
BRANCH  29  31
HETATM   31  C30 UNL     1       7.821  56.300  -5.582  1.00  0.00     0.171 C 
HETATM   32  O2  UNL     1       7.896  55.094  -5.440  1.00  0.00    -0.646 OA
BRANCH  31  33
HETATM   33  O3  UNL     1       8.917  57.073  -5.494  1.00  0.00    -0.773 OA
HETATM   34  H46 UNL     1       9.635  56.433  -5.317  1.00  0.00     0.167 HD
ENDBRANCH  31  33
ENDBRANCH  29  31
ENDBRANCH  27  28
ENDBRANCH  26  27
ENDBRANCH  24  26
ENDBRANCH   1  24
TORSDOF 6
ENDMDL
MODEL 2
REMARK minimizedAffinity -7.48284245
REMARK CNNscore 0.63027674
REMARK CNNaffinity 6.17372656
REMARK  6 active torsions:
REMARK  status: ('A' for Active; 'I' for Inactive)
REMARK    1  A    between atoms: C2_2  and  C30_31 
REMARK    2  A    between atoms: C3_3  and  C4_4 
REMARK    3  A    between atoms: C4_4  and  C5_5 
REMARK    4  A    between atoms: C5_5  and  C6_6 
REMARK    5  A    between atoms: C6_6  and  C8_8 
REMARK    6  A    between atoms: C30_31  and  O3_33 
ROOT
HETATM    1  C8  UNL     1     -13.711  45.444 -27.025  1.00  0.00    -0.002 C 
HETATM    2  C9  UNL     1     -14.575  45.823 -28.258  1.00  0.00     0.007 C 
HETATM    3  C10 UNL     1     -13.634  46.522 -29.272  1.00  0.00     0.015 C 
HETATM    4  C11 UNL     1     -12.338  46.806 -28.479  1.00  0.00    -0.013 C 
HETATM    5  C12 UNL     1     -12.599  48.140 -27.712  1.00  0.00     0.021 C 
HETATM    6  C13 UNL     1     -10.996  46.943 -29.192  1.00  0.00    -0.070 C 
HETATM    7  C14 UNL     1     -10.848  46.855 -30.526  1.00  0.00    -0.022 C 
HETATM    8  C15 UNL     1      -9.521  46.782 -31.225  1.00  0.00     0.034 C 
HETATM    9  C16 UNL     1      -8.361  46.442 -30.263  1.00  0.00     0.013 C 
HETATM   10  C17 UNL     1      -6.937  46.318 -30.932  1.00  0.00     0.018 C 
HETATM   11  C18 UNL     1      -6.410  44.875 -30.751  1.00  0.00     0.023 C 
HETATM   12  C19 UNL     1      -6.948  46.606 -32.450  1.00  0.00     0.023 C 
HETATM   13  C20 UNL     1      -5.886  47.233 -30.281  1.00  0.00     0.135 C 
HETATM   14  O1  UNL     1      -4.998  47.779 -30.943  1.00  0.00    -0.297 OA
HETATM   15  C21 UNL     1      -5.879  47.394 -28.777  1.00  0.00     0.080 C 
HETATM   16  C22 UNL     1      -7.205  47.053 -28.118  1.00  0.00     0.017 C 
HETATM   17  C23 UNL     1      -8.430  47.363 -29.003  1.00  0.00    -0.031 C 
HETATM   18  C24 UNL     1      -8.409  48.871 -29.391  1.00  0.00     0.016 C 
HETATM   19  C25 UNL     1      -9.792  47.097 -28.239  1.00  0.00     0.024 C 
HETATM   20  C26 UNL     1      -9.769  45.935 -27.210  1.00  0.00     0.010 C 
HETATM   21  C27 UNL     1     -11.138  45.652 -26.548  1.00  0.00     0.011 C 
HETATM   22  C28 UNL     1     -12.261  45.505 -27.593  1.00  0.00    -0.029 C 
HETATM   23  C29 UNL     1     -11.959  44.217 -28.426  1.00  0.00     0.016 C 
ENDROOT
BRANCH   1  24
HETATM   24  C6  UNL     1     -14.108  44.165 -26.230  1.00  0.00    -0.014 C 
HETATM   25  C7  UNL     1     -14.817  43.067 -27.027  1.00  0.00     0.010 C 
BRANCH  24  26
HETATM   26  C5  UNL     1     -14.921  44.509 -24.954  1.00  0.00     0.008 C 
BRANCH  26  27
HETATM   27  C4  UNL     1     -16.351  45.013 -25.195  1.00  0.00     0.028 C 
BRANCH  27  28
HETATM   28  C3  UNL     1     -17.111  45.137 -23.899  1.00  0.00    -0.013 C 
HETATM   29  C2  UNL     1     -18.282  45.774 -23.694  1.00  0.00     0.008 C 
HETATM   30  C1  UNL     1     -18.911  45.837 -22.331  1.00  0.00     0.055 C 
BRANCH  29  31
HETATM   31  C30 UNL     1     -19.045  46.384 -24.810  1.00  0.00     0.171 C 
HETATM   32  O2  UNL     1     -19.703  45.807 -25.656  1.00  0.00    -0.646 OA
BRANCH  31  33
HETATM   33  O3  UNL     1     -18.962  47.726 -24.798  1.00  0.00    -0.773 OA
HETATM   34  H46 UNL     1     -19.514  47.995 -25.559  1.00  0.00     0.167 HD
ENDBRANCH  31  33
ENDBRANCH  29  31
ENDBRANCH  27  28
ENDBRANCH  26  27
ENDBRANCH  24  26
ENDBRANCH   1  24
TORSDOF 6
ENDMDL
MODEL 3
REMARK minimizedAffinity -7.42489576
REMARK CNNscore 0.609254718
REMARK CNNaffinity 6.992033
REMARK  6 active torsions:
REMARK  status: ('A' for Active; 'I' for Inactive)
REMARK    1  A    between atoms: C2_2  and  C30_31 
REMARK    2  A    between atoms: C3_3  and  C4_4 
REMARK    3  A    between atoms: C4_4  and  C5_5 
REMARK    4  A    between atoms: C5_5  and  C6_6 
REMARK    5  A    between atoms: C6_6  and  C8_8 
REMARK    6  A    between atoms: C30_31  and  O3_33 
ROOT
HETATM    1  C8  UNL     1       2.182  56.157  -8.825  1.00  0.00    -0.002 C 
HETATM    2  C9  UNL     1       1.857  56.168  -7.307  1.00  0.00     0.007 C 
HETATM    3  C10 UNL     1       0.556  55.349  -7.116  1.00  0.00     0.015 C 
HETATM    4  C11 UNL     1      -0.002  55.152  -8.544  1.00  0.00    -0.013 C 
HETATM    5  C12 UNL     1      -0.799  56.454  -8.866  1.00  0.00     0.021 C 
HETATM    6  C13 UNL     1      -0.903  53.968  -8.879  1.00  0.00    -0.070 C 
HETATM    7  C14 UNL     1      -1.291  53.048  -7.977  1.00  0.00    -0.022 C 
HETATM    8  C15 UNL     1      -2.003  51.773  -8.326  1.00  0.00     0.034 C 
HETATM    9  C16 UNL     1      -1.919  51.438  -9.832  1.00  0.00     0.013 C 
HETATM   10  C17 UNL     1      -2.620  50.092 -10.269  1.00  0.00     0.018 C 
HETATM   11  C18 UNL     1      -1.559  49.125 -10.843  1.00  0.00     0.023 C 
HETATM   12  C19 UNL     1      -3.316  49.358  -9.102  1.00  0.00     0.023 C 
HETATM   13  C20 UNL     1      -3.654  50.292 -11.391  1.00  0.00     0.135 C 
HETATM   14  O1  UNL     1      -4.697  49.633 -11.440  1.00  0.00    -0.297 OA
HETATM   15  C21 UNL     1      -3.345  51.253 -12.516  1.00  0.00     0.080 C 
HETATM   16  C22 UNL     1      -2.291  52.291 -12.165  1.00  0.00     0.017 C 
HETATM   17  C23 UNL     1      -2.298  52.696 -10.676  1.00  0.00    -0.031 C 
HETATM   18  C24 UNL     1      -3.712  53.235 -10.303  1.00  0.00     0.016 C 
HETATM   19  C25 UNL     1      -1.262  53.855 -10.375  1.00  0.00     0.024 C 
HETATM   20  C26 UNL     1       0.028  53.844 -11.239  1.00  0.00     0.010 C 
HETATM   21  C27 UNL     1       1.051  54.940 -10.857  1.00  0.00     0.011 C 
HETATM   22  C28 UNL     1       1.341  54.951  -9.344  1.00  0.00    -0.029 C 
HETATM   23  C29 UNL     1       2.063  53.609  -8.996  1.00  0.00     0.016 C 
ENDROOT
BRANCH   1  24
HETATM   24  C6  UNL     1       3.681  56.210  -9.245  1.00  0.00    -0.014 C 
HETATM   25  C7  UNL     1       3.972  56.028 -10.737  1.00  0.00     0.010 C 
BRANCH  24  26
HETATM   26  C5  UNL     1       4.549  55.234  -8.408  1.00  0.00     0.008 C 
BRANCH  26  27
HETATM   27  C4  UNL     1       6.035  55.176  -8.790  1.00  0.00     0.028 C 
BRANCH  27  28
HETATM   28  C3  UNL     1       6.398  53.830  -9.365  1.00  0.00    -0.013 C 
HETATM   29  C2  UNL     1       6.611  52.682  -8.690  1.00  0.00     0.008 C 
HETATM   30  C1  UNL     1       6.992  51.415  -9.402  1.00  0.00     0.055 C 
BRANCH  29  31
HETATM   31  C30 UNL     1       6.411  52.589  -7.224  1.00  0.00     0.171 C 
HETATM   32  O2  UNL     1       7.187  52.930  -6.350  1.00  0.00    -0.646 OA
BRANCH  31  33
HETATM   33  O3  UNL     1       5.206  52.080  -6.914  1.00  0.00    -0.773 OA
HETATM   34  H46 UNL     1       5.198  52.091  -5.936  1.00  0.00     0.167 HD
ENDBRANCH  31  33
ENDBRANCH  29  31
ENDBRANCH  27  28
ENDBRANCH  26  27
ENDBRANCH  24  26
ENDBRANCH   1  24
TORSDOF 6
ENDMDL
MODEL 4
REMARK minimizedAffinity -6.91621256
REMARK CNNscore 0.581313074
REMARK CNNaffinity 6.65462923
REMARK  6 active torsions:
REMARK  status: ('A' for Active; 'I' for Inactive)
REMARK    1  A    between atoms: C2_2  and  C30_31 
REMARK    2  A    between atoms: C3_3  and  C4_4 
REMARK    3  A    between atoms: C4_4  and  C5_5 
REMARK    4  A    between atoms: C5_5  and  C6_6 
REMARK    5  A    between atoms: C6_6  and  C8_8 
REMARK    6  A    between atoms: C30_31  and  O3_33 
ROOT
HETATM    1  C8  UNL     1       3.964  54.297  -8.939  1.00  0.00    -0.002 C 
HETATM    2  C9  UNL     1       4.613  52.904  -8.720  1.00  0.00     0.007 C 
HETATM    3  C10 UNL     1       3.470  51.859  -8.770  1.00  0.00     0.015 C 
HETATM    4  C11 UNL     1       2.169  52.691  -8.702  1.00  0.00    -0.013 C 
HETATM    5  C12 UNL     1       1.928  52.971  -7.186  1.00  0.00     0.021 C 
HETATM    6  C13 UNL     1       0.864  52.156  -9.283  1.00  0.00    -0.070 C 
HETATM    7  C14 UNL     1       0.744  50.944  -9.856  1.00  0.00    -0.022 C 
HETATM    8  C15 UNL     1      -0.469  50.485 -10.611  1.00  0.00     0.034 C 
HETATM    9  C16 UNL     1      -1.412  51.650 -10.988  1.00  0.00     0.013 C 
HETATM   10  C17 UNL     1      -2.697  51.246 -11.812  1.00  0.00     0.018 C 
HETATM   11  C18 UNL     1      -2.652  51.930 -13.198  1.00  0.00     0.023 C 
HETATM   12  C19 UNL     1      -2.809  49.726 -12.062  1.00  0.00     0.023 C 
HETATM   13  C20 UNL     1      -4.004  51.719 -11.153  1.00  0.00     0.135 C 
HETATM   14  O1  UNL     1      -5.038  51.045 -11.201  1.00  0.00    -0.297 OA
HETATM   15  C21 UNL     1      -4.053  53.088 -10.512  1.00  0.00     0.080 C 
HETATM   16  C22 UNL     1      -2.688  53.637 -10.134  1.00  0.00     0.017 C 
HETATM   17  C23 UNL     1      -1.673  52.546  -9.736  1.00  0.00    -0.031 C 
HETATM   18  C24 UNL     1      -2.254  51.721  -8.549  1.00  0.00     0.016 C 
HETATM   19  C25 UNL     1      -0.301  53.166  -9.245  1.00  0.00     0.024 C 
HETATM   20  C26 UNL     1       0.118  54.496  -9.928  1.00  0.00     0.010 C 
HETATM   21  C27 UNL     1       1.501  55.025  -9.484  1.00  0.00     0.011 C 
HETATM   22  C28 UNL     1       2.587  53.935  -9.574  1.00  0.00    -0.029 C 
HETATM   23  C29 UNL     1       2.773  53.585 -11.087  1.00  0.00     0.016 C 
ENDROOT
BRANCH   1  24
HETATM   24  C6  UNL     1       4.814  55.386  -9.658  1.00  0.00    -0.014 C 
HETATM   25  C7  UNL     1       4.395  55.733 -11.090  1.00  0.00     0.010 C 
BRANCH  24  26
HETATM   26  C5  UNL     1       6.330  55.061  -9.608  1.00  0.00     0.008 C 
BRANCH  26  27
HETATM   27  C4  UNL     1       6.994  55.209  -8.231  1.00  0.00     0.028 C 
BRANCH  27  28
HETATM   28  C3  UNL     1       6.358  56.322  -7.437  1.00  0.00    -0.013 C 
HETATM   29  C2  UNL     1       6.626  56.674  -6.163  1.00  0.00     0.008 C 
HETATM   30  C1  UNL     1       5.888  57.797  -5.489  1.00  0.00     0.055 C 
BRANCH  29  31
HETATM   31  C30 UNL     1       7.707  56.024  -5.383  1.00  0.00     0.171 C 
HETATM   32  O2  UNL     1       7.608  55.065  -4.641  1.00  0.00    -0.646 OA
BRANCH  31  33
HETATM   33  O3  UNL     1       8.898  56.611  -5.594  1.00  0.00    -0.773 OA
HETATM   34  H46 UNL     1       9.513  56.084  -5.046  1.00  0.00     0.167 HD
ENDBRANCH  31  33
ENDBRANCH  29  31
ENDBRANCH  27  28
ENDBRANCH  26  27
ENDBRANCH  24  26
ENDBRANCH   1  24
TORSDOF 6
ENDMDL
MODEL 5
REMARK minimizedAffinity -7.39742231
REMARK CNNscore 0.551391482
REMARK CNNaffinity 6.1817441
REMARK  6 active torsions:
REMARK  status: ('A' for Active; 'I' for Inactive)
REMARK    1  A    between atoms: C2_2  and  C30_31 
REMARK    2  A    between atoms: C3_3  and  C4_4 
REMARK    3  A    between atoms: C4_4  and  C5_5 
REMARK    4  A    between atoms: C5_5  and  C6_6 
REMARK    5  A    between atoms: C6_6  and  C8_8 
REMARK    6  A    between atoms: C30_31  and  O3_33 
ROOT
HETATM    1  C8  UNL     1     -13.228  45.895 -26.928  1.00  0.00    -0.002 C 
HETATM    2  C9  UNL     1     -13.561  47.409 -27.018  1.00  0.00     0.007 C 
HETATM    3  C10 UNL     1     -12.386  48.088 -27.765  1.00  0.00     0.015 C 
HETATM    4  C11 UNL     1     -11.273  47.016 -27.811  1.00  0.00    -0.013 C 
HETATM    5  C12 UNL     1     -10.537  47.119 -26.439  1.00  0.00     0.021 C 
HETATM    6  C13 UNL     1     -10.210  47.035 -28.905  1.00  0.00    -0.070 C 
HETATM    7  C14 UNL     1     -10.147  47.972 -29.868  1.00  0.00    -0.022 C 
HETATM    8  C15 UNL     1      -9.241  47.894 -31.063  1.00  0.00     0.034 C 
HETATM    9  C16 UNL     1      -8.664  46.478 -31.280  1.00  0.00     0.013 C 
HETATM   10  C17 UNL     1      -7.726  46.311 -32.539  1.00  0.00     0.018 C 
HETATM   11  C18 UNL     1      -8.363  45.302 -33.523  1.00  0.00     0.023 C 
HETATM   12  C19 UNL     1      -7.511  47.627 -33.318  1.00  0.00     0.023 C 
HETATM   13  C20 UNL     1      -6.344  45.736 -32.184  1.00  0.00     0.135 C 
HETATM   14  O1  UNL     1      -5.318  46.097 -32.770  1.00  0.00    -0.297 OA
HETATM   15  C21 UNL     1      -6.247  44.630 -31.158  1.00  0.00     0.080 C 
HETATM   16  C22 UNL     1      -7.442  44.557 -30.221  1.00  0.00     0.017 C 
HETATM   17  C23 UNL     1      -8.087  45.929 -29.937  1.00  0.00    -0.031 C 
HETATM   18  C24 UNL     1      -7.010  46.883 -29.341  1.00  0.00     0.016 C 
HETATM   19  C25 UNL     1      -9.256  45.822 -28.873  1.00  0.00     0.024 C 
HETATM   20  C26 UNL     1     -10.068  44.499 -28.897  1.00  0.00     0.010 C 
HETATM   21  C27 UNL     1     -11.252  44.468 -27.904  1.00  0.00     0.011 C 
HETATM   22  C28 UNL     1     -12.142  45.720 -28.032  1.00  0.00    -0.029 C 
HETATM   23  C29 UNL     1     -12.817  45.671 -29.441  1.00  0.00     0.016 C 
ENDROOT
BRANCH   1  24
HETATM   24  C6  UNL     1     -14.418  44.891 -26.937  1.00  0.00    -0.014 C 
HETATM   25  C7  UNL     1     -15.467  45.097 -28.033  1.00  0.00     0.010 C 
BRANCH  24  26
HETATM   26  C5  UNL     1     -15.104  44.798 -25.549  1.00  0.00     0.008 C 
BRANCH  26  27
HETATM   27  C4  UNL     1     -16.267  45.775 -25.318  1.00  0.00     0.028 C 
BRANCH  27  28
HETATM   28  C3  UNL     1     -16.657  45.823 -23.863  1.00  0.00    -0.013 C 
HETATM   29  C2  UNL     1     -17.834  46.230 -23.344  1.00  0.00     0.008 C 
HETATM   30  C1  UNL     1     -18.072  46.247 -21.861  1.00  0.00     0.055 C 
BRANCH  29  31
HETATM   31  C30 UNL     1     -18.978  46.612 -24.208  1.00  0.00     0.171 C 
HETATM   32  O2  UNL     1     -19.125  47.654 -24.819  1.00  0.00    -0.646 OA
BRANCH  31  33
HETATM   33  O3  UNL     1     -19.898  45.635 -24.282  1.00  0.00    -0.773 OA
HETATM   34  H46 UNL     1     -20.574  46.002 -24.885  1.00  0.00     0.167 HD
ENDBRANCH  31  33
ENDBRANCH  29  31
ENDBRANCH  27  28
ENDBRANCH  26  27
ENDBRANCH  24  26
ENDBRANCH   1  24
TORSDOF 6
ENDMDL
MODEL 6
REMARK minimizedAffinity -7.46070719
REMARK CNNscore 0.54188174
REMARK CNNaffinity 6.02946472
REMARK  6 active torsions:
REMARK  status: ('A' for Active; 'I' for Inactive)
REMARK    1  A    between atoms: C2_2  and  C30_31 
REMARK    2  A    between atoms: C3_3  and  C4_4 
REMARK    3  A    between atoms: C4_4  and  C5_5 
REMARK    4  A    between atoms: C5_5  and  C6_6 
REMARK    5  A    between atoms: C6_6  and  C8_8 
REMARK    6  A    between atoms: C30_31  and  O3_33 
ROOT
HETATM    1  C8  UNL     1     -13.984  45.941 -25.829  1.00  0.00    -0.002 C 
HETATM    2  C9  UNL     1     -14.152  44.415 -26.056  1.00  0.00     0.007 C 
HETATM    3  C10 UNL     1     -13.331  44.052 -27.319  1.00  0.00     0.015 C 
HETATM    4  C11 UNL     1     -12.970  45.410 -27.961  1.00  0.00    -0.013 C 
HETATM    5  C12 UNL     1     -14.213  45.814 -28.814  1.00  0.00     0.021 C 
HETATM    6  C13 UNL     1     -11.738  45.557 -28.849  1.00  0.00    -0.070 C 
HETATM    7  C14 UNL     1     -10.913  44.538 -29.153  1.00  0.00    -0.022 C 
HETATM    8  C15 UNL     1      -9.593  44.702 -29.850  1.00  0.00     0.034 C 
HETATM    9  C16 UNL     1      -9.100  46.166 -29.854  1.00  0.00     0.013 C 
HETATM   10  C17 UNL     1      -7.701  46.410 -30.544  1.00  0.00     0.018 C 
HETATM   11  C18 UNL     1      -6.700  46.948 -29.495  1.00  0.00     0.023 C 
HETATM   12  C19 UNL     1      -7.082  45.128 -31.142  1.00  0.00     0.023 C 
HETATM   13  C20 UNL     1      -7.757  47.475 -31.653  1.00  0.00     0.135 C 
HETATM   14  O1  UNL     1      -7.075  47.384 -32.678  1.00  0.00    -0.297 OA
HETATM   15  C21 UNL     1      -8.598  48.714 -31.443  1.00  0.00     0.080 C 
HETATM   16  C22 UNL     1      -9.689  48.546 -30.398  1.00  0.00     0.017 C 
HETATM   17  C23 UNL     1     -10.251  47.112 -30.321  1.00  0.00    -0.031 C 
HETATM   18  C24 UNL     1     -10.798  46.704 -31.722  1.00  0.00     0.016 C 
HETATM   19  C25 UNL     1     -11.458  47.005 -29.301  1.00  0.00     0.024 C 
HETATM   20  C26 UNL     1     -11.381  47.947 -28.069  1.00  0.00     0.010 C 
HETATM   21  C27 UNL     1     -12.532  47.753 -27.054  1.00  0.00     0.011 C 
HETATM   22  C28 UNL     1     -12.712  46.272 -26.668  1.00  0.00    -0.029 C 
HETATM   23  C29 UNL     1     -11.430  45.833 -25.888  1.00  0.00     0.016 C 
ENDROOT
BRANCH   1  24
HETATM   24  C6  UNL     1     -14.023  46.463 -24.362  1.00  0.00    -0.014 C 
HETATM   25  C7  UNL     1     -13.881  45.404 -23.265  1.00  0.00     0.010 C 
BRANCH  24  26
HETATM   26  C5  UNL     1     -15.272  47.345 -24.097  1.00  0.00     0.008 C 
BRANCH  26  27
HETATM   27  C4  UNL     1     -16.578  46.852 -24.737  1.00  0.00     0.028 C 
BRANCH  27  28
HETATM   28  C3  UNL     1     -17.431  46.116 -23.735  1.00  0.00    -0.013 C 
HETATM   29  C2  UNL     1     -18.741  45.812 -23.842  1.00  0.00     0.008 C 
HETATM   30  C1  UNL     1     -19.469  45.090 -22.744  1.00  0.00     0.055 C 
BRANCH  29  31
HETATM   31  C30 UNL     1     -19.514  46.109 -25.072  1.00  0.00     0.171 C 
HETATM   32  O2  UNL     1     -20.628  46.593 -25.146  1.00  0.00    -0.646 OA
BRANCH  31  33
HETATM   33  O3  UNL     1     -18.825  45.795 -26.183  1.00  0.00    -0.773 OA
HETATM   34  H46 UNL     1     -19.430  46.053 -26.908  1.00  0.00     0.167 HD
ENDBRANCH  31  33
ENDBRANCH  29  31
ENDBRANCH  27  28
ENDBRANCH  26  27
ENDBRANCH  24  26
ENDBRANCH   1  24
TORSDOF 6
ENDMDL
MODEL 7
REMARK minimizedAffinity -6.98822927
REMARK CNNscore 0.356690347
REMARK CNNaffinity 5.93773842
REMARK  6 active torsions:
REMARK  status: ('A' for Active; 'I' for Inactive)
REMARK    1  A    between atoms: C2_2  and  C30_31 
REMARK    2  A    between atoms: C3_3  and  C4_4 
REMARK    3  A    between atoms: C4_4  and  C5_5 
REMARK    4  A    between atoms: C5_5  and  C6_6 
REMARK    5  A    between atoms: C6_6  and  C8_8 
REMARK    6  A    between atoms: C30_31  and  O3_33 
ROOT
HETATM    1  C8  UNL     1       1.958  55.573  -9.555  1.00  0.00    -0.002 C 
HETATM    2  C9  UNL     1       2.986  55.716 -10.709  1.00  0.00     0.007 C 
HETATM    3  C10 UNL     1       4.365  55.983 -10.056  1.00  0.00     0.015 C 
HETATM    4  C11 UNL     1       4.050  56.297  -8.576  1.00  0.00    -0.013 C 
HETATM    5  C12 UNL     1       3.673  57.811  -8.540  1.00  0.00     0.021 C 
HETATM    6  C13 UNL     1       5.087  56.056  -7.484  1.00  0.00    -0.070 C 
HETATM    7  C14 UNL     1       6.327  55.592  -7.722  1.00  0.00    -0.022 C 
HETATM    8  C15 UNL     1       7.285  55.156  -6.652  1.00  0.00     0.034 C 
HETATM    9  C16 UNL     1       6.593  54.940  -5.287  1.00  0.00     0.013 C 
HETATM   10  C17 UNL     1       7.535  54.451  -4.118  1.00  0.00     0.018 C 
HETATM   11  C18 UNL     1       7.073  53.055  -3.639  1.00  0.00     0.023 C 
HETATM   12  C19 UNL     1       9.014  54.316  -4.540  1.00  0.00     0.023 C 
HETATM   13  C20 UNL     1       7.474  55.361  -2.879  1.00  0.00     0.135 C 
HETATM   14  O1  UNL     1       8.471  55.584  -2.186  1.00  0.00    -0.297 OA
HETATM   15  C21 UNL     1       6.139  55.920  -2.441  1.00  0.00     0.080 C 
HETATM   16  C22 UNL     1       5.094  55.950  -3.544  1.00  0.00     0.017 C 
HETATM   17  C23 UNL     1       5.689  56.168  -4.950  1.00  0.00    -0.031 C 
HETATM   18  C24 UNL     1       6.500  57.498  -4.959  1.00  0.00     0.016 C 
HETATM   19  C25 UNL     1       4.562  56.301  -6.054  1.00  0.00     0.024 C 
HETATM   20  C26 UNL     1       3.275  55.469  -5.804  1.00  0.00     0.010 C 
HETATM   21  C27 UNL     1       2.234  55.560  -6.944  1.00  0.00     0.011 C 
HETATM   22  C28 UNL     1       2.868  55.286  -8.322  1.00  0.00    -0.029 C 
HETATM   23  C29 UNL     1       3.328  53.793  -8.336  1.00  0.00     0.016 C 
ENDROOT
BRANCH   1  24
HETATM   24  C6  UNL     1       0.745  54.623  -9.779  1.00  0.00    -0.014 C 
HETATM   25  C7  UNL     1       0.602  54.031 -11.185  1.00  0.00     0.010 C 
BRANCH  24  26
HETATM   26  C5  UNL     1      -0.590  55.276  -9.335  1.00  0.00     0.008 C 
BRANCH  26  27
HETATM   27  C4  UNL     1      -1.818  54.919 -10.186  1.00  0.00     0.028 C 
BRANCH  27  28
HETATM   28  C3  UNL     1      -2.396  53.589  -9.777  1.00  0.00    -0.013 C 
HETATM   29  C2  UNL     1      -3.108  52.735 -10.542  1.00  0.00     0.008 C 
HETATM   30  C1  UNL     1      -3.645  51.447  -9.986  1.00  0.00     0.055 C 
BRANCH  29  31
HETATM   31  C30 UNL     1      -3.336  52.985 -11.986  1.00  0.00     0.171 C 
HETATM   32  O2  UNL     1      -4.297  53.526 -12.499  1.00  0.00    -0.646 OA
BRANCH  31  33
HETATM   33  O3  UNL     1      -2.309  52.551 -12.737  1.00  0.00    -0.773 OA
HETATM   34  H46 UNL     1      -2.574  52.789 -13.648  1.00  0.00     0.167 HD
ENDBRANCH  31  33
ENDBRANCH  29  31
ENDBRANCH  27  28
ENDBRANCH  26  27
ENDBRANCH  24  26
ENDBRANCH   1  24
TORSDOF 6
ENDMDL
MODEL 8
REMARK minimizedAffinity -6.87444735
REMARK CNNscore 0.333628207
REMARK CNNaffinity 5.502666
REMARK  6 active torsions:
REMARK  status: ('A' for Active; 'I' for Inactive)
REMARK    1  A    between atoms: C2_2  and  C30_31 
REMARK    2  A    between atoms: C3_3  and  C4_4 
REMARK    3  A    between atoms: C4_4  and  C5_5 
REMARK    4  A    between atoms: C5_5  and  C6_6 
REMARK    5  A    between atoms: C6_6  and  C8_8 
REMARK    6  A    between atoms: C30_31  and  O3_33 
ROOT
HETATM    1  C8  UNL     1     -12.244  46.118 -24.952  1.00  0.00    -0.002 C 
HETATM    2  C9  UNL     1     -11.261  46.459 -23.799  1.00  0.00     0.007 C 
HETATM    3  C10 UNL     1      -9.831  46.398 -24.391  1.00  0.00     0.015 C 
HETATM    4  C11 UNL     1     -10.001  45.726 -25.773  1.00  0.00    -0.013 C 
HETATM    5  C12 UNL     1     -10.015  44.191 -25.494  1.00  0.00     0.021 C 
HETATM    6  C13 UNL     1      -9.003  45.979 -26.898  1.00  0.00    -0.070 C 
HETATM    7  C14 UNL     1      -7.915  46.761 -26.767  1.00  0.00    -0.022 C 
HETATM    8  C15 UNL     1      -7.039  47.185 -27.911  1.00  0.00     0.034 C 
HETATM    9  C16 UNL     1      -7.703  46.952 -29.286  1.00  0.00     0.013 C 
HETATM   10  C17 UNL     1      -6.851  47.403 -30.537  1.00  0.00     0.018 C 
HETATM   11  C18 UNL     1      -7.604  48.525 -31.291  1.00  0.00     0.023 C 
HETATM   12  C19 UNL     1      -5.463  47.966 -30.160  1.00  0.00     0.023 C 
HETATM   13  C20 UNL     1      -6.647  46.274 -31.561  1.00  0.00     0.135 C 
HETATM   14  O1  UNL     1      -5.596  46.156 -32.199  1.00  0.00    -0.297 OA
HETATM   15  C21 UNL     1      -7.795  45.339 -31.867  1.00  0.00     0.080 C 
HETATM   16  C22 UNL     1      -8.851  45.287 -30.775  1.00  0.00     0.017 C 
HETATM   17  C23 UNL     1      -8.282  45.504 -29.357  1.00  0.00    -0.031 C 
HETATM   18  C24 UNL     1      -7.187  44.432 -29.080  1.00  0.00     0.016 C 
HETATM   19  C25 UNL     1      -9.395  45.334 -28.243  1.00  0.00     0.024 C 
HETATM   20  C26 UNL     1     -10.828  45.771 -28.651  1.00  0.00     0.010 C 
HETATM   21  C27 UNL     1     -11.867  45.669 -27.511  1.00  0.00     0.011 C 
HETATM   22  C28 UNL     1     -11.374  46.357 -26.223  1.00  0.00    -0.029 C 
HETATM   23  C29 UNL     1     -11.273  47.889 -26.520  1.00  0.00     0.016 C 
ENDROOT
BRANCH   1  24
HETATM   24  C6  UNL     1     -13.653  46.782 -24.921  1.00  0.00    -0.014 C 
HETATM   25  C7  UNL     1     -14.212  47.115 -23.535  1.00  0.00     0.010 C 
BRANCH  24  26
HETATM   26  C5  UNL     1     -14.692  45.967 -25.735  1.00  0.00     0.008 C 
BRANCH  26  27
HETATM   27  C4  UNL     1     -16.135  46.022 -25.211  1.00  0.00     0.028 C 
BRANCH  27  28
HETATM   28  C3  UNL     1     -17.086  45.343 -26.162  1.00  0.00    -0.013 C 
HETATM   29  C2  UNL     1     -18.429  45.267 -26.061  1.00  0.00     0.008 C 
HETATM   30  C1  UNL     1     -19.250  44.530 -27.081  1.00  0.00     0.055 C 
BRANCH  29  31
HETATM   31  C30 UNL     1     -19.172  45.963 -24.984  1.00  0.00     0.171 C 
HETATM   32  O2  UNL     1     -19.616  47.096 -25.006  1.00  0.00    -0.646 OA
BRANCH  31  33
HETATM   33  O3  UNL     1     -19.347  45.177 -23.908  1.00  0.00    -0.773 OA
HETATM   34  H46 UNL     1     -19.857  45.740 -23.292  1.00  0.00     0.167 HD
ENDBRANCH  31  33
ENDBRANCH  29  31
ENDBRANCH  27  28
ENDBRANCH  26  27
ENDBRANCH  24  26
ENDBRANCH   1  24
TORSDOF 6
ENDMDL
MODEL 9
REMARK minimizedAffinity -7.43216658
REMARK CNNscore 0.30844754
REMARK CNNaffinity 6.13388681
REMARK  6 active torsions:
REMARK  status: ('A' for Active; 'I' for Inactive)
REMARK    1  A    between atoms: C2_2  and  C30_31 
REMARK    2  A    between atoms: C3_3  and  C4_4 
REMARK    3  A    between atoms: C4_4  and  C5_5 
REMARK    4  A    between atoms: C5_5  and  C6_6 
REMARK    5  A    between atoms: C6_6  and  C8_8 
REMARK    6  A    between atoms: C30_31  and  O3_33 
ROOT
HETATM    1  C8  UNL     1      -8.934  46.895 -20.558  1.00  0.00    -0.002 C 
HETATM    2  C9  UNL     1      -8.324  45.508 -20.221  1.00  0.00     0.007 C 
HETATM    3  C10 UNL     1      -6.847  45.538 -20.688  1.00  0.00     0.015 C 
HETATM    4  C11 UNL     1      -6.731  46.812 -21.556  1.00  0.00    -0.013 C 
HETATM    5  C12 UNL     1      -7.233  46.400 -22.975  1.00  0.00     0.021 C 
HETATM    6  C13 UNL     1      -5.392  47.523 -21.732  1.00  0.00    -0.070 C 
HETATM    7  C14 UNL     1      -4.241  47.092 -21.184  1.00  0.00    -0.022 C 
HETATM    8  C15 UNL     1      -2.965  47.882 -21.174  1.00  0.00     0.034 C 
HETATM    9  C16 UNL     1      -3.185  49.373 -21.516  1.00  0.00     0.013 C 
HETATM   10  C17 UNL     1      -1.889  50.274 -21.495  1.00  0.00     0.018 C 
HETATM   11  C18 UNL     1      -2.038  51.359 -20.403  1.00  0.00     0.023 C 
HETATM   12  C19 UNL     1      -0.601  49.484 -21.174  1.00  0.00     0.023 C 
HETATM   13  C20 UNL     1      -1.666  51.034 -22.814  1.00  0.00     0.135 C 
HETATM   14  O1  UNL     1      -0.535  51.237 -23.265  1.00  0.00    -0.297 OA
HETATM   15  C21 UNL     1      -2.856  51.633 -23.529  1.00  0.00     0.080 C 
HETATM   16  C22 UNL     1      -4.183  50.994 -23.154  1.00  0.00     0.017 C 
HETATM   17  C23 UNL     1      -4.067  49.497 -22.799  1.00  0.00    -0.031 C 
HETATM   18  C24 UNL     1      -3.439  48.736 -24.005  1.00  0.00     0.016 C 
HETATM   19  C25 UNL     1      -5.483  48.845 -22.522  1.00  0.00     0.024 C 
HETATM   20  C26 UNL     1      -6.541  49.783 -21.880  1.00  0.00     0.010 C 
HETATM   21  C27 UNL     1      -7.881  49.087 -21.547  1.00  0.00     0.011 C 
HETATM   22  C28 UNL     1      -7.669  47.786 -20.749  1.00  0.00    -0.029 C 
HETATM   23  C29 UNL     1      -7.082  48.184 -19.355  1.00  0.00     0.016 C 
ENDROOT
BRANCH   1  24
HETATM   24  C6  UNL     1     -10.053  47.440 -19.622  1.00  0.00    -0.014 C 
HETATM   25  C7  UNL     1     -10.094  46.855 -18.208  1.00  0.00     0.010 C 
BRANCH  24  26
HETATM   26  C5  UNL     1     -11.454  47.345 -20.282  1.00  0.00     0.008 C 
BRANCH  26  27
HETATM   27  C4  UNL     1     -12.520  48.291 -19.710  1.00  0.00     0.028 C 
BRANCH  27  28
HETATM   28  C3  UNL     1     -13.910  47.792 -20.014  1.00  0.00    -0.013 C 
HETATM   29  C2  UNL     1     -14.927  47.623 -19.145  1.00  0.00     0.008 C 
HETATM   30  C1  UNL     1     -16.259  47.090 -19.592  1.00  0.00     0.055 C 
BRANCH  29  31
HETATM   31  C30 UNL     1     -14.812  48.020 -17.721  1.00  0.00     0.171 C 
HETATM   32  O2  UNL     1     -14.362  47.359 -16.804  1.00  0.00    -0.646 OA
BRANCH  31  33
HETATM   33  O3  UNL     1     -15.259  49.271 -17.512  1.00  0.00    -0.773 OA
HETATM   34  H46 UNL     1     -15.111  49.410 -16.555  1.00  0.00     0.167 HD
ENDBRANCH  31  33
ENDBRANCH  29  31
ENDBRANCH  27  28
ENDBRANCH  26  27
ENDBRANCH  24  26
ENDBRANCH   1  24
TORSDOF 6
ENDMDL
