MODEL 1
REMARK minimizedAffinity -8.96876812
REMARK CNNscore 0.653028369
REMARK CNNaffinity 6.93151522
REMARK  19 active torsions:
REMARK  status: ('A' for Active; 'I' for Inactive)
REMARK    1  A    between atoms: C2_2  and  C3_3 
REMARK    2  A    between atoms: C3_3  and  C5_5 
REMARK    3  A    between atoms: C5_5  and  N1_6 
REMARK    4  A    between atoms: C5_5  and  C37_46 
REMARK       I    between atoms: N1_6  and  C6_7 
REMARK    5  A    between atoms: C6_7  and  C7_9 
REMARK    6  A    between atoms: C7_9  and  C8_10 
REMARK    7  A    between atoms: C8_10  and  C9_11 
REMARK    8  A    between atoms: C9_11  and  C10_12 
REMARK    9  A    between atoms: C10_12  and  C11_13 
REMARK   10  A    between atoms: C11_13  and  N2_14 
REMARK       I    between atoms: N2_14  and  C12_15 
REMARK   11  A    between atoms: C12_15  and  C13_17 
REMARK   12  A    between atoms: C13_17  and  C14_18 
REMARK   13  A    between atoms: C14_18  and  C15_19 
REMARK   14  A    between atoms: C15_19  and  O4_21 
REMARK   15  A    between atoms: O4_21  and  C16_22 
REMARK   16  A    between atoms: C16_22  and  C17_23 
REMARK   17  A    between atoms: C17_23  and  C18_25 
REMARK   18  A    between atoms: C18_25  and  O6_26 
REMARK   19  A    between atoms: C37_46  and  O9_48 
ROOT
HETATM    1  C15 UNL     1      -9.639  47.504 -18.916  1.00  0.00     0.259 C 
HETATM    2  O3  UNL     1      -9.318  46.331 -18.786  1.00  0.00    -0.265 OA
ENDROOT
BRANCH   1   3
HETATM    3  C14 UNL     1      -8.685  48.663 -19.073  1.00  0.00     0.120 C 
BRANCH   3   4
HETATM    4  C13 UNL     1      -7.284  48.181 -19.426  1.00  0.00     0.112 C 
BRANCH   4   5
HETATM    5  C12 UNL     1      -6.702  48.945 -20.601  1.00  0.00     0.217 C 
HETATM    6  N2  UNL     1      -6.340  48.120 -21.647  1.00  0.00    -0.361 N 
HETATM    7  H22 UNL     1      -6.182  47.148 -21.418  1.00  0.00     0.162 HD
HETATM    8  O2  UNL     1      -6.619  50.170 -20.629  1.00  0.00    -0.274 OA
BRANCH   6   9
HETATM    9  C11 UNL     1      -5.658  48.655 -22.809  1.00  0.00     0.122 C 
BRANCH   9  10
HETATM   10  C10 UNL     1      -4.139  48.499 -22.721  1.00  0.00     0.020 C 
BRANCH  10  11
HETATM   11  C9  UNL     1      -3.403  48.583 -24.064  1.00  0.00     0.002 C 
BRANCH  11  12
HETATM   12  C8  UNL     1      -4.277  49.024 -25.242  1.00  0.00     0.009 C 
BRANCH  12  13
HETATM   13  C7  UNL     1      -3.749  48.501 -26.579  1.00  0.00     0.103 C 
BRANCH  13  14
HETATM   14  C6  UNL     1      -3.114  49.583 -27.436  1.00  0.00     0.218 C 
HETATM   15  N1  UNL     1      -1.998  50.140 -26.848  1.00  0.00    -0.346 N 
HETATM   16  H11 UNL     1      -1.944  50.065 -25.839  1.00  0.00     0.163 HD
HETATM   17  O1  UNL     1      -3.556  49.934 -28.522  1.00  0.00    -0.274 OA
BRANCH  15  18
HETATM   18  C5  UNL     1      -1.359  51.330 -27.419  1.00  0.00     0.186 C 
BRANCH  18  19
HETATM   19  C3  UNL     1       0.082  51.517 -26.884  1.00  0.00     0.014 C 
HETATM   20  C4  UNL     1       1.089  51.819 -28.003  1.00  0.00     0.012 C 
BRANCH  19  21
HETATM   21  C2  UNL     1       0.104  52.604 -25.785  1.00  0.00     0.002 C 
HETATM   22  C1  UNL     1       0.381  52.055 -24.393  1.00  0.00     0.005 C 
ENDBRANCH  19  21
ENDBRANCH  18  19
BRANCH  18  23
HETATM   23  C37 UNL     1      -2.201  52.586 -27.152  1.00  0.00     0.163 C 
HETATM   24  O8  UNL     1      -2.973  52.754 -26.221  1.00  0.00    -0.648 OA
BRANCH  23  25
HETATM   25  O9  UNL     1      -2.085  53.538 -28.107  1.00  0.00    -0.775 OA
HETATM   26  H56 UNL     1      -2.671  54.256 -27.780  1.00  0.00     0.167 HD
ENDBRANCH  23  25
ENDBRANCH  18  23
ENDBRANCH  15  18
ENDBRANCH  13  14
ENDBRANCH  12  13
ENDBRANCH  11  12
ENDBRANCH  10  11
ENDBRANCH   9  10
ENDBRANCH   6   9
ENDBRANCH   4   5
ENDBRANCH   3   4
ENDBRANCH   1   3
BRANCH   1  27
HETATM   27  O4  UNL     1     -10.922  47.960 -18.992  1.00  0.00    -0.314 OA
BRANCH  27  28
HETATM   28  C16 UNL     1     -11.904  46.947 -18.763  1.00  0.00     0.260 C 
BRANCH  28  29
HETATM   29  C17 UNL     1     -12.903  47.435 -17.723  1.00  0.00     0.185 C 
HETATM   30  O5  UNL     1     -12.614  47.415 -16.522  1.00  0.00    -0.292 OA
BRANCH  29  31
HETATM   31  C18 UNL     1     -14.305  47.893 -18.234  1.00  0.00     0.128 C 
HETATM   32  C19 UNL     1     -14.100  48.926 -19.357  1.00  0.00     0.047 C 
HETATM   33  C20 UNL     1     -14.271  48.177 -20.684  1.00  0.00     0.009 C 
HETATM   34  C21 UNL     1     -14.525  46.700 -20.329  1.00  0.00     0.002 C 
HETATM   35  C22 UNL     1     -15.299  45.831 -21.358  1.00  0.00    -0.004 C 
HETATM   36  C35 UNL     1     -15.156  46.773 -18.923  1.00  0.00    -0.002 C 
HETATM   37  C23 UNL     1     -14.902  46.151 -22.817  1.00  0.00     0.010 C 
HETATM   38  C32 UNL     1     -16.840  45.736 -21.113  1.00  0.00     0.002 C 
HETATM   39  C24 UNL     1     -15.950  46.953 -23.578  1.00  0.00     0.035 C 
HETATM   40  C25 UNL     1     -17.310  46.303 -23.567  1.00  0.00    -0.068 C 
HETATM   41  C26 UNL     1     -18.189  46.588 -24.547  1.00  0.00     0.053 C 
HETATM   42  C30 UNL     1     -17.644  45.359 -22.414  1.00  0.00    -0.016 C 
HETATM   43  C27 UNL     1     -19.554  46.008 -24.577  1.00  0.00     0.149 C 
HETATM   44  O7  UNL     1     -20.285  46.237 -25.541  1.00  0.00    -0.293 OA
HETATM   45  C28 UNL     1     -19.995  45.125 -23.432  1.00  0.00     0.084 C 
HETATM   46  C29 UNL     1     -19.180  45.409 -22.173  1.00  0.00     0.022 C 
HETATM   47  C31 UNL     1     -17.277  43.901 -22.816  1.00  0.00     0.020 C 
HETATM   48  C33 UNL     1     -17.339  46.979 -20.367  1.00  0.00     0.007 C 
HETATM   49  C34 UNL     1     -16.658  47.184 -19.009  1.00  0.00     0.013 C 
HETATM   50  C36 UNL     1     -15.046  45.430 -18.176  1.00  0.00     0.019 C 
BRANCH  31  51
HETATM   51  O6  UNL     1     -15.035  48.519 -17.181  1.00  0.00    -0.381 OA
HETATM   52  H29 UNL     1     -15.297  47.820 -16.556  1.00  0.00     0.211 HD
ENDBRANCH  31  51
ENDBRANCH  29  31
ENDBRANCH  28  29
ENDBRANCH  27  28
ENDBRANCH   1  27
TORSDOF 19
ENDMDL
MODEL 2
REMARK minimizedAffinity -8.33529854
REMARK CNNscore 0.526494443
REMARK CNNaffinity 6.48498678
REMARK  19 active torsions:
REMARK  status: ('A' for Active; 'I' for Inactive)
REMARK    1  A    between atoms: C2_2  and  C3_3 
REMARK    2  A    between atoms: C3_3  and  C5_5 
REMARK    3  A    between atoms: C5_5  and  N1_6 
REMARK    4  A    between atoms: C5_5  and  C37_46 
REMARK       I    between atoms: N1_6  and  C6_7 
REMARK    5  A    between atoms: C6_7  and  C7_9 
REMARK    6  A    between atoms: C7_9  and  C8_10 
REMARK    7  A    between atoms: C8_10  and  C9_11 
REMARK    8  A    between atoms: C9_11  and  C10_12 
REMARK    9  A    between atoms: C10_12  and  C11_13 
REMARK   10  A    between atoms: C11_13  and  N2_14 
REMARK       I    between atoms: N2_14  and  C12_15 
REMARK   11  A    between atoms: C12_15  and  C13_17 
REMARK   12  A    between atoms: C13_17  and  C14_18 
REMARK   13  A    between atoms: C14_18  and  C15_19 
REMARK   14  A    between atoms: C15_19  and  O4_21 
REMARK   15  A    between atoms: O4_21  and  C16_22 
REMARK   16  A    between atoms: C16_22  and  C17_23 
REMARK   17  A    between atoms: C17_23  and  C18_25 
REMARK   18  A    between atoms: C18_25  and  O6_26 
REMARK   19  A    between atoms: C37_46  and  O9_48 
ROOT
HETATM    1  C15 UNL     1      -9.751  46.169 -18.329  1.00  0.00     0.259 C 
HETATM    2  O3  UNL     1     -10.023  45.057 -17.899  1.00  0.00    -0.265 OA
ENDROOT
BRANCH   1   3
HETATM    3  C14 UNL     1      -8.507  46.530 -19.104  1.00  0.00     0.120 C 
BRANCH   3   4
HETATM    4  C13 UNL     1      -8.383  48.038 -19.276  1.00  0.00     0.112 C 
BRANCH   4   5
HETATM    5  C12 UNL     1      -7.535  48.403 -20.481  1.00  0.00     0.217 C 
HETATM    6  N2  UNL     1      -6.633  49.413 -20.212  1.00  0.00    -0.361 N 
HETATM    7  H22 UNL     1      -6.843  50.002 -19.418  1.00  0.00     0.162 HD
HETATM    8  O2  UNL     1      -7.612  47.818 -21.558  1.00  0.00    -0.274 OA
BRANCH   6   9
HETATM    9  C11 UNL     1      -5.818  49.978 -21.269  1.00  0.00     0.122 C 
BRANCH   9  10
HETATM   10  C10 UNL     1      -4.651  50.808 -20.731  1.00  0.00     0.020 C 
BRANCH  10  11
HETATM   11  C9  UNL     1      -4.237  51.988 -21.618  1.00  0.00     0.002 C 
BRANCH  11  12
HETATM   12  C8  UNL     1      -3.112  51.676 -22.610  1.00  0.00     0.009 C 
BRANCH  12  13
HETATM   13  C7  UNL     1      -3.352  52.319 -23.977  1.00  0.00     0.103 C 
BRANCH  13  14
HETATM   14  C6  UNL     1      -2.068  52.701 -24.692  1.00  0.00     0.218 C 
HETATM   15  N1  UNL     1      -2.227  52.792 -26.058  1.00  0.00    -0.346 N 
HETATM   16  H11 UNL     1      -2.998  52.265 -26.452  1.00  0.00     0.163 HD
HETATM   17  O1  UNL     1      -1.004  52.891 -24.118  1.00  0.00    -0.274 OA
BRANCH  15  18
HETATM   18  C5  UNL     1      -1.069  52.954 -26.944  1.00  0.00     0.186 C 
BRANCH  18  19
HETATM   19  C3  UNL     1      -0.605  51.600 -27.533  1.00  0.00     0.014 C 
HETATM   20  C4  UNL     1       0.792  51.681 -28.163  1.00  0.00     0.012 C 
BRANCH  19  21
HETATM   21  C2  UNL     1      -0.683  50.497 -26.452  1.00  0.00     0.002 C 
HETATM   22  C1  UNL     1      -1.974  49.692 -26.497  1.00  0.00     0.005 C 
ENDBRANCH  19  21
ENDBRANCH  18  19
BRANCH  18  23
HETATM   23  C37 UNL     1       0.088  53.649 -26.212  1.00  0.00     0.163 C 
HETATM   24  O8  UNL     1       0.235  54.854 -26.071  1.00  0.00    -0.648 OA
BRANCH  23  25
HETATM   25  O9  UNL     1       1.039  52.800 -25.758  1.00  0.00    -0.775 OA
HETATM   26  H56 UNL     1       1.684  53.398 -25.319  1.00  0.00     0.167 HD
ENDBRANCH  23  25
ENDBRANCH  18  23
ENDBRANCH  15  18
ENDBRANCH  13  14
ENDBRANCH  12  13
ENDBRANCH  11  12
ENDBRANCH  10  11
ENDBRANCH   9  10
ENDBRANCH   6   9
ENDBRANCH   4   5
ENDBRANCH   3   4
ENDBRANCH   1   3
BRANCH   1  27
HETATM   27  O4  UNL     1     -10.552  47.267 -18.223  1.00  0.00    -0.314 OA
BRANCH  27  28
HETATM   28  C16 UNL     1     -11.860  47.076 -18.766  1.00  0.00     0.260 C 
BRANCH  28  29
HETATM   29  C17 UNL     1     -12.902  47.404 -17.707  1.00  0.00     0.185 C 
HETATM   30  O5  UNL     1     -12.637  47.268 -16.508  1.00  0.00    -0.292 OA
BRANCH  29  31
HETATM   31  C18 UNL     1     -14.313  47.850 -18.202  1.00  0.00     0.128 C 
HETATM   32  C19 UNL     1     -14.130  48.916 -19.297  1.00  0.00     0.047 C 
HETATM   33  C20 UNL     1     -14.293  48.199 -20.643  1.00  0.00     0.009 C 
HETATM   34  C21 UNL     1     -14.519  46.709 -20.327  1.00  0.00     0.002 C 
HETATM   35  C22 UNL     1     -15.281  45.854 -21.377  1.00  0.00    -0.004 C 
HETATM   36  C35 UNL     1     -15.147  46.733 -18.918  1.00  0.00    -0.002 C 
HETATM   37  C23 UNL     1     -14.895  46.219 -22.828  1.00  0.00     0.010 C 
HETATM   38  C32 UNL     1     -16.819  45.725 -21.130  1.00  0.00     0.002 C 
HETATM   39  C24 UNL     1     -15.959  47.023 -23.564  1.00  0.00     0.035 C 
HETATM   40  C25 UNL     1     -17.307  46.348 -23.567  1.00  0.00    -0.068 C 
HETATM   41  C26 UNL     1     -18.194  46.644 -24.536  1.00  0.00     0.053 C 
HETATM   42  C30 UNL     1     -17.621  45.369 -22.439  1.00  0.00    -0.016 C 
HETATM   43  C27 UNL     1     -19.548  46.041 -24.578  1.00  0.00     0.149 C 
HETATM   44  O7  UNL     1     -20.286  46.282 -25.534  1.00  0.00    -0.293 OA
HETATM   45  C28 UNL     1     -19.971  45.119 -23.456  1.00  0.00     0.084 C 
HETATM   46  C29 UNL     1     -19.156  45.385 -22.192  1.00  0.00     0.022 C 
HETATM   47  C31 UNL     1     -17.229  43.929 -22.879  1.00  0.00     0.020 C 
HETATM   48  C33 UNL     1     -17.337  46.939 -20.350  1.00  0.00     0.007 C 
HETATM   49  C34 UNL     1     -16.657  47.120 -18.989  1.00  0.00     0.013 C 
HETATM   50  C36 UNL     1     -15.011  45.374 -18.207  1.00  0.00     0.019 C 
BRANCH  31  51
HETATM   51  O6  UNL     1     -15.051  48.434 -17.131  1.00  0.00    -0.381 OA
HETATM   52  H29 UNL     1     -15.300  47.715 -16.524  1.00  0.00     0.211 HD
ENDBRANCH  31  51
ENDBRANCH  29  31
ENDBRANCH  28  29
ENDBRANCH  27  28
ENDBRANCH   1  27
TORSDOF 19
ENDMDL
MODEL 3
REMARK minimizedAffinity -8.27263546
REMARK CNNscore 0.500000715
REMARK CNNaffinity 7.03972816
REMARK  19 active torsions:
REMARK  status: ('A' for Active; 'I' for Inactive)
REMARK    1  A    between atoms: C2_2  and  C3_3 
REMARK    2  A    between atoms: C3_3  and  C5_5 
REMARK    3  A    between atoms: C5_5  and  N1_6 
REMARK    4  A    between atoms: C5_5  and  C37_46 
REMARK       I    between atoms: N1_6  and  C6_7 
REMARK    5  A    between atoms: C6_7  and  C7_9 
REMARK    6  A    between atoms: C7_9  and  C8_10 
REMARK    7  A    between atoms: C8_10  and  C9_11 
REMARK    8  A    between atoms: C9_11  and  C10_12 
REMARK    9  A    between atoms: C10_12  and  C11_13 
REMARK   10  A    between atoms: C11_13  and  N2_14 
REMARK       I    between atoms: N2_14  and  C12_15 
REMARK   11  A    between atoms: C12_15  and  C13_17 
REMARK   12  A    between atoms: C13_17  and  C14_18 
REMARK   13  A    between atoms: C14_18  and  C15_19 
REMARK   14  A    between atoms: C15_19  and  O4_21 
REMARK   15  A    between atoms: O4_21  and  C16_22 
REMARK   16  A    between atoms: C16_22  and  C17_23 
REMARK   17  A    between atoms: C17_23  and  C18_25 
REMARK   18  A    between atoms: C18_25  and  O6_26 
REMARK   19  A    between atoms: C37_46  and  O9_48 
ROOT
HETATM    1  C15 UNL     1       1.490  52.317 -15.911  1.00  0.00     0.259 C 
HETATM    2  O3  UNL     1       2.678  52.593 -15.992  1.00  0.00    -0.265 OA
ENDROOT
BRANCH   1   3
HETATM    3  C14 UNL     1       0.673  51.630 -16.979  1.00  0.00     0.120 C 
BRANCH   3   4
HETATM    4  C13 UNL     1       0.591  52.477 -18.242  1.00  0.00     0.112 C 
BRANCH   4   5
HETATM    5  C12 UNL     1      -0.539  52.031 -19.150  1.00  0.00     0.217 C 
HETATM    6  N2  UNL     1      -0.201  52.086 -20.488  1.00  0.00    -0.361 N 
HETATM    7  H22 UNL     1       0.568  52.695 -20.731  1.00  0.00     0.162 HD
HETATM    8  O2  UNL     1      -1.614  51.614 -18.729  1.00  0.00    -0.274 OA
BRANCH   6   9
HETATM    9  C11 UNL     1      -1.189  51.811 -21.513  1.00  0.00     0.122 C 
BRANCH   9  10
HETATM   10  C10 UNL     1      -0.842  50.576 -22.346  1.00  0.00     0.020 C 
BRANCH  10  11
HETATM   11  C9  UNL     1      -1.964  49.536 -22.456  1.00  0.00     0.002 C 
BRANCH  11  12
HETATM   12  C8  UNL     1      -2.946  49.777 -23.607  1.00  0.00     0.009 C 
BRANCH  12  13
HETATM   13  C7  UNL     1      -2.762  48.769 -24.742  1.00  0.00     0.103 C 
BRANCH  13  14
HETATM   14  C6  UNL     1      -2.461  49.424 -26.080  1.00  0.00     0.218 C 
HETATM   15  N1  UNL     1      -1.638  50.523 -25.961  1.00  0.00    -0.346 N 
HETATM   16  H11 UNL     1      -1.634  50.979 -25.056  1.00  0.00     0.163 HD
HETATM   17  O1  UNL     1      -2.915  49.028 -27.145  1.00  0.00    -0.274 OA
BRANCH  15  18
HETATM   18  C5  UNL     1      -1.389  51.407 -27.104  1.00  0.00     0.186 C 
BRANCH  18  19
HETATM   19  C3  UNL     1       0.089  51.865 -27.162  1.00  0.00     0.014 C 
HETATM   20  C4  UNL     1       0.228  53.366 -27.452  1.00  0.00     0.012 C 
BRANCH  19  21
HETATM   21  C2  UNL     1       0.820  51.462 -25.861  1.00  0.00     0.002 C 
HETATM   22  C1  UNL     1       2.130  50.725 -26.103  1.00  0.00     0.005 C 
ENDBRANCH  19  21
ENDBRANCH  18  19
BRANCH  18  23
HETATM   23  C37 UNL     1      -2.329  52.621 -27.073  1.00  0.00     0.163 C 
HETATM   24  O8  UNL     1      -3.029  52.969 -26.135  1.00  0.00    -0.648 OA
BRANCH  23  25
HETATM   25  O9  UNL     1      -2.398  53.292 -28.246  1.00  0.00    -0.775 OA
HETATM   26  H56 UNL     1      -3.023  54.025 -28.049  1.00  0.00     0.167 HD
ENDBRANCH  23  25
ENDBRANCH  18  23
ENDBRANCH  15  18
ENDBRANCH  13  14
ENDBRANCH  12  13
ENDBRANCH  11  12
ENDBRANCH  10  11
ENDBRANCH   9  10
ENDBRANCH   6   9
ENDBRANCH   4   5
ENDBRANCH   3   4
ENDBRANCH   1   3
BRANCH   1  27
HETATM   27  O4  UNL     1       0.707  52.542 -14.817  1.00  0.00    -0.314 OA
BRANCH  27  28
HETATM   28  C16 UNL     1       1.162  51.870 -13.641  1.00  0.00     0.260 C 
BRANCH  28  29
HETATM   29  C17 UNL     1       0.270  52.246 -12.466  1.00  0.00     0.185 C 
HETATM   30  O5  UNL     1      -0.874  52.671 -12.662  1.00  0.00    -0.292 OA
BRANCH  29  31
HETATM   31  C18 UNL     1       0.881  52.130 -11.035  1.00  0.00     0.128 C 
HETATM   32  C19 UNL     1       2.291  51.524 -11.156  1.00  0.00     0.047 C 
HETATM   33  C20 UNL     1       3.282  52.692 -11.082  1.00  0.00     0.009 C 
HETATM   34  C21 UNL     1       2.443  53.979 -10.970  1.00  0.00     0.002 C 
HETATM   35  C22 UNL     1       3.102  55.217 -10.304  1.00  0.00    -0.004 C 
HETATM   36  C35 UNL     1       1.134  53.496 -10.311  1.00  0.00    -0.002 C 
HETATM   37  C23 UNL     1       4.590  55.374 -10.692  1.00  0.00     0.010 C 
HETATM   38  C32 UNL     1       2.812  55.375  -8.776  1.00  0.00     0.002 C 
HETATM   39  C24 UNL     1       5.559  54.986  -9.582  1.00  0.00     0.035 C 
HETATM   40  C25 UNL     1       5.304  55.725  -8.294  1.00  0.00    -0.068 C 
HETATM   41  C26 UNL     1       6.307  55.877  -7.408  1.00  0.00     0.053 C 
HETATM   42  C30 UNL     1       3.894  56.249  -8.035  1.00  0.00    -0.016 C 
HETATM   43  C27 UNL     1       6.114  56.565  -6.108  1.00  0.00     0.149 C 
HETATM   44  O7  UNL     1       7.087  56.751  -5.375  1.00  0.00    -0.293 OA
HETATM   45  C28 UNL     1       4.730  57.047  -5.737  1.00  0.00     0.084 C 
HETATM   46  C29 UNL     1       3.657  56.273  -6.498  1.00  0.00     0.022 C 
HETATM   47  C31 UNL     1       3.783  57.713  -8.552  1.00  0.00     0.020 C 
HETATM   48  C33 UNL     1       2.523  54.009  -8.143  1.00  0.00     0.007 C 
HETATM   49  C34 UNL     1       1.328  53.289  -8.777  1.00  0.00     0.013 C 
HETATM   50  C36 UNL     1      -0.022  54.487 -10.540  1.00  0.00     0.019 C 
BRANCH  31  51
HETATM   51  O6  UNL     1       0.090  51.260 -10.228  1.00  0.00    -0.381 OA
HETATM   52  H29 UNL     1      -0.739  51.727 -10.025  1.00  0.00     0.211 HD
ENDBRANCH  31  51
ENDBRANCH  29  31
ENDBRANCH  28  29
ENDBRANCH  27  28
ENDBRANCH   1  27
TORSDOF 19
ENDMDL
MODEL 4
REMARK minimizedAffinity -7.97912502
REMARK CNNscore 0.485972732
REMARK CNNaffinity 6.77160883
REMARK  19 active torsions:
REMARK  status: ('A' for Active; 'I' for Inactive)
REMARK    1  A    between atoms: C2_2  and  C3_3 
REMARK    2  A    between atoms: C3_3  and  C5_5 
REMARK    3  A    between atoms: C5_5  and  N1_6 
REMARK    4  A    between atoms: C5_5  and  C37_46 
REMARK       I    between atoms: N1_6  and  C6_7 
REMARK    5  A    between atoms: C6_7  and  C7_9 
REMARK    6  A    between atoms: C7_9  and  C8_10 
REMARK    7  A    between atoms: C8_10  and  C9_11 
REMARK    8  A    between atoms: C9_11  and  C10_12 
REMARK    9  A    between atoms: C10_12  and  C11_13 
REMARK   10  A    between atoms: C11_13  and  N2_14 
REMARK       I    between atoms: N2_14  and  C12_15 
REMARK   11  A    between atoms: C12_15  and  C13_17 
REMARK   12  A    between atoms: C13_17  and  C14_18 
REMARK   13  A    between atoms: C14_18  and  C15_19 
REMARK   14  A    between atoms: C15_19  and  O4_21 
REMARK   15  A    between atoms: O4_21  and  C16_22 
REMARK   16  A    between atoms: C16_22  and  C17_23 
REMARK   17  A    between atoms: C17_23  and  C18_25 
REMARK   18  A    between atoms: C18_25  and  O6_26 
REMARK   19  A    between atoms: C37_46  and  O9_48 
ROOT
HETATM    1  C15 UNL     1       1.866  51.103 -13.595  1.00  0.00     0.259 C 
HETATM    2  O3  UNL     1       2.582  50.226 -14.057  1.00  0.00    -0.265 OA
ENDROOT
BRANCH   1   3
HETATM    3  C14 UNL     1       0.824  51.880 -14.362  1.00  0.00     0.120 C 
BRANCH   3   4
HETATM    4  C13 UNL     1       0.563  51.254 -15.726  1.00  0.00     0.112 C 
BRANCH   4   5
HETATM    5  C12 UNL     1       1.123  52.101 -16.854  1.00  0.00     0.217 C 
HETATM    6  N2  UNL     1       0.319  52.094 -17.976  1.00  0.00    -0.361 N 
HETATM    7  H22 UNL     1      -0.324  51.319 -18.062  1.00  0.00     0.162 HD
HETATM    8  O2  UNL     1       2.153  52.762 -16.749  1.00  0.00    -0.274 OA
BRANCH   6   9
HETATM    9  C11 UNL     1       0.746  52.750 -19.197  1.00  0.00     0.122 C 
BRANCH   9  10
HETATM   10  C10 UNL     1       0.180  52.082 -20.451  1.00  0.00     0.020 C 
BRANCH  10  11
HETATM   11  C9  UNL     1       1.007  52.297 -21.724  1.00  0.00     0.002 C 
BRANCH  11  12
HETATM   12  C8  UNL     1       0.219  52.868 -22.907  1.00  0.00     0.009 C 
BRANCH  12  13
HETATM   13  C7  UNL     1      -0.110  51.798 -23.950  1.00  0.00     0.103 C 
BRANCH  13  14
HETATM   14  C6  UNL     1      -1.506  51.942 -24.533  1.00  0.00     0.218 C 
HETATM   15  N1  UNL     1      -1.947  50.790 -25.147  1.00  0.00    -0.346 N 
HETATM   16  H11 UNL     1      -1.226  50.154 -25.468  1.00  0.00     0.163 HD
HETATM   17  O1  UNL     1      -2.160  52.975 -24.478  1.00  0.00    -0.274 OA
BRANCH  15  18
HETATM   18  C5  UNL     1      -3.181  50.781 -25.941  1.00  0.00     0.186 C 
BRANCH  18  19
HETATM   19  C3  UNL     1      -3.902  49.414 -25.861  1.00  0.00     0.014 C 
HETATM   20  C4  UNL     1      -3.675  48.556 -27.113  1.00  0.00     0.012 C 
BRANCH  19  21
HETATM   21  C2  UNL     1      -3.485  48.668 -24.573  1.00  0.00     0.002 C 
HETATM   22  C1  UNL     1      -4.655  48.338 -23.656  1.00  0.00     0.005 C 
ENDBRANCH  19  21
ENDBRANCH  18  19
BRANCH  18  23
HETATM   23  C37 UNL     1      -2.896  51.157 -27.402  1.00  0.00     0.163 C 
HETATM   24  O8  UNL     1      -2.822  50.385 -28.345  1.00  0.00    -0.648 OA
BRANCH  23  25
HETATM   25  O9  UNL     1      -2.645  52.473 -27.591  1.00  0.00    -0.775 OA
HETATM   26  H56 UNL     1      -2.495  52.537 -28.560  1.00  0.00     0.167 HD
ENDBRANCH  23  25
ENDBRANCH  18  23
ENDBRANCH  15  18
ENDBRANCH  13  14
ENDBRANCH  12  13
ENDBRANCH  11  12
ENDBRANCH  10  11
ENDBRANCH   9  10
ENDBRANCH   6   9
ENDBRANCH   4   5
ENDBRANCH   3   4
ENDBRANCH   1   3
BRANCH   1  27
HETATM   27  O4  UNL     1       1.855  51.497 -12.290  1.00  0.00    -0.314 OA
BRANCH  27  28
HETATM   28  C16 UNL     1       1.044  52.648 -12.047  1.00  0.00     0.260 C 
BRANCH  28  29
HETATM   29  C17 UNL     1       1.483  53.312 -10.749  1.00  0.00     0.185 C 
HETATM   30  O5  UNL     1       0.768  53.247  -9.743  1.00  0.00    -0.292 OA
BRANCH  29  31
HETATM   31  C18 UNL     1       2.820  54.116 -10.769  1.00  0.00     0.128 C 
HETATM   32  C19 UNL     1       2.486  55.618 -10.711  1.00  0.00     0.047 C 
HETATM   33  C20 UNL     1       2.675  56.057  -9.253  1.00  0.00     0.009 C 
HETATM   34  C21 UNL     1       3.068  54.797  -8.459  1.00  0.00     0.002 C 
HETATM   35  C22 UNL     1       3.877  54.993  -7.148  1.00  0.00    -0.004 C 
HETATM   36  C35 UNL     1       3.740  53.900  -9.520  1.00  0.00    -0.002 C 
HETATM   37  C23 UNL     1       3.403  56.220  -6.338  1.00  0.00     0.010 C 
HETATM   38  C32 UNL     1       5.428  54.884  -7.309  1.00  0.00     0.002 C 
HETATM   39  C24 UNL     1       4.349  57.412  -6.416  1.00  0.00     0.035 C 
HETATM   40  C25 UNL     1       5.760  57.068  -6.010  1.00  0.00    -0.068 C 
HETATM   41  C26 UNL     1       6.575  58.041  -5.560  1.00  0.00     0.053 C 
HETATM   42  C30 UNL     1       6.215  55.619  -6.158  1.00  0.00    -0.016 C 
HETATM   43  C27 UNL     1       7.983  57.776  -5.176  1.00  0.00     0.149 C 
HETATM   44  O7  UNL     1       8.656  58.686  -4.690  1.00  0.00    -0.293 OA
HETATM   45  C28 UNL     1       8.540  56.383  -5.365  1.00  0.00     0.084 C 
HETATM   46  C29 UNL     1       7.749  55.614  -6.420  1.00  0.00     0.022 C 
HETATM   47  C31 UNL     1       5.962  54.858  -4.825  1.00  0.00     0.020 C 
HETATM   48  C33 UNL     1       5.844  55.261  -8.736  1.00  0.00     0.007 C 
HETATM   49  C34 UNL     1       5.197  54.377  -9.808  1.00  0.00     0.013 C 
HETATM   50  C36 UNL     1       3.774  52.424  -9.082  1.00  0.00     0.019 C 
BRANCH  31  51
HETATM   51  O6  UNL     1       3.530  53.864 -11.979  1.00  0.00    -0.381 OA
HETATM   52  H29 UNL     1       3.875  52.955 -11.929  1.00  0.00     0.211 HD
ENDBRANCH  31  51
ENDBRANCH  29  31
ENDBRANCH  28  29
ENDBRANCH  27  28
ENDBRANCH   1  27
TORSDOF 19
ENDMDL
MODEL 5
REMARK minimizedAffinity -7.6572361
REMARK CNNscore 0.478304505
REMARK CNNaffinity 6.85033798
REMARK  19 active torsions:
REMARK  status: ('A' for Active; 'I' for Inactive)
REMARK    1  A    between atoms: C2_2  and  C3_3 
REMARK    2  A    between atoms: C3_3  and  C5_5 
REMARK    3  A    between atoms: C5_5  and  N1_6 
REMARK    4  A    between atoms: C5_5  and  C37_46 
REMARK       I    between atoms: N1_6  and  C6_7 
REMARK    5  A    between atoms: C6_7  and  C7_9 
REMARK    6  A    between atoms: C7_9  and  C8_10 
REMARK    7  A    between atoms: C8_10  and  C9_11 
REMARK    8  A    between atoms: C9_11  and  C10_12 
REMARK    9  A    between atoms: C10_12  and  C11_13 
REMARK   10  A    between atoms: C11_13  and  N2_14 
REMARK       I    between atoms: N2_14  and  C12_15 
REMARK   11  A    between atoms: C12_15  and  C13_17 
REMARK   12  A    between atoms: C13_17  and  C14_18 
REMARK   13  A    between atoms: C14_18  and  C15_19 
REMARK   14  A    between atoms: C15_19  and  O4_21 
REMARK   15  A    between atoms: O4_21  and  C16_22 
REMARK   16  A    between atoms: C16_22  and  C17_23 
REMARK   17  A    between atoms: C17_23  and  C18_25 
REMARK   18  A    between atoms: C18_25  and  O6_26 
REMARK   19  A    between atoms: C37_46  and  O9_48 
ROOT
HETATM    1  C15 UNL     1      -4.816  48.458 -29.054  1.00  0.00     0.259 C 
HETATM    2  O3  UNL     1      -4.763  48.871 -30.204  1.00  0.00    -0.265 OA
ENDROOT
BRANCH   1   3
HETATM    3  C14 UNL     1      -6.045  47.904 -28.376  1.00  0.00     0.120 C 
BRANCH   3   4
HETATM    4  C13 UNL     1      -6.456  46.568 -28.984  1.00  0.00     0.112 C 
BRANCH   4   5
HETATM    5  C12 UNL     1      -7.706  46.693 -29.833  1.00  0.00     0.217 C 
HETATM    6  N2  UNL     1      -8.810  46.107 -29.246  1.00  0.00    -0.361 N 
HETATM    7  H22 UNL     1      -8.624  45.408 -28.540  1.00  0.00     0.162 HD
HETATM    8  O2  UNL     1      -7.736  47.302 -30.899  1.00  0.00    -0.274 OA
BRANCH   6   9
HETATM    9  C11 UNL     1     -10.070  46.022 -29.959  1.00  0.00     0.122 C 
BRANCH   9  10
HETATM   10  C10 UNL     1     -10.942  44.864 -29.473  1.00  0.00     0.020 C 
BRANCH  10  11
HETATM   11  C9  UNL     1     -12.449  45.149 -29.470  1.00  0.00     0.002 C 
BRANCH  11  12
HETATM   12  C8  UNL     1     -13.252  44.323 -28.461  1.00  0.00     0.009 C 
BRANCH  12  13
HETATM   13  C7  UNL     1     -13.132  44.874 -27.039  1.00  0.00     0.103 C 
BRANCH  13  14
HETATM   14  C6  UNL     1     -14.386  44.665 -26.208  1.00  0.00     0.218 C 
HETATM   15  N1  UNL     1     -15.016  45.848 -25.889  1.00  0.00    -0.346 N 
HETATM   16  H11 UNL     1     -14.433  46.677 -25.896  1.00  0.00     0.163 HD
HETATM   17  O1  UNL     1     -14.785  43.564 -25.848  1.00  0.00    -0.274 OA
BRANCH  15  18
HETATM   18  C5  UNL     1     -16.128  45.877 -24.933  1.00  0.00     0.186 C 
BRANCH  18  19
HETATM   19  C3  UNL     1     -17.476  46.175 -25.633  1.00  0.00     0.014 C 
HETATM   20  C4  UNL     1     -18.119  44.916 -26.231  1.00  0.00     0.012 C 
BRANCH  19  21
HETATM   21  C2  UNL     1     -18.433  46.899 -24.658  1.00  0.00     0.002 C 
HETATM   22  C1  UNL     1     -19.705  46.117 -24.362  1.00  0.00     0.005 C 
ENDBRANCH  19  21
ENDBRANCH  18  19
BRANCH  18  23
HETATM   23  C37 UNL     1     -15.863  46.897 -23.815  1.00  0.00     0.163 C 
HETATM   24  O8  UNL     1     -15.421  48.026 -23.958  1.00  0.00    -0.648 OA
BRANCH  23  25
HETATM   25  O9  UNL     1     -16.097  46.420 -22.571  1.00  0.00    -0.775 OA
HETATM   26  H56 UNL     1     -15.889  47.187 -21.993  1.00  0.00     0.167 HD
ENDBRANCH  23  25
ENDBRANCH  18  23
ENDBRANCH  15  18
ENDBRANCH  13  14
ENDBRANCH  12  13
ENDBRANCH  11  12
ENDBRANCH  10  11
ENDBRANCH   9  10
ENDBRANCH   6   9
ENDBRANCH   4   5
ENDBRANCH   3   4
ENDBRANCH   1   3
BRANCH   1  27
HETATM   27  O4  UNL     1      -3.755  48.383 -28.200  1.00  0.00    -0.314 OA
BRANCH  27  28
HETATM   28  C16 UNL     1      -3.929  49.144 -27.004  1.00  0.00     0.260 C 
BRANCH  28  29
HETATM   29  C17 UNL     1      -3.131  50.437 -27.104  1.00  0.00     0.185 C 
HETATM   30  O5  UNL     1      -2.473  50.685 -28.120  1.00  0.00    -0.292 OA
BRANCH  29  31
HETATM   31  C18 UNL     1      -3.136  51.382 -25.863  1.00  0.00     0.128 C 
HETATM   32  C19 UNL     1      -4.472  51.202 -25.119  1.00  0.00     0.047 C 
HETATM   33  C20 UNL     1      -4.197  50.263 -23.939  1.00  0.00     0.009 C 
HETATM   34  C21 UNL     1      -2.714  49.858 -24.030  1.00  0.00     0.002 C 
HETATM   35  C22 UNL     1      -2.001  49.424 -22.720  1.00  0.00    -0.004 C 
HETATM   36  C35 UNL     1      -2.065  51.045 -24.771  1.00  0.00    -0.002 C 
HETATM   37  C23 UNL     1      -2.911  48.574 -21.806  1.00  0.00     0.010 C 
HETATM   38  C32 UNL     1      -1.228  50.565 -21.983  1.00  0.00     0.002 C 
HETATM   39  C24 UNL     1      -3.434  49.326 -20.587  1.00  0.00     0.035 C 
HETATM   40  C25 UNL     1      -2.333  49.937 -19.758  1.00  0.00    -0.068 C 
HETATM   41  C26 UNL     1      -2.551  50.195 -18.454  1.00  0.00     0.053 C 
HETATM   42  C30 UNL     1      -1.013  50.267 -20.450  1.00  0.00    -0.016 C 
HETATM   43  C27 UNL     1      -1.523  50.825 -17.591  1.00  0.00     0.149 C 
HETATM   44  O7  UNL     1      -1.746  50.958 -16.387  1.00  0.00    -0.293 OA
HETATM   45  C28 UNL     1      -0.214  51.256 -18.213  1.00  0.00     0.084 C 
HETATM   46  C29 UNL     1      -0.367  51.477 -19.717  1.00  0.00     0.022 C 
HETATM   47  C31 UNL     1      -0.041  49.060 -20.314  1.00  0.00     0.020 C 
HETATM   48  C33 UNL     1      -1.850  51.928 -22.308  1.00  0.00     0.007 C 
HETATM   49  C34 UNL     1      -1.849  52.252 -23.806  1.00  0.00     0.013 C 
HETATM   50  C36 UNL     1      -0.711  50.657 -25.397  1.00  0.00     0.019 C 
BRANCH  31  51
HETATM   51  O6  UNL     1      -3.036  52.743 -26.277  1.00  0.00    -0.381 OA
HETATM   52  H29 UNL     1      -2.128  52.882 -26.598  1.00  0.00     0.211 HD
ENDBRANCH  31  51
ENDBRANCH  29  31
ENDBRANCH  28  29
ENDBRANCH  27  28
ENDBRANCH   1  27
TORSDOF 19
ENDMDL
MODEL 6
REMARK minimizedAffinity -7.87839842
REMARK CNNscore 0.381187975
REMARK CNNaffinity 6.68613482
REMARK  19 active torsions:
REMARK  status: ('A' for Active; 'I' for Inactive)
REMARK    1  A    between atoms: C2_2  and  C3_3 
REMARK    2  A    between atoms: C3_3  and  C5_5 
REMARK    3  A    between atoms: C5_5  and  N1_6 
REMARK    4  A    between atoms: C5_5  and  C37_46 
REMARK       I    between atoms: N1_6  and  C6_7 
REMARK    5  A    between atoms: C6_7  and  C7_9 
REMARK    6  A    between atoms: C7_9  and  C8_10 
REMARK    7  A    between atoms: C8_10  and  C9_11 
REMARK    8  A    between atoms: C9_11  and  C10_12 
REMARK    9  A    between atoms: C10_12  and  C11_13 
REMARK   10  A    between atoms: C11_13  and  N2_14 
REMARK       I    between atoms: N2_14  and  C12_15 
REMARK   11  A    between atoms: C12_15  and  C13_17 
REMARK   12  A    between atoms: C13_17  and  C14_18 
REMARK   13  A    between atoms: C14_18  and  C15_19 
REMARK   14  A    between atoms: C15_19  and  O4_21 
REMARK   15  A    between atoms: O4_21  and  C16_22 
REMARK   16  A    between atoms: C16_22  and  C17_23 
REMARK   17  A    between atoms: C17_23  and  C18_25 
REMARK   18  A    between atoms: C18_25  and  O6_26 
REMARK   19  A    between atoms: C37_46  and  O9_48 
ROOT
HETATM    1  C15 UNL     1      -5.006  48.162 -28.598  1.00  0.00     0.259 C 
HETATM    2  O3  UNL     1      -4.527  48.150 -29.723  1.00  0.00    -0.265 OA
ENDROOT
BRANCH   1   3
HETATM    3  C14 UNL     1      -4.230  48.320 -27.313  1.00  0.00     0.120 C 
BRANCH   3   4
HETATM    4  C13 UNL     1      -5.148  48.239 -26.100  1.00  0.00     0.112 C 
BRANCH   4   5
HETATM    5  C12 UNL     1      -4.608  49.034 -24.927  1.00  0.00     0.217 C 
HETATM    6  N2  UNL     1      -5.464  50.039 -24.524  1.00  0.00    -0.361 N 
HETATM    7  H22 UNL     1      -6.142  50.350 -25.206  1.00  0.00     0.162 HD
HETATM    8  O2  UNL     1      -3.548  48.766 -24.366  1.00  0.00    -0.274 OA
BRANCH   6   9
HETATM    9  C11 UNL     1      -5.069  50.979 -23.493  1.00  0.00     0.122 C 
BRANCH   9  10
HETATM   10  C10 UNL     1      -4.088  52.035 -24.007  1.00  0.00     0.020 C 
BRANCH  10  11
HETATM   11  C9  UNL     1      -2.749  52.087 -23.261  1.00  0.00     0.002 C 
BRANCH  11  12
HETATM   12  C8  UNL     1      -2.836  51.749 -21.770  1.00  0.00     0.009 C 
BRANCH  12  13
HETATM   13  C7  UNL     1      -2.096  50.455 -21.428  1.00  0.00     0.103 C 
BRANCH  13  14
HETATM   14  C6  UNL     1      -0.729  50.694 -20.810  1.00  0.00     0.218 C 
HETATM   15  N1  UNL     1      -0.753  51.653 -19.821  1.00  0.00    -0.346 N 
HETATM   16  H11 UNL     1      -1.514  52.320 -19.868  1.00  0.00     0.163 HD
HETATM   17  O1  UNL     1       0.287  50.109 -21.165  1.00  0.00    -0.274 OA
BRANCH  15  18
HETATM   18  C5  UNL     1       0.491  52.169 -19.239  1.00  0.00     0.186 C 
BRANCH  18  19
HETATM   19  C3  UNL     1       0.507  52.019 -17.698  1.00  0.00     0.014 C 
HETATM   20  C4  UNL     1       0.279  50.569 -17.247  1.00  0.00     0.012 C 
BRANCH  19  21
HETATM   21  C2  UNL     1       1.819  52.599 -17.122  1.00  0.00     0.002 C 
HETATM   22  C1  UNL     1       2.356  51.819 -15.930  1.00  0.00     0.005 C 
ENDBRANCH  19  21
ENDBRANCH  18  19
BRANCH  18  23
HETATM   23  C37 UNL     1       0.718  53.634 -19.641  1.00  0.00     0.163 C 
HETATM   24  O8  UNL     1       1.624  54.059 -20.341  1.00  0.00    -0.648 OA
BRANCH  23  25
HETATM   25  O9  UNL     1      -0.161  54.498 -19.083  1.00  0.00    -0.775 OA
HETATM   26  H56 UNL     1       0.118  55.368 -19.445  1.00  0.00     0.167 HD
ENDBRANCH  23  25
ENDBRANCH  18  23
ENDBRANCH  15  18
ENDBRANCH  13  14
ENDBRANCH  12  13
ENDBRANCH  11  12
ENDBRANCH  10  11
ENDBRANCH   9  10
ENDBRANCH   6   9
ENDBRANCH   4   5
ENDBRANCH   3   4
ENDBRANCH   1   3
BRANCH   1  27
HETATM   27  O4  UNL     1      -6.338  48.081 -28.315  1.00  0.00    -0.314 OA
BRANCH  27  28
HETATM   28  C16 UNL     1      -6.918  46.818 -28.648  1.00  0.00     0.260 C 
BRANCH  28  29
HETATM   29  C17 UNL     1      -8.162  47.039 -29.496  1.00  0.00     0.185 C 
HETATM   30  O5  UNL     1      -8.178  46.692 -30.682  1.00  0.00    -0.292 OA
BRANCH  29  31
HETATM   31  C18 UNL     1      -9.368  47.768 -28.826  1.00  0.00     0.128 C 
HETATM   32  C19 UNL     1     -10.439  48.028 -29.902  1.00  0.00     0.047 C 
HETATM   33  C20 UNL     1     -11.496  46.927 -29.749  1.00  0.00     0.009 C 
HETATM   34  C21 UNL     1     -11.011  46.001 -28.618  1.00  0.00     0.002 C 
HETATM   35  C22 UNL     1     -12.080  45.183 -27.844  1.00  0.00    -0.004 C 
HETATM   36  C35 UNL     1     -10.134  46.927 -27.749  1.00  0.00    -0.002 C 
HETATM   37  C23 UNL     1     -13.196  44.647 -28.767  1.00  0.00     0.010 C 
HETATM   38  C32 UNL     1     -12.596  45.853 -26.528  1.00  0.00     0.002 C 
HETATM   39  C24 UNL     1     -14.516  45.397 -28.639  1.00  0.00     0.035 C 
HETATM   40  C25 UNL     1     -15.028  45.446 -27.222  1.00  0.00    -0.068 C 
HETATM   41  C26 UNL     1     -16.346  45.617 -27.000  1.00  0.00     0.053 C 
HETATM   42  C30 UNL     1     -14.013  45.324 -26.088  1.00  0.00    -0.016 C 
HETATM   43  C27 UNL     1     -16.910  45.706 -25.631  1.00  0.00     0.149 C 
HETATM   44  O7  UNL     1     -18.131  45.778 -25.486  1.00  0.00    -0.293 OA
HETATM   45  C28 UNL     1     -15.966  45.674 -24.450  1.00  0.00     0.084 C 
HETATM   46  C29 UNL     1     -14.560  46.106 -24.859  1.00  0.00     0.022 C 
HETATM   47  C31 UNL     1     -13.876  43.831 -25.674  1.00  0.00     0.020 C 
HETATM   48  C33 UNL     1     -12.459  47.377 -26.616  1.00  0.00     0.007 C 
HETATM   49  C34 UNL     1     -11.018  47.844 -26.847  1.00  0.00     0.013 C 
HETATM   50  C36 UNL     1      -9.167  46.127 -26.855  1.00  0.00     0.019 C 
BRANCH  31  51
HETATM   51  O6  UNL     1      -8.955  49.026 -28.297  1.00  0.00    -0.381 OA
HETATM   52  H29 UNL     1      -8.405  48.844 -27.515  1.00  0.00     0.211 HD
ENDBRANCH  31  51
ENDBRANCH  29  31
ENDBRANCH  28  29
ENDBRANCH  27  28
ENDBRANCH   1  27
TORSDOF 19
ENDMDL
MODEL 7
REMARK minimizedAffinity -8.27073669
REMARK CNNscore 0.370630711
REMARK CNNaffinity 6.94784307
REMARK  19 active torsions:
REMARK  status: ('A' for Active; 'I' for Inactive)
REMARK    1  A    between atoms: C2_2  and  C3_3 
REMARK    2  A    between atoms: C3_3  and  C5_5 
REMARK    3  A    between atoms: C5_5  and  N1_6 
REMARK    4  A    between atoms: C5_5  and  C37_46 
REMARK       I    between atoms: N1_6  and  C6_7 
REMARK    5  A    between atoms: C6_7  and  C7_9 
REMARK    6  A    between atoms: C7_9  and  C8_10 
REMARK    7  A    between atoms: C8_10  and  C9_11 
REMARK    8  A    between atoms: C9_11  and  C10_12 
REMARK    9  A    between atoms: C10_12  and  C11_13 
REMARK   10  A    between atoms: C11_13  and  N2_14 
REMARK       I    between atoms: N2_14  and  C12_15 
REMARK   11  A    between atoms: C12_15  and  C13_17 
REMARK   12  A    between atoms: C13_17  and  C14_18 
REMARK   13  A    between atoms: C14_18  and  C15_19 
REMARK   14  A    between atoms: C15_19  and  O4_21 
REMARK   15  A    between atoms: O4_21  and  C16_22 
REMARK   16  A    between atoms: C16_22  and  C17_23 
REMARK   17  A    between atoms: C17_23  and  C18_25 
REMARK   18  A    between atoms: C18_25  and  O6_26 
REMARK   19  A    between atoms: C37_46  and  O9_48 
ROOT
HETATM    1  C15 UNL     1      -1.470  50.892 -15.109  1.00  0.00     0.259 C 
HETATM    2  O3  UNL     1      -2.570  50.807 -15.636  1.00  0.00    -0.265 OA
ENDROOT
BRANCH   1   3
HETATM    3  C14 UNL     1      -0.176  50.376 -15.690  1.00  0.00     0.120 C 
BRANCH   3   4
HETATM    4  C13 UNL     1      -0.332  50.028 -17.164  1.00  0.00     0.112 C 
BRANCH   4   5
HETATM    5  C12 UNL     1       0.051  51.188 -18.064  1.00  0.00     0.217 C 
HETATM    6  N2  UNL     1      -0.275  50.966 -19.388  1.00  0.00    -0.361 N 
HETATM    7  H22 UNL     1      -0.401  50.002 -19.662  1.00  0.00     0.162 HD
HETATM    8  O2  UNL     1       0.544  52.230 -17.642  1.00  0.00    -0.274 OA
BRANCH   6   9
HETATM    9  C11 UNL     1       0.119  51.911 -20.414  1.00  0.00     0.122 C 
BRANCH   9  10
HETATM   10  C10 UNL     1      -0.652  51.713 -21.720  1.00  0.00     0.020 C 
BRANCH  10  11
HETATM   11  C9  UNL     1      -1.914  50.850 -21.599  1.00  0.00     0.002 C 
BRANCH  11  12
HETATM   12  C8  UNL     1      -2.741  50.747 -22.884  1.00  0.00     0.009 C 
BRANCH  12  13
HETATM   13  C7  UNL     1      -3.206  52.116 -23.383  1.00  0.00     0.103 C 
BRANCH  13  14
HETATM   14  C6  UNL     1      -2.735  52.431 -24.792  1.00  0.00     0.218 C 
HETATM   15  N1  UNL     1      -1.370  52.308 -24.937  1.00  0.00    -0.346 N 
HETATM   16  H11 UNL     1      -0.824  52.399 -24.088  1.00  0.00     0.163 HD
HETATM   17  O1  UNL     1      -3.486  52.773 -25.697  1.00  0.00    -0.274 OA
BRANCH  15  18
HETATM   18  C5  UNL     1      -0.697  52.756 -26.161  1.00  0.00     0.186 C 
BRANCH  18  19
HETATM   19  C3  UNL     1       0.172  51.633 -26.779  1.00  0.00     0.014 C 
HETATM   20  C4  UNL     1       0.339  51.788 -28.297  1.00  0.00     0.012 C 
BRANCH  19  21
HETATM   21  C2  UNL     1       1.537  51.562 -26.057  1.00  0.00     0.002 C 
HETATM   22  C1  UNL     1       2.729  51.602 -27.004  1.00  0.00     0.005 C 
ENDBRANCH  19  21
ENDBRANCH  18  19
BRANCH  18  23
HETATM   23  C37 UNL     1       0.150  54.009 -25.894  1.00  0.00     0.163 C 
HETATM   24  O8  UNL     1       0.760  54.263 -24.867  1.00  0.00    -0.648 OA
BRANCH  23  25
HETATM   25  O9  UNL     1       0.125  54.913 -26.901  1.00  0.00    -0.775 OA
HETATM   26  H56 UNL     1       0.711  55.630 -26.573  1.00  0.00     0.167 HD
ENDBRANCH  23  25
ENDBRANCH  18  23
ENDBRANCH  15  18
ENDBRANCH  13  14
ENDBRANCH  12  13
ENDBRANCH  11  12
ENDBRANCH  10  11
ENDBRANCH   9  10
ENDBRANCH   6   9
ENDBRANCH   4   5
ENDBRANCH   3   4
ENDBRANCH   1   3
BRANCH   1  27
HETATM   27  O4  UNL     1      -1.218  51.516 -13.923  1.00  0.00    -0.314 OA
BRANCH  27  28
HETATM   28  C16 UNL     1      -2.374  51.664 -13.097  1.00  0.00     0.260 C 
BRANCH  28  29
HETATM   29  C17 UNL     1      -1.951  51.708 -11.635  1.00  0.00     0.185 C 
HETATM   30  O5  UNL     1      -1.520  50.692 -11.080  1.00  0.00    -0.292 OA
BRANCH  29  31
HETATM   31  C18 UNL     1      -2.145  53.056 -10.872  1.00  0.00     0.128 C 
HETATM   32  C19 UNL     1      -2.834  52.759  -9.528  1.00  0.00     0.047 C 
HETATM   33  C20 UNL     1      -1.733  52.740  -8.461  1.00  0.00     0.009 C 
HETATM   34  C21 UNL     1      -0.400  52.975  -9.196  1.00  0.00     0.002 C 
HETATM   35  C22 UNL     1       0.776  53.585  -8.385  1.00  0.00    -0.004 C 
HETATM   36  C35 UNL     1      -0.818  53.773 -10.449  1.00  0.00    -0.002 C 
HETATM   37  C23 UNL     1       0.850  53.030  -6.945  1.00  0.00     0.010 C 
HETATM   38  C32 UNL     1       0.910  55.139  -8.486  1.00  0.00     0.002 C 
HETATM   39  C24 UNL     1       0.371  54.010  -5.881  1.00  0.00     0.035 C 
HETATM   40  C25 UNL     1       1.089  55.334  -5.938  1.00  0.00    -0.068 C 
HETATM   41  C26 UNL     1       1.154  56.100  -4.832  1.00  0.00     0.053 C 
HETATM   42  C30 UNL     1       1.693  55.766  -7.271  1.00  0.00    -0.016 C 
HETATM   43  C27 UNL     1       1.816  57.427  -4.828  1.00  0.00     0.149 C 
HETATM   44  O7  UNL     1       1.920  58.045  -3.768  1.00  0.00    -0.293 OA
HETATM   45  C28 UNL     1       2.373  57.967  -6.126  1.00  0.00     0.084 C 
HETATM   46  C29 UNL     1       1.689  57.320  -7.328  1.00  0.00     0.022 C 
HETATM   47  C31 UNL     1       3.175  55.296  -7.345  1.00  0.00     0.020 C 
HETATM   48  C33 UNL     1      -0.453  55.773  -8.789  1.00  0.00     0.007 C 
HETATM   49  C34 UNL     1      -1.079  55.269 -10.094  1.00  0.00     0.013 C 
HETATM   50  C36 UNL     1       0.250  53.700 -11.557  1.00  0.00     0.019 C 
BRANCH  31  51
HETATM   51  O6  UNL     1      -2.986  53.931 -11.620  1.00  0.00    -0.381 OA
HETATM   52  H29 UNL     1      -2.473  54.239 -12.389  1.00  0.00     0.211 HD
ENDBRANCH  31  51
ENDBRANCH  29  31
ENDBRANCH  28  29
ENDBRANCH  27  28
ENDBRANCH   1  27
TORSDOF 19
ENDMDL
MODEL 8
REMARK minimizedAffinity -8.27591038
REMARK CNNscore 0.328003883
REMARK CNNaffinity 6.78562784
REMARK  19 active torsions:
REMARK  status: ('A' for Active; 'I' for Inactive)
REMARK    1  A    between atoms: C2_2  and  C3_3 
REMARK    2  A    between atoms: C3_3  and  C5_5 
REMARK    3  A    between atoms: C5_5  and  N1_6 
REMARK    4  A    between atoms: C5_5  and  C37_46 
REMARK       I    between atoms: N1_6  and  C6_7 
REMARK    5  A    between atoms: C6_7  and  C7_9 
REMARK    6  A    between atoms: C7_9  and  C8_10 
REMARK    7  A    between atoms: C8_10  and  C9_11 
REMARK    8  A    between atoms: C9_11  and  C10_12 
REMARK    9  A    between atoms: C10_12  and  C11_13 
REMARK   10  A    between atoms: C11_13  and  N2_14 
REMARK       I    between atoms: N2_14  and  C12_15 
REMARK   11  A    between atoms: C12_15  and  C13_17 
REMARK   12  A    between atoms: C13_17  and  C14_18 
REMARK   13  A    between atoms: C14_18  and  C15_19 
REMARK   14  A    between atoms: C15_19  and  O4_21 
REMARK   15  A    between atoms: O4_21  and  C16_22 
REMARK   16  A    between atoms: C16_22  and  C17_23 
REMARK   17  A    between atoms: C17_23  and  C18_25 
REMARK   18  A    between atoms: C18_25  and  O6_26 
REMARK   19  A    between atoms: C37_46  and  O9_48 
ROOT
HETATM    1  C15 UNL     1      -2.813  51.341 -14.073  1.00  0.00     0.259 C 
HETATM    2  O3  UNL     1      -3.538  52.269 -14.404  1.00  0.00    -0.265 OA
ENDROOT
BRANCH   1   3
HETATM    3  C14 UNL     1      -2.387  50.199 -14.963  1.00  0.00     0.120 C 
BRANCH   3   4
HETATM    4  C13 UNL     1      -2.950  50.356 -16.369  1.00  0.00     0.112 C 
BRANCH   4   5
HETATM    5  C12 UNL     1      -2.141  49.581 -17.393  1.00  0.00     0.217 C 
HETATM    6  N2  UNL     1      -1.602  50.393 -18.371  1.00  0.00    -0.361 N 
HETATM    7  H22 UNL     1      -2.047  51.291 -18.504  1.00  0.00     0.162 HD
HETATM    8  O2  UNL     1      -1.945  48.371 -17.318  1.00  0.00    -0.274 OA
BRANCH   6   9
HETATM    9  C11 UNL     1      -0.895  49.822 -19.501  1.00  0.00     0.122 C 
BRANCH   9  10
HETATM   10  C10 UNL     1      -0.767  50.800 -20.669  1.00  0.00     0.020 C 
BRANCH  10  11
HETATM   11  C9  UNL     1      -2.076  51.484 -21.083  1.00  0.00     0.002 C 
BRANCH  11  12
HETATM   12  C8  UNL     1      -2.628  51.035 -22.440  1.00  0.00     0.009 C 
BRANCH  12  13
HETATM   13  C7  UNL     1      -3.325  52.175 -23.185  1.00  0.00     0.103 C 
BRANCH  13  14
HETATM   14  C6  UNL     1      -2.708  52.468 -24.541  1.00  0.00     0.218 C 
HETATM   15  N1  UNL     1      -1.330  52.450 -24.515  1.00  0.00    -0.346 N 
HETATM   16  H11 UNL     1      -0.902  52.620 -23.612  1.00  0.00     0.163 HD
HETATM   17  O1  UNL     1      -3.364  52.711 -25.546  1.00  0.00    -0.274 OA
BRANCH  15  18
HETATM   18  C5  UNL     1      -0.546  52.900 -25.670  1.00  0.00     0.186 C 
BRANCH  18  19
HETATM   19  C3  UNL     1       0.287  51.746 -26.280  1.00  0.00     0.014 C 
HETATM   20  C4  UNL     1      -0.445  50.399 -26.220  1.00  0.00     0.012 C 
BRANCH  19  21
HETATM   21  C2  UNL     1       0.712  52.104 -27.722  1.00  0.00     0.002 C 
HETATM   22  C1  UNL     1       2.192  51.870 -27.995  1.00  0.00     0.005 C 
ENDBRANCH  19  21
ENDBRANCH  18  19
BRANCH  18  23
HETATM   23  C37 UNL     1       0.361  54.079 -25.291  1.00  0.00     0.163 C 
HETATM   24  O8  UNL     1       1.175  54.101 -24.381  1.00  0.00    -0.648 OA
BRANCH  23  25
HETATM   25  O9  UNL     1       0.148  55.195 -26.026  1.00  0.00    -0.775 OA
HETATM   26  H56 UNL     1       0.803  55.832 -25.664  1.00  0.00     0.167 HD
ENDBRANCH  23  25
ENDBRANCH  18  23
ENDBRANCH  15  18
ENDBRANCH  13  14
ENDBRANCH  12  13
ENDBRANCH  11  12
ENDBRANCH  10  11
ENDBRANCH   9  10
ENDBRANCH   6   9
ENDBRANCH   4   5
ENDBRANCH   3   4
ENDBRANCH   1   3
BRANCH   1  27
HETATM   27  O4  UNL     1      -2.225  51.206 -12.850  1.00  0.00    -0.314 OA
BRANCH  27  28
HETATM   28  C16 UNL     1      -1.912  52.452 -12.224  1.00  0.00     0.260 C 
BRANCH  28  29
HETATM   29  C17 UNL     1      -0.410  52.689 -12.288  1.00  0.00     0.185 C 
HETATM   30  O5  UNL     1       0.122  53.036 -13.348  1.00  0.00    -0.292 OA
BRANCH  29  31
HETATM   31  C18 UNL     1       0.415  52.415 -10.992  1.00  0.00     0.128 C 
HETATM   32  C19 UNL     1       1.776  51.820 -11.399  1.00  0.00     0.047 C 
HETATM   33  C20 UNL     1       2.791  52.969 -11.358  1.00  0.00     0.009 C 
HETATM   34  C21 UNL     1       2.007  54.239 -10.978  1.00  0.00     0.002 C 
HETATM   35  C22 UNL     1       2.789  55.395 -10.297  1.00  0.00    -0.004 C 
HETATM   36  C35 UNL     1       0.808  53.693 -10.176  1.00  0.00    -0.002 C 
HETATM   37  C23 UNL     1       4.200  55.588 -10.896  1.00  0.00     0.010 C 
HETATM   38  C32 UNL     1       2.746  55.387  -8.734  1.00  0.00     0.002 C 
HETATM   39  C24 UNL     1       5.323  55.076 -10.002  1.00  0.00     0.035 C 
HETATM   40  C25 UNL     1       5.289  55.672  -8.618  1.00  0.00    -0.068 C 
HETATM   41  C26 UNL     1       6.422  55.723  -7.891  1.00  0.00     0.053 C 
HETATM   42  C30 UNL     1       3.949  56.171  -8.085  1.00  0.00    -0.016 C 
HETATM   43  C27 UNL     1       6.450  56.266  -6.511  1.00  0.00     0.149 C 
HETATM   44  O7  UNL     1       7.529  56.367  -5.925  1.00  0.00    -0.293 OA
HETATM   45  C28 UNL     1       5.152  56.710  -5.876  1.00  0.00     0.084 C 
HETATM   46  C29 UNL     1       3.956  56.028  -6.536  1.00  0.00     0.022 C 
HETATM   47  C31 UNL     1       3.789  57.683  -8.418  1.00  0.00     0.020 C 
HETATM   48  C33 UNL     1       2.531  53.962  -8.213  1.00  0.00     0.007 C 
HETATM   49  C34 UNL     1       1.236  53.320  -8.723  1.00  0.00     0.013 C 
HETATM   50  C36 UNL     1      -0.349  54.708 -10.112  1.00  0.00     0.019 C 
BRANCH  31  51
HETATM   51  O6  UNL     1      -0.257  51.466 -10.168  1.00  0.00    -0.381 OA
HETATM   52  H29 UNL     1      -1.035  51.912  -9.788  1.00  0.00     0.211 HD
ENDBRANCH  31  51
ENDBRANCH  29  31
ENDBRANCH  28  29
ENDBRANCH  27  28
ENDBRANCH   1  27
TORSDOF 19
ENDMDL
MODEL 9
REMARK minimizedAffinity -8.01089096
REMARK CNNscore 0.312952399
REMARK CNNaffinity 6.74467468
REMARK  19 active torsions:
REMARK  status: ('A' for Active; 'I' for Inactive)
REMARK    1  A    between atoms: C2_2  and  C3_3 
REMARK    2  A    between atoms: C3_3  and  C5_5 
REMARK    3  A    between atoms: C5_5  and  N1_6 
REMARK    4  A    between atoms: C5_5  and  C37_46 
REMARK       I    between atoms: N1_6  and  C6_7 
REMARK    5  A    between atoms: C6_7  and  C7_9 
REMARK    6  A    between atoms: C7_9  and  C8_10 
REMARK    7  A    between atoms: C8_10  and  C9_11 
REMARK    8  A    between atoms: C9_11  and  C10_12 
REMARK    9  A    between atoms: C10_12  and  C11_13 
REMARK   10  A    between atoms: C11_13  and  N2_14 
REMARK       I    between atoms: N2_14  and  C12_15 
REMARK   11  A    between atoms: C12_15  and  C13_17 
REMARK   12  A    between atoms: C13_17  and  C14_18 
REMARK   13  A    between atoms: C14_18  and  C15_19 
REMARK   14  A    between atoms: C15_19  and  O4_21 
REMARK   15  A    between atoms: O4_21  and  C16_22 
REMARK   16  A    between atoms: C16_22  and  C17_23 
REMARK   17  A    between atoms: C17_23  and  C18_25 
REMARK   18  A    between atoms: C18_25  and  O6_26 
REMARK   19  A    between atoms: C37_46  and  O9_48 
ROOT
HETATM    1  C15 UNL     1       1.113  48.566 -14.390  1.00  0.00     0.259 C 
HETATM    2  O3  UNL     1       1.383  47.374 -14.354  1.00  0.00    -0.265 OA
ENDROOT
BRANCH   1   3
HETATM    3  C14 UNL     1      -0.146  49.165 -14.968  1.00  0.00     0.120 C 
BRANCH   3   4
HETATM    4  C13 UNL     1      -0.006  49.403 -16.466  1.00  0.00     0.112 C 
BRANCH   4   5
HETATM    5  C12 UNL     1       0.159  50.876 -16.792  1.00  0.00     0.217 C 
HETATM    6  N2  UNL     1       0.038  51.140 -18.142  1.00  0.00    -0.361 N 
HETATM    7  H22 UNL     1       0.190  50.360 -18.767  1.00  0.00     0.162 HD
HETATM    8  O2  UNL     1       0.325  51.739 -15.934  1.00  0.00    -0.274 OA
BRANCH   6   9
HETATM    9  C11 UNL     1       0.281  52.472 -18.660  1.00  0.00     0.122 C 
BRANCH   9  10
HETATM   10  C10 UNL     1      -0.024  52.586 -20.154  1.00  0.00     0.020 C 
BRANCH  10  11
HETATM   11  C9  UNL     1       1.027  53.346 -20.971  1.00  0.00     0.002 C 
BRANCH  11  12
HETATM   12  C8  UNL     1       0.829  53.277 -22.488  1.00  0.00     0.009 C 
BRANCH  12  13
HETATM   13  C7  UNL     1      -0.355  52.388 -22.875  1.00  0.00     0.103 C 
BRANCH  13  14
HETATM   14  C6  UNL     1      -0.787  52.564 -24.320  1.00  0.00     0.218 C 
HETATM   15  N1  UNL     1      -0.819  51.374 -25.015  1.00  0.00    -0.346 N 
HETATM   16  H11 UNL     1      -0.233  50.632 -24.650  1.00  0.00     0.163 HD
HETATM   17  O1  UNL     1      -1.060  53.649 -24.818  1.00  0.00    -0.274 OA
BRANCH  15  18
HETATM   18  C5  UNL     1      -1.019  51.353 -26.468  1.00  0.00     0.186 C 
BRANCH  18  19
HETATM   19  C3  UNL     1       0.154  52.031 -27.216  1.00  0.00     0.014 C 
HETATM   20  C4  UNL     1      -0.236  53.391 -27.811  1.00  0.00     0.012 C 
BRANCH  19  21
HETATM   21  C2  UNL     1       1.383  52.145 -26.284  1.00  0.00     0.002 C 
HETATM   22  C1  UNL     1       2.553  51.270 -26.712  1.00  0.00     0.005 C 
ENDBRANCH  19  21
ENDBRANCH  18  19
BRANCH  18  23
HETATM   23  C37 UNL     1      -2.354  52.011 -26.847  1.00  0.00     0.163 C 
HETATM   24  O8  UNL     1      -3.025  52.744 -26.138  1.00  0.00    -0.648 OA
BRANCH  23  25
HETATM   25  O9  UNL     1      -2.813  51.655 -28.070  1.00  0.00    -0.775 OA
HETATM   26  H56 UNL     1      -3.651  52.161 -28.151  1.00  0.00     0.167 HD
ENDBRANCH  23  25
ENDBRANCH  18  23
ENDBRANCH  15  18
ENDBRANCH  13  14
ENDBRANCH  12  13
ENDBRANCH  11  12
ENDBRANCH  10  11
ENDBRANCH   9  10
ENDBRANCH   6   9
ENDBRANCH   4   5
ENDBRANCH   3   4
ENDBRANCH   1   3
BRANCH   1  27
HETATM   27  O4  UNL     1       1.887  49.560 -13.866  1.00  0.00    -0.314 OA
BRANCH  27  28
HETATM   28  C16 UNL     1       1.253  50.280 -12.807  1.00  0.00     0.260 C 
BRANCH  28  29
HETATM   29  C17 UNL     1       2.197  51.357 -12.291  1.00  0.00     0.185 C 
HETATM   30  O5  UNL     1       2.883  52.016 -13.080  1.00  0.00    -0.292 OA
BRANCH  29  31
HETATM   31  C18 UNL     1       2.300  51.541 -10.745  1.00  0.00     0.128 C 
HETATM   32  C19 UNL     1       3.704  51.098 -10.295  1.00  0.00     0.047 C 
HETATM   33  C20 UNL     1       4.539  52.374 -10.130  1.00  0.00     0.009 C 
HETATM   34  C21 UNL     1       3.633  53.552 -10.534  1.00  0.00     0.002 C 
HETATM   35  C22 UNL     1       3.954  54.949  -9.938  1.00  0.00    -0.004 C 
HETATM   36  C35 UNL     1       2.212  53.024 -10.248  1.00  0.00    -0.002 C 
HETATM   37  C23 UNL     1       5.472  55.221  -9.854  1.00  0.00     0.010 C 
HETATM   38  C32 UNL     1       3.160  55.309  -8.640  1.00  0.00     0.002 C 
HETATM   39  C24 UNL     1       6.037  55.131  -8.442  1.00  0.00     0.035 C 
HETATM   40  C25 UNL     1       5.320  56.027  -7.464  1.00  0.00    -0.068 C 
HETATM   41  C26 UNL     1       5.958  56.435  -6.350  1.00  0.00     0.053 C 
HETATM   42  C30 UNL     1       3.876  56.412  -7.771  1.00  0.00    -0.016 C 
HETATM   43  C27 UNL     1       5.299  57.290  -5.333  1.00  0.00     0.149 C 
HETATM   44  O7  UNL     1       5.957  57.704  -4.377  1.00  0.00    -0.293 OA
HETATM   45  C28 UNL     1       3.844  57.654  -5.519  1.00  0.00     0.084 C 
HETATM   46  C29 UNL     1       3.137  56.647  -6.423  1.00  0.00     0.022 C 
HETATM   47  C31 UNL     1       3.854  57.752  -8.561  1.00  0.00     0.020 C 
HETATM   48  C33 UNL     1       2.761  54.034  -7.888  1.00  0.00     0.007 C 
HETATM   49  C34 UNL     1       1.893  53.085  -8.722  1.00  0.00     0.013 C 
HETATM   50  C36 UNL     1       1.140  53.821 -11.015  1.00  0.00     0.019 C 
BRANCH  31  51
HETATM   51  O6  UNL     1       1.341  50.720 -10.084  1.00  0.00    -0.381 OA
HETATM   52  H29 UNL     1       0.464  51.110 -10.247  1.00  0.00     0.211 HD
ENDBRANCH  31  51
ENDBRANCH  29  31
ENDBRANCH  28  29
ENDBRANCH  27  28
ENDBRANCH   1  27
TORSDOF 19
ENDMDL
