MODEL 1
REMARK minimizedAffinity -10.0269403
REMARK  8 active torsions:
REMARK  status: ('A' for Active; 'I' for Inactive)
REMARK    1  A    between atoms: C4_4  and  C5_5 
REMARK    2  A    between atoms: C5_5  and  C6_6 
REMARK    3  A    between atoms: C6_6  and  C7_7 
REMARK    4  A    between atoms: C7_7  and  C9_9 
REMARK    5  A    between atoms: C15_15  and  O1_16 
REMARK    6  A    between atoms: C18_19  and  C20_21 
REMARK    7  A    between atoms: C20_21  and  O3_23 
REMARK    8  A    between atoms: C21_24  and  O4_25 
ROOT
HETATM    1  C9  UNL     1       1.189   6.624  13.002  1.00  0.00    -0.002 C 
HETATM    2  C10 UNL     1       0.505   7.792  13.758  1.00  0.00     0.006 C 
HETATM    3  C11 UNL     1      -0.985   7.443  13.920  1.00  0.00     0.011 C 
HETATM    4  C12 UNL     1      -1.107   5.966  13.502  1.00  0.00    -0.030 C 
HETATM    5  C13 UNL     1      -0.766   5.123  14.769  1.00  0.00     0.016 C 
HETATM    6  C14 UNL     1      -2.503   5.552  12.941  1.00  0.00     0.032 C 
HETATM    7  C15 UNL     1      -3.637   5.464  13.983  1.00  0.00     0.124 C 
HETATM    8  C16 UNL     1      -4.963   5.132  13.292  1.00  0.00     0.039 C 
HETATM    9  C17 UNL     1      -4.947   3.699  12.743  1.00  0.00     0.018 C 
HETATM   10  C18 UNL     1      -6.250   3.268  11.979  1.00  0.00     0.072 C 
HETATM   11  C19 UNL     1      -6.821   4.364  11.054  1.00  0.00     0.030 C 
HETATM   12  C21 UNL     1      -6.015   1.953  11.156  1.00  0.00     0.137 C 
HETATM   13  C22 UNL     1      -4.867   1.119  11.727  1.00  0.00     0.034 C 
HETATM   14  C23 UNL     1      -3.535   1.873  11.687  1.00  0.00     0.013 C 
HETATM   15  C24 UNL     1      -3.694   3.374  11.932  1.00  0.00    -0.026 A 
HETATM   16  C25 UNL     1      -3.257   4.285  10.810  1.00  0.00     0.021 A 
HETATM   17  C26 UNL     1      -2.427   4.261  12.081  1.00  0.00    -0.025 A 
HETATM   18  C27 UNL     1      -1.079   3.544  12.024  1.00  0.00     0.011 C 
HETATM   19  C28 UNL     1       0.182   4.421  11.974  1.00  0.00     0.011 C 
HETATM   20  C29 UNL     1      -0.035   5.893  12.351  1.00  0.00    -0.032 C 
HETATM   21  C30 UNL     1      -0.453   6.660  11.059  1.00  0.00     0.016 C 
ENDROOT
BRANCH   1  22
HETATM   22  C7  UNL     1       2.392   7.086  12.122  1.00  0.00    -0.014 C 
HETATM   23  C8  UNL     1       2.092   8.405  11.391  1.00  0.00     0.010 C 
BRANCH  22  24
HETATM   24  C6  UNL     1       2.769   6.039  11.033  1.00  0.00     0.008 C 
BRANCH  24  25
HETATM   25  C5  UNL     1       3.568   6.594   9.849  1.00  0.00     0.028 C 
BRANCH  25  26
HETATM   26  C4  UNL     1       2.826   6.387   8.555  1.00  0.00    -0.025 C 
HETATM   27  C2  UNL     1       2.495   7.321   7.642  1.00  0.00    -0.091 C 
HETATM   28  C1  UNL     1       1.727   6.949   6.402  1.00  0.00     0.042 C 
HETATM   29  C3  UNL     1       2.847   8.781   7.735  1.00  0.00     0.042 C 
ENDBRANCH  25  26
ENDBRANCH  24  25
ENDBRANCH  22  24
ENDBRANCH   1  22
BRANCH   7  30
HETATM   30  O1  UNL     1      -3.792   6.717  14.648  1.00  0.00    -0.395 OA
HETATM   31  H26 UNL     1      -4.482   6.606  15.321  1.00  0.00     0.210 HD
ENDBRANCH   7  30
BRANCH  10  32
HETATM   32  C20 UNL     1      -7.290   2.918  13.049  1.00  0.00     0.151 C 
HETATM   33  O2  UNL     1      -7.396   3.434  14.152  1.00  0.00    -0.649 OA
BRANCH  32  34
HETATM   34  O3  UNL     1      -8.181   1.980  12.678  1.00  0.00    -0.776 OA
HETATM   35  H33 UNL     1      -8.761   1.876  13.461  1.00  0.00     0.167 HD
ENDBRANCH  32  34
ENDBRANCH  10  32
BRANCH  12  36
HETATM   36  O4  UNL     1      -5.708   2.204   9.778  1.00  0.00    -0.394 OA
HETATM   37  H35 UNL     1      -6.537   2.413   9.316  1.00  0.00     0.210 HD
ENDBRANCH  12  36
TORSDOF 8
ENDMDL
MODEL 2
REMARK minimizedAffinity -9.48789024
REMARK  8 active torsions:
REMARK  status: ('A' for Active; 'I' for Inactive)
REMARK    1  A    between atoms: C4_4  and  C5_5 
REMARK    2  A    between atoms: C5_5  and  C6_6 
REMARK    3  A    between atoms: C6_6  and  C7_7 
REMARK    4  A    between atoms: C7_7  and  C9_9 
REMARK    5  A    between atoms: C15_15  and  O1_16 
REMARK    6  A    between atoms: C18_19  and  C20_21 
REMARK    7  A    between atoms: C20_21  and  O3_23 
REMARK    8  A    between atoms: C21_24  and  O4_25 
ROOT
HETATM    1  C9  UNL     1      -3.373   7.810  14.557  1.00  0.00    -0.002 C 
HETATM    2  C10 UNL     1      -4.170   6.719  13.798  1.00  0.00     0.006 C 
HETATM    3  C11 UNL     1      -3.193   5.980  12.867  1.00  0.00     0.011 C 
HETATM    4  C12 UNL     1      -1.790   6.459  13.283  1.00  0.00    -0.030 C 
HETATM    5  C13 UNL     1      -1.352   5.550  14.473  1.00  0.00     0.016 C 
HETATM    6  C14 UNL     1      -0.716   6.418  12.151  1.00  0.00     0.032 C 
HETATM    7  C15 UNL     1      -0.234   5.010  11.745  1.00  0.00     0.124 C 
HETATM    8  C16 UNL     1       0.751   5.107  10.577  1.00  0.00     0.039 C 
HETATM    9  C17 UNL     1       2.067   5.757  11.025  1.00  0.00     0.018 C 
HETATM   10  C18 UNL     1       3.136   5.940   9.889  1.00  0.00     0.072 C 
HETATM   11  C19 UNL     1       2.543   6.417   8.546  1.00  0.00     0.030 C 
HETATM   12  C21 UNL     1       4.278   6.918  10.339  1.00  0.00     0.137 C 
HETATM   13  C22 UNL     1       4.414   6.974  11.861  1.00  0.00     0.034 C 
HETATM   14  C23 UNL     1       3.140   7.495  12.532  1.00  0.00     0.013 C 
HETATM   15  C24 UNL     1       1.866   7.050  11.813  1.00  0.00    -0.026 A 
HETATM   16  C25 UNL     1       0.993   8.150  11.259  1.00  0.00     0.021 A 
HETATM   17  C26 UNL     1       0.483   7.359  12.451  1.00  0.00    -0.025 A 
HETATM   18  C27 UNL     1       0.497   8.054  13.811  1.00  0.00     0.011 C 
HETATM   19  C28 UNL     1      -0.851   8.541  14.366  1.00  0.00     0.011 C 
HETATM   20  C29 UNL     1      -2.089   7.957  13.670  1.00  0.00    -0.032 C 
HETATM   21  C30 UNL     1      -2.421   8.863  12.445  1.00  0.00     0.016 C 
ENDROOT
BRANCH   1  22
HETATM   22  C7  UNL     1      -4.234   9.063  14.911  1.00  0.00    -0.014 C 
HETATM   23  C8  UNL     1      -3.569   9.925  15.996  1.00  0.00     0.010 C 
BRANCH  22  24
HETATM   24  C6  UNL     1      -5.649   8.682  15.435  1.00  0.00     0.008 C 
BRANCH  24  25
HETATM   25  C5  UNL     1      -6.098   7.253  15.108  1.00  0.00     0.028 C 
BRANCH  25  26
HETATM   26  C4  UNL     1      -7.554   7.222  14.723  1.00  0.00    -0.025 C 
HETATM   27  C2  UNL     1      -8.167   6.343  13.906  1.00  0.00    -0.091 C 
HETATM   28  C1  UNL     1      -9.637   6.465  13.606  1.00  0.00     0.042 C 
HETATM   29  C3  UNL     1      -7.495   5.175  13.236  1.00  0.00     0.042 C 
ENDBRANCH  25  26
ENDBRANCH  24  25
ENDBRANCH  22  24
ENDBRANCH   1  22
BRANCH   7  30
HETATM   30  O1  UNL     1      -1.340   4.216  11.321  1.00  0.00    -0.395 OA
HETATM   31  H26 UNL     1      -1.001   3.329  11.117  1.00  0.00     0.210 HD
ENDBRANCH   7  30
BRANCH  10  32
HETATM   32  C20 UNL     1       3.801   4.574   9.690  1.00  0.00     0.151 C 
HETATM   33  O2  UNL     1       4.987   4.371   9.470  1.00  0.00    -0.649 OA
BRANCH  32  34
HETATM   34  O3  UNL     1       2.972   3.522   9.825  1.00  0.00    -0.776 OA
HETATM   35  H33 UNL     1       3.545   2.742   9.669  1.00  0.00     0.167 HD
ENDBRANCH  32  34
ENDBRANCH  10  32
BRANCH  12  36
HETATM   36  O4  UNL     1       4.074   8.261   9.883  1.00  0.00    -0.394 OA
HETATM   37  H35 UNL     1       4.327   8.305   8.946  1.00  0.00     0.210 HD
ENDBRANCH  12  36
TORSDOF 8
ENDMDL
MODEL 3
REMARK minimizedAffinity -9.43428802
REMARK  8 active torsions:
REMARK  status: ('A' for Active; 'I' for Inactive)
REMARK    1  A    between atoms: C4_4  and  C5_5 
REMARK    2  A    between atoms: C5_5  and  C6_6 
REMARK    3  A    between atoms: C6_6  and  C7_7 
REMARK    4  A    between atoms: C7_7  and  C9_9 
REMARK    5  A    between atoms: C15_15  and  O1_16 
REMARK    6  A    between atoms: C18_19  and  C20_21 
REMARK    7  A    between atoms: C20_21  and  O3_23 
REMARK    8  A    between atoms: C21_24  and  O4_25 
ROOT
HETATM    1  C9  UNL     1      -3.203   8.125  14.616  1.00  0.00    -0.002 C 
HETATM    2  C10 UNL     1      -2.517   7.395  15.798  1.00  0.00     0.006 C 
HETATM    3  C11 UNL     1      -1.098   7.000  15.351  1.00  0.00     0.011 C 
HETATM    4  C12 UNL     1      -0.870   7.736  14.018  1.00  0.00    -0.030 C 
HETATM    5  C13 UNL     1      -0.363   9.164  14.387  1.00  0.00     0.016 C 
HETATM    6  C14 UNL     1       0.135   7.043  13.046  1.00  0.00     0.032 C 
HETATM    7  C15 UNL     1       1.618   7.114  13.463  1.00  0.00     0.124 C 
HETATM    8  C16 UNL     1       2.483   6.330  12.473  1.00  0.00     0.039 C 
HETATM    9  C17 UNL     1       2.522   7.031  11.109  1.00  0.00     0.018 C 
HETATM   10  C18 UNL     1       3.354   6.286  10.005  1.00  0.00     0.072 C 
HETATM   11  C19 UNL     1       3.152   4.756   9.998  1.00  0.00     0.030 C 
HETATM   12  C21 UNL     1       3.048   6.866   8.578  1.00  0.00     0.137 C 
HETATM   13  C22 UNL     1       2.534   8.305   8.645  1.00  0.00     0.034 C 
HETATM   14  C23 UNL     1       1.219   8.408   9.421  1.00  0.00     0.013 C 
HETATM   15  C24 UNL     1       1.140   7.427  10.592  1.00  0.00    -0.026 A 
HETATM   16  C25 UNL     1       0.029   6.407  10.536  1.00  0.00     0.021 A 
HETATM   17  C26 UNL     1      -0.059   7.510  11.577  1.00  0.00    -0.025 A 
HETATM   18  C27 UNL     1      -1.071   8.627  11.331  1.00  0.00     0.011 C 
HETATM   19  C28 UNL     1      -2.358   8.606  12.170  1.00  0.00     0.011 C 
HETATM   20  C29 UNL     1      -2.318   7.687  13.399  1.00  0.00    -0.032 C 
HETATM   21  C30 UNL     1      -2.755   6.261  12.944  1.00  0.00     0.016 C 
ENDROOT
BRANCH   1  22
HETATM   22  C7  UNL     1      -4.750   7.916  14.582  1.00  0.00    -0.014 C 
HETATM   23  C8  UNL     1      -5.502   9.123  15.167  1.00  0.00     0.010 C 
BRANCH  22  24
HETATM   24  C6  UNL     1      -5.198   6.664  15.391  1.00  0.00     0.008 C 
BRANCH  24  25
HETATM   25  C5  UNL     1      -6.331   5.852  14.753  1.00  0.00     0.028 C 
BRANCH  25  26
HETATM   26  C4  UNL     1      -5.840   5.109  13.538  1.00  0.00    -0.025 C 
HETATM   27  C2  UNL     1      -6.376   4.005  12.981  1.00  0.00    -0.091 C 
HETATM   28  C1  UNL     1      -5.746   3.369  11.771  1.00  0.00     0.042 C 
HETATM   29  C3  UNL     1      -7.621   3.312  13.465  1.00  0.00     0.042 C 
ENDBRANCH  25  26
ENDBRANCH  24  25
ENDBRANCH  22  24
ENDBRANCH   1  22
BRANCH   7  30
HETATM   30  O1  UNL     1       1.793   6.532  14.755  1.00  0.00    -0.395 OA
HETATM   31  H26 UNL     1       2.727   6.636  14.997  1.00  0.00     0.210 HD
ENDBRANCH   7  30
BRANCH  10  32
HETATM   32  C20 UNL     1       4.829   6.599  10.282  1.00  0.00     0.151 C 
HETATM   33  O2  UNL     1       5.347   7.706  10.278  1.00  0.00    -0.649 OA
BRANCH  32  34
HETATM   34  O3  UNL     1       5.578   5.527  10.601  1.00  0.00    -0.776 OA
HETATM   35  H33 UNL     1       6.476   5.895  10.744  1.00  0.00     0.167 HD
ENDBRANCH  32  34
ENDBRANCH  10  32
BRANCH  12  36
HETATM   36  O4  UNL     1       2.070   6.101   7.863  1.00  0.00    -0.394 OA
HETATM   37  H35 UNL     1       2.504   5.307   7.510  1.00  0.00     0.210 HD
ENDBRANCH  12  36
TORSDOF 8
ENDMDL
MODEL 4
REMARK minimizedAffinity -9.41846371
REMARK  8 active torsions:
REMARK  status: ('A' for Active; 'I' for Inactive)
REMARK    1  A    between atoms: C4_4  and  C5_5 
REMARK    2  A    between atoms: C5_5  and  C6_6 
REMARK    3  A    between atoms: C6_6  and  C7_7 
REMARK    4  A    between atoms: C7_7  and  C9_9 
REMARK    5  A    between atoms: C15_15  and  O1_16 
REMARK    6  A    between atoms: C18_19  and  C20_21 
REMARK    7  A    between atoms: C20_21  and  O3_23 
REMARK    8  A    between atoms: C21_24  and  O4_25 
ROOT
HETATM    1  C9  UNL     1      -2.752   6.458  13.840  1.00  0.00    -0.002 C 
HETATM    2  C10 UNL     1      -2.938   5.474  12.656  1.00  0.00     0.006 C 
HETATM    3  C11 UNL     1      -1.585   5.340  11.936  1.00  0.00     0.011 C 
HETATM    4  C12 UNL     1      -0.561   6.028  12.857  1.00  0.00    -0.030 C 
HETATM    5  C13 UNL     1      -0.119   4.954  13.899  1.00  0.00     0.016 C 
HETATM    6  C14 UNL     1       0.688   6.618  12.131  1.00  0.00     0.032 C 
HETATM    7  C15 UNL     1       1.699   5.581  11.600  1.00  0.00     0.124 C 
HETATM    8  C16 UNL     1       2.828   6.285  10.842  1.00  0.00     0.039 C 
HETATM    9  C17 UNL     1       3.706   7.096  11.802  1.00  0.00     0.018 C 
HETATM   10  C18 UNL     1       4.875   7.892  11.118  1.00  0.00     0.072 C 
HETATM   11  C19 UNL     1       4.474   8.574   9.794  1.00  0.00     0.030 C 
HETATM   12  C21 UNL     1       5.485   8.956  12.098  1.00  0.00     0.137 C 
HETATM   13  C22 UNL     1       5.247   8.586  13.563  1.00  0.00     0.034 C 
HETATM   14  C23 UNL     1       3.757   8.520  13.903  1.00  0.00     0.013 C 
HETATM   15  C24 UNL     1       2.906   7.989  12.749  1.00  0.00    -0.026 A 
HETATM   16  C25 UNL     1       1.858   8.929  12.203  1.00  0.00     0.021 A 
HETATM   17  C26 UNL     1       1.395   7.710  12.980  1.00  0.00    -0.025 A 
HETATM   18  C27 UNL     1       0.865   7.940  14.395  1.00  0.00     0.011 C 
HETATM   19  C28 UNL     1      -0.656   7.857  14.597  1.00  0.00     0.011 C 
HETATM   20  C29 UNL     1      -1.431   7.202  13.445  1.00  0.00    -0.032 C 
HETATM   21  C30 UNL     1      -1.768   8.312  12.403  1.00  0.00     0.016 C 
ENDROOT
BRANCH   1  22
HETATM   22  C7  UNL     1      -4.045   7.268  14.172  1.00  0.00    -0.014 C 
HETATM   23  C8  UNL     1      -3.851   8.177  15.396  1.00  0.00     0.010 C 
BRANCH  22  24
HETATM   24  C6  UNL     1      -5.261   6.346  14.479  1.00  0.00     0.008 C 
BRANCH  24  25
HETATM   25  C5  UNL     1      -6.316   6.275  13.369  1.00  0.00     0.028 C 
BRANCH  25  26
HETATM   26  C4  UNL     1      -7.101   4.992  13.454  1.00  0.00    -0.025 C 
HETATM   27  C2  UNL     1      -6.846   3.831  12.819  1.00  0.00    -0.091 C 
HETATM   28  C1  UNL     1      -7.749   2.640  12.998  1.00  0.00     0.042 C 
HETATM   29  C3  UNL     1      -5.674   3.586  11.909  1.00  0.00     0.042 C 
ENDBRANCH  25  26
ENDBRANCH  24  25
ENDBRANCH  22  24
ENDBRANCH   1  22
BRANCH   7  30
HETATM   30  O1  UNL     1       1.054   4.685  10.695  1.00  0.00    -0.395 OA
HETATM   31  H26 UNL     1       1.711   4.026  10.420  1.00  0.00     0.210 HD
ENDBRANCH   7  30
BRANCH  10  32
HETATM   32  C20 UNL     1       5.993   6.879  10.845  1.00  0.00     0.151 C 
HETATM   33  O2  UNL     1       7.190   7.120  10.792  1.00  0.00    -0.649 OA
BRANCH  32  34
HETATM   34  O3  UNL     1       5.575   5.608  10.703  1.00  0.00    -0.776 OA
HETATM   35  H33 UNL     1       6.397   5.100  10.537  1.00  0.00     0.167 HD
ENDBRANCH  32  34
ENDBRANCH  10  32
BRANCH  12  36
HETATM   36  O4  UNL     1       4.943  10.269  11.902  1.00  0.00    -0.394 OA
HETATM   37  H35 UNL     1       5.370  10.659  11.121  1.00  0.00     0.210 HD
ENDBRANCH  12  36
TORSDOF 8
ENDMDL
MODEL 5
REMARK minimizedAffinity -9.00095272
REMARK  8 active torsions:
REMARK  status: ('A' for Active; 'I' for Inactive)
REMARK    1  A    between atoms: C4_4  and  C5_5 
REMARK    2  A    between atoms: C5_5  and  C6_6 
REMARK    3  A    between atoms: C6_6  and  C7_7 
REMARK    4  A    between atoms: C7_7  and  C9_9 
REMARK    5  A    between atoms: C15_15  and  O1_16 
REMARK    6  A    between atoms: C18_19  and  C20_21 
REMARK    7  A    between atoms: C20_21  and  O3_23 
REMARK    8  A    between atoms: C21_24  and  O4_25 
ROOT
HETATM    1  C9  UNL     1      -6.079   6.948  14.152  1.00  0.00    -0.002 C 
HETATM    2  C10 UNL     1      -6.409   8.342  14.744  1.00  0.00     0.006 C 
HETATM    3  C11 UNL     1      -5.091   9.124  14.877  1.00  0.00     0.011 C 
HETATM    4  C12 UNL     1      -4.043   8.292  14.116  1.00  0.00    -0.030 C 
HETATM    5  C13 UNL     1      -4.150   8.716  12.619  1.00  0.00     0.016 C 
HETATM    6  C14 UNL     1      -2.575   8.459  14.619  1.00  0.00     0.032 C 
HETATM    7  C15 UNL     1      -1.908   9.809  14.281  1.00  0.00     0.124 C 
HETATM    8  C16 UNL     1      -0.509   9.875  14.899  1.00  0.00     0.039 C 
HETATM    9  C17 UNL     1       0.440   8.889  14.206  1.00  0.00     0.018 C 
HETATM   10  C18 UNL     1       1.897   8.849  14.791  1.00  0.00     0.072 C 
HETATM   11  C19 UNL     1       1.951   8.903  16.333  1.00  0.00     0.030 C 
HETATM   12  C21 UNL     1       2.679   7.587  14.280  1.00  0.00     0.137 C 
HETATM   13  C22 UNL     1       2.116   7.064  12.957  1.00  0.00     0.034 C 
HETATM   14  C23 UNL     1       0.658   6.619  13.091  1.00  0.00     0.013 C 
HETATM   15  C24 UNL     1      -0.142   7.483  14.067  1.00  0.00    -0.026 A 
HETATM   16  C25 UNL     1      -0.716   6.776  15.270  1.00  0.00     0.021 A 
HETATM   17  C26 UNL     1      -1.674   7.266  14.199  1.00  0.00    -0.025 A 
HETATM   18  C27 UNL     1      -2.299   6.215  13.283  1.00  0.00     0.011 C 
HETATM   19  C28 UNL     1      -3.770   5.848  13.533  1.00  0.00     0.011 C 
HETATM   20  C29 UNL     1      -4.541   6.830  14.427  1.00  0.00    -0.032 C 
HETATM   21  C30 UNL     1      -4.324   6.398  15.910  1.00  0.00     0.016 C 
ENDROOT
BRANCH   1  22
HETATM   22  C7  UNL     1      -7.055   5.831  14.636  1.00  0.00    -0.014 C 
HETATM   23  C8  UNL     1      -7.075   5.713  16.169  1.00  0.00     0.010 C 
BRANCH  22  24
HETATM   24  C6  UNL     1      -6.676   4.428  14.077  1.00  0.00     0.008 C 
BRANCH  24  25
HETATM   25  C5  UNL     1      -7.776   3.736  13.263  1.00  0.00     0.028 C 
BRANCH  25  26
HETATM   26  C4  UNL     1      -7.266   2.460  12.645  1.00  0.00    -0.025 C 
HETATM   27  C2  UNL     1      -6.271   2.325  11.748  1.00  0.00    -0.091 C 
HETATM   28  C1  UNL     1      -5.897   0.970  11.210  1.00  0.00     0.042 C 
HETATM   29  C3  UNL     1      -5.436   3.455  11.209  1.00  0.00     0.042 C 
ENDBRANCH  25  26
ENDBRANCH  24  25
ENDBRANCH  22  24
ENDBRANCH   1  22
BRANCH   7  30
HETATM   30  O1  UNL     1      -2.676  10.885  14.818  1.00  0.00    -0.395 OA
HETATM   31  H26 UNL     1      -2.248  11.712  14.547  1.00  0.00     0.210 HD
ENDBRANCH   7  30
BRANCH  10  32
HETATM   32  C20 UNL     1       2.634  10.064  14.218  1.00  0.00     0.151 C 
HETATM   33  O2  UNL     1       3.456  10.755  14.802  1.00  0.00    -0.649 OA
BRANCH  32  34
HETATM   34  O3  UNL     1       2.352  10.332  12.929  1.00  0.00    -0.776 OA
HETATM   35  H33 UNL     1       2.894  11.123  12.723  1.00  0.00     0.167 HD
ENDBRANCH  32  34
ENDBRANCH  10  32
BRANCH  12  36
HETATM   36  O4  UNL     1       2.649   6.498  15.211  1.00  0.00    -0.394 OA
HETATM   37  H35 UNL     1       3.293   6.682  15.915  1.00  0.00     0.210 HD
ENDBRANCH  12  36
TORSDOF 8
ENDMDL
MODEL 6
REMARK minimizedAffinity -8.97249126
REMARK  8 active torsions:
REMARK  status: ('A' for Active; 'I' for Inactive)
REMARK    1  A    between atoms: C4_4  and  C5_5 
REMARK    2  A    between atoms: C5_5  and  C6_6 
REMARK    3  A    between atoms: C6_6  and  C7_7 
REMARK    4  A    between atoms: C7_7  and  C9_9 
REMARK    5  A    between atoms: C15_15  and  O1_16 
REMARK    6  A    between atoms: C18_19  and  C20_21 
REMARK    7  A    between atoms: C20_21  and  O3_23 
REMARK    8  A    between atoms: C21_24  and  O4_25 
ROOT
HETATM    1  C9  UNL     1      -2.267   5.496  12.423  1.00  0.00    -0.002 C 
HETATM    2  C10 UNL     1      -2.366   5.983  13.891  1.00  0.00     0.006 C 
HETATM    3  C11 UNL     1      -1.132   6.855  14.185  1.00  0.00     0.011 C 
HETATM    4  C12 UNL     1      -0.465   7.093  12.817  1.00  0.00    -0.030 C 
HETATM    5  C13 UNL     1      -1.189   8.321  12.185  1.00  0.00     0.016 C 
HETATM    6  C14 UNL     1       1.074   7.345  12.870  1.00  0.00     0.032 C 
HETATM    7  C15 UNL     1       1.504   8.712  13.440  1.00  0.00     0.124 C 
HETATM    8  C16 UNL     1       3.031   8.797  13.511  1.00  0.00     0.039 C 
HETATM    9  C17 UNL     1       3.640   8.854  12.104  1.00  0.00     0.018 C 
HETATM   10  C18 UNL     1       5.210   8.904  12.064  1.00  0.00     0.072 C 
HETATM   11  C19 UNL     1       5.890   7.965  13.082  1.00  0.00     0.030 C 
HETATM   12  C21 UNL     1       5.749   8.598  10.622  1.00  0.00     0.137 C 
HETATM   13  C22 UNL     1       4.708   8.911   9.545  1.00  0.00     0.034 C 
HETATM   14  C23 UNL     1       3.447   8.058   9.702  1.00  0.00     0.013 C 
HETATM   15  C24 UNL     1       3.094   7.781  11.164  1.00  0.00    -0.026 A 
HETATM   16  C25 UNL     1       3.085   6.332  11.587  1.00  0.00     0.021 A 
HETATM   17  C26 UNL     1       1.758   7.065  11.503  1.00  0.00    -0.025 A 
HETATM   18  C27 UNL     1       0.843   6.727  10.327  1.00  0.00     0.011 C 
HETATM   19  C28 UNL     1      -0.384   5.851  10.619  1.00  0.00     0.011 C 
HETATM   20  C29 UNL     1      -0.749   5.718  12.104  1.00  0.00    -0.032 C 
HETATM   21  C30 UNL     1       0.070   4.528  12.693  1.00  0.00     0.016 C 
ENDROOT
BRANCH   1  22
HETATM   22  C7  UNL     1      -2.925   4.099  12.196  1.00  0.00    -0.014 C 
HETATM   23  C8  UNL     1      -2.627   3.549  10.792  1.00  0.00     0.010 C 
BRANCH  22  24
HETATM   24  C6  UNL     1      -4.474   4.141  12.349  1.00  0.00     0.008 C 
BRANCH  24  25
HETATM   25  C5  UNL     1      -4.984   4.919  13.567  1.00  0.00     0.028 C 
BRANCH  25  26
HETATM   26  C4  UNL     1      -6.351   5.496  13.303  1.00  0.00    -0.025 C 
HETATM   27  C2  UNL     1      -7.514   4.827  13.188  1.00  0.00    -0.091 C 
HETATM   28  C1  UNL     1      -8.798   5.558  12.899  1.00  0.00     0.042 C 
HETATM   29  C3  UNL     1      -7.673   3.339  13.341  1.00  0.00     0.042 C 
ENDBRANCH  25  26
ENDBRANCH  24  25
ENDBRANCH  22  24
ENDBRANCH   1  22
BRANCH   7  30
HETATM   30  O1  UNL     1       0.993   8.876  14.762  1.00  0.00    -0.395 OA
HETATM   31  H26 UNL     1       1.248   9.762  15.065  1.00  0.00     0.210 HD
ENDBRANCH   7  30
BRANCH  10  32
HETATM   32  C20 UNL     1       5.610  10.352  12.367  1.00  0.00     0.151 C 
HETATM   33  O2  UNL     1       5.350  11.333  11.686  1.00  0.00    -0.649 OA
BRANCH  32  34
HETATM   34  O3  UNL     1       6.269  10.519  13.529  1.00  0.00    -0.776 OA
HETATM   35  H33 UNL     1       6.447  11.482  13.569  1.00  0.00     0.167 HD
ENDBRANCH  32  34
ENDBRANCH  10  32
BRANCH  12  36
HETATM   36  O4  UNL     1       6.135   7.229  10.450  1.00  0.00    -0.394 OA
HETATM   37  H35 UNL     1       7.006   7.105  10.863  1.00  0.00     0.210 HD
ENDBRANCH  12  36
TORSDOF 8
ENDMDL
MODEL 7
REMARK minimizedAffinity -8.88412571
REMARK  8 active torsions:
REMARK  status: ('A' for Active; 'I' for Inactive)
REMARK    1  A    between atoms: C4_4  and  C5_5 
REMARK    2  A    between atoms: C5_5  and  C6_6 
REMARK    3  A    between atoms: C6_6  and  C7_7 
REMARK    4  A    between atoms: C7_7  and  C9_9 
REMARK    5  A    between atoms: C15_15  and  O1_16 
REMARK    6  A    between atoms: C18_19  and  C20_21 
REMARK    7  A    between atoms: C20_21  and  O3_23 
REMARK    8  A    between atoms: C21_24  and  O4_25 
ROOT
HETATM    1  C9  UNL     1      -2.855   8.029  15.021  1.00  0.00    -0.002 C 
HETATM    2  C10 UNL     1      -3.750   7.058  14.209  1.00  0.00     0.006 C 
HETATM    3  C11 UNL     1      -2.864   6.362  13.161  1.00  0.00     0.011 C 
HETATM    4  C12 UNL     1      -1.417   6.725  13.542  1.00  0.00    -0.030 C 
HETATM    5  C13 UNL     1      -0.974   5.685  14.617  1.00  0.00     0.016 C 
HETATM    6  C14 UNL     1      -0.405   6.736  12.354  1.00  0.00     0.032 C 
HETATM    7  C15 UNL     1      -0.025   5.350  11.793  1.00  0.00     0.124 C 
HETATM    8  C16 UNL     1       0.904   5.507  10.587  1.00  0.00     0.039 C 
HETATM    9  C17 UNL     1       2.276   6.041  11.020  1.00  0.00     0.018 C 
HETATM   10  C18 UNL     1       3.296   6.276   9.849  1.00  0.00     0.072 C 
HETATM   11  C19 UNL     1       2.665   6.909   8.591  1.00  0.00     0.030 C 
HETATM   12  C21 UNL     1       4.513   7.145  10.325  1.00  0.00     0.137 C 
HETATM   13  C22 UNL     1       4.728   7.049  11.836  1.00  0.00     0.034 C 
HETATM   14  C23 UNL     1       3.521   7.568  12.621  1.00  0.00     0.013 C 
HETATM   15  C24 UNL     1       2.189   7.262  11.935  1.00  0.00    -0.026 A 
HETATM   16  C25 UNL     1       1.353   8.454  11.534  1.00  0.00     0.021 A 
HETATM   17  C26 UNL     1       0.859   7.580  12.674  1.00  0.00    -0.025 A 
HETATM   18  C27 UNL     1       0.980   8.140  14.090  1.00  0.00     0.011 C 
HETATM   19  C28 UNL     1      -0.309   8.641  14.760  1.00  0.00     0.011 C 
HETATM   20  C29 UNL     1      -1.610   8.192  14.082  1.00  0.00    -0.032 C 
HETATM   21  C30 UNL     1      -1.951   9.228  12.967  1.00  0.00     0.016 C 
ENDROOT
BRANCH   1  22
HETATM   22  C7  UNL     1      -3.624   9.285  15.536  1.00  0.00    -0.014 C 
HETATM   23  C8  UNL     1      -5.090   9.288  15.072  1.00  0.00     0.010 C 
BRANCH  22  24
HETATM   24  C6  UNL     1      -2.987  10.617  15.040  1.00  0.00     0.008 C 
BRANCH  24  25
HETATM   25  C5  UNL     1      -2.155  11.366  16.088  1.00  0.00     0.028 C 
BRANCH  25  26
HETATM   26  C4  UNL     1      -3.043  11.997  17.129  1.00  0.00    -0.025 C 
HETATM   27  C2  UNL     1      -3.341  11.515  18.351  1.00  0.00    -0.091 C 
HETATM   28  C1  UNL     1      -4.269  12.265  19.269  1.00  0.00     0.042 C 
HETATM   29  C3  UNL     1      -2.798  10.238  18.932  1.00  0.00     0.042 C 
ENDBRANCH  25  26
ENDBRANCH  24  25
ENDBRANCH  22  24
ENDBRANCH   1  22
BRANCH   7  30
HETATM   30  O1  UNL     1      -1.195   4.659  11.359  1.00  0.00    -0.395 OA
HETATM   31  H26 UNL     1      -0.918   3.779  11.056  1.00  0.00     0.210 HD
ENDBRANCH   7  30
BRANCH  10  32
HETATM   32  C20 UNL     1       3.871   4.902   9.488  1.00  0.00     0.151 C 
HETATM   33  O2  UNL     1       3.331   4.049   8.798  1.00  0.00    -0.649 OA
BRANCH  32  34
HETATM   34  O3  UNL     1       5.111   4.673   9.958  1.00  0.00    -0.776 OA
HETATM   35  H33 UNL     1       5.325   3.769   9.645  1.00  0.00     0.167 HD
ENDBRANCH  32  34
ENDBRANCH  10  32
BRANCH  12  36
HETATM   36  O4  UNL     1       4.364   8.534  10.007  1.00  0.00    -0.394 OA
HETATM   37  H35 UNL     1       4.572   8.655   9.066  1.00  0.00     0.210 HD
ENDBRANCH  12  36
TORSDOF 8
ENDMDL
MODEL 8
REMARK minimizedAffinity -8.86533642
REMARK  8 active torsions:
REMARK  status: ('A' for Active; 'I' for Inactive)
REMARK    1  A    between atoms: C4_4  and  C5_5 
REMARK    2  A    between atoms: C5_5  and  C6_6 
REMARK    3  A    between atoms: C6_6  and  C7_7 
REMARK    4  A    between atoms: C7_7  and  C9_9 
REMARK    5  A    between atoms: C15_15  and  O1_16 
REMARK    6  A    between atoms: C18_19  and  C20_21 
REMARK    7  A    between atoms: C20_21  and  O3_23 
REMARK    8  A    between atoms: C21_24  and  O4_25 
ROOT
HETATM    1  C9  UNL     1      -2.740   7.148  14.484  1.00  0.00    -0.002 C 
HETATM    2  C10 UNL     1      -2.381   7.991  15.734  1.00  0.00     0.006 C 
HETATM    3  C11 UNL     1      -0.998   8.623  15.498  1.00  0.00     0.011 C 
HETATM    4  C12 UNL     1      -0.680   8.369  14.013  1.00  0.00    -0.030 C 
HETATM    5  C13 UNL     1      -1.353   9.529  13.216  1.00  0.00     0.016 C 
HETATM    6  C14 UNL     1       0.839   8.289  13.667  1.00  0.00     0.032 C 
HETATM    7  C15 UNL     1       1.601   9.630  13.713  1.00  0.00     0.124 C 
HETATM    8  C16 UNL     1       3.089   9.401  13.437  1.00  0.00     0.039 C 
HETATM    9  C17 UNL     1       3.314   8.978  11.979  1.00  0.00     0.018 C 
HETATM   10  C18 UNL     1       4.808   8.678  11.599  1.00  0.00     0.072 C 
HETATM   11  C19 UNL     1       5.582   7.895  12.681  1.00  0.00     0.030 C 
HETATM   12  C21 UNL     1       4.903   7.919  10.229  1.00  0.00     0.137 C 
HETATM   13  C22 UNL     1       3.678   8.173   9.349  1.00  0.00     0.034 C 
HETATM   14  C23 UNL     1       2.388   7.675  10.007  1.00  0.00     0.013 C 
HETATM   15  C24 UNL     1       2.389   7.849  11.526  1.00  0.00    -0.026 A 
HETATM   16  C25 UNL     1       2.274   6.586  12.344  1.00  0.00     0.021 A 
HETATM   17  C26 UNL     1       1.095   7.542  12.330  1.00  0.00    -0.025 A 
HETATM   18  C27 UNL     1      -0.133   7.130  11.520  1.00  0.00     0.011 C 
HETATM   19  C28 UNL     1      -1.359   6.636  12.303  1.00  0.00     0.011 C 
HETATM   20  C29 UNL     1      -1.341   6.954  13.805  1.00  0.00    -0.032 C 
HETATM   21  C30 UNL     1      -0.584   5.799  14.530  1.00  0.00     0.016 C 
ENDROOT
BRANCH   1  22
HETATM   22  C7  UNL     1      -3.635   5.913  14.814  1.00  0.00    -0.014 C 
HETATM   23  C8  UNL     1      -3.404   4.758  13.826  1.00  0.00     0.010 C 
BRANCH  22  24
HETATM   24  C6  UNL     1      -5.154   6.251  14.771  1.00  0.00     0.008 C 
BRANCH  24  25
HETATM   25  C5  UNL     1      -5.838   5.986  13.425  1.00  0.00     0.028 C 
BRANCH  25  26
HETATM   26  C4  UNL     1      -6.781   4.815  13.522  1.00  0.00    -0.025 C 
HETATM   27  C2  UNL     1      -6.818   3.726  12.729  1.00  0.00    -0.091 C 
HETATM   28  C1  UNL     1      -7.845   2.648  12.949  1.00  0.00     0.042 C 
HETATM   29  C3  UNL     1      -5.876   3.457  11.588  1.00  0.00     0.042 C 
ENDBRANCH  25  26
ENDBRANCH  24  25
ENDBRANCH  22  24
ENDBRANCH   1  22
BRANCH   7  30
HETATM   30  O1  UNL     1       1.481  10.219  15.007  1.00  0.00    -0.395 OA
HETATM   31  H26 UNL     1       1.935  11.077  14.980  1.00  0.00     0.210 HD
ENDBRANCH   7  30
BRANCH  10  32
HETATM   32  C20 UNL     1       5.485  10.036  11.379  1.00  0.00     0.151 C 
HETATM   33  O2  UNL     1       5.547  10.953  12.185  1.00  0.00    -0.649 OA
BRANCH  32  34
HETATM   34  O3  UNL     1       6.096  10.170  10.187  1.00  0.00    -0.776 OA
HETATM   35  H33 UNL     1       6.468  11.077  10.208  1.00  0.00     0.167 HD
ENDBRANCH  32  34
ENDBRANCH  10  32
BRANCH  12  36
HETATM   36  O4  UNL     1       5.024   6.500  10.385  1.00  0.00    -0.394 OA
HETATM   37  H35 UNL     1       5.943   6.298  10.626  1.00  0.00     0.210 HD
ENDBRANCH  12  36
TORSDOF 8
ENDMDL
MODEL 9
REMARK minimizedAffinity -8.71563339
REMARK  8 active torsions:
REMARK  status: ('A' for Active; 'I' for Inactive)
REMARK    1  A    between atoms: C4_4  and  C5_5 
REMARK    2  A    between atoms: C5_5  and  C6_6 
REMARK    3  A    between atoms: C6_6  and  C7_7 
REMARK    4  A    between atoms: C7_7  and  C9_9 
REMARK    5  A    between atoms: C15_15  and  O1_16 
REMARK    6  A    between atoms: C18_19  and  C20_21 
REMARK    7  A    between atoms: C20_21  and  O3_23 
REMARK    8  A    between atoms: C21_24  and  O4_25 
ROOT
HETATM    1  C9  UNL     1      -5.914   4.177  13.477  1.00  0.00    -0.002 C 
HETATM    2  C10 UNL     1      -5.933   3.614  12.033  1.00  0.00     0.006 C 
HETATM    3  C11 UNL     1      -4.559   3.893  11.399  1.00  0.00     0.011 C 
HETATM    4  C12 UNL     1      -3.663   4.370  12.557  1.00  0.00    -0.030 C 
HETATM    5  C13 UNL     1      -3.097   3.083  13.232  1.00  0.00     0.016 C 
HETATM    6  C14 UNL     1      -2.495   5.318  12.140  1.00  0.00     0.032 C 
HETATM    7  C15 UNL     1      -1.335   4.645  11.376  1.00  0.00     0.124 C 
HETATM    8  C16 UNL     1      -0.302   5.694  10.957  1.00  0.00     0.039 C 
HETATM    9  C17 UNL     1       0.432   6.256  12.182  1.00  0.00     0.018 C 
HETATM   10  C18 UNL     1       1.491   7.371  11.865  1.00  0.00     0.072 C 
HETATM   11  C19 UNL     1       1.026   8.389  10.801  1.00  0.00     0.030 C 
HETATM   12  C21 UNL     1       1.921   8.131  13.169  1.00  0.00     0.137 C 
HETATM   13  C22 UNL     1       1.707   7.280  14.422  1.00  0.00     0.034 C 
HETATM   14  C23 UNL     1       0.233   6.919  14.624  1.00  0.00     0.013 C 
HETATM   15  C24 UNL     1      -0.508   6.686  13.307  1.00  0.00    -0.026 A 
HETATM   16  C25 UNL     1      -1.666   7.610  13.018  1.00  0.00     0.021 A 
HETATM   17  C26 UNL     1      -1.969   6.157  13.337  1.00  0.00    -0.025 A 
HETATM   18  C27 UNL     1      -2.558   5.848  14.712  1.00  0.00     0.011 C 
HETATM   19  C28 UNL     1      -4.056   5.512  14.777  1.00  0.00     0.011 C 
HETATM   20  C29 UNL     1      -4.704   5.171  13.427  1.00  0.00    -0.032 C 
HETATM   21  C30 UNL     1      -5.172   6.506  12.771  1.00  0.00     0.016 C 
ENDROOT
BRANCH   1  22
HETATM   22  C7  UNL     1      -7.316   4.665  13.962  1.00  0.00    -0.014 C 
HETATM   23  C8  UNL     1      -8.221   5.062  12.784  1.00  0.00     0.010 C 
BRANCH  22  24
HETATM   24  C6  UNL     1      -7.222   5.903  14.901  1.00  0.00     0.008 C 
BRANCH  24  25
HETATM   25  C5  UNL     1      -8.396   6.070  15.872  1.00  0.00     0.028 C 
BRANCH  25  26
HETATM   26  C4  UNL     1      -9.106   7.378  15.638  1.00  0.00    -0.025 C 
HETATM   27  C2  UNL     1      -8.551   8.572  15.353  1.00  0.00    -0.091 C 
HETATM   28  C1  UNL     1      -9.408   9.796  15.169  1.00  0.00     0.042 C 
HETATM   29  C3  UNL     1      -7.078   8.818  15.177  1.00  0.00     0.042 C 
ENDBRANCH  25  26
ENDBRANCH  24  25
ENDBRANCH  22  24
ENDBRANCH   1  22
BRANCH   7  30
HETATM   30  O1  UNL     1      -1.826   4.016  10.194  1.00  0.00    -0.395 OA
HETATM   31  H26 UNL     1      -1.076   3.570   9.768  1.00  0.00     0.210 HD
ENDBRANCH   7  30
BRANCH  10  32
HETATM   32  C20 UNL     1       2.747   6.652  11.360  1.00  0.00     0.151 C 
HETATM   33  O2  UNL     1       2.848   6.016  10.321  1.00  0.00    -0.649 OA
BRANCH  32  34
HETATM   34  O3  UNL     1       3.831   6.801  12.144  1.00  0.00    -0.776 OA
HETATM   35  H33 UNL     1       4.531   6.289  11.687  1.00  0.00     0.167 HD
ENDBRANCH  32  34
ENDBRANCH  10  32
BRANCH  12  36
HETATM   36  O4  UNL     1       1.204   9.356  13.363  1.00  0.00    -0.394 OA
HETATM   37  H35 UNL     1       1.587  10.029  12.777  1.00  0.00     0.210 HD
ENDBRANCH  12  36
TORSDOF 8
ENDMDL
