MODEL 1
REMARK minimizedAffinity -7.75571632
REMARK  18 active torsions:
REMARK  status: ('A' for Active; 'I' for Inactive)
REMARK    1  A    between atoms: C2_2  and  C14_18 
REMARK    2  A    between atoms: C3_3  and  C4_4 
REMARK    3  A    between atoms: C4_4  and  O2_6 
REMARK    4  A    between atoms: O2_6  and  C5_7 
REMARK    5  A    between atoms: C5_7  and  C6_8 
REMARK    6  A    between atoms: C6_8  and  C7_9 
REMARK    7  A    between atoms: C7_9  and  C8_10 
REMARK    8  A    between atoms: C8_10  and  C9_11 
REMARK    9  A    between atoms: C9_11  and  C10_12 
REMARK   10  A    between atoms: C10_12  and  C11_13 
REMARK   11  A    between atoms: C11_13  and  C12_14 
REMARK   12  A    between atoms: C12_14  and  C13_15 
REMARK   13  A    between atoms: C13_15  and  O4_17 
REMARK   14  A    between atoms: C14_18  and  C15_19 
REMARK   15  A    between atoms: C21_27  and  O7_28 
REMARK   16  A    between atoms: C22_30  and  C23_31 
REMARK   17  A    between atoms: C23_31  and  C25_33 
REMARK   18  A    between atoms: C25_33  and  O9_35 
ROOT
HETATM    1  C15 UNL     1      -2.041  50.764 -26.458  1.00  0.00     0.190 C 
HETATM    2  O5  UNL     1      -0.896  50.501 -27.303  1.00  0.00    -0.380 OA
HETATM    3  C16 UNL     1       0.353  50.779 -26.675  1.00  0.00     0.175 C 
HETATM    4  C17 UNL     1       0.486  52.277 -26.422  1.00  0.00     0.046 C 
HETATM    5  C18 UNL     1       1.309  52.625 -25.182  1.00  0.00     0.044 C 
HETATM    6  C19 UNL     1       0.330  53.375 -24.276  1.00  0.00     0.152 C 
HETATM    7  O6  UNL     1      -0.511  54.032 -25.260  1.00  0.00    -0.372 OA
HETATM    8  C20 UNL     1      -0.859  52.950 -26.156  1.00  0.00     0.193 C 
HETATM    9  C21 UNL     1      -1.811  51.943 -25.457  1.00  0.00     0.216 C 
HETATM   10  O8  UNL     1      -1.216  51.450 -24.240  1.00  0.00    -0.342 OA
HETATM   11  C22 UNL     1      -0.636  52.504 -23.430  1.00  0.00     0.160 C 
ENDROOT
BRANCH   1  12
HETATM   12  C14 UNL     1      -2.462  49.457 -25.751  1.00  0.00     0.071 C 
BRANCH  12  13
HETATM   13  C2  UNL     1      -3.735  48.847 -26.323  1.00  0.00    -0.075 C 
HETATM   14  C1  UNL     1      -4.772  48.457 -25.304  1.00  0.00     0.043 C 
HETATM   15  C3  UNL     1      -3.851  48.657 -27.654  1.00  0.00     0.084 C 
BRANCH  15  16
HETATM   16  C4  UNL     1      -4.997  48.111 -28.414  1.00  0.00     0.283 C 
HETATM   17  O1  UNL     1      -6.031  47.764 -27.863  1.00  0.00    -0.260 OA
BRANCH  16  18
HETATM   18  O2  UNL     1      -4.714  48.001 -29.732  1.00  0.00    -0.318 OA
BRANCH  18  19
HETATM   19  C5  UNL     1      -5.660  48.601 -30.628  1.00  0.00     0.179 C 
BRANCH  19  20
HETATM   20  C6  UNL     1      -6.475  47.516 -31.325  1.00  0.00     0.027 C 
BRANCH  20  21
HETATM   21  C7  UNL     1      -7.688  48.098 -32.051  1.00  0.00     0.002 C 
BRANCH  21  22
HETATM   22  C8  UNL     1      -8.444  49.082 -31.155  1.00  0.00     0.000 C 
BRANCH  22  23
HETATM   23  C9  UNL     1      -9.587  48.435 -30.363  1.00  0.00     0.000 C 
BRANCH  23  24
HETATM   24  C10 UNL     1      -9.210  48.106 -28.917  1.00  0.00     0.001 C 
BRANCH  24  25
HETATM   25  C11 UNL     1     -10.340  47.452 -28.112  1.00  0.00     0.010 C 
BRANCH  25  26
HETATM   26  C12 UNL     1     -10.822  48.266 -26.911  1.00  0.00     0.110 C 
BRANCH  26  27
HETATM   27  C13 UNL     1      -9.718  48.828 -26.060  1.00  0.00     0.139 C 
HETATM   28  O3  UNL     1      -8.860  48.181 -25.481  1.00  0.00    -0.650 OA
BRANCH  27  29
HETATM   29  O4  UNL     1      -9.701  50.173 -26.020  1.00  0.00    -0.776 OA
HETATM   30  H21 UNL     1      -8.926  50.384 -25.459  1.00  0.00     0.167 HD
ENDBRANCH  27  29
ENDBRANCH  26  27
ENDBRANCH  25  26
ENDBRANCH  24  25
ENDBRANCH  23  24
ENDBRANCH  22  23
ENDBRANCH  21  22
ENDBRANCH  20  21
ENDBRANCH  19  20
ENDBRANCH  18  19
ENDBRANCH  16  18
ENDBRANCH  15  16
ENDBRANCH  12  13
ENDBRANCH   1  12
BRANCH   9  31
HETATM   31  O7  UNL     1      -3.049  52.560 -25.124  1.00  0.00    -0.361 OA
HETATM   32  H32 UNL     1      -3.593  51.869 -24.714  1.00  0.00     0.213 HD
ENDBRANCH   9  31
BRANCH  11  33
HETATM   33  C23 UNL     1      -0.092  51.860 -22.129  1.00  0.00     0.041 C 
HETATM   34  C24 UNL     1       0.771  52.805 -21.283  1.00  0.00     0.015 C 
BRANCH  33  35
HETATM   35  C25 UNL     1      -1.155  51.175 -21.244  1.00  0.00     0.120 C 
HETATM   36  C26 UNL     1      -1.005  49.662 -21.158  1.00  0.00     0.040 C 
BRANCH  35  37
HETATM   37  O9  UNL     1      -2.463  51.490 -21.713  1.00  0.00    -0.396 OA
HETATM   38  H42 UNL     1      -3.101  51.095 -21.092  1.00  0.00     0.210 HD
ENDBRANCH  35  37
ENDBRANCH  33  35
ENDBRANCH  11  33
TORSDOF 18
ENDMDL
MODEL 2
REMARK minimizedAffinity -7.63057804
REMARK  18 active torsions:
REMARK  status: ('A' for Active; 'I' for Inactive)
REMARK    1  A    between atoms: C2_2  and  C14_18 
REMARK    2  A    between atoms: C3_3  and  C4_4 
REMARK    3  A    between atoms: C4_4  and  O2_6 
REMARK    4  A    between atoms: O2_6  and  C5_7 
REMARK    5  A    between atoms: C5_7  and  C6_8 
REMARK    6  A    between atoms: C6_8  and  C7_9 
REMARK    7  A    between atoms: C7_9  and  C8_10 
REMARK    8  A    between atoms: C8_10  and  C9_11 
REMARK    9  A    between atoms: C9_11  and  C10_12 
REMARK   10  A    between atoms: C10_12  and  C11_13 
REMARK   11  A    between atoms: C11_13  and  C12_14 
REMARK   12  A    between atoms: C12_14  and  C13_15 
REMARK   13  A    between atoms: C13_15  and  O4_17 
REMARK   14  A    between atoms: C14_18  and  C15_19 
REMARK   15  A    between atoms: C21_27  and  O7_28 
REMARK   16  A    between atoms: C22_30  and  C23_31 
REMARK   17  A    between atoms: C23_31  and  C25_33 
REMARK   18  A    between atoms: C25_33  and  O9_35 
ROOT
HETATM    1  C15 UNL     1      -3.159  49.786 -23.196  1.00  0.00     0.190 C 
HETATM    2  O5  UNL     1      -4.249  50.629 -23.642  1.00  0.00    -0.380 OA
HETATM    3  C16 UNL     1      -3.873  51.562 -24.652  1.00  0.00     0.175 C 
HETATM    4  C17 UNL     1      -2.899  52.585 -24.077  1.00  0.00     0.046 C 
HETATM    5  C18 UNL     1      -1.890  53.119 -25.094  1.00  0.00     0.044 C 
HETATM    6  C19 UNL     1      -0.530  52.703 -24.531  1.00  0.00     0.152 C 
HETATM    7  O6  UNL     1      -0.790  52.759 -23.104  1.00  0.00    -0.372 OA
HETATM    8  C20 UNL     1      -2.018  52.004 -22.974  1.00  0.00     0.193 C 
HETATM    9  C21 UNL     1      -1.767  50.498 -23.253  1.00  0.00     0.216 C 
HETATM   10  O8  UNL     1      -1.174  50.319 -24.555  1.00  0.00    -0.342 OA
HETATM   11  C22 UNL     1      -0.084  51.242 -24.807  1.00  0.00     0.160 C 
ENDROOT
BRANCH   1  12
HETATM   12  C14 UNL     1      -3.183  48.461 -23.989  1.00  0.00     0.071 C 
BRANCH  12  13
HETATM   13  C2  UNL     1      -4.021  48.536 -25.258  1.00  0.00    -0.075 C 
HETATM   14  C1  UNL     1      -5.504  48.372 -25.057  1.00  0.00     0.043 C 
HETATM   15  C3  UNL     1      -3.417  48.697 -26.454  1.00  0.00     0.084 C 
BRANCH  15  16
HETATM   16  C4  UNL     1      -4.035  48.819 -27.793  1.00  0.00     0.283 C 
HETATM   17  O1  UNL     1      -3.770  49.746 -28.544  1.00  0.00    -0.260 OA
BRANCH  16  18
HETATM   18  O2  UNL     1      -4.939  47.838 -28.016  1.00  0.00    -0.318 OA
BRANCH  18  19
HETATM   19  C5  UNL     1      -5.942  48.124 -29.002  1.00  0.00     0.179 C 
BRANCH  19  20
HETATM   20  C6  UNL     1      -7.313  47.700 -28.483  1.00  0.00     0.027 C 
BRANCH  20  21
HETATM   21  C7  UNL     1      -8.415  47.979 -29.506  1.00  0.00     0.002 C 
BRANCH  21  22
HETATM   22  C8  UNL     1      -7.908  48.894 -30.623  1.00  0.00     0.000 C 
BRANCH  22  23
HETATM   23  C9  UNL     1      -8.140  48.329 -32.030  1.00  0.00     0.000 C 
BRANCH  23  24
HETATM   24  C10 UNL     1      -7.569  46.923 -32.219  1.00  0.00     0.001 C 
BRANCH  24  25
HETATM   25  C11 UNL     1      -6.463  46.836 -33.278  1.00  0.00     0.010 C 
BRANCH  25  26
HETATM   26  C12 UNL     1      -5.229  47.688 -32.984  1.00  0.00     0.110 C 
BRANCH  26  27
HETATM   27  C13 UNL     1      -4.572  48.270 -34.206  1.00  0.00     0.139 C 
HETATM   28  O3  UNL     1      -5.131  48.547 -35.255  1.00  0.00    -0.650 OA
BRANCH  27  29
HETATM   29  O4  UNL     1      -3.264  48.533 -34.039  1.00  0.00    -0.776 OA
HETATM   30  H21 UNL     1      -2.989  48.924 -34.894  1.00  0.00     0.167 HD
ENDBRANCH  27  29
ENDBRANCH  26  27
ENDBRANCH  25  26
ENDBRANCH  24  25
ENDBRANCH  23  24
ENDBRANCH  22  23
ENDBRANCH  21  22
ENDBRANCH  20  21
ENDBRANCH  19  20
ENDBRANCH  18  19
ENDBRANCH  16  18
ENDBRANCH  15  16
ENDBRANCH  12  13
ENDBRANCH   1  12
BRANCH   9  31
HETATM   31  O7  UNL     1      -0.885  49.941 -22.285  1.00  0.00    -0.361 OA
HETATM   32  H32 UNL     1      -0.796  49.001 -22.512  1.00  0.00     0.213 HD
ENDBRANCH   9  31
BRANCH  11  33
HETATM   33  C23 UNL     1       0.509  50.908 -26.200  1.00  0.00     0.041 C 
HETATM   34  C24 UNL     1      -0.504  51.012 -27.347  1.00  0.00     0.015 C 
BRANCH  33  35
HETATM   35  C25 UNL     1       1.801  51.673 -26.560  1.00  0.00     0.120 C 
HETATM   36  C26 UNL     1       1.935  51.993 -28.044  1.00  0.00     0.040 C 
BRANCH  35  37
HETATM   37  O9  UNL     1       2.944  50.938 -26.135  1.00  0.00    -0.396 OA
HETATM   38  H42 UNL     1       3.730  51.483 -26.321  1.00  0.00     0.210 HD
ENDBRANCH  35  37
ENDBRANCH  33  35
ENDBRANCH  11  33
TORSDOF 18
ENDMDL
MODEL 3
REMARK minimizedAffinity -7.56579685
REMARK  18 active torsions:
REMARK  status: ('A' for Active; 'I' for Inactive)
REMARK    1  A    between atoms: C2_2  and  C14_18 
REMARK    2  A    between atoms: C3_3  and  C4_4 
REMARK    3  A    between atoms: C4_4  and  O2_6 
REMARK    4  A    between atoms: O2_6  and  C5_7 
REMARK    5  A    between atoms: C5_7  and  C6_8 
REMARK    6  A    between atoms: C6_8  and  C7_9 
REMARK    7  A    between atoms: C7_9  and  C8_10 
REMARK    8  A    between atoms: C8_10  and  C9_11 
REMARK    9  A    between atoms: C9_11  and  C10_12 
REMARK   10  A    between atoms: C10_12  and  C11_13 
REMARK   11  A    between atoms: C11_13  and  C12_14 
REMARK   12  A    between atoms: C12_14  and  C13_15 
REMARK   13  A    between atoms: C13_15  and  O4_17 
REMARK   14  A    between atoms: C14_18  and  C15_19 
REMARK   15  A    between atoms: C21_27  and  O7_28 
REMARK   16  A    between atoms: C22_30  and  C23_31 
REMARK   17  A    between atoms: C23_31  and  C25_33 
REMARK   18  A    between atoms: C25_33  and  O9_35 
ROOT
HETATM    1  C15 UNL     1      -3.123  49.906 -23.180  1.00  0.00     0.190 C 
HETATM    2  O5  UNL     1      -3.782  48.787 -23.820  1.00  0.00    -0.380 OA
HETATM    3  C16 UNL     1      -3.331  48.542 -25.150  1.00  0.00     0.175 C 
HETATM    4  C17 UNL     1      -3.730  49.703 -26.056  1.00  0.00     0.046 C 
HETATM    5  C18 UNL     1      -2.752  49.958 -27.203  1.00  0.00     0.044 C 
HETATM    6  C19 UNL     1      -2.243  51.379 -26.956  1.00  0.00     0.152 C 
HETATM    7  O6  UNL     1      -3.410  51.991 -26.347  1.00  0.00    -0.372 OA
HETATM    8  C20 UNL     1      -3.768  51.039 -25.318  1.00  0.00     0.193 C 
HETATM    9  C21 UNL     1      -2.710  51.033 -24.183  1.00  0.00     0.216 C 
HETATM   10  O8  UNL     1      -1.400  50.762 -24.719  1.00  0.00    -0.342 OA
HETATM   11  C22 UNL     1      -1.108  51.536 -25.910  1.00  0.00     0.160 C 
ENDROOT
BRANCH   1  12
HETATM   12  C14 UNL     1      -1.933  49.386 -22.346  1.00  0.00     0.071 C 
BRANCH  12  13
HETATM   13  C2  UNL     1      -1.696  50.186 -21.072  1.00  0.00    -0.075 C 
HETATM   14  C1  UNL     1      -0.401  50.952 -21.029  1.00  0.00     0.043 C 
HETATM   15  C3  UNL     1      -2.600  50.140 -20.071  1.00  0.00     0.084 C 
BRANCH  15  16
HETATM   16  C4  UNL     1      -2.580  50.851 -18.774  1.00  0.00     0.283 C 
HETATM   17  O1  UNL     1      -2.690  52.067 -18.702  1.00  0.00    -0.260 OA
BRANCH  16  18
HETATM   18  O2  UNL     1      -2.367  50.003 -17.743  1.00  0.00    -0.318 OA
BRANCH  18  19
HETATM   19  C5  UNL     1      -1.425  48.947 -17.985  1.00  0.00     0.179 C 
BRANCH  19  20
HETATM   20  C6  UNL     1      -0.061  49.330 -17.420  1.00  0.00     0.027 C 
BRANCH  20  21
HETATM   21  C7  UNL     1      -0.124  50.633 -16.624  1.00  0.00     0.002 C 
BRANCH  21  22
HETATM   22  C8  UNL     1       0.735  51.718 -17.278  1.00  0.00     0.000 C 
BRANCH  22  23
HETATM   23  C9  UNL     1       1.566  52.528 -16.277  1.00  0.00     0.000 C 
BRANCH  23  24
HETATM   24  C10 UNL     1       3.071  52.460 -16.545  1.00  0.00     0.001 C 
BRANCH  24  25
HETATM   25  C11 UNL     1       3.896  51.961 -15.352  1.00  0.00     0.010 C 
BRANCH  25  26
HETATM   26  C12 UNL     1       3.108  51.152 -14.323  1.00  0.00     0.110 C 
BRANCH  26  27
HETATM   27  C13 UNL     1       3.805  49.908 -13.845  1.00  0.00     0.139 C 
HETATM   28  O3  UNL     1       5.012  49.730 -13.821  1.00  0.00    -0.650 OA
BRANCH  27  29
HETATM   29  O4  UNL     1       2.966  48.972 -13.366  1.00  0.00    -0.776 OA
HETATM   30  H21 UNL     1       3.559  48.248 -13.077  1.00  0.00     0.167 HD
ENDBRANCH  27  29
ENDBRANCH  26  27
ENDBRANCH  25  26
ENDBRANCH  24  25
ENDBRANCH  23  24
ENDBRANCH  22  23
ENDBRANCH  21  22
ENDBRANCH  20  21
ENDBRANCH  19  20
ENDBRANCH  18  19
ENDBRANCH  16  18
ENDBRANCH  15  16
ENDBRANCH  12  13
ENDBRANCH   1  12
BRANCH   9  31
HETATM   31  O7  UNL     1      -2.665  52.292 -23.523  1.00  0.00    -0.361 OA
HETATM   32  H32 UNL     1      -2.002  52.205 -22.819  1.00  0.00     0.213 HD
ENDBRANCH   9  31
BRANCH  11  33
HETATM   33  C23 UNL     1       0.342  51.208 -26.348  1.00  0.00     0.041 C 
HETATM   34  C24 UNL     1       0.599  51.413 -27.847  1.00  0.00     0.015 C 
BRANCH  33  35
HETATM   35  C25 UNL     1       1.447  51.897 -25.520  1.00  0.00     0.120 C 
HETATM   36  C26 UNL     1       0.975  53.138 -24.773  1.00  0.00     0.040 C 
BRANCH  35  37
HETATM   37  O9  UNL     1       2.546  52.245 -26.357  1.00  0.00    -0.396 OA
HETATM   38  H42 UNL     1       3.244  52.616 -25.787  1.00  0.00     0.210 HD
ENDBRANCH  35  37
ENDBRANCH  33  35
ENDBRANCH  11  33
TORSDOF 18
ENDMDL
MODEL 4
REMARK minimizedAffinity -7.45805168
REMARK  18 active torsions:
REMARK  status: ('A' for Active; 'I' for Inactive)
REMARK    1  A    between atoms: C2_2  and  C14_18 
REMARK    2  A    between atoms: C3_3  and  C4_4 
REMARK    3  A    between atoms: C4_4  and  O2_6 
REMARK    4  A    between atoms: O2_6  and  C5_7 
REMARK    5  A    between atoms: C5_7  and  C6_8 
REMARK    6  A    between atoms: C6_8  and  C7_9 
REMARK    7  A    between atoms: C7_9  and  C8_10 
REMARK    8  A    between atoms: C8_10  and  C9_11 
REMARK    9  A    between atoms: C9_11  and  C10_12 
REMARK   10  A    between atoms: C10_12  and  C11_13 
REMARK   11  A    between atoms: C11_13  and  C12_14 
REMARK   12  A    between atoms: C12_14  and  C13_15 
REMARK   13  A    between atoms: C13_15  and  O4_17 
REMARK   14  A    between atoms: C14_18  and  C15_19 
REMARK   15  A    between atoms: C21_27  and  O7_28 
REMARK   16  A    between atoms: C22_30  and  C23_31 
REMARK   17  A    between atoms: C23_31  and  C25_33 
REMARK   18  A    between atoms: C25_33  and  O9_35 
ROOT
HETATM    1  C15 UNL     1      -2.154  50.867 -26.311  1.00  0.00     0.190 C 
HETATM    2  O5  UNL     1      -1.074  50.503 -27.203  1.00  0.00    -0.380 OA
HETATM    3  C16 UNL     1       0.222  50.709 -26.645  1.00  0.00     0.175 C 
HETATM    4  C17 UNL     1       0.470  52.200 -26.443  1.00  0.00     0.046 C 
HETATM    5  C18 UNL     1       1.377  52.522 -25.256  1.00  0.00     0.044 C 
HETATM    6  C19 UNL     1       0.499  53.362 -24.327  1.00  0.00     0.152 C 
HETATM    7  O6  UNL     1      -0.344  54.050 -25.287  1.00  0.00    -0.372 OA
HETATM    8  C20 UNL     1      -0.810  52.972 -26.132  1.00  0.00     0.193 C 
HETATM    9  C21 UNL     1      -1.792  52.054 -25.358  1.00  0.00     0.216 C 
HETATM   10  O8  UNL     1      -1.172  51.552 -24.158  1.00  0.00    -0.342 OA
HETATM   11  C22 UNL     1      -0.481  52.584 -23.409  1.00  0.00     0.160 C 
ENDROOT
BRANCH   1  12
HETATM   12  C14 UNL     1      -2.628  49.612 -25.546  1.00  0.00     0.071 C 
BRANCH  12  13
HETATM   13  C2  UNL     1      -3.796  48.904 -26.219  1.00  0.00    -0.075 C 
HETATM   14  C1  UNL     1      -4.824  48.332 -25.279  1.00  0.00     0.043 C 
HETATM   15  C3  UNL     1      -3.831  48.793 -27.563  1.00  0.00     0.084 C 
BRANCH  15  16
HETATM   16  C4  UNL     1      -4.873  48.175 -28.412  1.00  0.00     0.283 C 
HETATM   17  O1  UNL     1      -4.743  48.074 -29.624  1.00  0.00    -0.260 OA
BRANCH  16  18
HETATM   18  O2  UNL     1      -5.960  47.820 -27.690  1.00  0.00    -0.318 OA
BRANCH  18  19
HETATM   19  C5  UNL     1      -7.197  47.748 -28.414  1.00  0.00     0.179 C 
BRANCH  19  20
HETATM   20  C6  UNL     1      -7.778  46.341 -28.307  1.00  0.00     0.027 C 
BRANCH  20  21
HETATM   21  C7  UNL     1      -6.887  45.308 -28.997  1.00  0.00     0.002 C 
BRANCH  21  22
HETATM   22  C8  UNL     1      -7.690  44.065 -29.388  1.00  0.00     0.000 C 
BRANCH  22  23
HETATM   23  C9  UNL     1      -7.589  43.715 -30.878  1.00  0.00     0.000 C 
BRANCH  23  24
HETATM   24  C10 UNL     1      -6.291  44.199 -31.526  1.00  0.00     0.001 C 
BRANCH  24  25
HETATM   25  C11 UNL     1      -5.734  43.248 -32.594  1.00  0.00     0.010 C 
BRANCH  25  26
HETATM   26  C12 UNL     1      -4.220  43.322 -32.788  1.00  0.00     0.110 C 
BRANCH  26  27
HETATM   27  C13 UNL     1      -3.590  42.035 -33.245  1.00  0.00     0.139 C 
HETATM   28  O3  UNL     1      -3.283  41.758 -34.393  1.00  0.00    -0.650 OA
BRANCH  27  29
HETATM   29  O4  UNL     1      -3.318  41.184 -32.241  1.00  0.00    -0.776 OA
HETATM   30  H21 UNL     1      -2.895  40.419 -32.685  1.00  0.00     0.167 HD
ENDBRANCH  27  29
ENDBRANCH  26  27
ENDBRANCH  25  26
ENDBRANCH  24  25
ENDBRANCH  23  24
ENDBRANCH  22  23
ENDBRANCH  21  22
ENDBRANCH  20  21
ENDBRANCH  19  20
ENDBRANCH  18  19
ENDBRANCH  16  18
ENDBRANCH  15  16
ENDBRANCH  12  13
ENDBRANCH   1  12
BRANCH   9  31
HETATM   31  O7  UNL     1      -2.966  52.765 -24.984  1.00  0.00    -0.361 OA
HETATM   32  H32 UNL     1      -3.536  52.125 -24.528  1.00  0.00     0.213 HD
ENDBRANCH   9  31
BRANCH  11  33
HETATM   33  C23 UNL     1       0.083  51.938 -22.117  1.00  0.00     0.041 C 
HETATM   34  C24 UNL     1       0.966  52.879 -21.287  1.00  0.00     0.015 C 
BRANCH  33  35
HETATM   35  C25 UNL     1      -0.968  51.260 -21.213  1.00  0.00     0.120 C 
HETATM   36  C26 UNL     1      -0.833  51.614 -19.737  1.00  0.00     0.040 C 
BRANCH  35  37
HETATM   37  O9  UNL     1      -0.908  49.844 -21.361  1.00  0.00    -0.396 OA
HETATM   38  H42 UNL     1      -1.627  49.462 -20.827  1.00  0.00     0.210 HD
ENDBRANCH  35  37
ENDBRANCH  33  35
ENDBRANCH  11  33
TORSDOF 18
ENDMDL
MODEL 5
REMARK minimizedAffinity -7.453722
REMARK  18 active torsions:
REMARK  status: ('A' for Active; 'I' for Inactive)
REMARK    1  A    between atoms: C2_2  and  C14_18 
REMARK    2  A    between atoms: C3_3  and  C4_4 
REMARK    3  A    between atoms: C4_4  and  O2_6 
REMARK    4  A    between atoms: O2_6  and  C5_7 
REMARK    5  A    between atoms: C5_7  and  C6_8 
REMARK    6  A    between atoms: C6_8  and  C7_9 
REMARK    7  A    between atoms: C7_9  and  C8_10 
REMARK    8  A    between atoms: C8_10  and  C9_11 
REMARK    9  A    between atoms: C9_11  and  C10_12 
REMARK   10  A    between atoms: C10_12  and  C11_13 
REMARK   11  A    between atoms: C11_13  and  C12_14 
REMARK   12  A    between atoms: C12_14  and  C13_15 
REMARK   13  A    between atoms: C13_15  and  O4_17 
REMARK   14  A    between atoms: C14_18  and  C15_19 
REMARK   15  A    between atoms: C21_27  and  O7_28 
REMARK   16  A    between atoms: C22_30  and  C23_31 
REMARK   17  A    between atoms: C23_31  and  C25_33 
REMARK   18  A    between atoms: C25_33  and  O9_35 
ROOT
HETATM    1  C15 UNL     1      -2.124  50.832 -26.290  1.00  0.00     0.190 C 
HETATM    2  O5  UNL     1      -1.024  50.525 -27.180  1.00  0.00    -0.380 OA
HETATM    3  C16 UNL     1       0.260  50.743 -26.599  1.00  0.00     0.175 C 
HETATM    4  C17 UNL     1       0.468  52.232 -26.342  1.00  0.00     0.046 C 
HETATM    5  C18 UNL     1       1.353  52.534 -25.133  1.00  0.00     0.044 C 
HETATM    6  C19 UNL     1       0.443  53.319 -24.186  1.00  0.00     0.152 C 
HETATM    7  O6  UNL     1      -0.405  54.020 -25.133  1.00  0.00    -0.372 OA
HETATM    8  C20 UNL     1      -0.834  52.961 -26.021  1.00  0.00     0.193 C 
HETATM    9  C21 UNL     1      -1.803  51.993 -25.292  1.00  0.00     0.216 C 
HETATM   10  O8  UNL     1      -1.185  51.464 -24.102  1.00  0.00    -0.342 OA
HETATM   11  C22 UNL     1      -0.529  52.486 -23.309  1.00  0.00     0.160 C 
ENDROOT
BRANCH   1  12
HETATM   12  C14 UNL     1      -2.576  49.540 -25.576  1.00  0.00     0.071 C 
BRANCH  12  13
HETATM   13  C2  UNL     1      -3.796  48.894 -26.217  1.00  0.00    -0.075 C 
HETATM   14  C1  UNL     1      -4.860  48.438 -25.253  1.00  0.00     0.043 C 
HETATM   15  C3  UNL     1      -3.846  48.731 -27.556  1.00  0.00     0.084 C 
BRANCH  15  16
HETATM   16  C4  UNL     1      -4.935  48.158 -28.378  1.00  0.00     0.283 C 
HETATM   17  O1  UNL     1      -4.905  48.185 -29.599  1.00  0.00    -0.260 OA
BRANCH  16  18
HETATM   18  O2  UNL     1      -5.944  47.687 -27.610  1.00  0.00    -0.318 OA
BRANCH  18  19
HETATM   19  C5  UNL     1      -7.229  47.612 -28.243  1.00  0.00     0.179 C 
BRANCH  19  20
HETATM   20  C6  UNL     1      -7.793  46.201 -28.106  1.00  0.00     0.027 C 
BRANCH  20  21
HETATM   21  C7  UNL     1      -7.137  45.232 -29.090  1.00  0.00     0.002 C 
BRANCH  21  22
HETATM   22  C8  UNL     1      -8.104  44.852 -30.214  1.00  0.00     0.000 C 
BRANCH  22  23
HETATM   23  C9  UNL     1      -7.483  43.931 -31.271  1.00  0.00     0.000 C 
BRANCH  23  24
HETATM   24  C10 UNL     1      -5.970  44.105 -31.412  1.00  0.00     0.001 C 
BRANCH  24  25
HETATM   25  C11 UNL     1      -5.552  45.042 -32.552  1.00  0.00     0.010 C 
BRANCH  25  26
HETATM   26  C12 UNL     1      -4.366  45.950 -32.232  1.00  0.00     0.110 C 
BRANCH  26  27
HETATM   27  C13 UNL     1      -4.358  47.251 -32.986  1.00  0.00     0.139 C 
HETATM   28  O3  UNL     1      -5.339  47.826 -33.429  1.00  0.00    -0.650 OA
BRANCH  27  29
HETATM   29  O4  UNL     1      -3.136  47.800 -33.098  1.00  0.00    -0.776 OA
HETATM   30  H21 UNL     1      -3.295  48.637 -33.582  1.00  0.00     0.167 HD
ENDBRANCH  27  29
ENDBRANCH  26  27
ENDBRANCH  25  26
ENDBRANCH  24  25
ENDBRANCH  23  24
ENDBRANCH  22  23
ENDBRANCH  21  22
ENDBRANCH  20  21
ENDBRANCH  19  20
ENDBRANCH  18  19
ENDBRANCH  16  18
ENDBRANCH  15  16
ENDBRANCH  12  13
ENDBRANCH   1  12
BRANCH   9  31
HETATM   31  O7  UNL     1      -2.999  52.662 -24.909  1.00  0.00    -0.361 OA
HETATM   32  H32 UNL     1      -3.558  51.993 -24.483  1.00  0.00     0.213 HD
ENDBRANCH   9  31
BRANCH  11  33
HETATM   33  C23 UNL     1       0.035  51.809 -22.033  1.00  0.00     0.041 C 
HETATM   34  C24 UNL     1       0.513  52.801 -20.964  1.00  0.00     0.015 C 
BRANCH  33  35
HETATM   35  C25 UNL     1      -0.885  50.745 -21.398  1.00  0.00     0.120 C 
HETATM   36  C26 UNL     1      -2.013  51.327 -20.556  1.00  0.00     0.040 C 
BRANCH  35  37
HETATM   37  O9  UNL     1      -0.121  49.847 -20.598  1.00  0.00    -0.396 OA
HETATM   38  H42 UNL     1      -0.726  49.157 -20.271  1.00  0.00     0.210 HD
ENDBRANCH  35  37
ENDBRANCH  33  35
ENDBRANCH  11  33
TORSDOF 18
ENDMDL
MODEL 6
REMARK minimizedAffinity -7.38482809
REMARK  18 active torsions:
REMARK  status: ('A' for Active; 'I' for Inactive)
REMARK    1  A    between atoms: C2_2  and  C14_18 
REMARK    2  A    between atoms: C3_3  and  C4_4 
REMARK    3  A    between atoms: C4_4  and  O2_6 
REMARK    4  A    between atoms: O2_6  and  C5_7 
REMARK    5  A    between atoms: C5_7  and  C6_8 
REMARK    6  A    between atoms: C6_8  and  C7_9 
REMARK    7  A    between atoms: C7_9  and  C8_10 
REMARK    8  A    between atoms: C8_10  and  C9_11 
REMARK    9  A    between atoms: C9_11  and  C10_12 
REMARK   10  A    between atoms: C10_12  and  C11_13 
REMARK   11  A    between atoms: C11_13  and  C12_14 
REMARK   12  A    between atoms: C12_14  and  C13_15 
REMARK   13  A    between atoms: C13_15  and  O4_17 
REMARK   14  A    between atoms: C14_18  and  C15_19 
REMARK   15  A    between atoms: C21_27  and  O7_28 
REMARK   16  A    between atoms: C22_30  and  C23_31 
REMARK   17  A    between atoms: C23_31  and  C25_33 
REMARK   18  A    between atoms: C25_33  and  O9_35 
ROOT
HETATM    1  C15 UNL     1      -3.287  50.999 -25.507  1.00  0.00     0.190 C 
HETATM    2  O5  UNL     1      -2.946  52.326 -25.040  1.00  0.00    -0.380 OA
HETATM    3  C16 UNL     1      -2.895  52.436 -23.619  1.00  0.00     0.175 C 
HETATM    4  C17 UNL     1      -4.290  52.243 -23.033  1.00  0.00     0.046 C 
HETATM    5  C18 UNL     1      -4.294  51.607 -21.642  1.00  0.00     0.044 C 
HETATM    6  C19 UNL     1      -5.068  50.300 -21.828  1.00  0.00     0.152 C 
HETATM    7  O6  UNL     1      -6.006  50.678 -22.870  1.00  0.00    -0.372 OA
HETATM    8  C20 UNL     1      -5.150  51.293 -23.861  1.00  0.00     0.193 C 
HETATM    9  C21 UNL     1      -4.244  50.231 -24.537  1.00  0.00     0.216 C 
HETATM   10  O8  UNL     1      -3.475  49.520 -23.546  1.00  0.00    -0.342 OA
HETATM   11  C22 UNL     1      -4.274  49.101 -22.410  1.00  0.00     0.160 C 
ENDROOT
BRANCH   1  12
HETATM   12  C14 UNL     1      -1.989  50.217 -25.807  1.00  0.00     0.071 C 
BRANCH  12  13
HETATM   13  C2  UNL     1      -0.862  51.100 -26.325  1.00  0.00    -0.075 C 
HETATM   14  C1  UNL     1      -0.995  51.532 -27.761  1.00  0.00     0.043 C 
HETATM   15  C3  UNL     1       0.177  51.405 -25.519  1.00  0.00     0.084 C 
BRANCH  15  16
HETATM   16  C4  UNL     1       1.352  52.258 -25.808  1.00  0.00     0.283 C 
HETATM   17  O1  UNL     1       2.381  51.800 -26.282  1.00  0.00    -0.260 OA
BRANCH  16  18
HETATM   18  O2  UNL     1       1.144  53.538 -25.424  1.00  0.00    -0.318 OA
BRANCH  18  19
HETATM   19  C5  UNL     1       0.299  53.719 -24.278  1.00  0.00     0.179 C 
BRANCH  19  20
HETATM   20  C6  UNL     1       1.153  53.907 -23.028  1.00  0.00     0.027 C 
BRANCH  20  21
HETATM   21  C7  UNL     1       0.639  53.064 -21.861  1.00  0.00     0.002 C 
BRANCH  21  22
HETATM   22  C8  UNL     1       0.761  53.825 -20.539  1.00  0.00     0.000 C 
BRANCH  22  23
HETATM   23  C9  UNL     1      -0.057  53.207 -19.398  1.00  0.00     0.000 C 
BRANCH  23  24
HETATM   24  C10 UNL     1       0.720  52.163 -18.594  1.00  0.00     0.001 C 
BRANCH  24  25
HETATM   25  C11 UNL     1      -0.063  51.575 -17.413  1.00  0.00     0.010 C 
BRANCH  25  26
HETATM   26  C12 UNL     1       0.802  50.928 -16.332  1.00  0.00     0.110 C 
BRANCH  26  27
HETATM   27  C13 UNL     1       1.735  51.878 -15.633  1.00  0.00     0.139 C 
HETATM   28  O3  UNL     1       2.621  51.567 -14.853  1.00  0.00    -0.650 OA
BRANCH  27  29
HETATM   29  O4  UNL     1       1.557  53.164 -15.986  1.00  0.00    -0.776 OA
HETATM   30  H21 UNL     1       2.241  53.647 -15.477  1.00  0.00     0.167 HD
ENDBRANCH  27  29
ENDBRANCH  26  27
ENDBRANCH  25  26
ENDBRANCH  24  25
ENDBRANCH  23  24
ENDBRANCH  22  23
ENDBRANCH  21  22
ENDBRANCH  20  21
ENDBRANCH  19  20
ENDBRANCH  18  19
ENDBRANCH  16  18
ENDBRANCH  15  16
ENDBRANCH  12  13
ENDBRANCH   1  12
BRANCH   9  31
HETATM   31  O7  UNL     1      -5.021  49.281 -25.257  1.00  0.00    -0.361 OA
HETATM   32  H32 UNL     1      -4.388  48.668 -25.666  1.00  0.00     0.213 HD
ENDBRANCH   9  31
BRANCH  11  33
HETATM   33  C23 UNL     1      -3.357  48.297 -21.454  1.00  0.00     0.041 C 
HETATM   34  C24 UNL     1      -1.859  48.466 -21.743  1.00  0.00     0.015 C 
BRANCH  33  35
HETATM   35  C25 UNL     1      -3.635  48.508 -19.950  1.00  0.00     0.120 C 
HETATM   36  C26 UNL     1      -2.411  48.938 -19.151  1.00  0.00     0.040 C 
BRANCH  35  37
HETATM   37  O9  UNL     1      -4.175  47.322 -19.376  1.00  0.00    -0.396 OA
HETATM   38  H42 UNL     1      -4.396  47.518 -18.448  1.00  0.00     0.210 HD
ENDBRANCH  35  37
ENDBRANCH  33  35
ENDBRANCH  11  33
TORSDOF 18
ENDMDL
MODEL 7
REMARK minimizedAffinity -7.379179
REMARK  18 active torsions:
REMARK  status: ('A' for Active; 'I' for Inactive)
REMARK    1  A    between atoms: C2_2  and  C14_18 
REMARK    2  A    between atoms: C3_3  and  C4_4 
REMARK    3  A    between atoms: C4_4  and  O2_6 
REMARK    4  A    between atoms: O2_6  and  C5_7 
REMARK    5  A    between atoms: C5_7  and  C6_8 
REMARK    6  A    between atoms: C6_8  and  C7_9 
REMARK    7  A    between atoms: C7_9  and  C8_10 
REMARK    8  A    between atoms: C8_10  and  C9_11 
REMARK    9  A    between atoms: C9_11  and  C10_12 
REMARK   10  A    between atoms: C10_12  and  C11_13 
REMARK   11  A    between atoms: C11_13  and  C12_14 
REMARK   12  A    between atoms: C12_14  and  C13_15 
REMARK   13  A    between atoms: C13_15  and  O4_17 
REMARK   14  A    between atoms: C14_18  and  C15_19 
REMARK   15  A    between atoms: C21_27  and  O7_28 
REMARK   16  A    between atoms: C22_30  and  C23_31 
REMARK   17  A    between atoms: C23_31  and  C25_33 
REMARK   18  A    between atoms: C25_33  and  O9_35 
ROOT
HETATM    1  C15 UNL     1      -3.174  50.338 -26.924  1.00  0.00     0.190 C 
HETATM    2  O5  UNL     1      -2.008  50.711 -27.698  1.00  0.00    -0.380 OA
HETATM    3  C16 UNL     1      -0.846  50.942 -26.906  1.00  0.00     0.175 C 
HETATM    4  C17 UNL     1      -1.050  52.175 -26.031  1.00  0.00     0.046 C 
HETATM    5  C18 UNL     1      -0.311  52.115 -24.694  1.00  0.00     0.044 C 
HETATM    6  C19 UNL     1      -1.423  52.178 -23.645  1.00  0.00     0.152 C 
HETATM    7  O6  UNL     1      -2.402  53.005 -24.326  1.00  0.00    -0.372 OA
HETATM    8  C20 UNL     1      -2.508  52.371 -25.622  1.00  0.00     0.193 C 
HETATM    9  C21 UNL     1      -3.202  50.989 -25.501  1.00  0.00     0.216 C 
HETATM   10  O8  UNL     1      -2.497  50.152 -24.562  1.00  0.00    -0.342 OA
HETATM   11  C22 UNL     1      -2.159  50.848 -23.335  1.00  0.00     0.160 C 
ENDROOT
BRANCH   1  12
HETATM   12  C14 UNL     1      -3.282  48.799 -26.878  1.00  0.00     0.071 C 
BRANCH  12  13
HETATM   13  C2  UNL     1      -4.658  48.281 -27.274  1.00  0.00    -0.075 C 
HETATM   14  C1  UNL     1      -5.607  48.043 -26.130  1.00  0.00     0.043 C 
HETATM   15  C3  UNL     1      -4.935  48.032 -28.571  1.00  0.00     0.084 C 
BRANCH  15  16
HETATM   16  C4  UNL     1      -6.200  47.556 -29.172  1.00  0.00     0.283 C 
HETATM   17  O1  UNL     1      -6.629  46.430 -28.967  1.00  0.00    -0.260 OA
BRANCH  16  18
HETATM   18  O2  UNL     1      -6.744  48.485 -29.991  1.00  0.00    -0.318 OA
BRANCH  18  19
HETATM   19  C5  UNL     1      -6.720  48.176 -31.392  1.00  0.00     0.179 C 
BRANCH  19  20
HETATM   20  C6  UNL     1      -8.115  48.346 -31.985  1.00  0.00     0.027 C 
BRANCH  20  21
HETATM   21  C7  UNL     1      -8.743  47.000 -32.347  1.00  0.00     0.002 C 
BRANCH  21  22
HETATM   22  C8  UNL     1      -9.659  46.503 -31.226  1.00  0.00     0.000 C 
BRANCH  22  23
HETATM   23  C9  UNL     1     -10.401  47.629 -30.496  1.00  0.00     0.000 C 
BRANCH  23  24
HETATM   24  C10 UNL     1     -11.887  47.335 -30.282  1.00  0.00     0.001 C 
BRANCH  24  25
HETATM   25  C11 UNL     1     -12.376  47.596 -28.852  1.00  0.00     0.010 C 
BRANCH  25  26
HETATM   26  C12 UNL     1     -11.361  47.264 -27.759  1.00  0.00     0.110 C 
BRANCH  26  27
HETATM   27  C13 UNL     1     -11.577  48.001 -26.466  1.00  0.00     0.139 C 
HETATM   28  O3  UNL     1     -12.157  47.566 -25.484  1.00  0.00    -0.650 OA
BRANCH  27  29
HETATM   29  O4  UNL     1     -11.010  49.220 -26.441  1.00  0.00    -0.776 OA
HETATM   30  H21 UNL     1     -11.213  49.557 -25.543  1.00  0.00     0.167 HD
ENDBRANCH  27  29
ENDBRANCH  26  27
ENDBRANCH  25  26
ENDBRANCH  24  25
ENDBRANCH  23  24
ENDBRANCH  22  23
ENDBRANCH  21  22
ENDBRANCH  20  21
ENDBRANCH  19  20
ENDBRANCH  18  19
ENDBRANCH  16  18
ENDBRANCH  15  16
ENDBRANCH  12  13
ENDBRANCH   1  12
BRANCH   9  31
HETATM   31  O7  UNL     1      -4.543  51.129 -25.047  1.00  0.00    -0.361 OA
HETATM   32  H32 UNL     1      -4.913  50.233 -25.018  1.00  0.00     0.213 HD
ENDBRANCH   9  31
BRANCH  11  33
HETATM   33  C23 UNL     1      -1.469  49.832 -22.388  1.00  0.00     0.041 C 
HETATM   34  C24 UNL     1      -0.587  50.486 -21.316  1.00  0.00     0.015 C 
BRANCH  33  35
HETATM   35  C25 UNL     1      -2.413  48.796 -21.741  1.00  0.00     0.120 C 
HETATM   36  C26 UNL     1      -1.890  47.366 -21.795  1.00  0.00     0.040 C 
BRANCH  35  37
HETATM   37  O9  UNL     1      -3.697  48.848 -22.355  1.00  0.00    -0.396 OA
HETATM   38  H42 UNL     1      -4.277  48.229 -21.876  1.00  0.00     0.210 HD
ENDBRANCH  35  37
ENDBRANCH  33  35
ENDBRANCH  11  33
TORSDOF 18
ENDMDL
MODEL 8
REMARK minimizedAffinity -7.34554529
REMARK  18 active torsions:
REMARK  status: ('A' for Active; 'I' for Inactive)
REMARK    1  A    between atoms: C2_2  and  C14_18 
REMARK    2  A    between atoms: C3_3  and  C4_4 
REMARK    3  A    between atoms: C4_4  and  O2_6 
REMARK    4  A    between atoms: O2_6  and  C5_7 
REMARK    5  A    between atoms: C5_7  and  C6_8 
REMARK    6  A    between atoms: C6_8  and  C7_9 
REMARK    7  A    between atoms: C7_9  and  C8_10 
REMARK    8  A    between atoms: C8_10  and  C9_11 
REMARK    9  A    between atoms: C9_11  and  C10_12 
REMARK   10  A    between atoms: C10_12  and  C11_13 
REMARK   11  A    between atoms: C11_13  and  C12_14 
REMARK   12  A    between atoms: C12_14  and  C13_15 
REMARK   13  A    between atoms: C13_15  and  O4_17 
REMARK   14  A    between atoms: C14_18  and  C15_19 
REMARK   15  A    between atoms: C21_27  and  O7_28 
REMARK   16  A    between atoms: C22_30  and  C23_31 
REMARK   17  A    between atoms: C23_31  and  C25_33 
REMARK   18  A    between atoms: C25_33  and  O9_35 
ROOT
HETATM    1  C15 UNL     1      -2.308  50.652 -25.961  1.00  0.00     0.190 C 
HETATM    2  O5  UNL     1      -1.309  50.256 -26.931  1.00  0.00    -0.380 OA
HETATM    3  C16 UNL     1       0.028  50.528 -26.517  1.00  0.00     0.175 C 
HETATM    4  C17 UNL     1       0.249  52.035 -26.435  1.00  0.00     0.046 C 
HETATM    5  C18 UNL     1       1.258  52.455 -25.365  1.00  0.00     0.044 C 
HETATM    6  C19 UNL     1       0.449  53.332 -24.408  1.00  0.00     0.152 C 
HETATM    7  O6  UNL     1      -0.503  53.937 -25.322  1.00  0.00    -0.372 OA
HETATM    8  C20 UNL     1      -1.017  52.795 -26.048  1.00  0.00     0.193 C 
HETATM    9  C21 UNL     1      -1.892  51.907 -25.125  1.00  0.00     0.216 C 
HETATM   10  O8  UNL     1      -1.143  51.498 -23.962  1.00  0.00    -0.342 OA
HETATM   11  C22 UNL     1      -0.413  52.593 -23.351  1.00  0.00     0.160 C 
ENDROOT
BRANCH   1  12
HETATM   12  C14 UNL     1      -2.668  49.439 -25.076  1.00  0.00     0.071 C 
BRANCH  12  13
HETATM   13  C2  UNL     1      -3.952  48.742 -25.505  1.00  0.00    -0.075 C 
HETATM   14  C1  UNL     1      -4.002  48.325 -26.951  1.00  0.00     0.043 C 
HETATM   15  C3  UNL     1      -4.956  48.575 -24.618  1.00  0.00     0.084 C 
BRANCH  15  16
HETATM   16  C4  UNL     1      -6.262  47.910 -24.815  1.00  0.00     0.283 C 
HETATM   17  O1  UNL     1      -6.854  47.364 -23.895  1.00  0.00    -0.260 OA
BRANCH  16  18
HETATM   18  O2  UNL     1      -6.647  47.940 -26.111  1.00  0.00    -0.318 OA
BRANCH  18  19
HETATM   19  C5  UNL     1      -7.543  46.897 -26.523  1.00  0.00     0.179 C 
BRANCH  19  20
HETATM   20  C6  UNL     1      -8.786  47.506 -27.165  1.00  0.00     0.027 C 
BRANCH  20  21
HETATM   21  C7  UNL     1      -8.437  48.317 -28.413  1.00  0.00     0.002 C 
BRANCH  21  22
HETATM   22  C8  UNL     1      -7.616  47.481 -29.399  1.00  0.00     0.000 C 
BRANCH  22  23
HETATM   23  C9  UNL     1      -6.305  48.152 -29.826  1.00  0.00     0.000 C 
BRANCH  23  24
HETATM   24  C10 UNL     1      -5.868  47.777 -31.243  1.00  0.00     0.001 C 
BRANCH  24  25
HETATM   25  C11 UNL     1      -4.886  46.600 -31.303  1.00  0.00     0.010 C 
BRANCH  25  26
HETATM   26  C12 UNL     1      -4.493  46.167 -32.715  1.00  0.00     0.110 C 
BRANCH  26  27
HETATM   27  C13 UNL     1      -4.047  47.292 -33.607  1.00  0.00     0.139 C 
HETATM   28  O3  UNL     1      -2.954  47.835 -33.582  1.00  0.00    -0.650 OA
BRANCH  27  29
HETATM   29  O4  UNL     1      -4.964  47.645 -34.526  1.00  0.00    -0.776 OA
HETATM   30  H21 UNL     1      -4.526  48.357 -35.037  1.00  0.00     0.167 HD
ENDBRANCH  27  29
ENDBRANCH  26  27
ENDBRANCH  25  26
ENDBRANCH  24  25
ENDBRANCH  23  24
ENDBRANCH  22  23
ENDBRANCH  21  22
ENDBRANCH  20  21
ENDBRANCH  19  20
ENDBRANCH  18  19
ENDBRANCH  16  18
ENDBRANCH  15  16
ENDBRANCH  12  13
ENDBRANCH   1  12
BRANCH   9  31
HETATM   31  O7  UNL     1      -3.045  52.612 -24.682  1.00  0.00    -0.361 OA
HETATM   32  H32 UNL     1      -3.548  51.990 -24.132  1.00  0.00     0.213 HD
ENDBRANCH   9  31
BRANCH  11  33
HETATM   33  C23 UNL     1       0.292  52.046 -22.084  1.00  0.00     0.041 C 
HETATM   34  C24 UNL     1       1.171  53.080 -21.368  1.00  0.00     0.015 C 
BRANCH  33  35
HETATM   35  C25 UNL     1      -0.637  51.346 -21.069  1.00  0.00     0.120 C 
HETATM   36  C26 UNL     1      -0.641  51.990 -19.689  1.00  0.00     0.040 C 
BRANCH  35  37
HETATM   37  O9  UNL     1      -0.284  49.971 -20.943  1.00  0.00    -0.396 OA
HETATM   38  H42 UNL     1      -0.933  49.554 -20.348  1.00  0.00     0.210 HD
ENDBRANCH  35  37
ENDBRANCH  33  35
ENDBRANCH  11  33
TORSDOF 18
ENDMDL
MODEL 9
REMARK minimizedAffinity -7.29425573
REMARK  18 active torsions:
REMARK  status: ('A' for Active; 'I' for Inactive)
REMARK    1  A    between atoms: C2_2  and  C14_18 
REMARK    2  A    between atoms: C3_3  and  C4_4 
REMARK    3  A    between atoms: C4_4  and  O2_6 
REMARK    4  A    between atoms: O2_6  and  C5_7 
REMARK    5  A    between atoms: C5_7  and  C6_8 
REMARK    6  A    between atoms: C6_8  and  C7_9 
REMARK    7  A    between atoms: C7_9  and  C8_10 
REMARK    8  A    between atoms: C8_10  and  C9_11 
REMARK    9  A    between atoms: C9_11  and  C10_12 
REMARK   10  A    between atoms: C10_12  and  C11_13 
REMARK   11  A    between atoms: C11_13  and  C12_14 
REMARK   12  A    between atoms: C12_14  and  C13_15 
REMARK   13  A    between atoms: C13_15  and  O4_17 
REMARK   14  A    between atoms: C14_18  and  C15_19 
REMARK   15  A    between atoms: C21_27  and  O7_28 
REMARK   16  A    between atoms: C22_30  and  C23_31 
REMARK   17  A    between atoms: C23_31  and  C25_33 
REMARK   18  A    between atoms: C25_33  and  O9_35 
ROOT
HETATM    1  C15 UNL     1      -5.230  48.464 -23.808  1.00  0.00     0.190 C 
HETATM    2  O5  UNL     1      -5.833  49.764 -24.010  1.00  0.00    -0.380 OA
HETATM    3  C16 UNL     1      -5.614  50.669 -22.930  1.00  0.00     0.175 C 
HETATM    4  C17 UNL     1      -6.339  50.175 -21.682  1.00  0.00     0.046 C 
HETATM    5  C18 UNL     1      -5.644  50.549 -20.373  1.00  0.00     0.044 C 
HETATM    6  C19 UNL     1      -5.305  49.203 -19.728  1.00  0.00     0.152 C 
HETATM    7  O6  UNL     1      -6.410  48.385 -20.195  1.00  0.00    -0.372 OA
HETATM    8  C20 UNL     1      -6.426  48.652 -21.617  1.00  0.00     0.193 C 
HETATM    9  C21 UNL     1      -5.181  48.033 -22.305  1.00  0.00     0.216 C 
HETATM   10  O8  UNL     1      -3.971  48.522 -21.691  1.00  0.00    -0.342 OA
HETATM   11  C22 UNL     1      -4.025  48.492 -20.242  1.00  0.00     0.160 C 
ENDROOT
BRANCH   1  12
HETATM   12  C14 UNL     1      -3.841  48.438 -24.481  1.00  0.00     0.071 C 
BRANCH  12  13
HETATM   13  C2  UNL     1      -3.838  49.047 -25.877  1.00  0.00    -0.075 C 
HETATM   14  C1  UNL     1      -4.646  48.299 -26.904  1.00  0.00     0.043 C 
HETATM   15  C3  UNL     1      -3.108  50.155 -26.126  1.00  0.00     0.084 C 
BRANCH  15  16
HETATM   16  C4  UNL     1      -2.986  50.917 -27.388  1.00  0.00     0.283 C 
HETATM   17  O1  UNL     1      -3.086  50.378 -28.480  1.00  0.00    -0.260 OA
BRANCH  16  18
HETATM   18  O2  UNL     1      -2.695  52.217 -27.159  1.00  0.00    -0.318 OA
BRANCH  18  19
HETATM   19  C5  UNL     1      -1.434  52.676 -27.668  1.00  0.00     0.179 C 
BRANCH  19  20
HETATM   20  C6  UNL     1      -0.354  51.634 -27.394  1.00  0.00     0.027 C 
BRANCH  20  21
HETATM   21  C7  UNL     1       0.749  52.187 -26.491  1.00  0.00     0.002 C 
BRANCH  21  22
HETATM   22  C8  UNL     1       0.230  53.347 -25.638  1.00  0.00     0.000 C 
BRANCH  22  23
HETATM   23  C9  UNL     1       0.656  53.265 -24.168  1.00  0.00     0.000 C 
BRANCH  23  24
HETATM   24  C10 UNL     1      -0.030  52.132 -23.401  1.00  0.00     0.001 C 
BRANCH  24  25
HETATM   25  C11 UNL     1       0.498  51.934 -21.975  1.00  0.00     0.010 C 
BRANCH  25  26
HETATM   26  C12 UNL     1       0.106  53.034 -20.990  1.00  0.00     0.110 C 
BRANCH  26  27
HETATM   27  C13 UNL     1       1.262  53.841 -20.468  1.00  0.00     0.139 C 
HETATM   28  O3  UNL     1       1.970  54.586 -21.127  1.00  0.00    -0.650 OA
BRANCH  27  29
HETATM   29  O4  UNL     1       1.442  53.727 -19.140  1.00  0.00    -0.776 OA
HETATM   30  H21 UNL     1       2.200  54.319 -18.951  1.00  0.00     0.167 HD
ENDBRANCH  27  29
ENDBRANCH  26  27
ENDBRANCH  25  26
ENDBRANCH  24  25
ENDBRANCH  23  24
ENDBRANCH  22  23
ENDBRANCH  21  22
ENDBRANCH  20  21
ENDBRANCH  19  20
ENDBRANCH  18  19
ENDBRANCH  16  18
ENDBRANCH  15  16
ENDBRANCH  12  13
ENDBRANCH   1  12
BRANCH   9  31
HETATM   31  O7  UNL     1      -5.190  46.615 -22.195  1.00  0.00    -0.361 OA
HETATM   32  H32 UNL     1      -4.399  46.302 -22.664  1.00  0.00     0.213 HD
ENDBRANCH   9  31
BRANCH  11  33
HETATM   33  C23 UNL     1      -2.653  48.975 -19.705  1.00  0.00     0.041 C 
HETATM   34  C24 UNL     1      -1.480  48.068 -20.098  1.00  0.00     0.015 C 
BRANCH  33  35
HETATM   35  C25 UNL     1      -2.313  50.448 -20.012  1.00  0.00     0.120 C 
HETATM   36  C26 UNL     1      -2.897  51.438 -19.013  1.00  0.00     0.040 C 
BRANCH  35  37
HETATM   37  O9  UNL     1      -2.752  50.793 -21.323  1.00  0.00    -0.396 OA
HETATM   38  H42 UNL     1      -2.461  51.706 -21.500  1.00  0.00     0.210 HD
ENDBRANCH  35  37
ENDBRANCH  33  35
ENDBRANCH  11  33
TORSDOF 18
ENDMDL
