MODEL 1
REMARK minimizedAffinity -8.57715797
REMARK CNNscore 0.472146243
REMARK CNNaffinity 6.78401756
REMARK  1 active torsions:
REMARK  status: ('A' for Active; 'I' for Inactive)
REMARK    1  A    between atoms: C22_26  and  O5_27 
ROOT
HETATM    1  C1  UNL     1       2.494  58.148  -5.585  1.00  0.00     0.014 C 
HETATM    2  C2  UNL     1       2.574  57.625  -6.821  1.00  0.00    -0.085 C 
HETATM    3  C3  UNL     1       3.799  57.887  -7.674  1.00  0.00     0.035 C 
HETATM    4  C4  UNL     1       4.463  56.573  -8.086  1.00  0.00     0.025 C 
HETATM    5  C5  UNL     1       3.464  55.616  -8.742  1.00  0.00     0.055 C 
HETATM    6  C6  UNL     1       3.103  56.028 -10.187  1.00  0.00     0.021 C 
HETATM    7  C7  UNL     1       2.239  54.984 -10.927  1.00  0.00     0.014 C 
HETATM    8  C8  UNL     1       1.087  54.396 -10.048  1.00  0.00    -0.001 C 
HETATM    9  C9  UNL     1      -0.039  55.477 -10.090  1.00  0.00     0.019 C 
HETATM   10  C10 UNL     1       1.621  54.179  -8.563  1.00  0.00     0.112 C 
HETATM   11  O1  UNL     1       2.855  53.378  -8.671  1.00  0.00    -0.305 OA
HETATM   12  C11 UNL     1       3.951  54.193  -8.787  1.00  0.00     0.269 C 
HETATM   13  O2  UNL     1       5.093  53.804  -8.946  1.00  0.00    -0.264 OA
HETATM   14  C12 UNL     1       2.230  55.397  -7.844  1.00  0.00     0.050 C 
HETATM   15  C13 UNL     1       1.520  56.719  -7.483  1.00  0.00     0.018 C 
HETATM   16  C14 UNL     1       0.266  56.512  -6.632  1.00  0.00     0.015 C 
HETATM   17  C15 UNL     1       0.717  53.342  -7.699  1.00  0.00     0.187 A 
HETATM   18  O3  UNL     1      -0.667  53.664  -7.614  1.00  0.00    -0.372 OA
HETATM   19  C16 UNL     1      -0.348  52.457  -8.326  1.00  0.00     0.160 A 
HETATM   20  C17 UNL     1      -0.712  52.541  -9.797  1.00  0.00     0.035 C 
HETATM   21  C18 UNL     1      -1.565  51.329 -10.329  1.00  0.00    -0.023 C 
HETATM   22  C19 UNL     1      -0.841  49.962 -10.194  1.00  0.00     0.016 C 
HETATM   23  C20 UNL     1      -2.886  51.247  -9.510  1.00  0.00     0.096 C 
HETATM   24  C21 UNL     1      -3.897  50.299 -10.116  1.00  0.00     0.183 C 
HETATM   25  O4  UNL     1      -4.795  49.776  -9.454  1.00  0.00    -0.290 OA
HETATM   26  C22 UNL     1      -3.840  50.004 -11.580  1.00  0.00     0.114 C 
HETATM   27  C23 UNL     1      -2.945  50.614 -12.378  1.00  0.00    -0.042 C 
HETATM   28  C24 UNL     1      -2.934  50.364 -13.864  1.00  0.00     0.047 C 
HETATM   29  C25 UNL     1      -1.966  51.641 -11.813  1.00  0.00     0.026 C 
HETATM   30  C26 UNL     1      -0.725  51.926 -12.685  1.00  0.00     0.011 C 
HETATM   31  C27 UNL     1       0.106  53.099 -12.145  1.00  0.00     0.011 C 
HETATM   32  C28 UNL     1       0.536  52.968 -10.653  1.00  0.00    -0.027 C 
HETATM   33  C29 UNL     1       1.636  51.865 -10.614  1.00  0.00     0.016 C 
ENDROOT
BRANCH  26  34
HETATM   34  O5  UNL     1      -4.768  49.101 -12.062  1.00  0.00    -0.357 OA
HETATM   35  H27 UNL     1      -5.307  48.852 -11.280  1.00  0.00     0.218 HD
ENDBRANCH  26  34
TORSDOF 1
ENDMDL
MODEL 2
REMARK minimizedAffinity -6.58581543
REMARK CNNscore 0.462527633
REMARK CNNaffinity 6.00150299
REMARK  1 active torsions:
REMARK  status: ('A' for Active; 'I' for Inactive)
REMARK    1  A    between atoms: C22_26  and  O5_27 
ROOT
HETATM    1  C1  UNL     1     -19.182  44.375 -19.854  1.00  0.00     0.014 C 
HETATM    2  C2  UNL     1     -19.031  44.048 -21.149  1.00  0.00    -0.085 C 
HETATM    3  C3  UNL     1     -20.251  43.753 -22.000  1.00  0.00     0.035 C 
HETATM    4  C4  UNL     1     -20.307  44.688 -23.208  1.00  0.00     0.025 C 
HETATM    5  C5  UNL     1     -18.998  44.667 -24.000  1.00  0.00     0.055 C 
HETATM    6  C6  UNL     1     -18.834  43.384 -24.847  1.00  0.00     0.021 C 
HETATM    7  C7  UNL     1     -17.610  43.421 -25.788  1.00  0.00     0.014 C 
HETATM    8  C8  UNL     1     -16.322  43.994 -25.112  1.00  0.00    -0.001 C 
HETATM    9  C9  UNL     1     -15.747  42.805 -24.279  1.00  0.00     0.019 C 
HETATM   10  C10 UNL     1     -16.725  45.214 -24.171  1.00  0.00     0.112 C 
HETATM   11  O1  UNL     1     -17.514  46.144 -25.001  1.00  0.00    -0.305 OA
HETATM   12  C11 UNL     1     -18.849  45.842 -24.928  1.00  0.00     0.269 C 
HETATM   13  O2  UNL     1     -19.726  46.410 -25.553  1.00  0.00    -0.264 OA
HETATM   14  C12 UNL     1     -17.788  44.953 -23.088  1.00  0.00     0.050 C 
HETATM   15  C13 UNL     1     -17.693  43.967 -21.905  1.00  0.00     0.018 C 
HETATM   16  C14 UNL     1     -16.470  44.210 -21.019  1.00  0.00     0.015 C 
HETATM   17  C15 UNL     1     -15.558  46.042 -23.703  1.00  0.00     0.187 A 
HETATM   18  O3  UNL     1     -14.434  45.399 -23.113  1.00  0.00    -0.372 OA
HETATM   19  C16 UNL     1     -14.220  45.964 -24.417  1.00  0.00     0.160 A 
HETATM   20  C17 UNL     1     -13.916  44.904 -25.461  1.00  0.00     0.035 C 
HETATM   21  C18 UNL     1     -12.634  45.191 -26.329  1.00  0.00    -0.023 C 
HETATM   22  C19 UNL     1     -12.726  46.512 -27.142  1.00  0.00     0.016 C 
HETATM   23  C20 UNL     1     -11.403  45.302 -25.385  1.00  0.00     0.096 C 
HETATM   24  C21 UNL     1     -10.087  45.300 -26.130  1.00  0.00     0.183 C 
HETATM   25  O4  UNL     1      -9.055  45.780 -25.656  1.00  0.00    -0.290 OA
HETATM   26  C22 UNL     1     -10.009  44.662 -27.479  1.00  0.00     0.114 C 
HETATM   27  C23 UNL     1     -11.073  44.036 -28.015  1.00  0.00    -0.042 C 
HETATM   28  C24 UNL     1     -10.972  43.337 -29.346  1.00  0.00     0.047 C 
HETATM   29  C25 UNL     1     -12.393  43.946 -27.251  1.00  0.00     0.026 C 
HETATM   30  C26 UNL     1     -13.635  43.628 -28.110  1.00  0.00     0.011 C 
HETATM   31  C27 UNL     1     -14.882  43.367 -27.250  1.00  0.00     0.011 C 
HETATM   32  C28 UNL     1     -15.225  44.495 -26.232  1.00  0.00    -0.027 C 
HETATM   33  C29 UNL     1     -15.768  45.689 -27.073  1.00  0.00     0.016 C 
ENDROOT
BRANCH  26  34
HETATM   34  O5  UNL     1      -8.787  44.728 -28.121  1.00  0.00    -0.357 OA
HETATM   35  H27 UNL     1      -8.197  45.198 -27.493  1.00  0.00     0.218 HD
ENDBRANCH  26  34
TORSDOF 1
ENDMDL
MODEL 3
REMARK minimizedAffinity -8.2855072
REMARK CNNscore 0.372547746
REMARK CNNaffinity 6.55540228
REMARK  1 active torsions:
REMARK  status: ('A' for Active; 'I' for Inactive)
REMARK    1  A    between atoms: C22_26  and  O5_27 
ROOT
HETATM    1  C1  UNL     1       5.936  58.215  -5.401  1.00  0.00     0.014 C 
HETATM    2  C2  UNL     1       5.956  57.283  -6.370  1.00  0.00    -0.085 C 
HETATM    3  C3  UNL     1       7.236  56.525  -6.661  1.00  0.00     0.035 C 
HETATM    4  C4  UNL     1       7.020  55.019  -6.508  1.00  0.00     0.025 C 
HETATM    5  C5  UNL     1       5.828  54.532  -7.335  1.00  0.00     0.055 C 
HETATM    6  C6  UNL     1       6.141  54.457  -8.847  1.00  0.00     0.021 C 
HETATM    7  C7  UNL     1       5.016  53.801  -9.676  1.00  0.00     0.014 C 
HETATM    8  C8  UNL     1       3.584  54.283  -9.272  1.00  0.00    -0.001 C 
HETATM    9  C9  UNL     1       3.414  55.664  -9.981  1.00  0.00     0.019 C 
HETATM   10  C10 UNL     1       3.513  54.436  -7.688  1.00  0.00     0.112 C 
HETATM   11  O1  UNL     1       3.972  53.155  -7.119  1.00  0.00    -0.305 OA
HETATM   12  C11 UNL     1       5.327  53.178  -6.910  1.00  0.00     0.269 C 
HETATM   13  O2  UNL     1       5.983  52.239  -6.500  1.00  0.00    -0.264 OA
HETATM   14  C12 UNL     1       4.558  55.346  -7.016  1.00  0.00     0.050 C 
HETATM   15  C13 UNL     1       4.756  56.861  -7.235  1.00  0.00     0.018 C 
HETATM   16  C14 UNL     1       3.489  57.675  -6.969  1.00  0.00     0.015 C 
HETATM   17  C15 UNL     1       2.117  54.596  -7.148  1.00  0.00     0.187 A 
HETATM   18  O3  UNL     1       1.254  55.578  -7.713  1.00  0.00    -0.372 OA
HETATM   19  C16 UNL     1       0.913  54.209  -7.990  1.00  0.00     0.160 A 
HETATM   20  C17 UNL     1       1.028  53.874  -9.466  1.00  0.00     0.035 C 
HETATM   21  C18 UNL     1      -0.240  53.167 -10.076  1.00  0.00    -0.023 C 
HETATM   22  C19 UNL     1      -0.569  51.808  -9.401  1.00  0.00     0.016 C 
HETATM   23  C20 UNL     1      -1.473  54.098  -9.888  1.00  0.00     0.096 C 
HETATM   24  C21 UNL     1      -2.679  53.644 -10.678  1.00  0.00     0.183 C 
HETATM   25  O4  UNL     1      -3.831  53.961 -10.372  1.00  0.00    -0.290 OA
HETATM   26  C22 UNL     1      -2.484  52.808 -11.901  1.00  0.00     0.114 C 
HETATM   27  C23 UNL     1      -1.250  52.505 -12.346  1.00  0.00    -0.042 C 
HETATM   28  C24 UNL     1      -1.056  51.718 -13.616  1.00  0.00     0.047 C 
HETATM   29  C25 UNL     1      -0.009  53.020 -11.620  1.00  0.00     0.026 C 
HETATM   30  C26 UNL     1       1.301  52.263 -11.926  1.00  0.00     0.011 C 
HETATM   31  C27 UNL     1       2.527  52.955 -11.311  1.00  0.00     0.011 C 
HETATM   32  C28 UNL     1       2.427  53.229  -9.781  1.00  0.00    -0.027 C 
HETATM   33  C29 UNL     1       2.566  51.843  -9.081  1.00  0.00     0.016 C 
ENDROOT
BRANCH  26  34
HETATM   34  O5  UNL     1      -3.629  52.396 -12.554  1.00  0.00    -0.357 OA
HETATM   35  H27 UNL     1      -4.368  52.788 -12.040  1.00  0.00     0.218 HD
ENDBRANCH  26  34
TORSDOF 1
ENDMDL
MODEL 4
REMARK minimizedAffinity -11.0490017
REMARK CNNscore 0.360147834
REMARK CNNaffinity 6.70183134
REMARK  1 active torsions:
REMARK  status: ('A' for Active; 'I' for Inactive)
REMARK    1  A    between atoms: C22_26  and  O5_27 
ROOT
HETATM    1  C1  UNL     1       1.188  52.148 -16.342  1.00  0.00     0.014 C 
HETATM    2  C2  UNL     1       0.554  51.153 -16.986  1.00  0.00    -0.085 C 
HETATM    3  C3  UNL     1       0.022  49.967 -16.206  1.00  0.00     0.035 C 
HETATM    4  C4  UNL     1      -1.483  49.809 -16.421  1.00  0.00     0.025 C 
HETATM    5  C5  UNL     1      -1.839  49.762 -17.909  1.00  0.00     0.055 C 
HETATM    6  C6  UNL     1      -1.480  48.409 -18.566  1.00  0.00     0.021 C 
HETATM    7  C7  UNL     1      -1.990  48.276 -20.017  1.00  0.00     0.014 C 
HETATM    8  C8  UNL     1      -1.767  49.563 -20.876  1.00  0.00    -0.001 C 
HETATM    9  C9  UNL     1      -0.270  49.498 -21.311  1.00  0.00     0.019 C 
HETATM   10  C10 UNL     1      -2.050  50.846 -19.976  1.00  0.00     0.112 C 
HETATM   11  O1  UNL     1      -3.388  50.662 -19.384  1.00  0.00    -0.305 OA
HETATM   12  C11 UNL     1      -3.298  50.019 -18.176  1.00  0.00     0.269 C 
HETATM   13  O2  UNL     1      -4.247  49.688 -17.492  1.00  0.00    -0.264 OA
HETATM   14  C12 UNL     1      -1.260  50.977 -18.660  1.00  0.00     0.050 C 
HETATM   15  C13 UNL     1       0.270  51.099 -18.497  1.00  0.00     0.018 C 
HETATM   16  C14 UNL     1       0.863  52.273 -19.277  1.00  0.00     0.015 C 
HETATM   17  C15 UNL     1      -2.169  52.130 -20.753  1.00  0.00     0.187 A 
HETATM   18  O3  UNL     1      -1.156  52.478 -21.691  1.00  0.00    -0.372 OA
HETATM   19  C16 UNL     1      -2.426  52.105 -22.251  1.00  0.00     0.160 A 
HETATM   20  C17 UNL     1      -2.343  50.829 -23.068  1.00  0.00     0.035 C 
HETATM   21  C18 UNL     1      -2.975  50.933 -24.507  1.00  0.00    -0.023 C 
HETATM   22  C19 UNL     1      -4.490  51.276 -24.488  1.00  0.00     0.016 C 
HETATM   23  C20 UNL     1      -2.246  52.058 -25.296  1.00  0.00     0.096 C 
HETATM   24  C21 UNL     1      -2.582  52.056 -26.770  1.00  0.00     0.183 C 
HETATM   25  O4  UNL     1      -2.465  53.059 -27.478  1.00  0.00    -0.290 OA
HETATM   26  C22 UNL     1      -3.039  50.790 -27.417  1.00  0.00     0.114 C 
HETATM   27  C23 UNL     1      -3.098  49.637 -26.725  1.00  0.00    -0.042 C 
HETATM   28  C24 UNL     1      -3.497  48.349 -27.396  1.00  0.00     0.047 C 
HETATM   29  C25 UNL     1      -2.684  49.586 -25.255  1.00  0.00     0.026 C 
HETATM   30  C26 UNL     1      -3.208  48.372 -24.460  1.00  0.00     0.011 C 
HETATM   31  C27 UNL     1      -2.596  48.293 -23.053  1.00  0.00     0.011 C 
HETATM   32  C28 UNL     1      -2.750  49.585 -22.196  1.00  0.00    -0.027 C 
HETATM   33  C29 UNL     1      -4.253  49.660 -21.792  1.00  0.00     0.016 C 
ENDROOT
BRANCH  26  34
HETATM   34  O5  UNL     1      -3.366  50.866 -28.757  1.00  0.00    -0.357 OA
HETATM   35  H27 UNL     1      -3.195  51.801 -29.006  1.00  0.00     0.218 HD
ENDBRANCH  26  34
TORSDOF 1
ENDMDL
MODEL 5
REMARK minimizedAffinity -8.02186203
REMARK CNNscore 0.313627154
REMARK CNNaffinity 5.78586721
REMARK  1 active torsions:
REMARK  status: ('A' for Active; 'I' for Inactive)
REMARK    1  A    between atoms: C22_26  and  O5_27 
ROOT
HETATM    1  C1  UNL     1      -4.599  48.086 -28.161  1.00  0.00     0.014 C 
HETATM    2  C2  UNL     1      -5.775  48.063 -28.811  1.00  0.00    -0.085 C 
HETATM    3  C3  UNL     1      -5.831  48.415 -30.284  1.00  0.00     0.035 C 
HETATM    4  C4  UNL     1      -6.423  47.262 -31.095  1.00  0.00     0.025 C 
HETATM    5  C5  UNL     1      -7.771  46.809 -30.531  1.00  0.00     0.055 C 
HETATM    6  C6  UNL     1      -8.918  47.792 -30.863  1.00  0.00     0.021 C 
HETATM    7  C7  UNL     1     -10.313  47.268 -30.459  1.00  0.00     0.014 C 
HETATM    8  C8  UNL     1     -10.341  46.596 -29.047  1.00  0.00    -0.001 C 
HETATM    9  C9  UNL     1     -10.408  47.788 -28.041  1.00  0.00     0.019 C 
HETATM   10  C10 UNL     1      -9.008  45.747 -28.847  1.00  0.00     0.112 C 
HETATM   11  O1  UNL     1      -8.900  44.849 -30.011  1.00  0.00    -0.305 OA
HETATM   12  C11 UNL     1      -8.189  45.448 -31.019  1.00  0.00     0.269 C 
HETATM   13  O2  UNL     1      -7.991  44.960 -32.116  1.00  0.00    -0.264 OA
HETATM   14  C12 UNL     1      -7.666  46.481 -29.029  1.00  0.00     0.050 C 
HETATM   15  C13 UNL     1      -7.131  47.668 -28.200  1.00  0.00     0.018 C 
HETATM   16  C14 UNL     1      -7.068  47.372 -26.701  1.00  0.00     0.015 C 
HETATM   17  C15 UNL     1      -9.045  44.813 -27.667  1.00  0.00     0.187 A 
HETATM   18  O3  UNL     1      -9.433  45.309 -26.391  1.00  0.00    -0.372 OA
HETATM   19  C16 UNL     1     -10.369  44.425 -27.030  1.00  0.00     0.160 A 
HETATM   20  C17 UNL     1     -11.673  45.120 -27.378  1.00  0.00     0.035 C 
HETATM   21  C18 UNL     1     -12.966  44.363 -26.894  1.00  0.00    -0.023 C 
HETATM   22  C19 UNL     1     -13.114  42.944 -27.508  1.00  0.00     0.016 C 
HETATM   23  C20 UNL     1     -12.904  44.203 -25.347  1.00  0.00     0.096 C 
HETATM   24  C21 UNL     1     -14.215  43.742 -24.750  1.00  0.00     0.183 C 
HETATM   25  O4  UNL     1     -14.282  43.168 -23.661  1.00  0.00    -0.290 OA
HETATM   26  C22 UNL     1     -15.490  44.016 -25.478  1.00  0.00     0.114 C 
HETATM   27  C23 UNL     1     -15.498  44.721 -26.625  1.00  0.00    -0.042 C 
HETATM   28  C24 UNL     1     -16.792  45.053 -27.321  1.00  0.00     0.047 C 
HETATM   29  C25 UNL     1     -14.201  45.276 -27.211  1.00  0.00     0.026 C 
HETATM   30  C26 UNL     1     -14.257  45.653 -28.706  1.00  0.00     0.011 C 
HETATM   31  C27 UNL     1     -12.982  46.375 -29.169  1.00  0.00     0.011 C 
HETATM   32  C28 UNL     1     -11.653  45.619 -28.870  1.00  0.00    -0.027 C 
HETATM   33  C29 UNL     1     -11.609  44.414 -29.856  1.00  0.00     0.016 C 
ENDROOT
BRANCH  26  34
HETATM   34  O5  UNL     1     -16.647  43.535 -24.896  1.00  0.00    -0.357 OA
HETATM   35  H27 UNL     1     -16.351  43.104 -24.065  1.00  0.00     0.218 HD
ENDBRANCH  26  34
TORSDOF 1
ENDMDL
MODEL 6
REMARK minimizedAffinity -6.8883934
REMARK CNNscore 0.277911693
REMARK CNNaffinity 6.0996356
REMARK  1 active torsions:
REMARK  status: ('A' for Active; 'I' for Inactive)
REMARK    1  A    between atoms: C22_26  and  O5_27 
ROOT
HETATM    1  C1  UNL     1       4.436  55.594 -11.267  1.00  0.00     0.014 C 
HETATM    2  C2  UNL     1       4.602  55.266  -9.974  1.00  0.00    -0.085 C 
HETATM    3  C3  UNL     1       5.933  54.720  -9.498  1.00  0.00     0.035 C 
HETATM    4  C4  UNL     1       6.509  55.593  -8.383  1.00  0.00     0.025 C 
HETATM    5  C5  UNL     1       5.502  55.802  -7.250  1.00  0.00     0.055 C 
HETATM    6  C6  UNL     1       5.343  54.551  -6.355  1.00  0.00     0.021 C 
HETATM    7  C7  UNL     1       4.470  54.797  -5.106  1.00  0.00     0.014 C 
HETATM    8  C8  UNL     1       3.177  55.624  -5.403  1.00  0.00    -0.001 C 
HETATM    9  C9  UNL     1       2.172  54.591  -6.003  1.00  0.00     0.019 C 
HETATM   10  C10 UNL     1       3.521  56.770  -6.455  1.00  0.00     0.112 C 
HETATM   11  O1  UNL     1       4.676  57.509  -5.912  1.00  0.00    -0.305 OA
HETATM   12  C11 UNL     1       5.852  56.958  -6.353  1.00  0.00     0.269 C 
HETATM   13  O2  UNL     1       6.962  57.330  -6.021  1.00  0.00    -0.264 OA
HETATM   14  C12 UNL     1       4.161  56.339  -7.788  1.00  0.00     0.050 C 
HETATM   15  C13 UNL     1       3.545  55.422  -8.866  1.00  0.00     0.018 C 
HETATM   16  C14 UNL     1       2.190  55.919  -9.373  1.00  0.00     0.015 C 
HETATM   17  C15 UNL     1       2.450  57.818  -6.595  1.00  0.00     0.187 A 
HETATM   18  O3  UNL     1       1.102  57.419  -6.821  1.00  0.00    -0.372 OA
HETATM   19  C16 UNL     1       1.381  57.979  -5.527  1.00  0.00     0.160 A 
HETATM   20  C17 UNL     1       1.191  56.969  -4.409  1.00  0.00     0.035 C 
HETATM   21  C18 UNL     1       0.290  57.473  -3.220  1.00  0.00    -0.023 C 
HETATM   22  C19 UNL     1       0.860  58.728  -2.506  1.00  0.00     0.016 C 
HETATM   23  C20 UNL     1      -1.115  57.843  -3.778  1.00  0.00     0.096 C 
HETATM   24  C21 UNL     1      -2.139  58.073  -2.689  1.00  0.00     0.183 C 
HETATM   25  O4  UNL     1      -3.151  58.754  -2.863  1.00  0.00    -0.290 OA
HETATM   26  C22 UNL     1      -1.950  57.425  -1.356  1.00  0.00     0.114 C 
HETATM   27  C23 UNL     1      -0.917  56.592  -1.127  1.00  0.00    -0.042 C 
HETATM   28  C24 UNL     1      -0.766  55.890   0.197  1.00  0.00     0.047 C 
HETATM   29  C25 UNL     1       0.088  56.272  -2.232  1.00  0.00     0.026 C 
HETATM   30  C26 UNL     1       1.439  55.699  -1.754  1.00  0.00     0.011 C 
HETATM   31  C27 UNL     1       2.314  55.227  -2.926  1.00  0.00     0.011 C 
HETATM   32  C28 UNL     1       2.562  56.295  -4.032  1.00  0.00    -0.027 C 
HETATM   33  C29 UNL     1       3.540  57.340  -3.416  1.00  0.00     0.016 C 
ENDROOT
BRANCH  26  34
HETATM   34  O5  UNL     1      -2.901  57.707  -0.394  1.00  0.00    -0.357 OA
HETATM   35  H27 UNL     1      -3.544  58.298  -0.841  1.00  0.00     0.218 HD
ENDBRANCH  26  34
TORSDOF 1
ENDMDL
MODEL 7
REMARK minimizedAffinity -7.29889822
REMARK CNNscore 0.265766203
REMARK CNNaffinity 6.25981665
REMARK  1 active torsions:
REMARK  status: ('A' for Active; 'I' for Inactive)
REMARK    1  A    between atoms: C22_26  and  O5_27 
ROOT
HETATM    1  C1  UNL     1       2.181  57.908  -5.989  1.00  0.00     0.014 C 
HETATM    2  C2  UNL     1       2.721  57.357  -7.090  1.00  0.00    -0.085 C 
HETATM    3  C3  UNL     1       4.135  57.718  -7.500  1.00  0.00     0.035 C 
HETATM    4  C4  UNL     1       5.011  56.468  -7.579  1.00  0.00     0.025 C 
HETATM    5  C5  UNL     1       4.381  55.392  -8.467  1.00  0.00     0.055 C 
HETATM    6  C6  UNL     1       4.497  55.718  -9.974  1.00  0.00     0.021 C 
HETATM    7  C7  UNL     1       4.029  54.566 -10.890  1.00  0.00     0.014 C 
HETATM    8  C8  UNL     1       2.703  53.890 -10.410  1.00  0.00    -0.001 C 
HETATM    9  C9  UNL     1       1.569  54.846 -10.897  1.00  0.00     0.019 C 
HETATM   10  C10 UNL     1       2.719  53.777  -8.822  1.00  0.00     0.112 C 
HETATM   11  O1  UNL     1       3.981  53.105  -8.458  1.00  0.00    -0.305 OA
HETATM   12  C11 UNL     1       4.977  54.026  -8.254  1.00  0.00     0.269 C 
HETATM   13  O2  UNL     1       6.134  53.753  -7.996  1.00  0.00    -0.264 OA
HETATM   14  C12 UNL     1       2.940  55.075  -8.022  1.00  0.00     0.050 C 
HETATM   15  C13 UNL     1       2.037  56.326  -8.005  1.00  0.00     0.018 C 
HETATM   16  C14 UNL     1       0.591  56.017  -7.611  1.00  0.00     0.015 C 
HETATM   17  C15 UNL     1       1.652  52.878  -8.257  1.00  0.00     0.187 A 
HETATM   18  O3  UNL     1       0.298  53.058  -8.661  1.00  0.00    -0.372 OA
HETATM   19  C16 UNL     1       0.944  51.868  -9.144  1.00  0.00     0.160 A 
HETATM   20  C17 UNL     1       1.094  51.867 -10.655  1.00  0.00     0.035 C 
HETATM   21  C18 UNL     1       0.581  50.556 -11.361  1.00  0.00    -0.023 C 
HETATM   22  C19 UNL     1       1.333  49.277 -10.903  1.00  0.00     0.016 C 
HETATM   23  C20 UNL     1      -0.927  50.364 -11.027  1.00  0.00     0.096 C 
HETATM   24  C21 UNL     1      -1.585  49.297 -11.873  1.00  0.00     0.183 C 
HETATM   25  O4  UNL     1      -2.606  48.704 -11.517  1.00  0.00    -0.290 OA
HETATM   26  C22 UNL     1      -1.010  48.963 -13.211  1.00  0.00     0.114 C 
HETATM   27  C23 UNL     1       0.046  49.637 -13.703  1.00  0.00    -0.042 C 
HETATM   28  C24 UNL     1       0.582  49.342 -15.079  1.00  0.00     0.047 C 
HETATM   29  C25 UNL     1       0.682  50.778 -12.911  1.00  0.00     0.026 C 
HETATM   30  C26 UNL     1       2.115  51.161 -13.335  1.00  0.00     0.011 C 
HETATM   31  C27 UNL     1       2.609  52.432 -12.625  1.00  0.00     0.011 C 
HETATM   32  C28 UNL     1       2.517  52.394 -11.071  1.00  0.00    -0.027 C 
HETATM   33  C29 UNL     1       3.630  51.413 -10.594  1.00  0.00     0.016 C 
ENDROOT
BRANCH  26  34
HETATM   34  O5  UNL     1      -1.638  47.953 -13.916  1.00  0.00    -0.357 OA
HETATM   35  H27 UNL     1      -2.386  47.674 -13.344  1.00  0.00     0.218 HD
ENDBRANCH  26  34
TORSDOF 1
ENDMDL
MODEL 8
REMARK minimizedAffinity -7.69087791
REMARK CNNscore 0.241806641
REMARK CNNaffinity 5.63569641
REMARK  1 active torsions:
REMARK  status: ('A' for Active; 'I' for Inactive)
REMARK    1  A    between atoms: C22_26  and  O5_27 
ROOT
HETATM    1  C1  UNL     1      -4.645  48.093 -26.446  1.00  0.00     0.014 C 
HETATM    2  C2  UNL     1      -5.840  47.943 -27.043  1.00  0.00    -0.085 C 
HETATM    3  C3  UNL     1      -5.913  47.686 -28.535  1.00  0.00     0.035 C 
HETATM    4  C4  UNL     1      -6.650  46.378 -28.823  1.00  0.00     0.025 C 
HETATM    5  C5  UNL     1      -8.017  46.337 -28.136  1.00  0.00     0.055 C 
HETATM    6  C6  UNL     1      -9.067  47.227 -28.841  1.00  0.00     0.021 C 
HETATM    7  C7  UNL     1     -10.493  47.062 -28.273  1.00  0.00     0.014 C 
HETATM    8  C8  UNL     1     -10.538  47.014 -26.711  1.00  0.00    -0.001 C 
HETATM    9  C9  UNL     1     -10.445  48.506 -26.263  1.00  0.00     0.019 C 
HETATM   10  C10 UNL     1      -9.295  46.174 -26.178  1.00  0.00     0.112 C 
HETATM   11  O1  UNL     1      -9.323  44.881 -26.887  1.00  0.00    -0.305 OA
HETATM   12  C11 UNL     1      -8.591  44.949 -28.045  1.00  0.00     0.269 C 
HETATM   13  O2  UNL     1      -8.485  44.047 -28.854  1.00  0.00    -0.264 OA
HETATM   14  C12 UNL     1      -7.892  46.623 -26.627  1.00  0.00     0.050 C 
HETATM   15  C13 UNL     1      -7.207  47.975 -26.336  1.00  0.00     0.018 C 
HETATM   16  C14 UNL     1      -7.119  48.293 -24.842  1.00  0.00     0.015 C 
HETATM   17  C15 UNL     1      -9.386  45.794 -24.724  1.00  0.00     0.187 A 
HETATM   18  O3  UNL     1      -9.673  46.796 -23.754  1.00  0.00    -0.372 OA
HETATM   19  C16 UNL     1     -10.718  45.839 -23.996  1.00  0.00     0.160 A 
HETATM   20  C17 UNL     1     -11.955  46.477 -24.602  1.00  0.00     0.035 C 
HETATM   21  C18 UNL     1     -13.301  46.121 -23.866  1.00  0.00    -0.023 C 
HETATM   22  C19 UNL     1     -13.617  44.601 -23.866  1.00  0.00     0.016 C 
HETATM   23  C20 UNL     1     -13.199  46.583 -22.384  1.00  0.00     0.096 C 
HETATM   24  C21 UNL     1     -14.528  46.543 -21.663  1.00  0.00     0.183 C 
HETATM   25  O4  UNL     1     -14.614  46.460 -20.435  1.00  0.00    -0.290 OA
HETATM   26  C22 UNL     1     -15.794  46.644 -22.450  1.00  0.00     0.114 C 
HETATM   27  C23 UNL     1     -15.771  46.832 -23.782  1.00  0.00    -0.042 C 
HETATM   28  C24 UNL     1     -17.048  46.999 -24.564  1.00  0.00     0.047 C 
HETATM   29  C25 UNL     1     -14.446  46.963 -24.531  1.00  0.00     0.026 C 
HETATM   30  C26 UNL     1     -14.516  46.719 -26.053  1.00  0.00     0.011 C 
HETATM   31  C27 UNL     1     -13.191  47.054 -26.755  1.00  0.00     0.011 C 
HETATM   32  C28 UNL     1     -11.938  46.338 -26.169  1.00  0.00    -0.027 C 
HETATM   33  C29 UNL     1     -12.055  44.843 -26.593  1.00  0.00     0.016 C 
ENDROOT
BRANCH  26  34
HETATM   34  O5  UNL     1     -16.972  46.563 -21.733  1.00  0.00    -0.357 OA
HETATM   35  H27 UNL     1     -16.692  46.467 -20.797  1.00  0.00     0.218 HD
ENDBRANCH  26  34
TORSDOF 1
ENDMDL
MODEL 9
REMARK minimizedAffinity -6.69967461
REMARK CNNscore 0.210234329
REMARK CNNaffinity 5.30421638
REMARK  1 active torsions:
REMARK  status: ('A' for Active; 'I' for Inactive)
REMARK    1  A    between atoms: C22_26  and  O5_27 
ROOT
HETATM    1  C1  UNL     1     -13.430  45.177 -28.904  1.00  0.00     0.014 C 
HETATM    2  C2  UNL     1     -13.638  45.093 -27.579  1.00  0.00    -0.085 C 
HETATM    3  C3  UNL     1     -12.754  45.871 -26.625  1.00  0.00     0.035 C 
HETATM    4  C4  UNL     1     -13.590  46.808 -25.753  1.00  0.00     0.025 C 
HETATM    5  C5  UNL     1     -14.727  46.061 -25.051  1.00  0.00     0.055 C 
HETATM    6  C6  UNL     1     -14.233  45.201 -23.864  1.00  0.00     0.021 C 
HETATM    7  C7  UNL     1     -15.378  44.583 -23.034  1.00  0.00     0.014 C 
HETATM    8  C8  UNL     1     -16.531  43.990 -23.910  1.00  0.00    -0.001 C 
HETATM    9  C9  UNL     1     -16.003  42.595 -24.370  1.00  0.00     0.019 C 
HETATM   10  C10 UNL     1     -16.787  44.949 -25.155  1.00  0.00     0.112 C 
HETATM   11  O1  UNL     1     -16.993  46.304 -24.609  1.00  0.00    -0.305 OA
HETATM   12  C11 UNL     1     -15.801  46.977 -24.527  1.00  0.00     0.269 C 
HETATM   13  O2  UNL     1     -15.663  48.093 -24.064  1.00  0.00    -0.264 OA
HETATM   14  C12 UNL     1     -15.584  45.272 -26.060  1.00  0.00     0.050 C 
HETATM   15  C13 UNL     1     -14.749  44.278 -26.894  1.00  0.00     0.018 C 
HETATM   16  C14 UNL     1     -15.595  43.453 -27.866  1.00  0.00     0.015 C 
HETATM   17  C15 UNL     1     -18.061  44.659 -25.902  1.00  0.00     0.187 A 
HETATM   18  O3  UNL     1     -18.342  43.328 -26.322  1.00  0.00    -0.372 OA
HETATM   19  C16 UNL     1     -19.165  43.837 -25.259  1.00  0.00     0.160 A 
HETATM   20  C17 UNL     1     -18.962  43.080 -23.959  1.00  0.00     0.035 C 
HETATM   21  C18 UNL     1     -20.292  42.586 -23.276  1.00  0.00    -0.023 C 
HETATM   22  C19 UNL     1     -21.254  43.745 -22.896  1.00  0.00     0.016 C 
HETATM   23  C20 UNL     1     -21.047  41.651 -24.265  1.00  0.00     0.096 C 
HETATM   24  C21 UNL     1     -22.189  40.904 -23.613  1.00  0.00     0.183 C 
HETATM   25  O4  UNL     1     -23.141  40.457 -24.256  1.00  0.00    -0.290 OA
HETATM   26  C22 UNL     1     -22.159  40.658 -22.140  1.00  0.00     0.114 C 
HETATM   27  C23 UNL     1     -21.105  41.035 -21.393  1.00  0.00    -0.042 C 
HETATM   28  C24 UNL     1     -21.049  40.726 -19.919  1.00  0.00     0.047 C 
HETATM   29  C25 UNL     1     -19.896  41.715 -22.034  1.00  0.00     0.026 C 
HETATM   30  C26 UNL     1     -18.982  42.494 -21.064  1.00  0.00     0.011 C 
HETATM   31  C27 UNL     1     -17.697  42.984 -21.748  1.00  0.00     0.011 C 
HETATM   32  C28 UNL     1     -17.920  43.821 -23.043  1.00  0.00    -0.027 C 
HETATM   33  C29 UNL     1     -18.477  45.201 -22.577  1.00  0.00     0.016 C 
ENDROOT
BRANCH  26  34
HETATM   34  O5  UNL     1     -23.251  40.004 -21.603  1.00  0.00    -0.357 OA
HETATM   35  H27 UNL     1     -23.836  39.819 -22.370  1.00  0.00     0.218 HD
ENDBRANCH  26  34
TORSDOF 1
ENDMDL
