MODEL 1
REMARK minimizedAffinity -9.03930855
REMARK CNNscore 0.624540627
REMARK CNNaffinity 6.69209337
REMARK  8 active torsions:
REMARK  status: ('A' for Active; 'I' for Inactive)
REMARK    1  A    between atoms: C3_3  and  O1_4 
REMARK    2  A    between atoms: N1_14  and  O2_16 
REMARK    3  A    between atoms: O2_16  and  C13_17 
REMARK    4  A    between atoms: C13_17  and  C14_18 
REMARK       I    between atoms: C14_18  and  N2_20 
REMARK    5  A    between atoms: N2_20  and  C15_21 
REMARK    6  A    between atoms: C15_21  and  C16_22 
REMARK    7  A    between atoms: C16_22  and  O4_23 
REMARK    8  A    between atoms: C16_22  and  C17_24 
ROOT
HETATM    1  C1  UNL     1     -15.118  44.177 -25.845  1.00  0.00     0.015 C 
HETATM    2  C2  UNL     1     -14.181  43.933 -26.557  1.00  0.00    -0.078 C 
HETATM    3  C3  UNL     1     -13.030  43.621 -27.417  1.00  0.00     0.128 C 
HETATM    4  C4  UNL     1     -13.311  42.440 -28.353  1.00  0.00     0.052 C 
HETATM    5  C5  UNL     1     -12.150  42.513 -29.334  1.00  0.00     0.010 C 
HETATM    6  C6  UNL     1     -12.001  44.010 -29.629  1.00  0.00     0.002 C 
HETATM    7  C7  UNL     1     -10.620  44.482 -30.136  1.00  0.00    -0.004 C 
HETATM    8  C8  UNL     1      -9.382  43.920 -29.416  1.00  0.00     0.010 C 
HETATM    9  C9  UNL     1      -8.087  44.415 -30.062  1.00  0.00     0.035 C 
HETATM   10  C10 UNL     1      -8.026  45.913 -30.272  1.00  0.00    -0.069 C 
HETATM   11  C11 UNL     1      -6.885  46.574 -30.002  1.00  0.00     0.030 C 
HETATM   12  C12 UNL     1      -6.696  48.007 -30.371  1.00  0.00     0.032 C 
HETATM   13  N1  UNL     1      -5.611  48.701 -30.192  1.00  0.00    -0.271 N 
ATOM     14  H1  UNL     1      -5.503  49.671 -30.487  1.00  0.00     0.194 HD
HETATM   15  C23 UNL     1      -7.828  48.701 -31.105  1.00  0.00     0.060 C 
HETATM   16  C24 UNL     1      -9.183  48.127 -30.713  1.00  0.00     0.020 C 
HETATM   17  C25 UNL     1      -9.267  46.579 -30.866  1.00  0.00    -0.016 C 
HETATM   18  C26 UNL     1      -9.317  46.254 -32.386  1.00  0.00     0.020 C 
HETATM   19  C27 UNL     1     -10.574  46.032 -30.169  1.00  0.00     0.002 C 
HETATM   20  C28 UNL     1     -10.820  46.625 -28.757  1.00  0.00     0.007 C 
HETATM   21  C29 UNL     1     -11.578  45.736 -27.767  1.00  0.00     0.014 C 
HETATM   22  C30 UNL     1     -12.595  44.771 -28.397  1.00  0.00     0.003 C 
HETATM   23  C31 UNL     1     -13.814  45.598 -28.895  1.00  0.00     0.020 C 
ENDROOT
BRANCH   3  24
HETATM   24  O1  UNL     1     -11.941  43.236 -26.573  1.00  0.00    -0.377 OA
HETATM   25  H2  UNL     1     -12.291  42.592 -25.932  1.00  0.00     0.211 HD
ENDBRANCH   3  24
BRANCH  13  26
HETATM   26  O2  UNL     1      -4.604  47.965 -29.546  1.00  0.00    -0.271 OA
BRANCH  26  27
HETATM   27  C13 UNL     1      -4.765  48.126 -28.139  1.00  0.00     0.303 C 
BRANCH  27  28
HETATM   28  C14 UNL     1      -3.966  49.322 -27.639  1.00  0.00     0.243 C 
HETATM   29  O3  UNL     1      -3.415  50.108 -28.409  1.00  0.00    -0.271 OA
HETATM   30  N2  UNL     1      -3.993  49.485 -26.267  1.00  0.00    -0.356 N 
HETATM   31  H16 UNL     1      -4.278  48.680 -25.721  1.00  0.00     0.162 HD
BRANCH  30  32
HETATM   32  C15 UNL     1      -3.275  50.571 -25.614  1.00  0.00     0.159 C 
BRANCH  32  33
HETATM   33  C16 UNL     1      -2.851  51.706 -26.575  1.00  0.00     0.170 C 
BRANCH  33  34
HETATM   34  O4  UNL     1      -3.282  52.982 -26.087  1.00  0.00    -0.389 OA
HETATM   35  H20 UNL     1      -2.660  53.654 -26.416  1.00  0.00     0.210 HD
ENDBRANCH  33  34
BRANCH  33  36
HETATM   36  C17 UNL     1      -1.356  51.692 -26.788  1.00  0.00    -0.013 A 
HETATM   37  C18 UNL     1      -0.757  52.387 -27.845  1.00  0.00     0.013 A 
HETATM   38  C19 UNL     1       0.631  52.381 -27.982  1.00  0.00     0.025 A 
HETATM   39  C20 UNL     1       1.393  51.684 -27.051  1.00  0.00     0.005 A 
HETATM   40  C21 UNL     1       2.885  51.643 -27.180  1.00  0.00     0.068 C 
HETATM   41  N3  UNL     1       0.839  51.004 -26.017  1.00  0.00    -0.369 N 
HETATM   42  C22 UNL     1      -0.510  51.025 -25.907  1.00  0.00     0.097 A 
ATOM     43  H3  UNL     1       1.418  50.497 -25.347  1.00  0.00     0.165 HD
ENDBRANCH  33  36
ENDBRANCH  32  33
ENDBRANCH  30  32
ENDBRANCH  27  28
ENDBRANCH  26  27
ENDBRANCH  13  26
TORSDOF 8
ENDMDL
MODEL 2
REMARK minimizedAffinity -9.51953697
REMARK CNNscore 0.344102144
REMARK CNNaffinity 7.11447954
REMARK  8 active torsions:
REMARK  status: ('A' for Active; 'I' for Inactive)
REMARK    1  A    between atoms: C3_3  and  O1_4 
REMARK    2  A    between atoms: N1_14  and  O2_16 
REMARK    3  A    between atoms: O2_16  and  C13_17 
REMARK    4  A    between atoms: C13_17  and  C14_18 
REMARK       I    between atoms: C14_18  and  N2_20 
REMARK    5  A    between atoms: N2_20  and  C15_21 
REMARK    6  A    between atoms: C15_21  and  C16_22 
REMARK    7  A    between atoms: C16_22  and  O4_23 
REMARK    8  A    between atoms: C16_22  and  C17_24 
ROOT
HETATM    1  C1  UNL     1      -9.872  48.451 -19.442  1.00  0.00     0.015 C 
HETATM    2  C2  UNL     1      -8.779  48.137 -19.831  1.00  0.00    -0.078 C 
HETATM    3  C3  UNL     1      -7.437  47.749 -20.291  1.00  0.00     0.128 C 
HETATM    4  C4  UNL     1      -7.316  46.237 -20.510  1.00  0.00     0.052 C 
HETATM    5  C5  UNL     1      -6.002  46.117 -21.269  1.00  0.00     0.010 C 
HETATM    6  C6  UNL     1      -6.043  47.275 -22.274  1.00  0.00     0.002 C 
HETATM    7  C7  UNL     1      -4.683  47.773 -22.811  1.00  0.00    -0.004 C 
HETATM    8  C8  UNL     1      -3.550  47.952 -21.787  1.00  0.00     0.010 C 
HETATM    9  C9  UNL     1      -2.248  48.382 -22.464  1.00  0.00     0.035 C 
HETATM   10  C10 UNL     1      -2.391  49.559 -23.406  1.00  0.00    -0.069 C 
HETATM   11  C11 UNL     1      -1.457  50.528 -23.403  1.00  0.00     0.030 C 
HETATM   12  C12 UNL     1      -1.433  51.605 -24.433  1.00  0.00     0.032 C 
HETATM   13  N1  UNL     1      -0.540  52.545 -24.530  1.00  0.00    -0.271 N 
ATOM     14  H1  UNL     1      -0.534  53.248 -25.269  1.00  0.00     0.194 HD
HETATM   15  C23 UNL     1      -2.483  51.557 -25.527  1.00  0.00     0.060 C 
HETATM   16  C24 UNL     1      -3.777  50.924 -25.033  1.00  0.00     0.020 C 
HETATM   17  C25 UNL     1      -3.571  49.527 -24.377  1.00  0.00    -0.016 C 
HETATM   18  C26 UNL     1      -3.245  48.513 -25.510  1.00  0.00     0.020 C 
HETATM   19  C27 UNL     1      -4.887  49.074 -23.631  1.00  0.00     0.002 C 
HETATM   20  C28 UNL     1      -5.519  50.188 -22.756  1.00  0.00     0.007 C 
HETATM   21  C29 UNL     1      -6.312  49.725 -21.530  1.00  0.00     0.014 C 
HETATM   22  C30 UNL     1      -7.001  48.357 -21.673  1.00  0.00     0.003 C 
HETATM   23  C31 UNL     1      -8.206  48.513 -22.642  1.00  0.00     0.020 C 
ENDROOT
BRANCH   3  24
HETATM   24  O1  UNL     1      -6.503  48.099 -19.266  1.00  0.00    -0.377 OA
HETATM   25  H2  UNL     1      -6.869  47.777 -18.423  1.00  0.00     0.211 HD
ENDBRANCH   3  24
BRANCH  13  26
HETATM   26  O2  UNL     1       0.415  52.485 -23.502  1.00  0.00    -0.271 OA
BRANCH  26  27
HETATM   27  C13 UNL     1       0.710  53.816 -23.087  1.00  0.00     0.303 C 
BRANCH  27  28
HETATM   28  C14 UNL     1       1.185  53.836 -21.641  1.00  0.00     0.243 C 
HETATM   29  O3  UNL     1       2.176  54.473 -21.287  1.00  0.00    -0.271 OA
HETATM   30  N2  UNL     1       0.360  53.153 -20.766  1.00  0.00    -0.356 N 
HETATM   31  H16 UNL     1      -0.288  52.492 -21.179  1.00  0.00     0.162 HD
BRANCH  30  32
HETATM   32  C15 UNL     1       0.667  53.059 -19.346  1.00  0.00     0.159 C 
BRANCH  32  33
HETATM   33  C16 UNL     1      -0.077  51.913 -18.621  1.00  0.00     0.170 C 
BRANCH  33  34
HETATM   34  O4  UNL     1      -0.117  50.731 -19.431  1.00  0.00    -0.389 OA
HETATM   35  H20 UNL     1      -0.159  49.962 -18.836  1.00  0.00     0.210 HD
ENDBRANCH  33  34
BRANCH  33  36
HETATM   36  C17 UNL     1       0.565  51.624 -17.285  1.00  0.00    -0.013 A 
HETATM   37  C18 UNL     1       0.365  50.408 -16.620  1.00  0.00     0.013 A 
HETATM   38  C19 UNL     1       1.008  50.166 -15.408  1.00  0.00     0.025 A 
HETATM   39  C20 UNL     1       1.849  51.144 -14.888  1.00  0.00     0.005 A 
HETATM   40  C21 UNL     1       2.541  50.922 -13.578  1.00  0.00     0.068 C 
HETATM   41  N3  UNL     1       2.062  52.328 -15.511  1.00  0.00    -0.369 N 
HETATM   42  C22 UNL     1       1.424  52.539 -16.687  1.00  0.00     0.097 A 
ATOM     43  H3  UNL     1       2.681  53.034 -15.110  1.00  0.00     0.165 HD
ENDBRANCH  33  36
ENDBRANCH  32  33
ENDBRANCH  30  32
ENDBRANCH  27  28
ENDBRANCH  26  27
ENDBRANCH  13  26
TORSDOF 8
ENDMDL
MODEL 3
REMARK minimizedAffinity -9.18509674
REMARK CNNscore 0.316243052
REMARK CNNaffinity 6.52584267
REMARK  8 active torsions:
REMARK  status: ('A' for Active; 'I' for Inactive)
REMARK    1  A    between atoms: C3_3  and  O1_4 
REMARK    2  A    between atoms: N1_14  and  O2_16 
REMARK    3  A    between atoms: O2_16  and  C13_17 
REMARK    4  A    between atoms: C13_17  and  C14_18 
REMARK       I    between atoms: C14_18  and  N2_20 
REMARK    5  A    between atoms: N2_20  and  C15_21 
REMARK    6  A    between atoms: C15_21  and  C16_22 
REMARK    7  A    between atoms: C16_22  and  O4_23 
REMARK    8  A    between atoms: C16_22  and  C17_24 
ROOT
HETATM    1  C1  UNL     1       1.088  52.274 -27.547  1.00  0.00     0.015 C 
HETATM    2  C2  UNL     1       0.097  52.309 -26.868  1.00  0.00    -0.078 C 
HETATM    3  C3  UNL     1      -1.116  52.368 -26.039  1.00  0.00     0.128 C 
HETATM    4  C4  UNL     1      -2.389  52.483 -26.885  1.00  0.00     0.052 C 
HETATM    5  C5  UNL     1      -3.487  52.205 -25.869  1.00  0.00     0.010 C 
HETATM    6  C6  UNL     1      -2.941  51.040 -25.034  1.00  0.00     0.002 C 
HETATM    7  C7  UNL     1      -3.529  50.869 -23.617  1.00  0.00    -0.004 C 
HETATM    8  C8  UNL     1      -3.695  52.141 -22.770  1.00  0.00     0.010 C 
HETATM    9  C9  UNL     1      -4.349  51.834 -21.422  1.00  0.00     0.035 C 
HETATM   10  C10 UNL     1      -3.708  50.693 -20.661  1.00  0.00    -0.069 C 
HETATM   11  C11 UNL     1      -3.517  50.805 -19.334  1.00  0.00     0.030 C 
HETATM   12  C12 UNL     1      -3.076  49.651 -18.499  1.00  0.00     0.032 C 
HETATM   13  N1  UNL     1      -2.918  49.664 -17.209  1.00  0.00    -0.271 N 
ATOM     14  H1  UNL     1      -2.647  48.845 -16.662  1.00  0.00     0.194 HD
HETATM   15  C23 UNL     1      -2.882  48.314 -19.190  1.00  0.00     0.060 C 
HETATM   16  C24 UNL     1      -2.448  48.492 -20.639  1.00  0.00     0.020 C 
HETATM   17  C25 UNL     1      -3.386  49.428 -21.456  1.00  0.00    -0.016 C 
HETATM   18  C26 UNL     1      -4.715  48.661 -21.714  1.00  0.00     0.020 C 
HETATM   19  C27 UNL     1      -2.719  49.799 -22.838  1.00  0.00     0.002 C 
HETATM   20  C28 UNL     1      -1.228  50.211 -22.717  1.00  0.00     0.007 C 
HETATM   21  C29 UNL     1      -0.705  51.194 -23.768  1.00  0.00     0.014 C 
HETATM   22  C30 UNL     1      -1.381  51.102 -25.147  1.00  0.00     0.003 C 
HETATM   23  C31 UNL     1      -0.904  49.795 -25.841  1.00  0.00     0.020 C 
ENDROOT
BRANCH   3  24
HETATM   24  O1  UNL     1      -1.041  53.549 -25.234  1.00  0.00    -0.377 OA
HETATM   25  H2  UNL     1      -0.786  54.281 -25.824  1.00  0.00     0.211 HD
ENDBRANCH   3  24
BRANCH  13  26
HETATM   26  O2  UNL     1      -3.160  50.929 -16.650  1.00  0.00    -0.271 OA
BRANCH  26  27
HETATM   27  C13 UNL     1      -2.264  51.115 -15.557  1.00  0.00     0.303 C 
BRANCH  27  28
HETATM   28  C14 UNL     1      -2.499  50.062 -14.483  1.00  0.00     0.243 C 
HETATM   29  O3  UNL     1      -1.910  48.982 -14.488  1.00  0.00    -0.271 OA
HETATM   30  N2  UNL     1      -3.355  50.465 -13.475  1.00  0.00    -0.356 N 
HETATM   31  H16 UNL     1      -3.946  51.263 -13.676  1.00  0.00     0.162 HD
BRANCH  30  32
HETATM   32  C15 UNL     1      -3.702  49.580 -12.372  1.00  0.00     0.159 C 
BRANCH  32  33
HETATM   33  C16 UNL     1      -4.269  50.317 -11.135  1.00  0.00     0.170 C 
BRANCH  33  34
HETATM   34  O4  UNL     1      -4.184  49.497  -9.963  1.00  0.00    -0.389 OA
HETATM   35  H20 UNL     1      -4.107  50.084  -9.191  1.00  0.00     0.210 HD
ENDBRANCH  33  34
BRANCH  33  36
HETATM   36  C17 UNL     1      -3.552  51.628 -10.923  1.00  0.00    -0.013 A 
HETATM   37  C18 UNL     1      -4.229  52.853 -10.968  1.00  0.00     0.013 A 
HETATM   38  C19 UNL     1      -3.537  54.039 -10.726  1.00  0.00     0.025 A 
HETATM   39  C20 UNL     1      -2.179  53.974 -10.434  1.00  0.00     0.005 A 
HETATM   40  C21 UNL     1      -1.403  55.231 -10.186  1.00  0.00     0.068 C 
HETATM   41  N3  UNL     1      -1.499  52.803 -10.381  1.00  0.00    -0.369 N 
HETATM   42  C22 UNL     1      -2.194  51.666 -10.622  1.00  0.00     0.097 A 
ATOM     43  H3  UNL     1      -0.502  52.779 -10.168  1.00  0.00     0.165 HD
ENDBRANCH  33  36
ENDBRANCH  32  33
ENDBRANCH  30  32
ENDBRANCH  27  28
ENDBRANCH  26  27
ENDBRANCH  13  26
TORSDOF 8
ENDMDL
MODEL 4
REMARK minimizedAffinity -9.68685818
REMARK CNNscore 0.305796742
REMARK CNNaffinity 6.57348442
REMARK  8 active torsions:
REMARK  status: ('A' for Active; 'I' for Inactive)
REMARK    1  A    between atoms: C3_3  and  O1_4 
REMARK    2  A    between atoms: N1_14  and  O2_16 
REMARK    3  A    between atoms: O2_16  and  C13_17 
REMARK    4  A    between atoms: C13_17  and  C14_18 
REMARK       I    between atoms: C14_18  and  N2_20 
REMARK    5  A    between atoms: N2_20  and  C15_21 
REMARK    6  A    between atoms: C15_21  and  C16_22 
REMARK    7  A    between atoms: C16_22  and  O4_23 
REMARK    8  A    between atoms: C16_22  and  C17_24 
ROOT
HETATM    1  C1  UNL     1       0.006  55.589 -26.942  1.00  0.00     0.015 C 
HETATM    2  C2  UNL     1      -0.233  54.411 -26.929  1.00  0.00    -0.078 C 
HETATM    3  C3  UNL     1      -0.523  52.970 -26.930  1.00  0.00     0.128 C 
HETATM    4  C4  UNL     1       0.755  52.123 -26.901  1.00  0.00     0.052 C 
HETATM    5  C5  UNL     1       0.223  50.732 -26.585  1.00  0.00     0.010 C 
HETATM    6  C6  UNL     1      -0.843  50.974 -25.509  1.00  0.00     0.002 C 
HETATM    7  C7  UNL     1      -1.933  49.891 -25.358  1.00  0.00    -0.004 C 
HETATM    8  C8  UNL     1      -2.551  49.336 -26.653  1.00  0.00     0.010 C 
HETATM    9  C9  UNL     1      -3.562  48.227 -26.359  1.00  0.00     0.035 C 
HETATM   10  C10 UNL     1      -4.595  48.583 -25.310  1.00  0.00    -0.069 C 
HETATM   11  C11 UNL     1      -5.881  48.234 -25.501  1.00  0.00     0.030 C 
HETATM   12  C12 UNL     1      -6.906  48.379 -24.428  1.00  0.00     0.032 C 
HETATM   13  N1  UNL     1      -8.152  48.020 -24.515  1.00  0.00    -0.271 N 
ATOM     14  H1  UNL     1      -8.820  48.101 -23.748  1.00  0.00     0.194 HD
HETATM   15  C23 UNL     1      -6.446  48.900 -23.079  1.00  0.00     0.060 C 
HETATM   16  C24 UNL     1      -5.267  49.855 -23.222  1.00  0.00     0.020 C 
HETATM   17  C25 UNL     1      -4.083  49.259 -24.039  1.00  0.00    -0.016 C 
HETATM   18  C26 UNL     1      -3.392  48.181 -23.156  1.00  0.00     0.020 C 
HETATM   19  C27 UNL     1      -3.042  50.391 -24.396  1.00  0.00     0.002 C 
HETATM   20  C28 UNL     1      -3.697  51.691 -24.932  1.00  0.00     0.007 C 
HETATM   21  C29 UNL     1      -2.858  52.527 -25.903  1.00  0.00     0.014 C 
HETATM   22  C30 UNL     1      -1.337  52.448 -25.691  1.00  0.00     0.003 C 
HETATM   23  C31 UNL     1      -0.981  53.230 -24.395  1.00  0.00     0.020 C 
ENDROOT
BRANCH   3  24
HETATM   24  O1  UNL     1      -1.203  52.658 -28.150  1.00  0.00    -0.377 OA
HETATM   25  H2  UNL     1      -0.703  53.082 -28.871  1.00  0.00     0.211 HD
ENDBRANCH   3  24
BRANCH  13  26
HETATM   26  O2  UNL     1      -8.477  47.509 -25.781  1.00  0.00    -0.271 OA
BRANCH  26  27
HETATM   27  C13 UNL     1      -9.552  48.279 -26.313  1.00  0.00     0.303 C 
BRANCH  27  28
HETATM   28  C14 UNL     1     -10.844  47.475 -26.309  1.00  0.00     0.243 C 
HETATM   29  O3  UNL     1     -11.768  47.728 -25.537  1.00  0.00    -0.271 OA
HETATM   30  N2  UNL     1     -10.911  46.510 -27.296  1.00  0.00    -0.356 N 
HETATM   31  H16 UNL     1     -10.033  46.238 -27.723  1.00  0.00     0.162 HD
BRANCH  30  32
HETATM   32  C15 UNL     1     -12.070  45.639 -27.433  1.00  0.00     0.159 C 
BRANCH  32  33
HETATM   33  C16 UNL     1     -13.207  46.243 -28.290  1.00  0.00     0.170 C 
BRANCH  33  34
HETATM   34  O4  UNL     1     -13.049  45.900 -29.673  1.00  0.00    -0.389 OA
HETATM   35  H20 UNL     1     -13.932  45.883 -30.081  1.00  0.00     0.210 HD
ENDBRANCH  33  34
BRANCH  33  36
HETATM   36  C17 UNL     1     -14.555  45.793 -27.780  1.00  0.00    -0.013 A 
HETATM   37  C18 UNL     1     -15.400  44.982 -28.546  1.00  0.00     0.013 A 
HETATM   38  C19 UNL     1     -16.619  44.556 -28.020  1.00  0.00     0.025 A 
HETATM   39  C20 UNL     1     -16.965  44.944 -26.730  1.00  0.00     0.005 A 
HETATM   40  C21 UNL     1     -18.275  44.518 -26.143  1.00  0.00     0.068 C 
HETATM   41  N3  UNL     1     -16.165  45.727 -25.966  1.00  0.00    -0.369 N 
HETATM   42  C22 UNL     1     -14.988  46.128 -26.500  1.00  0.00     0.097 A 
ATOM     43  H3  UNL     1     -16.440  46.003 -25.023  1.00  0.00     0.165 HD
ENDBRANCH  33  36
ENDBRANCH  32  33
ENDBRANCH  30  32
ENDBRANCH  27  28
ENDBRANCH  26  27
ENDBRANCH  13  26
TORSDOF 8
ENDMDL
MODEL 5
REMARK minimizedAffinity -8.99999142
REMARK CNNscore 0.305372
REMARK CNNaffinity 6.96559
REMARK  8 active torsions:
REMARK  status: ('A' for Active; 'I' for Inactive)
REMARK    1  A    between atoms: C3_3  and  O1_4 
REMARK    2  A    between atoms: N1_14  and  O2_16 
REMARK    3  A    between atoms: O2_16  and  C13_17 
REMARK    4  A    between atoms: C13_17  and  C14_18 
REMARK       I    between atoms: C14_18  and  N2_20 
REMARK    5  A    between atoms: N2_20  and  C15_21 
REMARK    6  A    between atoms: C15_21  and  C16_22 
REMARK    7  A    between atoms: C16_22  and  O4_23 
REMARK    8  A    between atoms: C16_22  and  C17_24 
ROOT
HETATM    1  C1  UNL     1      -9.562  48.373 -19.522  1.00  0.00     0.015 C 
HETATM    2  C2  UNL     1      -8.449  48.103 -19.887  1.00  0.00    -0.078 C 
HETATM    3  C3  UNL     1      -7.085  47.764 -20.319  1.00  0.00     0.128 C 
HETATM    4  C4  UNL     1      -7.002  46.355 -20.918  1.00  0.00     0.052 C 
HETATM    5  C5  UNL     1      -5.626  46.353 -21.569  1.00  0.00     0.010 C 
HETATM    6  C6  UNL     1      -5.524  47.732 -22.234  1.00  0.00     0.002 C 
HETATM    7  C7  UNL     1      -4.101  48.265 -22.506  1.00  0.00    -0.004 C 
HETATM    8  C8  UNL     1      -3.066  48.102 -21.380  1.00  0.00     0.010 C 
HETATM    9  C9  UNL     1      -1.689  48.610 -21.809  1.00  0.00     0.035 C 
HETATM   10  C10 UNL     1      -1.694  49.997 -22.417  1.00  0.00    -0.069 C 
HETATM   11  C11 UNL     1      -0.728  50.872 -22.081  1.00  0.00     0.030 C 
HETATM   12  C12 UNL     1      -0.563  52.175 -22.786  1.00  0.00     0.032 C 
HETATM   13  N1  UNL     1       0.371  53.050 -22.557  1.00  0.00    -0.271 N 
ATOM     14  H1  UNL     1       0.476  53.918 -23.082  1.00  0.00     0.194 HD
HETATM   15  C23 UNL     1      -1.503  52.477 -23.938  1.00  0.00     0.060 C 
HETATM   16  C24 UNL     1      -2.862  51.820 -23.737  1.00  0.00     0.020 C 
HETATM   17  C25 UNL     1      -2.775  50.291 -23.457  1.00  0.00    -0.016 C 
HETATM   18  C26 UNL     1      -2.381  49.586 -24.786  1.00  0.00     0.020 C 
HETATM   19  C27 UNL     1      -4.174  49.744 -22.969  1.00  0.00     0.002 C 
HETATM   20  C28 UNL     1      -4.844  50.631 -21.887  1.00  0.00     0.007 C 
HETATM   21  C29 UNL     1      -5.770  49.918 -20.897  1.00  0.00     0.014 C 
HETATM   22  C30 UNL     1      -6.493  48.679 -21.452  1.00  0.00     0.003 C 
HETATM   23  C31 UNL     1      -7.593  49.155 -22.443  1.00  0.00     0.020 C 
ENDROOT
BRANCH   3  24
HETATM   24  O1  UNL     1      -6.241  47.777 -19.164  1.00  0.00    -0.377 OA
HETATM   25  H2  UNL     1      -6.700  47.272 -18.469  1.00  0.00     0.211 HD
ENDBRANCH   3  24
BRANCH  13  26
HETATM   26  O2  UNL     1       1.219  52.666 -21.506  1.00  0.00    -0.271 OA
BRANCH  26  27
HETATM   27  C13 UNL     1       1.215  53.703 -20.527  1.00  0.00     0.303 C 
BRANCH  27  28
HETATM   28  C14 UNL     1       0.817  53.155 -19.164  1.00  0.00     0.243 C 
HETATM   29  O3  UNL     1      -0.323  52.754 -18.929  1.00  0.00    -0.271 OA
HETATM   30  N2  UNL     1       1.860  53.071 -18.262  1.00  0.00    -0.356 N 
HETATM   31  H16 UNL     1       2.686  53.620 -18.472  1.00  0.00     0.162 HD
BRANCH  30  32
HETATM   32  C15 UNL     1       1.658  52.580 -16.906  1.00  0.00     0.159 C 
BRANCH  32  33
HETATM   33  C16 UNL     1       2.966  52.184 -16.183  1.00  0.00     0.170 C 
BRANCH  33  34
HETATM   34  O4  UNL     1       3.688  53.344 -15.750  1.00  0.00    -0.389 OA
HETATM   35  H20 UNL     1       4.206  53.098 -14.963  1.00  0.00     0.210 HD
ENDBRANCH  33  34
BRANCH  33  36
HETATM   36  C17 UNL     1       2.675  51.269 -15.018  1.00  0.00    -0.013 A 
HETATM   37  C18 UNL     1       3.698  50.747 -14.217  1.00  0.00     0.013 A 
HETATM   38  C19 UNL     1       3.383  49.939 -13.126  1.00  0.00     0.025 A 
HETATM   39  C20 UNL     1       2.045  49.676 -12.852  1.00  0.00     0.005 A 
HETATM   40  C21 UNL     1       1.673  48.796 -11.697  1.00  0.00     0.068 C 
HETATM   41  N3  UNL     1       1.034  50.169 -13.608  1.00  0.00    -0.369 N 
HETATM   42  C22 UNL     1       1.368  50.950 -14.663  1.00  0.00     0.097 A 
ATOM     43  H3  UNL     1       0.060  49.960 -13.391  1.00  0.00     0.165 HD
ENDBRANCH  33  36
ENDBRANCH  32  33
ENDBRANCH  30  32
ENDBRANCH  27  28
ENDBRANCH  26  27
ENDBRANCH  13  26
TORSDOF 8
ENDMDL
MODEL 6
REMARK minimizedAffinity -8.79795742
REMARK CNNscore 0.301035643
REMARK CNNaffinity 6.16192484
REMARK  8 active torsions:
REMARK  status: ('A' for Active; 'I' for Inactive)
REMARK    1  A    between atoms: C3_3  and  O1_4 
REMARK    2  A    between atoms: N1_14  and  O2_16 
REMARK    3  A    between atoms: O2_16  and  C13_17 
REMARK    4  A    between atoms: C13_17  and  C14_18 
REMARK       I    between atoms: C14_18  and  N2_20 
REMARK    5  A    between atoms: N2_20  and  C15_21 
REMARK    6  A    between atoms: C15_21  and  C16_22 
REMARK    7  A    between atoms: C16_22  and  O4_23 
REMARK    8  A    between atoms: C16_22  and  C17_24 
ROOT
HETATM    1  C1  UNL     1       0.352  55.617 -25.558  1.00  0.00     0.015 C 
HETATM    2  C2  UNL     1       0.007  54.479 -25.733  1.00  0.00    -0.078 C 
HETATM    3  C3  UNL     1      -0.416  53.090 -25.963  1.00  0.00     0.128 C 
HETATM    4  C4  UNL     1       0.745  52.200 -26.421  1.00  0.00     0.052 C 
HETATM    5  C5  UNL     1       0.164  50.800 -26.282  1.00  0.00     0.010 C 
HETATM    6  C6  UNL     1      -0.602  50.843 -24.954  1.00  0.00     0.002 C 
HETATM    7  C7  UNL     1      -1.731  49.805 -24.773  1.00  0.00    -0.004 C 
HETATM    8  C8  UNL     1      -2.677  49.585 -25.965  1.00  0.00     0.010 C 
HETATM    9  C9  UNL     1      -3.700  48.487 -25.672  1.00  0.00     0.035 C 
HETATM   10  C10 UNL     1      -4.429  48.644 -24.354  1.00  0.00    -0.069 C 
HETATM   11  C11 UNL     1      -5.752  48.408 -24.296  1.00  0.00     0.030 C 
HETATM   12  C12 UNL     1      -6.489  48.354 -23.001  1.00  0.00     0.032 C 
HETATM   13  N1  UNL     1      -7.752  48.082 -22.856  1.00  0.00    -0.271 N 
ATOM     14  H1  UNL     1      -8.218  48.019 -21.951  1.00  0.00     0.194 HD
HETATM   15  C23 UNL     1      -5.687  48.536 -21.726  1.00  0.00     0.060 C 
HETATM   16  C24 UNL     1      -4.483  49.443 -21.948  1.00  0.00     0.020 C 
HETATM   17  C25 UNL     1      -3.579  48.992 -23.133  1.00  0.00    -0.016 C 
HETATM   18  C26 UNL     1      -2.815  47.712 -22.687  1.00  0.00     0.020 C 
HETATM   19  C27 UNL     1      -2.539  50.126 -23.488  1.00  0.00     0.002 C 
HETATM   20  C28 UNL     1      -3.167  51.542 -23.567  1.00  0.00     0.007 C 
HETATM   21  C29 UNL     1      -2.491  52.536 -24.516  1.00  0.00     0.014 C 
HETATM   22  C30 UNL     1      -0.976  52.341 -24.700  1.00  0.00     0.003 C 
HETATM   23  C31 UNL     1      -0.261  52.793 -23.396  1.00  0.00     0.020 C 
ENDROOT
BRANCH   3  24
HETATM   24  O1  UNL     1      -1.381  53.093 -27.020  1.00  0.00    -0.377 OA
HETATM   25  H2  UNL     1      -1.019  53.645 -27.736  1.00  0.00     0.211 HD
ENDBRANCH   3  24
BRANCH  13  26
HETATM   26  O2  UNL     1      -8.403  47.886 -24.084  1.00  0.00    -0.271 OA
BRANCH  26  27
HETATM   27  C13 UNL     1      -9.288  46.776 -23.949  1.00  0.00     0.303 C 
BRANCH  27  28
HETATM   28  C14 UNL     1     -10.512  46.954 -24.836  1.00  0.00     0.243 C 
HETATM   29  O3  UNL     1     -10.419  47.201 -26.038  1.00  0.00    -0.271 OA
HETATM   30  N2  UNL     1     -11.714  46.728 -24.191  1.00  0.00    -0.356 N 
HETATM   31  H16 UNL     1     -11.696  46.752 -23.178  1.00  0.00     0.162 HD
BRANCH  30  32
HETATM   32  C15 UNL     1     -12.988  46.864 -24.884  1.00  0.00     0.159 C 
BRANCH  32  33
HETATM   33  C16 UNL     1     -13.752  45.531 -25.054  1.00  0.00     0.170 C 
BRANCH  33  34
HETATM   34  O4  UNL     1     -13.305  44.555 -24.104  1.00  0.00    -0.389 OA
HETATM   35  H20 UNL     1     -14.046  43.949 -23.926  1.00  0.00     0.210 HD
ENDBRANCH  33  34
BRANCH  33  36
HETATM   36  C17 UNL     1     -15.241  45.751 -24.934  1.00  0.00    -0.013 A 
HETATM   37  C18 UNL     1     -15.801  46.414 -23.835  1.00  0.00     0.013 A 
HETATM   38  C19 UNL     1     -17.176  46.633 -23.783  1.00  0.00     0.025 A 
HETATM   39  C20 UNL     1     -17.966  46.190 -24.839  1.00  0.00     0.005 A 
HETATM   40  C21 UNL     1     -19.450  46.394 -24.805  1.00  0.00     0.068 C 
HETATM   41  N3  UNL     1     -17.451  45.548 -25.915  1.00  0.00    -0.369 N 
HETATM   42  C22 UNL     1     -16.112  45.347 -25.940  1.00  0.00     0.097 A 
ATOM     43  H3  UNL     1     -18.049  45.229 -26.677  1.00  0.00     0.165 HD
ENDBRANCH  33  36
ENDBRANCH  32  33
ENDBRANCH  30  32
ENDBRANCH  27  28
ENDBRANCH  26  27
ENDBRANCH  13  26
TORSDOF 8
ENDMDL
MODEL 7
REMARK minimizedAffinity -8.36231613
REMARK CNNscore 0.300879598
REMARK CNNaffinity 6.35082388
REMARK  8 active torsions:
REMARK  status: ('A' for Active; 'I' for Inactive)
REMARK    1  A    between atoms: C3_3  and  O1_4 
REMARK    2  A    between atoms: N1_14  and  O2_16 
REMARK    3  A    between atoms: O2_16  and  C13_17 
REMARK    4  A    between atoms: C13_17  and  C14_18 
REMARK       I    between atoms: C14_18  and  N2_20 
REMARK    5  A    between atoms: N2_20  and  C15_21 
REMARK    6  A    between atoms: C15_21  and  C16_22 
REMARK    7  A    between atoms: C16_22  and  O4_23 
REMARK    8  A    between atoms: C16_22  and  C17_24 
ROOT
HETATM    1  C1  UNL     1       0.102  55.583 -26.881  1.00  0.00     0.015 C 
HETATM    2  C2  UNL     1      -0.149  54.408 -26.878  1.00  0.00    -0.078 C 
HETATM    3  C3  UNL     1      -0.454  52.969 -26.893  1.00  0.00     0.128 C 
HETATM    4  C4  UNL     1       0.815  52.110 -26.905  1.00  0.00     0.052 C 
HETATM    5  C5  UNL     1       0.275  50.720 -26.596  1.00  0.00     0.010 C 
HETATM    6  C6  UNL     1      -0.763  50.958 -25.492  1.00  0.00     0.002 C 
HETATM    7  C7  UNL     1      -1.860  49.884 -25.331  1.00  0.00    -0.004 C 
HETATM    8  C8  UNL     1      -2.514  49.354 -26.618  1.00  0.00     0.010 C 
HETATM    9  C9  UNL     1      -3.530  48.251 -26.316  1.00  0.00     0.035 C 
HETATM   10  C10 UNL     1      -4.534  48.602 -25.239  1.00  0.00    -0.069 C 
HETATM   11  C11 UNL     1      -5.827  48.270 -25.405  1.00  0.00     0.030 C 
HETATM   12  C12 UNL     1      -6.826  48.410 -24.306  1.00  0.00     0.032 C 
HETATM   13  N1  UNL     1      -8.078  48.065 -24.369  1.00  0.00    -0.271 N 
ATOM     14  H1  UNL     1      -8.727  48.142 -23.586  1.00  0.00     0.194 HD
HETATM   15  C23 UNL     1      -6.329  48.908 -22.962  1.00  0.00     0.060 C 
HETATM   16  C24 UNL     1      -5.145  49.852 -23.119  1.00  0.00     0.020 C 
HETATM   17  C25 UNL     1      -3.986  49.256 -23.971  1.00  0.00    -0.016 C 
HETATM   18  C26 UNL     1      -3.285  48.159 -23.119  1.00  0.00     0.020 C 
HETATM   19  C27 UNL     1      -2.941  50.382 -24.336  1.00  0.00     0.002 C 
HETATM   20  C28 UNL     1      -3.595  51.695 -24.840  1.00  0.00     0.007 C 
HETATM   21  C29 UNL     1      -2.770  52.537 -25.818  1.00  0.00     0.014 C 
HETATM   22  C30 UNL     1      -1.245  52.439 -25.642  1.00  0.00     0.003 C 
HETATM   23  C31 UNL     1      -0.851  53.199 -24.345  1.00  0.00     0.020 C 
ENDROOT
BRANCH   3  24
HETATM   24  O1  UNL     1      -1.165  52.682 -28.101  1.00  0.00    -0.377 OA
HETATM   25  H2  UNL     1      -0.678  53.111 -28.828  1.00  0.00     0.211 HD
ENDBRANCH   3  24
BRANCH  13  26
HETATM   26  O2  UNL     1      -8.437  47.575 -25.635  1.00  0.00    -0.271 OA
BRANCH  26  27
HETATM   27  C13 UNL     1      -9.812  47.876 -25.858  1.00  0.00     0.303 C 
BRANCH  27  28
HETATM   28  C14 UNL     1     -10.300  47.236 -27.149  1.00  0.00     0.243 C 
HETATM   29  O3  UNL     1     -10.255  47.827 -28.228  1.00  0.00    -0.271 OA
HETATM   30  N2  UNL     1     -10.709  45.923 -27.011  1.00  0.00    -0.356 N 
HETATM   31  H16 UNL     1     -10.915  45.611 -26.069  1.00  0.00     0.162 HD
BRANCH  30  32
HETATM   32  C15 UNL     1     -11.218  45.159 -28.142  1.00  0.00     0.159 C 
BRANCH  32  33
HETATM   33  C16 UNL     1     -12.365  44.190 -27.775  1.00  0.00     0.170 C 
BRANCH  33  34
HETATM   34  O4  UNL     1     -13.543  44.471 -28.542  1.00  0.00    -0.389 OA
HETATM   35  H20 UNL     1     -14.043  43.642 -28.638  1.00  0.00     0.210 HD
ENDBRANCH  33  34
BRANCH  33  36
HETATM   36  C17 UNL     1     -11.932  42.756 -27.967  1.00  0.00    -0.013 A 
HETATM   37  C18 UNL     1     -12.321  42.013 -29.088  1.00  0.00     0.013 A 
HETATM   38  C19 UNL     1     -11.865  40.706 -29.247  1.00  0.00     0.025 A 
HETATM   39  C20 UNL     1     -11.021  40.168 -28.281  1.00  0.00     0.005 A 
HETATM   40  C21 UNL     1     -10.528  38.760 -28.414  1.00  0.00     0.068 C 
HETATM   41  N3  UNL     1     -10.627  40.865 -27.188  1.00  0.00    -0.369 N 
HETATM   42  C22 UNL     1     -11.085  42.133 -27.057  1.00  0.00     0.097 A 
ATOM     43  H3  UNL     1     -10.009  40.450 -26.490  1.00  0.00     0.165 HD
ENDBRANCH  33  36
ENDBRANCH  32  33
ENDBRANCH  30  32
ENDBRANCH  27  28
ENDBRANCH  26  27
ENDBRANCH  13  26
TORSDOF 8
ENDMDL
MODEL 8
REMARK minimizedAffinity -9.59760666
REMARK CNNscore 0.300862491
REMARK CNNaffinity 6.9442935
REMARK  8 active torsions:
REMARK  status: ('A' for Active; 'I' for Inactive)
REMARK    1  A    between atoms: C3_3  and  O1_4 
REMARK    2  A    between atoms: N1_14  and  O2_16 
REMARK    3  A    between atoms: O2_16  and  C13_17 
REMARK    4  A    between atoms: C13_17  and  C14_18 
REMARK       I    between atoms: C14_18  and  N2_20 
REMARK    5  A    between atoms: N2_20  and  C15_21 
REMARK    6  A    between atoms: C15_21  and  C16_22 
REMARK    7  A    between atoms: C16_22  and  O4_23 
REMARK    8  A    between atoms: C16_22  and  C17_24 
ROOT
HETATM    1  C1  UNL     1       0.305  55.715 -25.674  1.00  0.00     0.015 C 
HETATM    2  C2  UNL     1      -0.030  54.566 -25.771  1.00  0.00    -0.078 C 
HETATM    3  C3  UNL     1      -0.444  53.161 -25.906  1.00  0.00     0.128 C 
HETATM    4  C4  UNL     1       0.658  52.290 -26.521  1.00  0.00     0.052 C 
HETATM    5  C5  UNL     1       0.145  50.880 -26.266  1.00  0.00     0.010 C 
HETATM    6  C6  UNL     1      -0.409  50.934 -24.836  1.00  0.00     0.002 C 
HETATM    7  C7  UNL     1      -1.466  49.873 -24.463  1.00  0.00    -0.004 C 
HETATM    8  C8  UNL     1      -2.578  49.602 -25.491  1.00  0.00     0.010 C 
HETATM    9  C9  UNL     1      -3.512  48.485 -25.022  1.00  0.00     0.035 C 
HETATM   10  C10 UNL     1      -4.034  48.656 -23.612  1.00  0.00    -0.069 C 
HETATM   11  C11 UNL     1      -5.326  48.388 -23.346  1.00  0.00     0.030 C 
HETATM   12  C12 UNL     1      -5.853  48.346 -21.951  1.00  0.00     0.032 C 
HETATM   13  N1  UNL     1      -7.070  48.047 -21.608  1.00  0.00    -0.271 N 
ATOM     14  H1  UNL     1      -7.390  47.994 -20.641  1.00  0.00     0.194 HD
HETATM   15  C23 UNL     1      -4.870  48.579 -20.819  1.00  0.00     0.060 C 
HETATM   16  C24 UNL     1      -3.741  49.510 -21.242  1.00  0.00     0.020 C 
HETATM   17  C25 UNL     1      -3.017  49.054 -22.542  1.00  0.00    -0.016 C 
HETATM   18  C26 UNL     1      -2.158  47.805 -22.195  1.00  0.00     0.020 C 
HETATM   19  C27 UNL     1      -2.076  50.205 -23.076  1.00  0.00     0.002 C 
HETATM   20  C28 UNL     1      -2.749  51.602 -23.085  1.00  0.00     0.007 C 
HETATM   21  C29 UNL     1      -2.255  52.590 -24.146  1.00  0.00     0.014 C 
HETATM   22  C30 UNL     1      -0.782  52.428 -24.558  1.00  0.00     0.003 C 
HETATM   23  C31 UNL     1       0.112  52.930 -23.388  1.00  0.00     0.020 C 
ENDROOT
BRANCH   3  24
HETATM   24  O1  UNL     1      -1.560  53.115 -26.801  1.00  0.00    -0.377 OA
HETATM   25  H2  UNL     1      -1.327  53.659 -27.576  1.00  0.00     0.211 HD
ENDBRANCH   3  24
BRANCH  13  26
HETATM   26  O2  UNL     1      -7.897  47.805 -22.717  1.00  0.00    -0.271 OA
BRANCH  26  27
HETATM   27  C13 UNL     1      -7.288  48.390 -23.866  1.00  0.00     0.303 C 
BRANCH  27  28
HETATM   28  C14 UNL     1      -7.458  47.491 -25.082  1.00  0.00     0.243 C 
HETATM   29  O3  UNL     1      -7.773  46.306 -24.980  1.00  0.00    -0.271 OA
HETATM   30  N2  UNL     1      -7.314  48.144 -26.292  1.00  0.00    -0.356 N 
HETATM   31  H16 UNL     1      -6.846  49.043 -26.267  1.00  0.00     0.162 HD
BRANCH  30  32
HETATM   32  C15 UNL     1      -7.433  47.437 -27.559  1.00  0.00     0.159 C 
BRANCH  32  33
HETATM   33  C16 UNL     1      -8.612  47.920 -28.436  1.00  0.00     0.170 C 
BRANCH  33  34
HETATM   34  O4  UNL     1      -8.990  49.260 -28.098  1.00  0.00    -0.389 OA
HETATM   35  H20 UNL     1      -9.369  49.673 -28.894  1.00  0.00     0.210 HD
ENDBRANCH  33  34
BRANCH  33  36
HETATM   36  C17 UNL     1      -8.264  47.815 -29.901  1.00  0.00    -0.013 A 
HETATM   37  C18 UNL     1      -8.859  48.642 -30.860  1.00  0.00     0.013 A 
HETATM   38  C19 UNL     1      -8.479  48.540 -32.198  1.00  0.00     0.025 A 
HETATM   39  C20 UNL     1      -7.501  47.615 -32.548  1.00  0.00     0.005 A 
HETATM   40  C21 UNL     1      -7.083  47.469 -33.979  1.00  0.00     0.068 C 
HETATM   41  N3  UNL     1      -6.907  46.804 -31.640  1.00  0.00    -0.369 N 
HETATM   42  C22 UNL     1      -7.295  46.922 -30.348  1.00  0.00     0.097 A 
ATOM     43  H3  UNL     1      -6.193  46.130 -31.919  1.00  0.00     0.165 HD
ENDBRANCH  33  36
ENDBRANCH  32  33
ENDBRANCH  30  32
ENDBRANCH  27  28
ENDBRANCH  26  27
ENDBRANCH  13  26
TORSDOF 8
ENDMDL
MODEL 9
REMARK minimizedAffinity -8.67290783
REMARK CNNscore 0.296998531
REMARK CNNaffinity 6.26544333
REMARK  8 active torsions:
REMARK  status: ('A' for Active; 'I' for Inactive)
REMARK    1  A    between atoms: C3_3  and  O1_4 
REMARK    2  A    between atoms: N1_14  and  O2_16 
REMARK    3  A    between atoms: O2_16  and  C13_17 
REMARK    4  A    between atoms: C13_17  and  C14_18 
REMARK       I    between atoms: C14_18  and  N2_20 
REMARK    5  A    between atoms: N2_20  and  C15_21 
REMARK    6  A    between atoms: C15_21  and  C16_22 
REMARK    7  A    between atoms: C16_22  and  O4_23 
REMARK    8  A    between atoms: C16_22  and  C17_24 
ROOT
HETATM    1  C1  UNL     1     -15.056  44.190 -25.940  1.00  0.00     0.015 C 
HETATM    2  C2  UNL     1     -14.075  43.951 -26.592  1.00  0.00    -0.078 C 
HETATM    3  C3  UNL     1     -12.871  43.645 -27.378  1.00  0.00     0.128 C 
HETATM    4  C4  UNL     1     -13.095  42.480 -28.349  1.00  0.00     0.052 C 
HETATM    5  C5  UNL     1     -11.870  42.560 -29.249  1.00  0.00     0.010 C 
HETATM    6  C6  UNL     1     -11.694  44.061 -29.510  1.00  0.00     0.002 C 
HETATM    7  C7  UNL     1     -10.280  44.531 -29.916  1.00  0.00    -0.004 C 
HETATM    8  C8  UNL     1      -9.096  43.951 -29.124  1.00  0.00     0.010 C 
HETATM    9  C9  UNL     1      -7.758  44.448 -29.674  1.00  0.00     0.035 C 
HETATM   10  C10 UNL     1      -7.674  45.948 -29.856  1.00  0.00    -0.069 C 
HETATM   11  C11 UNL     1      -6.551  46.598 -29.501  1.00  0.00     0.030 C 
HETATM   12  C12 UNL     1      -6.330  48.035 -29.833  1.00  0.00     0.032 C 
HETATM   13  N1  UNL     1      -5.256  48.719 -29.572  1.00  0.00    -0.271 N 
ATOM     14  H1  UNL     1      -5.124  49.693 -29.844  1.00  0.00     0.194 HD
HETATM   15  C23 UNL     1      -7.406  48.747 -30.630  1.00  0.00     0.060 C 
HETATM   16  C24 UNL     1      -8.788  48.175 -30.339  1.00  0.00     0.020 C 
HETATM   17  C25 UNL     1      -8.870  46.631 -30.521  1.00  0.00    -0.016 C 
HETATM   18  C26 UNL     1      -8.820  46.329 -32.046  1.00  0.00     0.020 C 
HETATM   19  C27 UNL     1     -10.223  46.081 -29.922  1.00  0.00     0.002 C 
HETATM   20  C28 UNL     1     -10.560  46.655 -28.520  1.00  0.00     0.007 C 
HETATM   21  C29 UNL     1     -11.387  45.755 -27.597  1.00  0.00     0.014 C 
HETATM   22  C30 UNL     1     -12.365  44.806 -28.309  1.00  0.00     0.003 C 
HETATM   23  C31 UNL     1     -13.544  45.649 -28.873  1.00  0.00     0.020 C 
ENDROOT
BRANCH   3  24
HETATM   24  O1  UNL     1     -11.843  43.240 -26.469  1.00  0.00    -0.377 OA
HETATM   25  H2  UNL     1     -12.238  42.588 -25.863  1.00  0.00     0.211 HD
ENDBRANCH   3  24
BRANCH  13  26
HETATM   26  O2  UNL     1      -4.298  47.967 -28.872  1.00  0.00    -0.271 OA
BRANCH  26  27
HETATM   27  C13 UNL     1      -4.217  48.474 -27.542  1.00  0.00     0.303 C 
BRANCH  27  28
HETATM   28  C14 UNL     1      -3.466  49.797 -27.515  1.00  0.00     0.243 C 
HETATM   29  O3  UNL     1      -3.128  50.378 -28.546  1.00  0.00    -0.271 OA
HETATM   30  N2  UNL     1      -3.281  50.316 -26.247  1.00  0.00    -0.356 N 
HETATM   31  H16 UNL     1      -3.393  49.671 -25.473  1.00  0.00     0.162 HD
BRANCH  30  32
HETATM   32  C15 UNL     1      -2.573  51.570 -26.032  1.00  0.00     0.159 C 
BRANCH  32  33
HETATM   33  C16 UNL     1      -1.056  51.396 -25.783  1.00  0.00     0.170 C 
BRANCH  33  34
HETATM   34  O4  UNL     1      -0.288  52.134 -26.741  1.00  0.00    -0.389 OA
HETATM   35  H20 UNL     1       0.557  52.377 -26.325  1.00  0.00     0.210 HD
ENDBRANCH  33  34
BRANCH  33  36
HETATM   36  C17 UNL     1      -0.697  51.811 -24.377  1.00  0.00    -0.013 A 
HETATM   37  C18 UNL     1      -1.374  51.301 -23.262  1.00  0.00     0.013 A 
HETATM   38  C19 UNL     1      -0.984  51.679 -21.979  1.00  0.00     0.025 A 
HETATM   39  C20 UNL     1       0.085  52.557 -21.835  1.00  0.00     0.005 A 
HETATM   40  C21 UNL     1       0.518  52.997 -20.470  1.00  0.00     0.068 C 
HETATM   41  N3  UNL     1       0.760  53.065 -22.895  1.00  0.00    -0.369 N 
HETATM   42  C22 UNL     1       0.359  52.682 -24.131  1.00  0.00     0.097 A 
ATOM     43  H3  UNL     1       1.539  53.710 -22.767  1.00  0.00     0.165 HD
ENDBRANCH  33  36
ENDBRANCH  32  33
ENDBRANCH  30  32
ENDBRANCH  27  28
ENDBRANCH  26  27
ENDBRANCH  13  26
TORSDOF 8
ENDMDL
