MODEL 1
REMARK minimizedAffinity -7.79492807
REMARK CNNscore 0.681946933
REMARK CNNaffinity 6.91599131
REMARK  13 active torsions:
REMARK  status: ('A' for Active; 'I' for Inactive)
REMARK    1  A    between atoms: C2_2  and  C3_3 
REMARK    2  A    between atoms: C2_2  and  C9_11 
REMARK    3  A    between atoms: C3_3  and  C4_4 
REMARK    4  A    between atoms: C4_4  and  C5_6 
REMARK    5  A    between atoms: C5_6  and  C6_7 
REMARK    6  A    between atoms: C6_7  and  O2_10 
REMARK    7  A    between atoms: C20_23  and  C21_24 
REMARK    8  A    between atoms: C21_24  and  O4_25 
REMARK    9  A    between atoms: C27_31  and  O5_32 
REMARK   10  A    between atoms: O5_32  and  C28_33 
REMARK   11  A    between atoms: C30_36  and  O7_37 
REMARK   12  A    between atoms: C31_38  and  O8_39 
REMARK   13  A    between atoms: C32_40  and  O9_41 
ROOT
HETATM    1  C9  UNL     1       1.149  53.554 -10.704  1.00  0.00     0.068 C 
HETATM    2  C10 UNL     1       0.199  54.710 -10.346  1.00  0.00     0.133 C 
HETATM    3  O3  UNL     1      -0.837  54.971 -10.948  1.00  0.00    -0.298 OA
HETATM    4  C11 UNL     1       0.719  55.574  -9.215  1.00  0.00     0.089 C 
HETATM    5  C12 UNL     1       2.214  55.236  -9.258  1.00  0.00    -0.022 C 
HETATM    6  C13 UNL     1       2.833  56.066 -10.442  1.00  0.00     0.017 C 
HETATM    7  C14 UNL     1       2.998  55.540  -7.950  1.00  0.00     0.024 C 
HETATM    8  C15 UNL     1       2.883  57.023  -7.549  1.00  0.00     0.010 C 
HETATM    9  C16 UNL     1       3.768  57.306  -6.351  1.00  0.00     0.010 C 
HETATM   10  C17 UNL     1       5.249  57.066  -6.699  1.00  0.00     0.025 C 
HETATM   11  C18 UNL     1       5.473  55.818  -7.570  1.00  0.00    -0.072 C 
HETATM   12  C19 UNL     1       4.456  55.063  -8.069  1.00  0.00    -0.066 C 
HETATM   13  C20 UNL     1       4.702  53.732  -8.820  1.00  0.00     0.039 C 
HETATM   14  C22 UNL     1       3.630  53.262  -9.855  1.00  0.00     0.021 C 
HETATM   15  C23 UNL     1       2.187  53.683  -9.526  1.00  0.00    -0.024 C 
HETATM   16  C24 UNL     1       1.681  52.843  -8.318  1.00  0.00     0.017 C 
HETATM   17  C25 UNL     1       6.942  55.565  -7.875  1.00  0.00     0.037 C 
HETATM   18  C26 UNL     1       7.852  55.621  -6.658  1.00  0.00     0.037 C 
HETATM   19  C27 UNL     1       7.653  56.914  -5.870  1.00  0.00     0.133 C 
HETATM   20  C33 UNL     1       6.167  57.087  -5.419  1.00  0.00    -0.014 C 
HETATM   21  C34 UNL     1       5.777  55.986  -4.401  1.00  0.00     0.018 C 
HETATM   22  C35 UNL     1       6.043  58.452  -4.695  1.00  0.00     0.018 C 
ENDROOT
BRANCH  19  23
HETATM   23  O5  UNL     1       8.507  56.932  -4.721  1.00  0.00    -0.353 OA
BRANCH  23  24
HETATM   24  C28 UNL     1       9.879  56.628  -4.997  1.00  0.00     0.291 C 
HETATM   25  O6  UNL     1      10.208  55.374  -4.384  1.00  0.00    -0.356 OA
HETATM   26  C29 UNL     1      11.220  55.444  -3.384  1.00  0.00     0.205 C 
HETATM   27  C30 UNL     1      12.489  56.052  -3.975  1.00  0.00     0.173 C 
HETATM   28  C31 UNL     1      12.218  57.478  -4.477  1.00  0.00     0.182 C 
HETATM   29  C32 UNL     1      10.729  57.824  -4.511  1.00  0.00     0.204 C 
BRANCH  27  30
HETATM   30  O7  UNL     1      13.578  56.056  -3.047  1.00  0.00    -0.391 OA
HETATM   31  H46 UNL     1      13.900  55.141  -2.984  1.00  0.00     0.210 HD
ENDBRANCH  27  30
BRANCH  28  32
HETATM   32  O8  UNL     1      12.879  58.450  -3.646  1.00  0.00    -0.390 OA
HETATM   33  H48 UNL     1      13.609  57.958  -3.212  1.00  0.00     0.210 HD
ENDBRANCH  28  32
BRANCH  29  34
HETATM   34  O9  UNL     1      10.547  58.976  -5.351  1.00  0.00    -0.388 OA
HETATM   35  H50 UNL     1      11.121  59.666  -4.966  1.00  0.00     0.210 HD
ENDBRANCH  29  34
ENDBRANCH  23  24
ENDBRANCH  19  23
BRANCH  13  36
HETATM   36  C21 UNL     1       5.067  52.606  -7.824  1.00  0.00     0.173 C 
BRANCH  36  37
HETATM   37  O4  UNL     1       4.928  51.334  -8.451  1.00  0.00    -0.400 OA
HETATM   38  H31 UNL     1       5.179  50.662  -7.788  1.00  0.00     0.209 HD
ENDBRANCH  36  37
ENDBRANCH  13  36
BRANCH   1  39
HETATM   39  C2  UNL     1       0.443  52.185 -10.938  1.00  0.00     0.000 C 
HETATM   40  C1  UNL     1       1.467  51.044 -11.000  1.00  0.00     0.011 C 
BRANCH  39  41
HETATM   41  C3  UNL     1      -0.394  52.147 -12.243  1.00  0.00     0.083 C 
BRANCH  41  42
HETATM   42  C4  UNL     1      -1.759  51.482 -12.072  1.00  0.00     0.130 C 
HETATM   43  O1  UNL     1      -1.882  50.260 -11.953  1.00  0.00    -0.298 OA
BRANCH  42  44
HETATM   44  C5  UNL     1      -2.962  52.413 -12.088  1.00  0.00     0.115 C 
BRANCH  44  45
HETATM   45  C6  UNL     1      -3.696  52.534 -10.741  1.00  0.00     0.057 C 
HETATM   46  C7  UNL     1      -4.166  53.967 -10.458  1.00  0.00     0.045 C 
HETATM   47  C8  UNL     1      -2.763  52.073  -9.616  1.00  0.00     0.045 C 
BRANCH  45  48
HETATM   48  O2  UNL     1      -4.827  51.659 -10.708  1.00  0.00    -0.390 OA
HETATM   49  H15 UNL     1      -5.394  51.905 -11.471  1.00  0.00     0.210 HD
ENDBRANCH  45  48
ENDBRANCH  44  45
ENDBRANCH  42  44
ENDBRANCH  41  42
ENDBRANCH  39  41
ENDBRANCH   1  39
TORSDOF 13
ENDMDL
MODEL 2
REMARK minimizedAffinity -7.93229532
REMARK CNNscore 0.636698484
REMARK CNNaffinity 6.83168077
REMARK  13 active torsions:
REMARK  status: ('A' for Active; 'I' for Inactive)
REMARK    1  A    between atoms: C2_2  and  C3_3 
REMARK    2  A    between atoms: C2_2  and  C9_11 
REMARK    3  A    between atoms: C3_3  and  C4_4 
REMARK    4  A    between atoms: C4_4  and  C5_6 
REMARK    5  A    between atoms: C5_6  and  C6_7 
REMARK    6  A    between atoms: C6_7  and  O2_10 
REMARK    7  A    between atoms: C20_23  and  C21_24 
REMARK    8  A    between atoms: C21_24  and  O4_25 
REMARK    9  A    between atoms: C27_31  and  O5_32 
REMARK   10  A    between atoms: O5_32  and  C28_33 
REMARK   11  A    between atoms: C30_36  and  O7_37 
REMARK   12  A    between atoms: C31_38  and  O8_39 
REMARK   13  A    between atoms: C32_40  and  O9_41 
ROOT
HETATM    1  C9  UNL     1       1.138  53.242 -10.905  1.00  0.00     0.068 C 
HETATM    2  C10 UNL     1       0.114  54.304 -10.469  1.00  0.00     0.133 C 
HETATM    3  O3  UNL     1      -0.951  54.518 -11.038  1.00  0.00    -0.298 OA
HETATM    4  C11 UNL     1       0.594  55.144  -9.302  1.00  0.00     0.089 C 
HETATM    5  C12 UNL     1       2.108  54.920  -9.389  1.00  0.00    -0.022 C 
HETATM    6  C13 UNL     1       2.639  55.854 -10.537  1.00  0.00     0.017 C 
HETATM    7  C14 UNL     1       2.895  55.213  -8.081  1.00  0.00     0.024 C 
HETATM    8  C15 UNL     1       2.680  56.661  -7.599  1.00  0.00     0.010 C 
HETATM    9  C16 UNL     1       3.568  56.946  -6.404  1.00  0.00     0.010 C 
HETATM   10  C17 UNL     1       5.054  56.835  -6.789  1.00  0.00     0.025 C 
HETATM   11  C18 UNL     1       5.351  55.654  -7.729  1.00  0.00    -0.072 C 
HETATM   12  C19 UNL     1       4.381  54.853  -8.250  1.00  0.00    -0.066 C 
HETATM   13  C20 UNL     1       4.708  53.584  -9.075  1.00  0.00     0.039 C 
HETATM   14  C22 UNL     1       3.651  53.090 -10.115  1.00  0.00     0.021 C 
HETATM   15  C23 UNL     1       2.189  53.386  -9.739  1.00  0.00    -0.024 C 
HETATM   16  C24 UNL     1       1.772  52.449  -8.569  1.00  0.00     0.017 C 
HETATM   17  C25 UNL     1       6.827  55.527  -8.073  1.00  0.00     0.037 C 
HETATM   18  C26 UNL     1       7.756  55.586  -6.871  1.00  0.00     0.037 C 
HETATM   19  C27 UNL     1       7.480  56.818  -6.011  1.00  0.00     0.133 C 
HETATM   20  C33 UNL     1       5.996  56.857  -5.526  1.00  0.00    -0.014 C 
HETATM   21  C34 UNL     1       5.709  55.680  -4.562  1.00  0.00     0.018 C 
HETATM   22  C35 UNL     1       5.787  58.170  -4.728  1.00  0.00     0.018 C 
ENDROOT
BRANCH  19  23
HETATM   23  O5  UNL     1       8.355  56.840  -4.878  1.00  0.00    -0.353 OA
BRANCH  23  24
HETATM   24  C28 UNL     1       9.729  56.578  -5.184  1.00  0.00     0.291 C 
HETATM   25  O6  UNL     1      10.085  55.293  -4.656  1.00  0.00    -0.356 OA
HETATM   26  C29 UNL     1      11.104  55.316  -3.662  1.00  0.00     0.205 C 
HETATM   27  C30 UNL     1      12.358  55.982  -4.223  1.00  0.00     0.173 C 
HETATM   28  C31 UNL     1      12.059  57.433  -4.630  1.00  0.00     0.182 C 
HETATM   29  C32 UNL     1      10.564  57.754  -4.629  1.00  0.00     0.204 C 
BRANCH  27  30
HETATM   30  O7  UNL     1      13.455  55.946  -3.305  1.00  0.00    -0.391 OA
HETATM   31  H46 UNL     1      13.793  55.034  -3.304  1.00  0.00     0.210 HD
ENDBRANCH  27  30
BRANCH  28  32
HETATM   32  O8  UNL     1      12.711  58.360  -3.743  1.00  0.00    -0.390 OA
HETATM   33  H48 UNL     1      13.454  57.854  -3.348  1.00  0.00     0.210 HD
ENDBRANCH  28  32
BRANCH  29  34
HETATM   34  O9  UNL     1      10.355  58.955  -5.392  1.00  0.00    -0.388 OA
HETATM   35  H50 UNL     1      10.921  59.628  -4.968  1.00  0.00     0.210 HD
ENDBRANCH  29  34
ENDBRANCH  23  24
ENDBRANCH  19  23
BRANCH  13  36
HETATM   36  C21 UNL     1       5.175  52.438  -8.147  1.00  0.00     0.173 C 
BRANCH  36  37
HETATM   37  O4  UNL     1       6.401  51.891  -8.625  1.00  0.00    -0.400 OA
HETATM   38  H31 UNL     1       6.656  51.183  -8.002  1.00  0.00     0.209 HD
ENDBRANCH  36  37
ENDBRANCH  13  36
BRANCH   1  39
HETATM   39  C2  UNL     1       0.529  51.838 -11.198  1.00  0.00     0.000 C 
HETATM   40  C1  UNL     1       0.152  51.122  -9.895  1.00  0.00     0.011 C 
BRANCH  39  41
HETATM   41  C3  UNL     1       1.488  50.913 -11.992  1.00  0.00     0.083 C 
BRANCH  41  42
HETATM   42  C4  UNL     1       1.035  50.656 -13.429  1.00  0.00     0.130 C 
HETATM   43  O1  UNL     1      -0.132  50.364 -13.706  1.00  0.00    -0.298 OA
BRANCH  42  44
HETATM   44  C5  UNL     1       2.115  50.749 -14.496  1.00  0.00     0.115 C 
BRANCH  44  45
HETATM   45  C6  UNL     1       1.892  51.861 -15.537  1.00  0.00     0.057 C 
HETATM   46  C7  UNL     1       1.159  51.353 -16.786  1.00  0.00     0.045 C 
HETATM   47  C8  UNL     1       3.248  52.447 -15.946  1.00  0.00     0.045 C 
BRANCH  45  48
HETATM   48  O2  UNL     1       1.145  52.938 -14.964  1.00  0.00    -0.390 OA
HETATM   49  H15 UNL     1       0.303  52.552 -14.637  1.00  0.00     0.210 HD
ENDBRANCH  45  48
ENDBRANCH  44  45
ENDBRANCH  42  44
ENDBRANCH  41  42
ENDBRANCH  39  41
ENDBRANCH   1  39
TORSDOF 13
ENDMDL
MODEL 3
REMARK minimizedAffinity -8.14904785
REMARK CNNscore 0.625942469
REMARK CNNaffinity 7.03242445
REMARK  13 active torsions:
REMARK  status: ('A' for Active; 'I' for Inactive)
REMARK    1  A    between atoms: C2_2  and  C3_3 
REMARK    2  A    between atoms: C2_2  and  C9_11 
REMARK    3  A    between atoms: C3_3  and  C4_4 
REMARK    4  A    between atoms: C4_4  and  C5_6 
REMARK    5  A    between atoms: C5_6  and  C6_7 
REMARK    6  A    between atoms: C6_7  and  O2_10 
REMARK    7  A    between atoms: C20_23  and  C21_24 
REMARK    8  A    between atoms: C21_24  and  O4_25 
REMARK    9  A    between atoms: C27_31  and  O5_32 
REMARK   10  A    between atoms: O5_32  and  C28_33 
REMARK   11  A    between atoms: C30_36  and  O7_37 
REMARK   12  A    between atoms: C31_38  and  O8_39 
REMARK   13  A    between atoms: C32_40  and  O9_41 
ROOT
HETATM    1  C9  UNL     1      -9.546  46.345 -29.686  1.00  0.00     0.068 C 
HETATM    2  C10 UNL     1      -8.487  46.291 -30.800  1.00  0.00     0.133 C 
HETATM    3  O3  UNL     1      -8.632  45.712 -31.871  1.00  0.00    -0.298 OA
HETATM    4  C11 UNL     1      -7.182  46.954 -30.407  1.00  0.00     0.089 C 
HETATM    5  C12 UNL     1      -7.300  46.939 -28.879  1.00  0.00    -0.022 C 
HETATM    6  C13 UNL     1      -6.931  45.484 -28.410  1.00  0.00     0.017 C 
HETATM    7  C14 UNL     1      -6.396  47.964 -28.136  1.00  0.00     0.024 C 
HETATM    8  C15 UNL     1      -4.907  47.761 -28.476  1.00  0.00     0.010 C 
HETATM    9  C16 UNL     1      -4.052  48.685 -27.631  1.00  0.00     0.010 C 
HETATM   10  C17 UNL     1      -4.203  48.353 -26.136  1.00  0.00     0.025 C 
HETATM   11  C18 UNL     1      -5.651  48.025 -25.730  1.00  0.00    -0.072 C 
HETATM   12  C19 UNL     1      -6.674  47.936 -26.623  1.00  0.00    -0.066 C 
HETATM   13  C20 UNL     1      -8.147  47.749 -26.182  1.00  0.00     0.039 C 
HETATM   14  C22 UNL     1      -9.132  47.060 -27.181  1.00  0.00     0.021 C 
HETATM   15  C23 UNL     1      -8.818  47.302 -28.667  1.00  0.00    -0.024 C 
HETATM   16  C24 UNL     1      -9.171  48.775 -29.022  1.00  0.00     0.017 C 
HETATM   17  C25 UNL     1      -5.799  47.738 -24.244  1.00  0.00     0.037 C 
HETATM   18  C26 UNL     1      -5.139  48.767 -23.340  1.00  0.00     0.037 C 
HETATM   19  C27 UNL     1      -3.681  48.999 -23.728  1.00  0.00     0.133 C 
HETATM   20  C33 UNL     1      -3.550  49.453 -25.217  1.00  0.00    -0.014 C 
HETATM   21  C34 UNL     1      -4.197  50.845 -25.419  1.00  0.00     0.018 C 
HETATM   22  C35 UNL     1      -2.041  49.593 -25.543  1.00  0.00     0.018 C 
ENDROOT
BRANCH  19  23
HETATM   23  O5  UNL     1      -3.090  49.985 -22.873  1.00  0.00    -0.353 OA
BRANCH  23  24
HETATM   24  C28 UNL     1      -2.271  49.450 -21.828  1.00  0.00     0.291 C 
HETATM   25  O6  UNL     1      -2.141  48.035 -22.019  1.00  0.00    -0.356 OA
HETATM   26  C29 UNL     1      -2.673  47.238 -20.965  1.00  0.00     0.205 C 
HETATM   27  C30 UNL     1      -2.011  47.619 -19.644  1.00  0.00     0.173 C 
HETATM   28  C31 UNL     1      -2.288  49.093 -19.310  1.00  0.00     0.182 C 
HETATM   29  C32 UNL     1      -2.905  49.862 -20.480  1.00  0.00     0.204 C 
BRANCH  27  30
HETATM   30  O7  UNL     1      -2.429  46.784 -18.560  1.00  0.00    -0.391 OA
HETATM   31  H46 UNL     1      -1.984  45.927 -18.675  1.00  0.00     0.210 HD
ENDBRANCH  27  30
BRANCH  28  32
HETATM   32  O8  UNL     1      -3.180  49.207 -18.187  1.00  0.00    -0.390 OA
HETATM   33  H48 UNL     1      -3.091  48.357 -17.704  1.00  0.00     0.210 HD
ENDBRANCH  28  32
BRANCH  29  34
HETATM   34  O9  UNL     1      -2.751  51.269 -20.233  1.00  0.00    -0.388 OA
HETATM   35  H50 UNL     1      -3.177  51.425 -19.368  1.00  0.00     0.210 HD
ENDBRANCH  29  34
ENDBRANCH  23  24
ENDBRANCH  19  23
BRANCH  13  36
HETATM   36  C21 UNL     1      -8.723  49.076 -25.635  1.00  0.00     0.173 C 
BRANCH  36  37
HETATM   37  O4  UNL     1      -8.724  49.059 -24.211  1.00  0.00    -0.400 OA
HETATM   38  H31 UNL     1      -9.084  49.918 -23.918  1.00  0.00     0.209 HD
ENDBRANCH  36  37
ENDBRANCH  13  36
BRANCH   1  39
HETATM   39  C2  UNL     1     -10.979  46.717 -30.174  1.00  0.00     0.000 C 
HETATM   40  C1  UNL     1     -10.989  46.990 -31.684  1.00  0.00     0.011 C 
BRANCH  39  41
HETATM   41  C3  UNL     1     -11.560  47.965 -29.459  1.00  0.00     0.083 C 
BRANCH  41  42
HETATM   42  C4  UNL     1     -12.675  47.633 -28.467  1.00  0.00     0.130 C 
HETATM   43  O1  UNL     1     -12.827  48.263 -27.417  1.00  0.00    -0.298 OA
BRANCH  42  44
HETATM   44  C5  UNL     1     -13.569  46.458 -28.837  1.00  0.00     0.115 C 
BRANCH  44  45
HETATM   45  C6  UNL     1     -13.695  45.382 -27.744  1.00  0.00     0.057 C 
HETATM   46  C7  UNL     1     -14.657  45.799 -26.623  1.00  0.00     0.045 C 
HETATM   47  C8  UNL     1     -12.311  45.104 -27.149  1.00  0.00     0.045 C 
BRANCH  45  48
HETATM   48  O2  UNL     1     -14.146  44.147 -28.309  1.00  0.00    -0.390 OA
HETATM   49  H15 UNL     1     -15.000  44.338 -28.753  1.00  0.00     0.210 HD
ENDBRANCH  45  48
ENDBRANCH  44  45
ENDBRANCH  42  44
ENDBRANCH  41  42
ENDBRANCH  39  41
ENDBRANCH   1  39
TORSDOF 13
ENDMDL
MODEL 4
REMARK minimizedAffinity -7.86326408
REMARK CNNscore 0.605935931
REMARK CNNaffinity 7.10408163
REMARK  13 active torsions:
REMARK  status: ('A' for Active; 'I' for Inactive)
REMARK    1  A    between atoms: C2_2  and  C3_3 
REMARK    2  A    between atoms: C2_2  and  C9_11 
REMARK    3  A    between atoms: C3_3  and  C4_4 
REMARK    4  A    between atoms: C4_4  and  C5_6 
REMARK    5  A    between atoms: C5_6  and  C6_7 
REMARK    6  A    between atoms: C6_7  and  O2_10 
REMARK    7  A    between atoms: C20_23  and  C21_24 
REMARK    8  A    between atoms: C21_24  and  O4_25 
REMARK    9  A    between atoms: C27_31  and  O5_32 
REMARK   10  A    between atoms: O5_32  and  C28_33 
REMARK   11  A    between atoms: C30_36  and  O7_37 
REMARK   12  A    between atoms: C31_38  and  O8_39 
REMARK   13  A    between atoms: C32_40  and  O9_41 
ROOT
HETATM    1  C9  UNL     1      -2.098  51.359 -22.713  1.00  0.00     0.068 C 
HETATM    2  C10 UNL     1      -1.228  51.884 -21.558  1.00  0.00     0.133 C 
HETATM    3  O3  UNL     1      -0.398  52.780 -21.664  1.00  0.00    -0.298 OA
HETATM    4  C11 UNL     1      -1.427  51.110 -20.270  1.00  0.00     0.089 C 
HETATM    5  C12 UNL     1      -2.028  49.806 -20.807  1.00  0.00    -0.022 C 
HETATM    6  C13 UNL     1      -0.831  48.952 -21.367  1.00  0.00     0.017 C 
HETATM    7  C14 UNL     1      -2.817  48.965 -19.765  1.00  0.00     0.024 C 
HETATM    8  C15 UNL     1      -1.942  48.593 -18.552  1.00  0.00     0.010 C 
HETATM    9  C16 UNL     1      -2.704  47.662 -17.629  1.00  0.00     0.010 C 
HETATM   10  C17 UNL     1      -3.038  46.339 -18.343  1.00  0.00     0.025 C 
HETATM   11  C18 UNL     1      -3.474  46.532 -19.806  1.00  0.00    -0.072 C 
HETATM   12  C19 UNL     1      -3.464  47.740 -20.435  1.00  0.00    -0.066 C 
HETATM   13  C20 UNL     1      -4.041  47.939 -21.857  1.00  0.00     0.039 C 
HETATM   14  C22 UNL     1      -3.472  49.107 -22.725  1.00  0.00     0.021 C 
HETATM   15  C23 UNL     1      -3.001  50.335 -21.927  1.00  0.00    -0.024 C 
HETATM   16  C24 UNL     1      -4.249  51.084 -21.377  1.00  0.00     0.017 C 
HETATM   17  C25 UNL     1      -3.841  45.226 -20.491  1.00  0.00     0.037 C 
HETATM   18  C26 UNL     1      -4.790  44.346 -19.692  1.00  0.00     0.037 C 
HETATM   19  C27 UNL     1      -4.276  44.114 -18.273  1.00  0.00     0.133 C 
HETATM   20  C33 UNL     1      -4.054  45.463 -17.517  1.00  0.00    -0.014 C 
HETATM   21  C34 UNL     1      -5.404  46.188 -17.292  1.00  0.00     0.018 C 
HETATM   22  C35 UNL     1      -3.465  45.138 -16.121  1.00  0.00     0.018 C 
ENDROOT
BRANCH  19  23
HETATM   23  O5  UNL     1      -5.195  43.299 -17.538  1.00  0.00    -0.353 OA
BRANCH  23  24
HETATM   24  C28 UNL     1      -4.703  41.995 -17.210  1.00  0.00     0.291 C 
HETATM   25  O6  UNL     1      -4.302  41.985 -15.833  1.00  0.00    -0.356 OA
HETATM   26  C29 UNL     1      -2.919  41.725 -15.615  1.00  0.00     0.205 C 
HETATM   27  C30 UNL     1      -2.538  40.390 -16.249  1.00  0.00     0.173 C 
HETATM   28  C31 UNL     1      -2.780  40.427 -17.766  1.00  0.00     0.182 C 
HETATM   29  C32 UNL     1      -3.575  41.655 -18.211  1.00  0.00     0.204 C 
BRANCH  27  30
HETATM   30  O7  UNL     1      -1.182  40.022 -15.978  1.00  0.00    -0.391 OA
HETATM   31  H46 UNL     1      -1.148  39.729 -15.051  1.00  0.00     0.210 HD
ENDBRANCH  27  30
BRANCH  28  32
HETATM   32  O8  UNL     1      -1.534  40.423 -18.486  1.00  0.00    -0.390 OA
HETATM   33  H48 UNL     1      -0.882  40.035 -17.863  1.00  0.00     0.210 HD
ENDBRANCH  28  32
BRANCH  29  34
HETATM   34  O9  UNL     1      -4.096  41.409 -19.528  1.00  0.00    -0.388 OA
HETATM   35  H50 UNL     1      -3.315  41.204 -20.077  1.00  0.00     0.210 HD
ENDBRANCH  29  34
ENDBRANCH  23  24
ENDBRANCH  19  23
BRANCH  13  36
HETATM   36  C21 UNL     1      -5.588  47.958 -21.818  1.00  0.00     0.173 C 
BRANCH  36  37
HETATM   37  O4  UNL     1      -6.114  47.355 -22.997  1.00  0.00    -0.400 OA
HETATM   38  H31 UNL     1      -7.088  47.383 -22.918  1.00  0.00     0.209 HD
ENDBRANCH  36  37
ENDBRANCH  13  36
BRANCH   1  39
HETATM   39  C2  UNL     1      -2.787  52.472 -23.561  1.00  0.00     0.000 C 
HETATM   40  C1  UNL     1      -3.904  51.884 -24.431  1.00  0.00     0.011 C 
BRANCH  39  41
HETATM   41  C3  UNL     1      -1.801  53.224 -24.492  1.00  0.00     0.083 C 
BRANCH  41  42
HETATM   42  C4  UNL     1      -1.123  52.317 -25.519  1.00  0.00     0.130 C 
HETATM   43  O1  UNL     1      -1.757  51.496 -26.188  1.00  0.00    -0.298 OA
BRANCH  42  44
HETATM   44  C5  UNL     1       0.386  52.464 -25.647  1.00  0.00     0.115 C 
BRANCH  44  45
HETATM   45  C6  UNL     1       1.035  51.533 -26.686  1.00  0.00     0.057 C 
HETATM   46  C7  UNL     1       2.562  51.480 -26.549  1.00  0.00     0.045 C 
HETATM   47  C8  UNL     1       0.667  52.016 -28.093  1.00  0.00     0.045 C 
BRANCH  45  48
HETATM   48  O2  UNL     1       0.510  50.208 -26.565  1.00  0.00    -0.390 OA
HETATM   49  H15 UNL     1       0.682  49.922 -25.642  1.00  0.00     0.210 HD
ENDBRANCH  45  48
ENDBRANCH  44  45
ENDBRANCH  42  44
ENDBRANCH  41  42
ENDBRANCH  39  41
ENDBRANCH   1  39
TORSDOF 13
ENDMDL
MODEL 5
REMARK minimizedAffinity -7.37752342
REMARK CNNscore 0.554714918
REMARK CNNaffinity 6.78414488
REMARK  13 active torsions:
REMARK  status: ('A' for Active; 'I' for Inactive)
REMARK    1  A    between atoms: C2_2  and  C3_3 
REMARK    2  A    between atoms: C2_2  and  C9_11 
REMARK    3  A    between atoms: C3_3  and  C4_4 
REMARK    4  A    between atoms: C4_4  and  C5_6 
REMARK    5  A    between atoms: C5_6  and  C6_7 
REMARK    6  A    between atoms: C6_7  and  O2_10 
REMARK    7  A    between atoms: C20_23  and  C21_24 
REMARK    8  A    between atoms: C21_24  and  O4_25 
REMARK    9  A    between atoms: C27_31  and  O5_32 
REMARK   10  A    between atoms: O5_32  and  C28_33 
REMARK   11  A    between atoms: C30_36  and  O7_37 
REMARK   12  A    between atoms: C31_38  and  O8_39 
REMARK   13  A    between atoms: C32_40  and  O9_41 
ROOT
HETATM    1  C9  UNL     1      -2.442  50.486 -21.773  1.00  0.00     0.068 C 
HETATM    2  C10 UNL     1      -1.288  51.424 -22.169  1.00  0.00     0.133 C 
HETATM    3  O3  UNL     1      -0.981  51.700 -23.323  1.00  0.00    -0.298 OA
HETATM    4  C11 UNL     1      -0.488  51.912 -20.978  1.00  0.00     0.089 C 
HETATM    5  C12 UNL     1      -0.850  50.851 -19.932  1.00  0.00    -0.022 C 
HETATM    6  C13 UNL     1       0.025  49.584 -20.251  1.00  0.00     0.017 C 
HETATM    7  C14 UNL     1      -0.623  51.276 -18.454  1.00  0.00     0.024 C 
HETATM    8  C15 UNL     1       0.841  51.681 -18.197  1.00  0.00     0.010 C 
HETATM    9  C16 UNL     1       1.051  51.955 -16.720  1.00  0.00     0.010 C 
HETATM   10  C17 UNL     1       0.803  50.683 -15.889  1.00  0.00     0.025 C 
HETATM   11  C18 UNL     1      -0.406  49.866 -16.376  1.00  0.00    -0.072 C 
HETATM   12  C19 UNL     1      -1.119  50.181 -17.493  1.00  0.00    -0.066 C 
HETATM   13  C20 UNL     1      -2.417  49.434 -17.887  1.00  0.00     0.039 C 
HETATM   14  C22 UNL     1      -2.818  49.403 -19.397  1.00  0.00     0.021 C 
HETATM   15  C23 UNL     1      -2.388  50.639 -20.205  1.00  0.00    -0.024 C 
HETATM   16  C24 UNL     1      -3.276  51.846 -19.788  1.00  0.00     0.017 C 
HETATM   17  C25 UNL     1      -0.670  48.634 -15.525  1.00  0.00     0.037 C 
HETATM   18  C26 UNL     1      -0.689  48.900 -14.028  1.00  0.00     0.037 C 
HETATM   19  C27 UNL     1       0.569  49.641 -13.577  1.00  0.00     0.133 C 
HETATM   20  C33 UNL     1       0.746  50.989 -14.345  1.00  0.00    -0.014 C 
HETATM   21  C34 UNL     1      -0.395  51.973 -13.984  1.00  0.00     0.018 C 
HETATM   22  C35 UNL     1       2.077  51.633 -13.879  1.00  0.00     0.018 C 
ENDROOT
BRANCH  19  23
HETATM   23  O5  UNL     1       0.517  49.894 -12.169  1.00  0.00    -0.353 OA
BRANCH  23  24
HETATM   24  C28 UNL     1      -0.770  49.685 -11.574  1.00  0.00     0.291 C 
HETATM   25  O6  UNL     1      -1.316  50.956 -11.196  1.00  0.00    -0.356 OA
HETATM   26  C29 UNL     1      -1.546  51.117  -9.800  1.00  0.00     0.205 C 
HETATM   27  C30 UNL     1      -2.473  50.013  -9.299  1.00  0.00     0.173 C 
HETATM   28  C31 UNL     1      -1.833  48.634  -9.519  1.00  0.00     0.182 C 
HETATM   29  C32 UNL     1      -0.589  48.690 -10.407  1.00  0.00     0.204 C 
BRANCH  27  30
HETATM   30  O7  UNL     1      -2.825  50.176  -7.921  1.00  0.00    -0.391 OA
HETATM   31  H46 UNL     1      -3.469  50.903  -7.878  1.00  0.00     0.210 HD
ENDBRANCH  27  30
BRANCH  28  32
HETATM   32  O8  UNL     1      -1.455  48.036  -8.265  1.00  0.00    -0.390 OA
HETATM   33  H48 UNL     1      -2.018  48.477  -7.593  1.00  0.00     0.210 HD
ENDBRANCH  28  32
BRANCH  29  34
HETATM   34  O9  UNL     1      -0.309  47.363 -10.884  1.00  0.00    -0.388 OA
HETATM   35  H50 UNL     1      -0.216  46.817 -10.079  1.00  0.00     0.210 HD
ENDBRANCH  29  34
ENDBRANCH  23  24
ENDBRANCH  19  23
BRANCH  13  36
HETATM   36  C21 UNL     1      -3.595  49.885 -16.992  1.00  0.00     0.173 C 
BRANCH  36  37
HETATM   37  O4  UNL     1      -3.298  51.140 -16.387  1.00  0.00    -0.400 OA
HETATM   38  H31 UNL     1      -4.074  51.383 -15.845  1.00  0.00     0.209 HD
ENDBRANCH  36  37
ENDBRANCH  13  36
BRANCH   1  39
HETATM   39  C2  UNL     1      -3.786  50.768 -22.510  1.00  0.00     0.000 C 
HETATM   40  C1  UNL     1      -4.398  52.094 -22.042  1.00  0.00     0.011 C 
BRANCH  39  41
HETATM   41  C3  UNL     1      -4.841  49.652 -22.296  1.00  0.00     0.083 C 
BRANCH  41  42
HETATM   42  C4  UNL     1      -5.163  48.868 -23.568  1.00  0.00     0.130 C 
HETATM   43  O1  UNL     1      -6.321  48.599 -23.897  1.00  0.00    -0.298 OA
BRANCH  42  44
HETATM   44  C5  UNL     1      -3.967  48.409 -24.390  1.00  0.00     0.115 C 
BRANCH  44  45
HETATM   45  C6  UNL     1      -3.804  49.130 -25.739  1.00  0.00     0.057 C 
HETATM   46  C7  UNL     1      -4.565  48.427 -26.872  1.00  0.00     0.045 C 
HETATM   47  C8  UNL     1      -2.315  49.201 -26.095  1.00  0.00     0.045 C 
BRANCH  45  48
HETATM   48  O2  UNL     1      -4.260  50.482 -25.642  1.00  0.00    -0.390 OA
HETATM   49  H15 UNL     1      -5.194  50.442 -25.345  1.00  0.00     0.210 HD
ENDBRANCH  45  48
ENDBRANCH  44  45
ENDBRANCH  42  44
ENDBRANCH  41  42
ENDBRANCH  39  41
ENDBRANCH   1  39
TORSDOF 13
ENDMDL
MODEL 6
REMARK minimizedAffinity -8.61868954
REMARK CNNscore 0.54464519
REMARK CNNaffinity 6.64974737
REMARK  13 active torsions:
REMARK  status: ('A' for Active; 'I' for Inactive)
REMARK    1  A    between atoms: C2_2  and  C3_3 
REMARK    2  A    between atoms: C2_2  and  C9_11 
REMARK    3  A    between atoms: C3_3  and  C4_4 
REMARK    4  A    between atoms: C4_4  and  C5_6 
REMARK    5  A    between atoms: C5_6  and  C6_7 
REMARK    6  A    between atoms: C6_7  and  O2_10 
REMARK    7  A    between atoms: C20_23  and  C21_24 
REMARK    8  A    between atoms: C21_24  and  O4_25 
REMARK    9  A    between atoms: C27_31  and  O5_32 
REMARK   10  A    between atoms: O5_32  and  C28_33 
REMARK   11  A    between atoms: C30_36  and  O7_37 
REMARK   12  A    between atoms: C31_38  and  O8_39 
REMARK   13  A    between atoms: C32_40  and  O9_41 
ROOT
HETATM    1  C9  UNL     1      -7.008  47.550 -30.147  1.00  0.00     0.068 C 
HETATM    2  C10 UNL     1      -6.542  46.137 -30.541  1.00  0.00     0.133 C 
HETATM    3  O3  UNL     1      -5.576  45.899 -31.258  1.00  0.00    -0.298 OA
HETATM    4  C11 UNL     1      -7.461  45.047 -30.029  1.00  0.00     0.089 C 
HETATM    5  C12 UNL     1      -8.745  45.847 -29.778  1.00  0.00    -0.022 C 
HETATM    6  C13 UNL     1      -9.436  46.046 -31.176  1.00  0.00     0.017 C 
HETATM    7  C14 UNL     1      -9.753  45.186 -28.795  1.00  0.00     0.024 C 
HETATM    8  C15 UNL     1     -10.180  43.785 -29.274  1.00  0.00     0.010 C 
HETATM    9  C16 UNL     1     -11.262  43.235 -28.365  1.00  0.00     0.010 C 
HETATM   10  C17 UNL     1     -12.523  44.115 -28.423  1.00  0.00     0.025 C 
HETATM   11  C18 UNL     1     -12.211  45.622 -28.457  1.00  0.00    -0.072 C 
HETATM   12  C19 UNL     1     -10.947  46.120 -28.534  1.00  0.00    -0.066 C 
HETATM   13  C20 UNL     1     -10.644  47.635 -28.422  1.00  0.00     0.039 C 
HETATM   14  C22 UNL     1      -9.349  48.179 -29.106  1.00  0.00     0.021 C 
HETATM   15  C23 UNL     1      -8.180  47.181 -29.159  1.00  0.00    -0.024 C 
HETATM   16  C24 UNL     1      -7.594  47.015 -27.727  1.00  0.00     0.017 C 
HETATM   17  C25 UNL     1     -13.463  46.485 -28.473  1.00  0.00     0.037 C 
HETATM   18  C26 UNL     1     -14.496  46.109 -27.423  1.00  0.00     0.037 C 
HETATM   19  C27 UNL     1     -14.835  44.621 -27.480  1.00  0.00     0.133 C 
HETATM   20  C33 UNL     1     -13.561  43.736 -27.300  1.00  0.00    -0.014 C 
HETATM   21  C34 UNL     1     -12.975  43.911 -25.877  1.00  0.00     0.018 C 
HETATM   22  C35 UNL     1     -13.985  42.252 -27.446  1.00  0.00     0.018 C 
ENDROOT
BRANCH  19  23
HETATM   23  O5  UNL     1     -15.794  44.291 -26.470  1.00  0.00    -0.353 OA
BRANCH  23  24
HETATM   24  C28 UNL     1     -17.160  44.450 -26.873  1.00  0.00     0.291 C 
HETATM   25  O6  UNL     1     -18.011  44.060 -25.786  1.00  0.00    -0.356 OA
HETATM   26  C29 UNL     1     -18.859  42.950 -26.059  1.00  0.00     0.205 C 
HETATM   27  C30 UNL     1     -19.725  43.249 -27.280  1.00  0.00     0.173 C 
HETATM   28  C31 UNL     1     -18.845  43.489 -28.516  1.00  0.00     0.182 C 
HETATM   29  C32 UNL     1     -17.362  43.637 -28.171  1.00  0.00     0.204 C 
BRANCH  27  30
HETATM   30  O7  UNL     1     -20.673  42.211 -27.547  1.00  0.00    -0.391 OA
HETATM   31  H46 UNL     1     -21.375  42.291 -26.879  1.00  0.00     0.210 HD
ENDBRANCH  27  30
BRANCH  28  32
HETATM   32  O8  UNL     1     -18.974  42.408 -29.458  1.00  0.00    -0.390 OA
HETATM   33  H48 UNL     1     -19.839  41.993 -29.251  1.00  0.00     0.210 HD
ENDBRANCH  28  32
BRANCH  29  34
HETATM   34  O9  UNL     1     -16.693  44.250 -29.286  1.00  0.00    -0.388 OA
HETATM   35  H50 UNL     1     -16.882  43.669 -30.048  1.00  0.00     0.210 HD
ENDBRANCH  29  34
ENDBRANCH  23  24
ENDBRANCH  19  23
BRANCH  13  36
HETATM   36  C21 UNL     1     -10.753  48.102 -26.951  1.00  0.00     0.173 C 
BRANCH  36  37
HETATM   37  O4  UNL     1     -11.764  49.099 -26.828  1.00  0.00    -0.400 OA
HETATM   38  H31 UNL     1     -11.800  49.350 -25.885  1.00  0.00     0.209 HD
ENDBRANCH  36  37
ENDBRANCH  13  36
BRANCH   1  39
HETATM   39  C2  UNL     1      -5.871  48.490 -29.646  1.00  0.00     0.000 C 
HETATM   40  C1  UNL     1      -5.068  49.054 -30.826  1.00  0.00     0.011 C 
BRANCH  39  41
HETATM   41  C3  UNL     1      -4.877  47.785 -28.687  1.00  0.00     0.083 C 
BRANCH  41  42
HETATM   42  C4  UNL     1      -3.961  48.754 -27.940  1.00  0.00     0.130 C 
HETATM   43  O1  UNL     1      -3.666  49.861 -28.397  1.00  0.00    -0.298 OA
BRANCH  42  44
HETATM   44  C5  UNL     1      -3.409  48.259 -26.611  1.00  0.00     0.115 C 
BRANCH  44  45
HETATM   45  C6  UNL     1      -3.999  48.957 -25.373  1.00  0.00     0.057 C 
HETATM   46  C7  UNL     1      -3.086  48.839 -24.145  1.00  0.00     0.045 C 
HETATM   47  C8  UNL     1      -5.365  48.342 -25.052  1.00  0.00     0.045 C 
BRANCH  45  48
HETATM   48  O2  UNL     1      -4.235  50.342 -25.645  1.00  0.00    -0.390 OA
HETATM   49  H15 UNL     1      -3.374  50.724 -25.920  1.00  0.00     0.210 HD
ENDBRANCH  45  48
ENDBRANCH  44  45
ENDBRANCH  42  44
ENDBRANCH  41  42
ENDBRANCH  39  41
ENDBRANCH   1  39
TORSDOF 13
ENDMDL
MODEL 7
REMARK minimizedAffinity -7.93325472
REMARK CNNscore 0.531264484
REMARK CNNaffinity 6.20812464
REMARK  13 active torsions:
REMARK  status: ('A' for Active; 'I' for Inactive)
REMARK    1  A    between atoms: C2_2  and  C3_3 
REMARK    2  A    between atoms: C2_2  and  C9_11 
REMARK    3  A    between atoms: C3_3  and  C4_4 
REMARK    4  A    between atoms: C4_4  and  C5_6 
REMARK    5  A    between atoms: C5_6  and  C6_7 
REMARK    6  A    between atoms: C6_7  and  O2_10 
REMARK    7  A    between atoms: C20_23  and  C21_24 
REMARK    8  A    between atoms: C21_24  and  O4_25 
REMARK    9  A    between atoms: C27_31  and  O5_32 
REMARK   10  A    between atoms: O5_32  and  C28_33 
REMARK   11  A    between atoms: C30_36  and  O7_37 
REMARK   12  A    between atoms: C31_38  and  O8_39 
REMARK   13  A    between atoms: C32_40  and  O9_41 
ROOT
HETATM    1  C9  UNL     1     -18.198  44.103 -24.231  1.00  0.00     0.068 C 
HETATM    2  C10 UNL     1     -18.831  43.853 -25.611  1.00  0.00     0.133 C 
HETATM    3  O3  UNL     1     -19.859  43.213 -25.798  1.00  0.00    -0.298 OA
HETATM    4  C11 UNL     1     -17.997  44.401 -26.751  1.00  0.00     0.089 C 
HETATM    5  C12 UNL     1     -16.625  44.514 -26.077  1.00  0.00    -0.022 C 
HETATM    6  C13 UNL     1     -16.008  43.068 -26.059  1.00  0.00     0.017 C 
HETATM    7  C14 UNL     1     -15.629  45.490 -26.765  1.00  0.00     0.024 C 
HETATM    8  C15 UNL     1     -15.379  45.105 -28.235  1.00  0.00     0.010 C 
HETATM    9  C16 UNL     1     -14.303  45.995 -28.828  1.00  0.00     0.010 C 
HETATM   10  C17 UNL     1     -12.964  45.794 -28.095  1.00  0.00     0.025 C 
HETATM   11  C18 UNL     1     -13.122  45.654 -26.571  1.00  0.00    -0.072 C 
HETATM   12  C19 UNL     1     -14.331  45.607 -25.947  1.00  0.00    -0.066 C 
HETATM   13  C20 UNL     1     -14.470  45.611 -24.405  1.00  0.00     0.039 C 
HETATM   14  C22 UNL     1     -15.744  44.958 -23.779  1.00  0.00     0.021 C 
HETATM   15  C23 UNL     1     -17.010  45.051 -24.647  1.00  0.00    -0.024 C 
HETATM   16  C24 UNL     1     -17.516  46.522 -24.640  1.00  0.00     0.017 C 
HETATM   17  C25 UNL     1     -11.792  45.498 -25.849  1.00  0.00     0.037 C 
HETATM   18  C26 UNL     1     -10.739  46.517 -26.253  1.00  0.00     0.037 C 
HETATM   19  C27 UNL     1     -10.558  46.563 -27.769  1.00  0.00     0.133 C 
HETATM   20  C33 UNL     1     -11.901  46.885 -28.497  1.00  0.00    -0.014 C 
HETATM   21  C34 UNL     1     -12.375  48.319 -28.152  1.00  0.00     0.018 C 
HETATM   22  C35 UNL     1     -11.642  46.839 -30.024  1.00  0.00     0.018 C 
ENDROOT
BRANCH  19  23
HETATM   23  O5  UNL     1      -9.574  47.541 -28.122  1.00  0.00    -0.353 OA
BRANCH  23  24
HETATM   24  C28 UNL     1      -8.903  47.289 -29.362  1.00  0.00     0.291 C 
HETATM   25  O6  UNL     1      -8.232  46.025 -29.276  1.00  0.00    -0.356 OA
HETATM   26  C29 UNL     1      -6.815  46.089 -29.402  1.00  0.00     0.205 C 
HETATM   27  C30 UNL     1      -6.444  46.755 -30.725  1.00  0.00     0.173 C 
HETATM   28  C31 UNL     1      -6.991  48.190 -30.776  1.00  0.00     0.182 C 
HETATM   29  C32 UNL     1      -7.974  48.492 -29.644  1.00  0.00     0.204 C 
BRANCH  27  30
HETATM   30  O7  UNL     1      -5.033  46.760 -30.959  1.00  0.00    -0.391 OA
HETATM   31  H46 UNL     1      -4.784  45.853 -31.206  1.00  0.00     0.210 HD
ENDBRANCH  27  30
BRANCH  28  32
HETATM   32  O8  UNL     1      -5.922  49.151 -30.701  1.00  0.00    -0.390 OA
HETATM   33  H48 UNL     1      -5.124  48.666 -31.003  1.00  0.00     0.210 HD
ENDBRANCH  28  32
BRANCH  29  34
HETATM   34  O9  UNL     1      -8.725  49.667 -29.993  1.00  0.00    -0.388 OA
HETATM   35  H50 UNL     1      -8.056  50.359 -30.152  1.00  0.00     0.210 HD
ENDBRANCH  29  34
ENDBRANCH  23  24
ENDBRANCH  19  23
BRANCH  13  36
HETATM   36  C21 UNL     1     -14.220  47.030 -23.841  1.00  0.00     0.173 C 
BRANCH  36  37
HETATM   37  O4  UNL     1     -12.983  47.065 -23.134  1.00  0.00    -0.400 OA
HETATM   38  H31 UNL     1     -12.869  47.980 -22.810  1.00  0.00     0.209 HD
ENDBRANCH  36  37
ENDBRANCH  13  36
BRANCH   1  39
HETATM   39  C2  UNL     1     -19.200  44.587 -23.139  1.00  0.00     0.000 C 
HETATM   40  C1  UNL     1     -18.469  44.904 -21.828  1.00  0.00     0.011 C 
BRANCH  39  41
HETATM   41  C3  UNL     1     -20.309  43.549 -22.829  1.00  0.00     0.083 C 
BRANCH  41  42
HETATM   42  C4  UNL     1     -20.456  43.243 -21.338  1.00  0.00     0.130 C 
HETATM   43  O1  UNL     1     -20.438  44.131 -20.482  1.00  0.00    -0.298 OA
BRANCH  42  44
HETATM   44  C5  UNL     1     -20.595  41.773 -20.970  1.00  0.00     0.115 C 
BRANCH  44  45
HETATM   45  C6  UNL     1     -21.912  41.413 -20.261  1.00  0.00     0.057 C 
HETATM   46  C7  UNL     1     -21.679  40.774 -18.886  1.00  0.00     0.045 C 
HETATM   47  C8  UNL     1     -22.709  40.445 -21.143  1.00  0.00     0.045 C 
BRANCH  45  48
HETATM   48  O2  UNL     1     -22.728  42.577 -20.102  1.00  0.00    -0.390 OA
HETATM   49  H15 UNL     1     -22.193  43.227 -19.597  1.00  0.00     0.210 HD
ENDBRANCH  45  48
ENDBRANCH  44  45
ENDBRANCH  42  44
ENDBRANCH  41  42
ENDBRANCH  39  41
ENDBRANCH   1  39
TORSDOF 13
ENDMDL
MODEL 8
REMARK minimizedAffinity -7.61582327
REMARK CNNscore 0.510691941
REMARK CNNaffinity 6.87535906
REMARK  13 active torsions:
REMARK  status: ('A' for Active; 'I' for Inactive)
REMARK    1  A    between atoms: C2_2  and  C3_3 
REMARK    2  A    between atoms: C2_2  and  C9_11 
REMARK    3  A    between atoms: C3_3  and  C4_4 
REMARK    4  A    between atoms: C4_4  and  C5_6 
REMARK    5  A    between atoms: C5_6  and  C6_7 
REMARK    6  A    between atoms: C6_7  and  O2_10 
REMARK    7  A    between atoms: C20_23  and  C21_24 
REMARK    8  A    between atoms: C21_24  and  O4_25 
REMARK    9  A    between atoms: C27_31  and  O5_32 
REMARK   10  A    between atoms: O5_32  and  C28_33 
REMARK   11  A    between atoms: C30_36  and  O7_37 
REMARK   12  A    between atoms: C31_38  and  O8_39 
REMARK   13  A    between atoms: C32_40  and  O9_41 
ROOT
HETATM    1  C9  UNL     1      -1.438  50.026 -22.730  1.00  0.00     0.068 C 
HETATM    2  C10 UNL     1      -0.994  49.908 -21.262  1.00  0.00     0.133 C 
HETATM    3  O3  UNL     1       0.144  50.125 -20.860  1.00  0.00    -0.298 OA
HETATM    4  C11 UNL     1      -2.092  49.397 -20.352  1.00  0.00     0.089 C 
HETATM    5  C12 UNL     1      -3.020  48.723 -21.369  1.00  0.00    -0.022 C 
HETATM    6  C13 UNL     1      -2.381  47.327 -21.710  1.00  0.00     0.017 C 
HETATM    7  C14 UNL     1      -4.485  48.516 -20.892  1.00  0.00     0.024 C 
HETATM    8  C15 UNL     1      -4.549  47.679 -19.599  1.00  0.00     0.010 C 
HETATM    9  C16 UNL     1      -5.994  47.386 -19.244  1.00  0.00     0.010 C 
HETATM   10  C17 UNL     1      -6.664  46.538 -20.341  1.00  0.00     0.025 C 
HETATM   11  C18 UNL     1      -6.273  46.970 -21.765  1.00  0.00    -0.072 C 
HETATM   12  C19 UNL     1      -5.347  47.934 -22.025  1.00  0.00    -0.066 C 
HETATM   13  C20 UNL     1      -5.073  48.456 -23.457  1.00  0.00     0.039 C 
HETATM   14  C22 UNL     1      -3.662  49.054 -23.763  1.00  0.00     0.021 C 
HETATM   15  C23 UNL     1      -2.980  49.743 -22.570  1.00  0.00    -0.024 C 
HETATM   16  C24 UNL     1      -3.708  51.087 -22.281  1.00  0.00     0.017 C 
HETATM   17  C25 UNL     1      -6.970  46.155 -22.843  1.00  0.00     0.037 C 
HETATM   18  C26 UNL     1      -8.471  46.015 -22.648  1.00  0.00     0.037 C 
HETATM   19  C27 UNL     1      -8.808  45.506 -21.248  1.00  0.00     0.133 C 
HETATM   20  C33 UNL     1      -8.224  46.441 -20.143  1.00  0.00    -0.014 C 
HETATM   21  C34 UNL     1      -8.907  47.830 -20.190  1.00  0.00     0.018 C 
HETATM   22  C35 UNL     1      -8.548  45.813 -18.764  1.00  0.00     0.018 C 
ENDROOT
BRANCH  19  23
HETATM   23  O5  UNL     1     -10.227  45.401 -21.087  1.00  0.00    -0.353 OA
BRANCH  23  24
HETATM   24  C28 UNL     1     -10.730  44.060 -21.105  1.00  0.00     0.291 C 
HETATM   25  O6  UNL     1      -9.629  43.151 -20.973  1.00  0.00    -0.356 OA
HETATM   26  C29 UNL     1      -9.436  42.280 -22.082  1.00  0.00     0.205 C 
HETATM   27  C30 UNL     1     -10.709  41.478 -22.337  1.00  0.00     0.173 C 
HETATM   28  C31 UNL     1     -11.878  42.417 -22.669  1.00  0.00     0.182 C 
HETATM   29  C32 UNL     1     -11.554  43.888 -22.401  1.00  0.00     0.204 C 
BRANCH  27  30
HETATM   30  O7  UNL     1     -10.548  40.509 -23.377  1.00  0.00    -0.391 OA
HETATM   31  H46 UNL     1     -10.019  39.781 -23.007  1.00  0.00     0.210 HD
ENDBRANCH  27  30
BRANCH  28  32
HETATM   32  O8  UNL     1     -12.261  42.294 -24.051  1.00  0.00    -0.390 OA
HETATM   33  H48 UNL     1     -11.940  41.408 -24.325  1.00  0.00     0.210 HD
ENDBRANCH  28  32
BRANCH  29  34
HETATM   34  O9  UNL     1     -12.788  44.623 -22.342  1.00  0.00    -0.388 OA
HETATM   35  H50 UNL     1     -13.229  44.449 -23.195  1.00  0.00     0.210 HD
ENDBRANCH  29  34
ENDBRANCH  23  24
ENDBRANCH  19  23
BRANCH  13  36
HETATM   36  C21 UNL     1      -6.207  49.401 -23.917  1.00  0.00     0.173 C 
BRANCH  36  37
HETATM   37  O4  UNL     1      -6.886  49.938 -22.786  1.00  0.00    -0.400 OA
HETATM   38  H31 UNL     1      -7.581  50.533 -23.129  1.00  0.00     0.209 HD
ENDBRANCH  36  37
ENDBRANCH  13  36
BRANCH   1  39
HETATM   39  C2  UNL     1      -0.984  51.337 -23.440  1.00  0.00     0.000 C 
HETATM   40  C1  UNL     1      -0.707  52.445 -22.417  1.00  0.00     0.011 C 
BRANCH  39  41
HETATM   41  C3  UNL     1      -2.029  51.872 -24.453  1.00  0.00     0.083 C 
BRANCH  41  42
HETATM   42  C4  UNL     1      -1.743  51.459 -25.897  1.00  0.00     0.130 C 
HETATM   43  O1  UNL     1      -2.629  51.420 -26.755  1.00  0.00    -0.298 OA
BRANCH  42  44
HETATM   44  C5  UNL     1      -0.305  51.069 -26.207  1.00  0.00     0.115 C 
BRANCH  44  45
HETATM   45  C6  UNL     1       0.410  51.998 -27.204  1.00  0.00     0.057 C 
HETATM   46  C7  UNL     1       1.919  51.727 -27.275  1.00  0.00     0.045 C 
HETATM   47  C8  UNL     1       0.174  53.455 -26.791  1.00  0.00     0.045 C 
BRANCH  45  48
HETATM   48  O2  UNL     1      -0.152  51.855 -28.512  1.00  0.00    -0.390 OA
HETATM   49  H15 UNL     1      -0.066  50.907 -28.751  1.00  0.00     0.210 HD
ENDBRANCH  45  48
ENDBRANCH  44  45
ENDBRANCH  42  44
ENDBRANCH  41  42
ENDBRANCH  39  41
ENDBRANCH   1  39
TORSDOF 13
ENDMDL
MODEL 9
REMARK minimizedAffinity -8.87229061
REMARK CNNscore 0.506284297
REMARK CNNaffinity 7.09837103
REMARK  13 active torsions:
REMARK  status: ('A' for Active; 'I' for Inactive)
REMARK    1  A    between atoms: C2_2  and  C3_3 
REMARK    2  A    between atoms: C2_2  and  C9_11 
REMARK    3  A    between atoms: C3_3  and  C4_4 
REMARK    4  A    between atoms: C4_4  and  C5_6 
REMARK    5  A    between atoms: C5_6  and  C6_7 
REMARK    6  A    between atoms: C6_7  and  O2_10 
REMARK    7  A    between atoms: C20_23  and  C21_24 
REMARK    8  A    between atoms: C21_24  and  O4_25 
REMARK    9  A    between atoms: C27_31  and  O5_32 
REMARK   10  A    between atoms: O5_32  and  C28_33 
REMARK   11  A    between atoms: C30_36  and  O7_37 
REMARK   12  A    between atoms: C31_38  and  O8_39 
REMARK   13  A    between atoms: C32_40  and  O9_41 
ROOT
HETATM    1  C9  UNL     1      -0.782  51.722 -22.352  1.00  0.00     0.068 C 
HETATM    2  C10 UNL     1      -0.530  52.303 -20.949  1.00  0.00     0.133 C 
HETATM    3  O3  UNL     1       0.289  53.179 -20.696  1.00  0.00    -0.298 OA
HETATM    4  C11 UNL     1      -1.339  51.612 -19.870  1.00  0.00     0.089 C 
HETATM    5  C12 UNL     1      -1.673  50.286 -20.564  1.00  0.00    -0.022 C 
HETATM    6  C13 UNL     1      -0.389  49.384 -20.457  1.00  0.00     0.017 C 
HETATM    7  C14 UNL     1      -2.891  49.521 -19.975  1.00  0.00     0.024 C 
HETATM    8  C15 UNL     1      -2.699  49.211 -18.478  1.00  0.00     0.010 C 
HETATM    9  C16 UNL     1      -3.841  48.349 -17.977  1.00  0.00     0.010 C 
HETATM   10  C17 UNL     1      -3.857  46.990 -18.700  1.00  0.00     0.025 C 
HETATM   11  C18 UNL     1      -3.551  47.100 -20.205  1.00  0.00    -0.072 C 
HETATM   12  C19 UNL     1      -3.199  48.267 -20.811  1.00  0.00    -0.066 C 
HETATM   13  C20 UNL     1      -3.037  48.388 -22.346  1.00  0.00     0.039 C 
HETATM   14  C22 UNL     1      -2.081  49.493 -22.900  1.00  0.00     0.021 C 
HETATM   15  C23 UNL     1      -1.988  50.760 -22.033  1.00  0.00    -0.024 C 
HETATM   16  C24 UNL     1      -3.316  51.559 -22.168  1.00  0.00     0.017 C 
HETATM   17  C25 UNL     1      -3.609  45.759 -20.920  1.00  0.00     0.037 C 
HETATM   18  C26 UNL     1      -4.856  44.943 -20.618  1.00  0.00     0.037 C 
HETATM   19  C27 UNL     1      -5.074  44.791 -19.114  1.00  0.00     0.133 C 
HETATM   20  C33 UNL     1      -5.176  46.179 -18.407  1.00  0.00    -0.014 C 
HETATM   21  C34 UNL     1      -6.444  46.935 -18.875  1.00  0.00     0.018 C 
HETATM   22  C35 UNL     1      -5.321  45.932 -16.884  1.00  0.00     0.018 C 
ENDROOT
BRANCH  19  23
HETATM   23  O5  UNL     1      -6.262  44.035 -18.859  1.00  0.00    -0.353 OA
BRANCH  23  24
HETATM   24  C28 UNL     1      -6.032  42.664 -18.515  1.00  0.00     0.291 C 
HETATM   25  O6  UNL     1      -4.868  42.585 -17.680  1.00  0.00    -0.356 OA
HETATM   26  C29 UNL     1      -3.791  41.832 -18.227  1.00  0.00     0.205 C 
HETATM   27  C30 UNL     1      -4.261  40.417 -18.552  1.00  0.00     0.173 C 
HETATM   28  C31 UNL     1      -5.391  40.452 -19.592  1.00  0.00     0.182 C 
HETATM   29  C32 UNL     1      -5.935  41.861 -19.831  1.00  0.00     0.204 C 
BRANCH  27  30
HETATM   30  O7  UNL     1      -3.197  39.578 -19.011  1.00  0.00    -0.391 OA
HETATM   31  H46 UNL     1      -2.659  39.351 -18.233  1.00  0.00     0.210 HD
ENDBRANCH  27  30
BRANCH  28  32
HETATM   32  O8  UNL     1      -4.943  39.930 -20.856  1.00  0.00    -0.390 OA
HETATM   33  H48 UNL     1      -4.173  39.362 -20.637  1.00  0.00     0.210 HD
ENDBRANCH  28  32
BRANCH  29  34
HETATM   34  O9  UNL     1      -7.214  41.752 -20.477  1.00  0.00    -0.388 OA
HETATM   35  H50 UNL     1      -7.048  41.232 -21.287  1.00  0.00     0.210 HD
ENDBRANCH  29  34
ENDBRANCH  23  24
ENDBRANCH  19  23
BRANCH  13  36
HETATM   36  C21 UNL     1      -4.421  48.431 -23.037  1.00  0.00     0.173 C 
BRANCH  36  37
HETATM   37  O4  UNL     1      -4.550  49.627 -23.799  1.00  0.00    -0.400 OA
HETATM   38  H31 UNL     1      -5.431  49.600 -24.221  1.00  0.00     0.209 HD
ENDBRANCH  36  37
ENDBRANCH  13  36
BRANCH   1  39
HETATM   39  C2  UNL     1      -0.949  52.791 -23.474  1.00  0.00     0.000 C 
HETATM   40  C1  UNL     1      -2.010  52.354 -24.492  1.00  0.00     0.011 C 
BRANCH  39  41
HETATM   41  C3  UNL     1       0.367  53.072 -24.246  1.00  0.00     0.083 C 
BRANCH  41  42
HETATM   42  C4  UNL     1       0.170  53.944 -25.486  1.00  0.00     0.130 C 
HETATM   43  O1  UNL     1       0.303  55.170 -25.452  1.00  0.00    -0.298 OA
BRANCH  42  44
HETATM   44  C5  UNL     1      -0.232  53.213 -26.759  1.00  0.00     0.115 C 
BRANCH  44  45
HETATM   45  C6  UNL     1       0.772  52.145 -27.227  1.00  0.00     0.057 C 
HETATM   46  C7  UNL     1       0.807  52.007 -28.755  1.00  0.00     0.045 C 
HETATM   47  C8  UNL     1       0.400  50.796 -26.603  1.00  0.00     0.045 C 
BRANCH  45  48
HETATM   48  O2  UNL     1       2.087  52.456 -26.758  1.00  0.00    -0.390 OA
HETATM   49  H15 UNL     1       2.302  53.351 -27.098  1.00  0.00     0.210 HD
ENDBRANCH  45  48
ENDBRANCH  44  45
ENDBRANCH  42  44
ENDBRANCH  41  42
ENDBRANCH  39  41
ENDBRANCH   1  39
TORSDOF 13
ENDMDL
