MODEL 1
REMARK minimizedAffinity -8.0213728
REMARK  3 active torsions:
REMARK  status: ('A' for Active; 'I' for Inactive)
REMARK    1  A    between atoms: C2_2  and  C3_3 
REMARK    2  A    between atoms: C3_3  and  C4_4 
REMARK    3  A    between atoms: C4_4  and  O1_5 
ROOT
HETATM    1  C3  UNL     1      -1.857   6.399  13.382  1.00  0.00     0.017 C 
HETATM    2  C5  UNL     1      -1.078   7.739  13.084  1.00  0.00     0.016 C 
HETATM    3  C6  UNL     1      -1.958   8.974  12.878  1.00  0.00     0.031 C 
HETATM    4  C7  UNL     1      -3.244   8.909  13.683  1.00  0.00     0.273 C 
HETATM    5  N1  UNL     1      -4.063   7.748  13.338  1.00  0.00     0.100 N 
HETATM    6  C8  UNL     1      -4.989   7.409  14.443  1.00  0.00     0.278 C 
HETATM    7  C9  UNL     1      -6.054   6.354  14.084  1.00  0.00     0.072 C 
HETATM    8  C10 UNL     1      -5.459   5.259  13.280  1.00  0.00    -0.019 A 
HETATM    9  C11 UNL     1      -4.214   5.391  12.697  1.00  0.00     0.051 A 
HETATM   10  N2  UNL     1      -4.030   4.294  11.897  1.00  0.00    -0.357 N 
HETATM   11  C12 UNL     1      -5.076   3.409  12.043  1.00  0.00     0.043 A 
HETATM   12  C13 UNL     1      -5.281   2.152  11.462  1.00  0.00     0.030 A 
HETATM   13  C14 UNL     1      -6.467   1.480  11.775  1.00  0.00     0.002 A 
HETATM   14  C15 UNL     1      -7.410   2.048  12.628  1.00  0.00     0.001 A 
HETATM   15  C16 UNL     1      -7.190   3.308  13.197  1.00  0.00     0.014 A 
HETATM   16  C17 UNL     1      -5.998   3.998  12.908  1.00  0.00    -0.001 A 
HETATM   17  C18 UNL     1      -3.304   6.587  12.781  1.00  0.00     0.283 C 
HETATM   18  H19 UNL     1      -3.235   4.133  11.297  1.00  0.00     0.166 HD
ENDROOT
BRANCH   1  19
HETATM   19  C2  UNL     1      -1.030   5.275  12.653  1.00  0.00     0.010 C 
HETATM   20  C1  UNL     1      -0.606   5.496  11.205  1.00  0.00     0.006 C 
ENDBRANCH   1  19
BRANCH   1  21
HETATM   21  C4  UNL     1      -1.819   6.175  14.918  1.00  0.00     0.176 C 
BRANCH  21  22
HETATM   22  O1  UNL     1      -0.615   5.579  15.367  1.00  0.00    -0.400 OA
HETATM   23  H8  UNL     1      -0.687   5.452  16.327  1.00  0.00     0.209 HD
ENDBRANCH  21  22
ENDBRANCH   1  21
TORSDOF 3
ENDMDL
MODEL 2
REMARK minimizedAffinity -7.5355444
REMARK  3 active torsions:
REMARK  status: ('A' for Active; 'I' for Inactive)
REMARK    1  A    between atoms: C2_2  and  C3_3 
REMARK    2  A    between atoms: C3_3  and  C4_4 
REMARK    3  A    between atoms: C4_4  and  O1_5 
ROOT
HETATM    1  C3  UNL     1      -6.882   6.398  14.969  1.00  0.00     0.017 C 
HETATM    2  C5  UNL     1      -8.184   7.289  15.024  1.00  0.00     0.016 C 
HETATM    3  C6  UNL     1      -9.129   7.138  13.829  1.00  0.00     0.031 C 
HETATM    4  C7  UNL     1      -9.089   5.742  13.232  1.00  0.00     0.273 C 
HETATM    5  N1  UNL     1      -7.755   5.372  12.761  1.00  0.00     0.100 N 
HETATM    6  C8  UNL     1      -7.610   3.900  12.691  1.00  0.00     0.278 C 
HETATM    7  C9  UNL     1      -6.329   3.417  11.983  1.00  0.00     0.072 C 
HETATM    8  C10 UNL     1      -5.162   4.238  12.388  1.00  0.00    -0.019 A 
HETATM    9  C11 UNL     1      -5.326   5.442  13.045  1.00  0.00     0.051 A 
HETATM   10  N2  UNL     1      -4.087   6.024  13.123  1.00  0.00    -0.357 N 
HETATM   11  C12 UNL     1      -3.121   5.171  12.636  1.00  0.00     0.043 A 
HETATM   12  C13 UNL     1      -1.731   5.329  12.565  1.00  0.00     0.030 A 
HETATM   13  C14 UNL     1      -0.991   4.294  11.986  1.00  0.00     0.002 A 
HETATM   14  C15 UNL     1      -1.619   3.153  11.490  1.00  0.00     0.001 A 
HETATM   15  C16 UNL     1      -3.009   3.013  11.566  1.00  0.00     0.014 A 
HETATM   16  C17 UNL     1      -3.775   4.036  12.158  1.00  0.00    -0.001 A 
HETATM   17  C18 UNL     1      -6.629   6.079  13.444  1.00  0.00     0.283 C 
HETATM   18  H19 UNL     1      -3.892   6.938  13.503  1.00  0.00     0.166 HD
ENDROOT
BRANCH   1  19
HETATM   19  C2  UNL     1      -5.752   7.287  15.608  1.00  0.00     0.010 C 
HETATM   20  C1  UNL     1      -5.665   8.759  15.217  1.00  0.00     0.006 C 
ENDBRANCH   1  19
BRANCH   1  21
HETATM   21  C4  UNL     1      -7.141   5.149  15.855  1.00  0.00     0.176 C 
BRANCH  21  22
HETATM   22  O1  UNL     1      -8.505   4.978  16.197  1.00  0.00    -0.400 OA
HETATM   23  H8  UNL     1      -8.572   4.196  16.769  1.00  0.00     0.209 HD
ENDBRANCH  21  22
ENDBRANCH   1  21
TORSDOF 3
ENDMDL
MODEL 3
REMARK minimizedAffinity -7.53172112
REMARK  3 active torsions:
REMARK  status: ('A' for Active; 'I' for Inactive)
REMARK    1  A    between atoms: C2_2  and  C3_3 
REMARK    2  A    between atoms: C3_3  and  C4_4 
REMARK    3  A    between atoms: C4_4  and  O1_5 
ROOT
HETATM    1  C3  UNL     1      -7.325   6.516  14.572  1.00  0.00     0.017 C 
HETATM    2  C5  UNL     1      -8.850   6.607  14.173  1.00  0.00     0.016 C 
HETATM    3  C6  UNL     1      -9.239   5.846  12.903  1.00  0.00     0.031 C 
HETATM    4  C7  UNL     1      -8.384   4.610  12.685  1.00  0.00     0.273 C 
HETATM    5  N1  UNL     1      -6.962   4.926  12.565  1.00  0.00     0.100 N 
HETATM    6  C8  UNL     1      -6.130   3.743  12.886  1.00  0.00     0.278 C 
HETATM    7  C9  UNL     1      -4.632   3.907  12.559  1.00  0.00     0.072 C 
HETATM    8  C10 UNL     1      -4.153   5.254  12.951  1.00  0.00    -0.019 A 
HETATM    9  C11 UNL     1      -5.037   6.272  13.251  1.00  0.00     0.051 A 
HETATM   10  N2  UNL     1      -4.294   7.413  13.405  1.00  0.00    -0.357 N 
HETATM   11  C12 UNL     1      -2.948   7.128  13.323  1.00  0.00     0.043 A 
HETATM   12  C13 UNL     1      -1.837   7.969  13.464  1.00  0.00     0.030 A 
HETATM   13  C14 UNL     1      -0.571   7.401  13.299  1.00  0.00     0.002 A 
HETATM   14  C15 UNL     1      -0.423   6.049  12.995  1.00  0.00     0.001 A 
HETATM   15  C16 UNL     1      -1.545   5.223  12.854  1.00  0.00     0.014 A 
HETATM   16  C17 UNL     1      -2.831   5.769  13.029  1.00  0.00    -0.001 A 
HETATM   17  C18 UNL     1      -6.540   6.189  13.243  1.00  0.00     0.283 C 
HETATM   18  H19 UNL     1      -4.665   8.335  13.576  1.00  0.00     0.166 HD
ENDROOT
BRANCH   1  19
HETATM   19  C2  UNL     1      -6.972   7.931  15.164  1.00  0.00     0.010 C 
HETATM   20  C1  UNL     1      -8.072   8.983  15.258  1.00  0.00     0.006 C 
ENDBRANCH   1  19
BRANCH   1  21
HETATM   21  C4  UNL     1      -7.203   5.432  15.677  1.00  0.00     0.176 C 
BRANCH  21  22
HETATM   22  O1  UNL     1      -8.454   5.024  16.202  1.00  0.00    -0.400 OA
HETATM   23  H8  UNL     1      -8.284   4.370  16.900  1.00  0.00     0.209 HD
ENDBRANCH  21  22
ENDBRANCH   1  21
TORSDOF 3
ENDMDL
MODEL 4
REMARK minimizedAffinity -7.4445734
REMARK  3 active torsions:
REMARK  status: ('A' for Active; 'I' for Inactive)
REMARK    1  A    between atoms: C2_2  and  C3_3 
REMARK    2  A    between atoms: C3_3  and  C4_4 
REMARK    3  A    between atoms: C4_4  and  O1_5 
ROOT
HETATM    1  C3  UNL     1     -11.943   8.377  13.843  1.00  0.00     0.017 C 
HETATM    2  C5  UNL     1     -13.162   8.890  14.704  1.00  0.00     0.016 C 
HETATM    3  C6  UNL     1     -12.825   9.280  16.145  1.00  0.00     0.031 C 
HETATM    4  C7  UNL     1     -11.412   9.817  16.284  1.00  0.00     0.273 C 
HETATM    5  N1  UNL     1     -10.400   8.849  15.864  1.00  0.00     0.100 N 
HETATM    6  C8  UNL     1      -9.136   9.530  15.502  1.00  0.00     0.278 C 
HETATM    7  C9  UNL     1      -7.941   8.583  15.276  1.00  0.00     0.072 C 
HETATM    8  C10 UNL     1      -8.358   7.382  14.512  1.00  0.00    -0.019 A 
HETATM    9  C11 UNL     1      -9.692   7.065  14.347  1.00  0.00     0.051 A 
HETATM   10  N2  UNL     1      -9.737   5.830  13.753  1.00  0.00    -0.357 N 
HETATM   11  C12 UNL     1      -8.468   5.402  13.432  1.00  0.00     0.043 A 
HETATM   12  C13 UNL     1      -8.046   4.236  12.780  1.00  0.00     0.030 A 
HETATM   13  C14 UNL     1      -6.671   4.049  12.613  1.00  0.00     0.002 A 
HETATM   14  C15 UNL     1      -5.756   4.987  13.086  1.00  0.00     0.001 A 
HETATM   15  C16 UNL     1      -6.194   6.146  13.739  1.00  0.00     0.014 A 
HETATM   16  C17 UNL     1      -7.575   6.363  13.907  1.00  0.00    -0.001 A 
HETATM   17  C18 UNL     1     -10.873   7.838  14.870  1.00  0.00     0.283 C 
HETATM   18  H19 UNL     1     -10.576   5.306  13.553  1.00  0.00     0.166 HD
ENDROOT
BRANCH   1  19
HETATM   19  C2  UNL     1     -12.538   7.246  12.924  1.00  0.00     0.010 C 
HETATM   20  C1  UNL     1     -14.042   6.991  12.953  1.00  0.00     0.006 C 
ENDBRANCH   1  19
BRANCH   1  21
HETATM   21  C4  UNL     1     -11.459   9.569  12.973  1.00  0.00     0.176 C 
BRANCH  21  22
HETATM   22  O1  UNL     1     -11.940   9.521  11.641  1.00  0.00    -0.400 OA
HETATM   23  H8  UNL     1     -11.571  10.282  11.164  1.00  0.00     0.209 HD
ENDBRANCH  21  22
ENDBRANCH   1  21
TORSDOF 3
ENDMDL
MODEL 5
REMARK minimizedAffinity -7.4135108
REMARK  3 active torsions:
REMARK  status: ('A' for Active; 'I' for Inactive)
REMARK    1  A    between atoms: C2_2  and  C3_3 
REMARK    2  A    between atoms: C3_3  and  C4_4 
REMARK    3  A    between atoms: C4_4  and  O1_5 
ROOT
HETATM    1  C3  UNL     1      -2.757   8.464  14.049  1.00  0.00     0.017 C 
HETATM    2  C5  UNL     1      -1.604   9.125  14.901  1.00  0.00     0.016 C 
HETATM    3  C6  UNL     1      -0.483   8.175  15.331  1.00  0.00     0.031 C 
HETATM    4  C7  UNL     1      -0.254   7.059  14.327  1.00  0.00     0.273 C 
HETATM    5  N1  UNL     1      -1.446   6.236  14.121  1.00  0.00     0.100 N 
HETATM    6  C8  UNL     1      -1.386   5.538  12.817  1.00  0.00     0.278 C 
HETATM    7  C9  UNL     1      -2.477   4.467  12.614  1.00  0.00     0.072 C 
HETATM    8  C10 UNL     1      -3.787   4.949  13.115  1.00  0.00    -0.019 A 
HETATM    9  C11 UNL     1      -3.879   6.063  13.928  1.00  0.00     0.051 A 
HETATM   10  N2  UNL     1      -5.180   6.141  14.350  1.00  0.00    -0.357 N 
HETATM   11  C12 UNL     1      -5.946   5.174  13.737  1.00  0.00     0.043 A 
HETATM   12  C13 UNL     1      -7.319   4.915  13.833  1.00  0.00     0.030 A 
HETATM   13  C14 UNL     1      -7.826   3.833  13.108  1.00  0.00     0.002 A 
HETATM   14  C15 UNL     1      -6.990   3.037  12.327  1.00  0.00     0.001 A 
HETATM   15  C16 UNL     1      -5.619   3.307  12.245  1.00  0.00     0.014 A 
HETATM   16  C17 UNL     1      -5.087   4.401  12.955  1.00  0.00    -0.001 A 
HETATM   17  C18 UNL     1      -2.741   6.926  14.403  1.00  0.00     0.283 C 
HETATM   18  H19 UNL     1      -5.545   6.821  15.000  1.00  0.00     0.166 HD
ENDROOT
BRANCH   1  19
HETATM   19  C2  UNL     1      -4.074   9.189  14.513  1.00  0.00     0.010 C 
HETATM   20  C1  UNL     1      -4.142   9.756  15.928  1.00  0.00     0.006 C 
ENDBRANCH   1  19
BRANCH   1  21
HETATM   21  C4  UNL     1      -2.471   8.786  12.557  1.00  0.00     0.176 C 
BRANCH  21  22
HETATM   22  O1  UNL     1      -1.462   9.766  12.380  1.00  0.00    -0.400 OA
HETATM   23  H8  UNL     1      -1.367   9.925  11.427  1.00  0.00     0.209 HD
ENDBRANCH  21  22
ENDBRANCH   1  21
TORSDOF 3
ENDMDL
MODEL 6
REMARK minimizedAffinity -7.27914667
REMARK  3 active torsions:
REMARK  status: ('A' for Active; 'I' for Inactive)
REMARK    1  A    between atoms: C2_2  and  C3_3 
REMARK    2  A    between atoms: C3_3  and  C4_4 
REMARK    3  A    between atoms: C4_4  and  O1_5 
ROOT
HETATM    1  C3  UNL     1      -1.623   7.629  13.635  1.00  0.00     0.017 C 
HETATM    2  C5  UNL     1      -0.374   8.136  14.457  1.00  0.00     0.016 C 
HETATM    3  C6  UNL     1       0.834   7.196  14.454  1.00  0.00     0.031 C 
HETATM    4  C7  UNL     1       0.941   6.396  13.168  1.00  0.00     0.273 C 
HETATM    5  N1  UNL     1      -0.238   5.565  12.926  1.00  0.00     0.100 N 
HETATM    6  C8  UNL     1      -0.360   5.231  11.488  1.00  0.00     0.278 C 
HETATM    7  C9  UNL     1      -1.430   4.167  11.168  1.00  0.00     0.072 C 
HETATM    8  C10 UNL     1      -2.660   4.403  11.962  1.00  0.00    -0.019 A 
HETATM    9  C11 UNL     1      -2.662   5.261  13.045  1.00  0.00     0.051 A 
HETATM   10  N2  UNL     1      -3.882   5.129  13.655  1.00  0.00    -0.357 N 
HETATM   11  C12 UNL     1      -4.700   4.295  12.924  1.00  0.00     0.043 A 
HETATM   12  C13 UNL     1      -6.030   3.916  13.144  1.00  0.00     0.030 A 
HETATM   13  C14 UNL     1      -6.606   3.020  12.238  1.00  0.00     0.002 A 
HETATM   14  C15 UNL     1      -5.877   2.518  11.163  1.00  0.00     0.001 A 
HETATM   15  C16 UNL     1      -4.547   2.904  10.960  1.00  0.00     0.014 A 
HETATM   16  C17 UNL     1      -3.949   3.816  11.850  1.00  0.00    -0.001 A 
HETATM   17  C18 UNL     1      -1.496   6.058  13.563  1.00  0.00     0.283 C 
HETATM   18  H19 UNL     1      -4.164   5.589  14.507  1.00  0.00     0.166 HD
ENDROOT
BRANCH   1  19
HETATM   19  C2  UNL     1      -2.876   8.108  14.459  1.00  0.00     0.010 C 
HETATM   20  C1  UNL     1      -4.095   8.631  13.707  1.00  0.00     0.006 C 
ENDBRANCH   1  19
BRANCH   1  21
HETATM   21  C4  UNL     1      -1.589   8.344  12.257  1.00  0.00     0.176 C 
BRANCH  21  22
HETATM   22  O1  UNL     1      -1.055   9.656  12.320  1.00  0.00    -0.400 OA
HETATM   23  H8  UNL     1      -1.096  10.036  11.427  1.00  0.00     0.209 HD
ENDBRANCH  21  22
ENDBRANCH   1  21
TORSDOF 3
ENDMDL
MODEL 7
REMARK minimizedAffinity -7.22198868
REMARK  3 active torsions:
REMARK  status: ('A' for Active; 'I' for Inactive)
REMARK    1  A    between atoms: C2_2  and  C3_3 
REMARK    2  A    between atoms: C3_3  and  C4_4 
REMARK    3  A    between atoms: C4_4  and  O1_5 
ROOT
HETATM    1  C3  UNL     1      -4.969   2.898  11.484  1.00  0.00     0.017 C 
HETATM    2  C5  UNL     1      -5.499   1.412  11.527  1.00  0.00     0.016 C 
HETATM    3  C6  UNL     1      -6.748   1.189  12.384  1.00  0.00     0.031 C 
HETATM    4  C7  UNL     1      -7.655   2.406  12.412  1.00  0.00     0.273 C 
HETATM    5  N1  UNL     1      -6.985   3.591  12.947  1.00  0.00     0.100 N 
HETATM    6  C8  UNL     1      -7.657   4.829  12.488  1.00  0.00     0.278 C 
HETATM    7  C9  UNL     1      -7.174   6.115  13.187  1.00  0.00     0.072 C 
HETATM    8  C10 UNL     1      -5.699   6.109  13.339  1.00  0.00    -0.019 A 
HETATM    9  C11 UNL     1      -4.964   4.953  13.162  1.00  0.00     0.051 A 
HETATM   10  N2  UNL     1      -3.677   5.238  13.536  1.00  0.00    -0.357 N 
HETATM   11  C12 UNL     1      -3.546   6.576  13.838  1.00  0.00     0.043 A 
HETATM   12  C13 UNL     1      -2.416   7.310  14.217  1.00  0.00     0.030 A 
HETATM   13  C14 UNL     1      -2.588   8.669  14.493  1.00  0.00     0.002 A 
HETATM   14  C15 UNL     1      -3.844   9.266  14.402  1.00  0.00     0.001 A 
HETATM   15  C16 UNL     1      -4.965   8.517  14.025  1.00  0.00     0.014 A 
HETATM   16  C17 UNL     1      -4.814   7.149  13.728  1.00  0.00    -0.001 A 
HETATM   17  C18 UNL     1      -5.498   3.594  12.797  1.00  0.00     0.283 C 
HETATM   18  H19 UNL     1      -2.916   4.577  13.568  1.00  0.00     0.166 HD
ENDROOT
BRANCH   1  19
HETATM   19  C2  UNL     1      -3.401   2.772  11.443  1.00  0.00     0.010 C 
HETATM   20  C1  UNL     1      -2.620   3.633  10.455  1.00  0.00     0.006 C 
ENDBRANCH   1  19
BRANCH   1  21
HETATM   21  C4  UNL     1      -5.486   3.533  10.164  1.00  0.00     0.176 C 
BRANCH  21  22
HETATM   22  O1  UNL     1      -5.712   2.583   9.137  1.00  0.00    -0.400 OA
HETATM   23  H8  UNL     1      -6.005   3.064   8.346  1.00  0.00     0.209 HD
ENDBRANCH  21  22
ENDBRANCH   1  21
TORSDOF 3
ENDMDL
MODEL 8
REMARK minimizedAffinity -7.13531923
REMARK  3 active torsions:
REMARK  status: ('A' for Active; 'I' for Inactive)
REMARK    1  A    between atoms: C2_2  and  C3_3 
REMARK    2  A    between atoms: C3_3  and  C4_4 
REMARK    3  A    between atoms: C4_4  and  O1_5 
ROOT
HETATM    1  C3  UNL     1      -7.174   4.793  13.924  1.00  0.00     0.017 C 
HETATM    2  C5  UNL     1      -5.748   4.562  13.286  1.00  0.00     0.016 C 
HETATM    3  C6  UNL     1      -4.895   5.823  13.121  1.00  0.00     0.031 C 
HETATM    4  C7  UNL     1      -5.179   6.858  14.194  1.00  0.00     0.273 C 
HETATM    5  N1  UNL     1      -6.575   7.294  14.197  1.00  0.00     0.100 N 
HETATM    6  C8  UNL     1      -6.950   7.855  15.515  1.00  0.00     0.278 C 
HETATM    7  C9  UNL     1      -8.322   8.556  15.546  1.00  0.00     0.072 C 
HETATM    8  C10 UNL     1      -9.327   7.779  14.781  1.00  0.00    -0.019 A 
HETATM    9  C11 UNL     1      -8.948   6.766  13.921  1.00  0.00     0.051 A 
HETATM   10  N2  UNL     1     -10.076   6.368  13.252  1.00  0.00    -0.357 N 
HETATM   11  C12 UNL     1     -11.185   7.023  13.743  1.00  0.00     0.043 A 
HETATM   12  C13 UNL     1     -12.535   6.897  13.393  1.00  0.00     0.030 A 
HETATM   13  C14 UNL     1     -13.453   7.723  14.049  1.00  0.00     0.002 A 
HETATM   14  C15 UNL     1     -13.034   8.642  15.009  1.00  0.00     0.001 A 
HETATM   15  C16 UNL     1     -11.680   8.757  15.344  1.00  0.00     0.014 A 
HETATM   16  C17 UNL     1     -10.738   7.927  14.707  1.00  0.00    -0.001 A 
HETATM   17  C18 UNL     1      -7.544   6.301  13.642  1.00  0.00     0.283 C 
HETATM   18  H19 UNL     1     -10.109   5.679  12.516  1.00  0.00     0.166 HD
ENDROOT
BRANCH   1  19
HETATM   19  C2  UNL     1      -8.121   3.778  13.184  1.00  0.00     0.010 C 
HETATM   20  C1  UNL     1      -7.569   2.413  12.786  1.00  0.00     0.006 C 
ENDBRANCH   1  19
BRANCH   1  21
HETATM   21  C4  UNL     1      -7.070   4.424  15.428  1.00  0.00     0.176 C 
BRANCH  21  22
HETATM   22  O1  UNL     1      -8.273   4.648  16.144  1.00  0.00    -0.400 OA
HETATM   23  H8  UNL     1      -8.113   4.418  17.073  1.00  0.00     0.209 HD
ENDBRANCH  21  22
ENDBRANCH   1  21
TORSDOF 3
ENDMDL
MODEL 9
REMARK minimizedAffinity -7.05690145
REMARK  3 active torsions:
REMARK  status: ('A' for Active; 'I' for Inactive)
REMARK    1  A    between atoms: C2_2  and  C3_3 
REMARK    2  A    between atoms: C3_3  and  C4_4 
REMARK    3  A    between atoms: C4_4  and  O1_5 
ROOT
HETATM    1  C3  UNL     1      -6.556   5.296  13.863  1.00  0.00     0.017 C 
HETATM    2  C5  UNL     1      -7.598   5.096  15.032  1.00  0.00     0.016 C 
HETATM    3  C6  UNL     1      -7.381   5.986  16.259  1.00  0.00     0.031 C 
HETATM    4  C7  UNL     1      -6.767   7.327  15.900  1.00  0.00     0.273 C 
HETATM    5  N1  UNL     1      -5.466   7.190  15.246  1.00  0.00     0.100 N 
HETATM    6  C8  UNL     1      -5.146   8.398  14.451  1.00  0.00     0.278 C 
HETATM    7  C9  UNL     1      -3.699   8.450  13.921  1.00  0.00     0.072 C 
HETATM    8  C10 UNL     1      -3.277   7.121  13.416  1.00  0.00    -0.019 A 
HETATM    9  C11 UNL     1      -3.997   5.979  13.709  1.00  0.00     0.051 A 
HETATM   10  N2  UNL     1      -3.264   4.916  13.249  1.00  0.00    -0.357 N 
HETATM   11  C12 UNL     1      -2.150   5.356  12.568  1.00  0.00     0.043 A 
HETATM   12  C13 UNL     1      -1.157   4.631  11.898  1.00  0.00     0.030 A 
HETATM   13  C14 UNL     1      -0.113   5.353  11.312  1.00  0.00     0.002 A 
HETATM   14  C15 UNL     1      -0.061   6.742  11.401  1.00  0.00     0.001 A 
HETATM   15  C16 UNL     1      -1.061   7.451  12.078  1.00  0.00     0.014 A 
HETATM   16  C17 UNL     1      -2.130   6.748  12.664  1.00  0.00    -0.001 A 
HETATM   17  C18 UNL     1      -5.257   5.896  14.528  1.00  0.00     0.283 C 
HETATM   18  H19 UNL     1      -3.506   3.944  13.365  1.00  0.00     0.166 HD
ENDROOT
BRANCH   1  19
HETATM   19  C2  UNL     1      -6.333   3.858  13.265  1.00  0.00     0.010 C 
HETATM   20  C1  UNL     1      -7.476   2.849  13.330  1.00  0.00     0.006 C 
ENDBRANCH   1  19
BRANCH   1  21
HETATM   21  C4  UNL     1      -7.223   6.215  12.804  1.00  0.00     0.176 C 
BRANCH  21  22
HETATM   22  O1  UNL     1      -8.614   5.988  12.663  1.00  0.00    -0.400 OA
HETATM   23  H8  UNL     1      -8.943   6.581  11.967  1.00  0.00     0.209 HD
ENDBRANCH  21  22
ENDBRANCH   1  21
TORSDOF 3
ENDMDL
