MODEL 1
REMARK minimizedAffinity -10.1970835
REMARK  7 active torsions:
REMARK  status: ('A' for Active; 'I' for Inactive)
REMARK    1  A    between atoms: C2_2  and  C4_4 
REMARK    2  A    between atoms: C7_7  and  O1_9 
REMARK    3  A    between atoms: C9_10  and  C10_11 
REMARK    4  A    between atoms: C11_12  and  C12_13 
REMARK    5  A    between atoms: C14_15  and  C15_16 
REMARK    6  A    between atoms: C24_26  and  C26_28 
REMARK    7  A    between atoms: C29_32  and  O4_34 
ROOT
HETATM    1  C15 UNL     1       0.340   5.662  12.131  1.00  0.00     0.149 C 
HETATM    2  C16 UNL     1       0.896   5.575  10.707  1.00  0.00     0.054 C 
HETATM    3  C17 UNL     1       1.722   6.874  10.481  1.00  0.00     0.050 C 
HETATM    4  C18 UNL     1       1.787   7.434  11.915  1.00  0.00     0.272 C 
HETATM    5  O2  UNL     1       2.900   6.879  12.611  1.00  0.00    -0.360 OA
HETATM    6  C19 UNL     1       4.070   7.693  12.577  1.00  0.00     0.171 C 
HETATM    7  C20 UNL     1       4.354   8.393  11.252  1.00  0.00     0.027 C 
HETATM    8  C21 UNL     1       4.276   7.517  10.003  1.00  0.00     0.012 C 
HETATM    9  C22 UNL     1       3.133   6.473   9.922  1.00  0.00     0.032 C 
HETATM   10  C23 UNL     1       3.029   5.931   8.482  1.00  0.00    -0.066 C 
HETATM   11  C24 UNL     1       3.497   4.707   8.121  1.00  0.00    -0.021 C 
HETATM   12  C25 UNL     1       4.187   3.720   9.032  1.00  0.00     0.052 C 
HETATM   13  C27 UNL     1       2.314   6.897   7.552  1.00  0.00     0.038 C 
HETATM   14  C28 UNL     1       0.938   7.303   8.081  1.00  0.00     0.042 C 
HETATM   15  C29 UNL     1       0.984   7.864   9.515  1.00  0.00     0.067 C 
HETATM   16  C30 UNL     1      -0.439   8.252   9.951  1.00  0.00     0.047 C 
HETATM   17  O5  UNL     1       0.581   6.999  12.558  1.00  0.00    -0.351 OA
ENDROOT
BRANCH   1  18
HETATM   18  C14 UNL     1      -1.120   5.292  12.208  1.00  0.00     0.011 C 
HETATM   19  C12 UNL     1      -2.163   6.009  12.685  1.00  0.00    -0.064 C 
HETATM   20  C13 UNL     1      -2.017   7.367  13.326  1.00  0.00     0.048 C 
BRANCH  19  21
HETATM   21  C11 UNL     1      -3.497   5.417  12.607  1.00  0.00     0.003 C 
HETATM   22  C10 UNL     1      -4.202   4.885  13.622  1.00  0.00    -0.018 C 
BRANCH  22  23
HETATM   23  C9  UNL     1      -5.585   4.274  13.506  1.00  0.00     0.050 C 
HETATM   24  C4  UNL     1      -5.944   3.807  12.058  1.00  0.00     0.024 C 
HETATM   25  C5  UNL     1      -7.460   4.019  11.953  1.00  0.00     0.013 C 
HETATM   26  C6  UNL     1      -7.672   5.317  12.722  1.00  0.00     0.039 C 
HETATM   27  C7  UNL     1      -6.800   5.142  13.972  1.00  0.00     0.062 C 
HETATM   28  C8  UNL     1      -6.501   6.482  14.643  1.00  0.00     0.046 C 
BRANCH  24  29
HETATM   29  C2  UNL     1      -5.465   2.405  11.712  1.00  0.00    -0.088 C 
HETATM   30  C1  UNL     1      -6.341   1.416  11.452  1.00  0.00     0.014 C 
HETATM   31  C3  UNL     1      -3.984   2.143  11.651  1.00  0.00     0.043 C 
ENDBRANCH  24  29
BRANCH  27  32
HETATM   32  O1  UNL     1      -7.565   4.370  14.914  1.00  0.00    -0.390 OA
HETATM   33  H14 UNL     1      -7.027   4.271  15.719  1.00  0.00     0.210 HD
ENDBRANCH  27  32
ENDBRANCH  22  23
ENDBRANCH  19  21
ENDBRANCH   1  18
BRANCH  15  34
HETATM   34  O4  UNL     1       1.731   9.089   9.462  1.00  0.00    -0.389 OA
HETATM   35  H44 UNL     1       1.257   9.718   8.888  1.00  0.00     0.210 HD
ENDBRANCH  15  34
BRANCH  11  36
HETATM   36  C26 UNL     1       3.378   4.186   6.719  1.00  0.00     0.265 C 
HETATM   37  O3  UNL     1       4.188   3.403   6.235  1.00  0.00    -0.302 OA
ENDBRANCH  11  36
TORSDOF 7
ENDMDL
MODEL 2
REMARK minimizedAffinity -9.74727726
REMARK  7 active torsions:
REMARK  status: ('A' for Active; 'I' for Inactive)
REMARK    1  A    between atoms: C2_2  and  C4_4 
REMARK    2  A    between atoms: C7_7  and  O1_9 
REMARK    3  A    between atoms: C9_10  and  C10_11 
REMARK    4  A    between atoms: C11_12  and  C12_13 
REMARK    5  A    between atoms: C14_15  and  C15_16 
REMARK    6  A    between atoms: C24_26  and  C26_28 
REMARK    7  A    between atoms: C29_32  and  O4_34 
ROOT
HETATM    1  C15 UNL     1       0.193   6.006  11.954  1.00  0.00     0.149 C 
HETATM    2  C16 UNL     1       0.828   5.798  10.577  1.00  0.00     0.054 C 
HETATM    3  C17 UNL     1       1.745   7.029  10.327  1.00  0.00     0.050 C 
HETATM    4  C18 UNL     1       1.758   7.674  11.726  1.00  0.00     0.272 C 
HETATM    5  O2  UNL     1       2.790   7.101  12.524  1.00  0.00    -0.360 OA
HETATM    6  C19 UNL     1       4.007   7.841  12.517  1.00  0.00     0.171 C 
HETATM    7  C20 UNL     1       4.415   8.439  11.174  1.00  0.00     0.027 C 
HETATM    8  C21 UNL     1       4.358   7.491   9.977  1.00  0.00     0.012 C 
HETATM    9  C22 UNL     1       3.160   6.513   9.885  1.00  0.00     0.032 C 
HETATM   10  C23 UNL     1       3.110   5.888   8.476  1.00  0.00    -0.066 C 
HETATM   11  C24 UNL     1       3.521   4.618   8.219  1.00  0.00    -0.021 C 
HETATM   12  C25 UNL     1       4.093   3.653   9.229  1.00  0.00     0.052 C 
HETATM   13  C27 UNL     1       2.513   6.833   7.446  1.00  0.00     0.038 C 
HETATM   14  C28 UNL     1       1.135   7.351   7.860  1.00  0.00     0.042 C 
HETATM   15  C29 UNL     1       1.130   7.998   9.259  1.00  0.00     0.067 C 
HETATM   16  C30 UNL     1      -0.291   8.494   9.578  1.00  0.00     0.047 C 
HETATM   17  O5  UNL     1       0.491   7.352  12.315  1.00  0.00    -0.351 OA
ENDROOT
BRANCH   1  18
HETATM   18  C14 UNL     1      -1.289   5.728  11.959  1.00  0.00     0.011 C 
HETATM   19  C12 UNL     1      -2.135   5.604  13.006  1.00  0.00    -0.064 C 
HETATM   20  C13 UNL     1      -1.692   5.662  14.447  1.00  0.00     0.048 C 
BRANCH  19  21
HETATM   21  C11 UNL     1      -3.550   5.366  12.723  1.00  0.00     0.003 C 
HETATM   22  C10 UNL     1      -4.562   5.381  13.609  1.00  0.00    -0.018 C 
BRANCH  22  23
HETATM   23  C9  UNL     1      -6.020   5.125  13.283  1.00  0.00     0.050 C 
HETATM   24  C4  UNL     1      -6.957   5.153  14.533  1.00  0.00     0.024 C 
HETATM   25  C5  UNL     1      -8.062   4.141  14.205  1.00  0.00     0.013 C 
HETATM   26  C6  UNL     1      -7.302   3.033  13.486  1.00  0.00     0.039 C 
HETATM   27  C7  UNL     1      -6.370   3.795  12.535  1.00  0.00     0.062 C 
HETATM   28  C8  UNL     1      -5.211   2.920  12.060  1.00  0.00     0.046 C 
BRANCH  24  29
HETATM   29  C2  UNL     1      -7.448   6.540  14.921  1.00  0.00    -0.088 C 
HETATM   30  C1  UNL     1      -8.688   6.952  14.596  1.00  0.00     0.014 C 
HETATM   31  C3  UNL     1      -6.523   7.444  15.691  1.00  0.00     0.043 C 
ENDBRANCH  24  29
BRANCH  27  32
HETATM   32  O1  UNL     1      -7.141   4.129  11.367  1.00  0.00    -0.390 OA
HETATM   33  H14 UNL     1      -6.552   4.596  10.750  1.00  0.00     0.210 HD
ENDBRANCH  27  32
ENDBRANCH  22  23
ENDBRANCH  19  21
ENDBRANCH   1  18
BRANCH  15  34
HETATM   34  O4  UNL     1       1.953   9.171   9.181  1.00  0.00    -0.389 OA
HETATM   35  H44 UNL     1       1.555   9.789   8.541  1.00  0.00     0.210 HD
ENDBRANCH  15  34
BRANCH  11  36
HETATM   36  C26 UNL     1       3.456   4.017   6.845  1.00  0.00     0.265 C 
HETATM   37  O3  UNL     1       4.456   3.658   6.234  1.00  0.00    -0.302 OA
ENDBRANCH  11  36
TORSDOF 7
ENDMDL
MODEL 3
REMARK minimizedAffinity -9.48152447
REMARK  7 active torsions:
REMARK  status: ('A' for Active; 'I' for Inactive)
REMARK    1  A    between atoms: C2_2  and  C4_4 
REMARK    2  A    between atoms: C7_7  and  O1_9 
REMARK    3  A    between atoms: C9_10  and  C10_11 
REMARK    4  A    between atoms: C11_12  and  C12_13 
REMARK    5  A    between atoms: C14_15  and  C15_16 
REMARK    6  A    between atoms: C24_26  and  C26_28 
REMARK    7  A    between atoms: C29_32  and  O4_34 
ROOT
HETATM    1  C15 UNL     1      -0.472   5.349  13.175  1.00  0.00     0.149 C 
HETATM    2  C16 UNL     1       0.120   5.774  11.829  1.00  0.00     0.054 C 
HETATM    3  C17 UNL     1       0.835   7.133  12.075  1.00  0.00     0.050 C 
HETATM    4  C18 UNL     1       0.820   7.198  13.614  1.00  0.00     0.272 C 
HETATM    5  O2  UNL     1       1.962   6.532  14.147  1.00  0.00    -0.360 OA
HETATM    6  C19 UNL     1       3.056   7.397  14.436  1.00  0.00     0.171 C 
HETATM    7  C20 UNL     1       3.308   8.511  13.424  1.00  0.00     0.027 C 
HETATM    8  C21 UNL     1       3.333   8.087  11.957  1.00  0.00     0.012 C 
HETATM    9  C22 UNL     1       2.288   7.044  11.487  1.00  0.00     0.032 C 
HETATM   10  C23 UNL     1       2.263   6.996   9.945  1.00  0.00    -0.066 C 
HETATM   11  C24 UNL     1       2.843   5.995   9.231  1.00  0.00    -0.021 C 
HETATM   12  C25 UNL     1       3.596   4.820   9.807  1.00  0.00     0.052 C 
HETATM   13  C27 UNL     1       1.487   8.155   9.344  1.00  0.00     0.038 C 
HETATM   14  C28 UNL     1       0.069   8.262   9.907  1.00  0.00     0.042 C 
HETATM   15  C29 UNL     1       0.035   8.326  11.447  1.00  0.00     0.067 C 
HETATM   16  C30 UNL     1      -1.425   8.443  11.914  1.00  0.00     0.047 C 
HETATM   17  O5  UNL     1      -0.357   6.488  14.022  1.00  0.00    -0.351 OA
ENDROOT
BRANCH   1  18
HETATM   18  C14 UNL     1      -1.896   4.866  13.057  1.00  0.00     0.011 C 
HETATM   19  C12 UNL     1      -2.985   5.222  13.774  1.00  0.00    -0.064 C 
HETATM   20  C13 UNL     1      -2.939   6.180  14.939  1.00  0.00     0.048 C 
BRANCH  19  21
HETATM   21  C11 UNL     1      -4.268   4.616  13.423  1.00  0.00     0.003 C 
HETATM   22  C10 UNL     1      -4.663   4.219  12.200  1.00  0.00    -0.018 C 
BRANCH  22  23
HETATM   23  C9  UNL     1      -6.006   3.597  11.869  1.00  0.00     0.050 C 
HETATM   24  C4  UNL     1      -7.098   3.849  12.957  1.00  0.00     0.024 C 
HETATM   25  C5  UNL     1      -7.979   2.594  12.911  1.00  0.00     0.013 C 
HETATM   26  C6  UNL     1      -6.967   1.480  12.676  1.00  0.00     0.039 C 
HETATM   27  C7  UNL     1      -6.041   2.056  11.598  1.00  0.00     0.062 C 
HETATM   28  C8  UNL     1      -4.707   1.313  11.543  1.00  0.00     0.046 C 
BRANCH  24  29
HETATM   29  C2  UNL     1      -7.845   5.166  12.806  1.00  0.00    -0.088 C 
HETATM   30  C1  UNL     1      -8.569   5.430  11.702  1.00  0.00     0.014 C 
HETATM   31  C3  UNL     1      -7.771   6.169  13.926  1.00  0.00     0.043 C 
ENDBRANCH  24  29
BRANCH  27  32
HETATM   32  O1  UNL     1      -6.686   1.841  10.330  1.00  0.00    -0.390 OA
HETATM   33  H14 UNL     1      -6.097   2.186   9.637  1.00  0.00     0.210 HD
ENDBRANCH  27  32
ENDBRANCH  22  23
ENDBRANCH  19  21
ENDBRANCH   1  18
BRANCH  15  34
HETATM   34  O4  UNL     1       0.674   9.554  11.829  1.00  0.00    -0.389 OA
HETATM   35  H44 UNL     1       0.160  10.298  11.466  1.00  0.00     0.210 HD
ENDBRANCH  15  34
BRANCH  11  36
HETATM   36  C26 UNL     1       2.801   5.952   7.732  1.00  0.00     0.265 C 
HETATM   37  O3  UNL     1       2.945   4.914   7.097  1.00  0.00    -0.302 OA
ENDBRANCH  11  36
TORSDOF 7
ENDMDL
MODEL 4
REMARK minimizedAffinity -9.02892208
REMARK  7 active torsions:
REMARK  status: ('A' for Active; 'I' for Inactive)
REMARK    1  A    between atoms: C2_2  and  C4_4 
REMARK    2  A    between atoms: C7_7  and  O1_9 
REMARK    3  A    between atoms: C9_10  and  C10_11 
REMARK    4  A    between atoms: C11_12  and  C12_13 
REMARK    5  A    between atoms: C14_15  and  C15_16 
REMARK    6  A    between atoms: C24_26  and  C26_28 
REMARK    7  A    between atoms: C29_32  and  O4_34 
ROOT
HETATM    1  C15 UNL     1      -0.683   5.783  14.479  1.00  0.00     0.149 C 
HETATM    2  C16 UNL     1      -0.229   6.220  13.084  1.00  0.00     0.054 C 
HETATM    3  C17 UNL     1       0.636   7.497  13.286  1.00  0.00     0.050 C 
HETATM    4  C18 UNL     1       0.823   7.487  14.815  1.00  0.00     0.272 C 
HETATM    5  O2  UNL     1       1.955   6.697  15.168  1.00  0.00    -0.360 OA
HETATM    6  C19 UNL     1       3.154   7.447  15.343  1.00  0.00     0.171 C 
HETATM    7  C20 UNL     1       3.378   8.583  14.350  1.00  0.00     0.027 C 
HETATM    8  C21 UNL     1       3.177   8.231  12.877  1.00  0.00     0.012 C 
HETATM    9  C22 UNL     1       1.987   7.309  12.509  1.00  0.00     0.032 C 
HETATM   10  C23 UNL     1       1.762   7.339  10.984  1.00  0.00    -0.066 C 
HETATM   11  C24 UNL     1       2.150   6.327  10.163  1.00  0.00    -0.021 C 
HETATM   12  C25 UNL     1       2.857   5.064  10.590  1.00  0.00     0.052 C 
HETATM   13  C27 UNL     1       1.028   8.591  10.533  1.00  0.00     0.038 C 
HETATM   14  C28 UNL     1      -0.290   8.795  11.281  1.00  0.00     0.042 C 
HETATM   15  C29 UNL     1      -0.122   8.785  12.813  1.00  0.00     0.067 C 
HETATM   16  C30 UNL     1      -1.494   9.007  13.471  1.00  0.00     0.047 C 
HETATM   17  O5  UNL     1      -0.355   6.864  15.347  1.00  0.00    -0.351 OA
ENDROOT
BRANCH   1  18
HETATM   18  C14 UNL     1      -2.149   5.434  14.531  1.00  0.00     0.011 C 
HETATM   19  C12 UNL     1      -3.165   6.086  15.139  1.00  0.00    -0.064 C 
HETATM   20  C13 UNL     1      -2.976   7.322  15.983  1.00  0.00     0.048 C 
BRANCH  19  21
HETATM   21  C11 UNL     1      -4.514   5.540  15.000  1.00  0.00     0.003 C 
HETATM   22  C10 UNL     1      -5.626   6.218  14.662  1.00  0.00    -0.018 C 
BRANCH  22  23
HETATM   23  C9  UNL     1      -7.014   5.621  14.530  1.00  0.00     0.050 C 
HETATM   24  C4  UNL     1      -7.365   5.168  13.076  1.00  0.00     0.024 C 
HETATM   25  C5  UNL     1      -8.877   5.394  12.960  1.00  0.00     0.013 C 
HETATM   26  C6  UNL     1      -9.084   6.689  13.736  1.00  0.00     0.039 C 
HETATM   27  C7  UNL     1      -8.225   6.497  14.992  1.00  0.00     0.062 C 
HETATM   28  C8  UNL     1      -7.919   7.830  15.675  1.00  0.00     0.046 C 
BRANCH  24  29
HETATM   29  C2  UNL     1      -6.895   3.764  12.723  1.00  0.00    -0.088 C 
HETATM   30  C1  UNL     1      -7.652   2.687  13.010  1.00  0.00     0.014 C 
HETATM   31  C3  UNL     1      -5.568   3.599  12.033  1.00  0.00     0.043 C 
ENDBRANCH  24  29
BRANCH  27  32
HETATM   32  O1  UNL     1      -9.005   5.725  15.923  1.00  0.00    -0.390 OA
HETATM   33  H14 UNL     1      -8.474   5.615  16.731  1.00  0.00     0.210 HD
ENDBRANCH  27  32
ENDBRANCH  22  23
ENDBRANCH  19  21
ENDBRANCH   1  18
BRANCH  15  34
HETATM   34  O4  UNL     1       0.673   9.931  13.153  1.00  0.00    -0.389 OA
HETATM   35  H44 UNL     1       0.190  10.736  12.890  1.00  0.00     0.210 HD
ENDBRANCH  15  34
BRANCH  11  36
HETATM   36  C26 UNL     1       1.914   6.363   8.681  1.00  0.00     0.265 C 
HETATM   37  O3  UNL     1       2.795   6.651   7.880  1.00  0.00    -0.302 OA
ENDBRANCH  11  36
TORSDOF 7
ENDMDL
MODEL 5
REMARK minimizedAffinity -8.80777359
REMARK  7 active torsions:
REMARK  status: ('A' for Active; 'I' for Inactive)
REMARK    1  A    between atoms: C2_2  and  C4_4 
REMARK    2  A    between atoms: C7_7  and  O1_9 
REMARK    3  A    between atoms: C9_10  and  C10_11 
REMARK    4  A    between atoms: C11_12  and  C12_13 
REMARK    5  A    between atoms: C14_15  and  C15_16 
REMARK    6  A    between atoms: C24_26  and  C26_28 
REMARK    7  A    between atoms: C29_32  and  O4_34 
ROOT
HETATM    1  C15 UNL     1      -1.762   8.263  12.510  1.00  0.00     0.149 C 
HETATM    2  C16 UNL     1      -1.021   8.613  13.803  1.00  0.00     0.054 C 
HETATM    3  C17 UNL     1       0.407   8.012  13.664  1.00  0.00     0.050 C 
HETATM    4  C18 UNL     1       0.421   7.629  12.172  1.00  0.00     0.272 C 
HETATM    5  O2  UNL     1       0.839   8.738  11.381  1.00  0.00    -0.360 OA
HETATM    6  C19 UNL     1       2.230   8.737  11.070  1.00  0.00     0.171 C 
HETATM    7  C20 UNL     1       3.162   8.288  12.191  1.00  0.00     0.027 C 
HETATM    8  C21 UNL     1       2.919   8.929  13.557  1.00  0.00     0.012 C 
HETATM    9  C22 UNL     1       1.452   9.131  14.011  1.00  0.00     0.032 C 
HETATM   10  C23 UNL     1       1.419   9.478  15.514  1.00  0.00    -0.066 C 
HETATM   11  C24 UNL     1       1.208  10.740  15.973  1.00  0.00    -0.021 C 
HETATM   12  C25 UNL     1       1.000  11.968  15.120  1.00  0.00     0.052 C 
HETATM   13  C27 UNL     1       1.600   8.252  16.393  1.00  0.00     0.038 C 
HETATM   14  C28 UNL     1       0.594   7.147  16.068  1.00  0.00     0.042 C 
HETATM   15  C29 UNL     1       0.593   6.752  14.578  1.00  0.00     0.067 C 
HETATM   16  C30 UNL     1      -0.439   5.634  14.355  1.00  0.00     0.047 C 
HETATM   17  O5  UNL     1      -0.939   7.315  11.839  1.00  0.00    -0.351 OA
ENDROOT
BRANCH   1  18
HETATM   18  C14 UNL     1      -3.152   7.735  12.761  1.00  0.00     0.011 C 
HETATM   19  C12 UNL     1      -4.152   8.267  13.499  1.00  0.00    -0.064 C 
HETATM   20  C13 UNL     1      -4.009   9.535  14.305  1.00  0.00     0.048 C 
BRANCH  19  21
HETATM   21  C11 UNL     1      -5.428   7.555  13.546  1.00  0.00     0.003 C 
HETATM   22  C10 UNL     1      -5.774   6.580  14.407  1.00  0.00    -0.018 C 
BRANCH  22  23
HETATM   23  C9  UNL     1      -7.107   5.857  14.425  1.00  0.00     0.050 C 
HETATM   24  C4  UNL     1      -7.521   5.271  13.036  1.00  0.00     0.024 C 
HETATM   25  C5  UNL     1      -9.052   5.357  13.027  1.00  0.00     0.013 C 
HETATM   26  C6  UNL     1      -9.320   6.681  13.732  1.00  0.00     0.039 C 
HETATM   27  C7  UNL     1      -8.356   6.655  14.925  1.00  0.00     0.062 C 
HETATM   28  C8  UNL     1      -8.124   8.055  15.494  1.00  0.00     0.046 C 
BRANCH  24  29
HETATM   29  C2  UNL     1      -6.951   3.892  12.739  1.00  0.00    -0.088 C 
HETATM   30  C1  UNL     1      -7.617   2.776  13.093  1.00  0.00     0.014 C 
HETATM   31  C3  UNL     1      -5.629   3.796  12.027  1.00  0.00     0.043 C 
ENDBRANCH  24  29
BRANCH  27  32
HETATM   32  O1  UNL     1      -8.990   5.887  15.963  1.00  0.00    -0.390 OA
HETATM   33  H14 UNL     1      -8.394   5.882  16.732  1.00  0.00     0.210 HD
ENDBRANCH  27  32
ENDBRANCH  22  23
ENDBRANCH  19  21
ENDBRANCH   1  18
BRANCH  15  34
HETATM   34  O4  UNL     1       1.876   6.172  14.298  1.00  0.00    -0.389 OA
HETATM   35  H44 UNL     1       1.980   5.370  14.841  1.00  0.00     0.210 HD
ENDBRANCH  15  34
BRANCH  11  36
HETATM   36  C26 UNL     1       1.166  11.062  17.438  1.00  0.00     0.265 C 
HETATM   37  O3  UNL     1       1.264  10.201  18.306  1.00  0.00    -0.302 OA
ENDBRANCH  11  36
TORSDOF 7
ENDMDL
MODEL 6
REMARK minimizedAffinity -8.63894749
REMARK  7 active torsions:
REMARK  status: ('A' for Active; 'I' for Inactive)
REMARK    1  A    between atoms: C2_2  and  C4_4 
REMARK    2  A    between atoms: C7_7  and  O1_9 
REMARK    3  A    between atoms: C9_10  and  C10_11 
REMARK    4  A    between atoms: C11_12  and  C12_13 
REMARK    5  A    between atoms: C14_15  and  C15_16 
REMARK    6  A    between atoms: C24_26  and  C26_28 
REMARK    7  A    between atoms: C29_32  and  O4_34 
ROOT
HETATM    1  C15 UNL     1      -1.407   9.005  15.116  1.00  0.00     0.149 C 
HETATM    2  C16 UNL     1      -1.757  10.480  14.900  1.00  0.00     0.054 C 
HETATM    3  C17 UNL     1      -2.021  11.078  16.311  1.00  0.00     0.050 C 
HETATM    4  C18 UNL     1      -1.507   9.939  17.213  1.00  0.00     0.272 C 
HETATM    5  O2  UNL     1      -0.108  10.085  17.443  1.00  0.00    -0.360 OA
HETATM    6  C19 UNL     1       0.213  10.763  18.653  1.00  0.00     0.171 C 
HETATM    7  C20 UNL     1      -0.679  11.949  19.008  1.00  0.00     0.027 C 
HETATM    8  C21 UNL     1      -0.935  12.951  17.884  1.00  0.00     0.012 C 
HETATM    9  C22 UNL     1      -1.179  12.394  16.459  1.00  0.00     0.032 C 
HETATM   10  C23 UNL     1      -1.731  13.513  15.553  1.00  0.00    -0.066 C 
HETATM   11  C24 UNL     1      -0.969  14.156  14.629  1.00  0.00    -0.021 C 
HETATM   12  C25 UNL     1       0.496  13.903  14.361  1.00  0.00     0.052 C 
HETATM   13  C27 UNL     1      -3.211  13.768  15.787  1.00  0.00     0.038 C 
HETATM   14  C28 UNL     1      -4.049  12.496  15.652  1.00  0.00     0.042 C 
HETATM   15  C29 UNL     1      -3.548  11.345  16.546  1.00  0.00     0.067 C 
HETATM   16  C30 UNL     1      -4.457  10.121  16.348  1.00  0.00     0.047 C 
HETATM   17  O5  UNL     1      -1.727   8.729  16.475  1.00  0.00    -0.351 OA
ENDROOT
BRANCH   1  18
HETATM   18  C14 UNL     1      -2.131   8.090  14.161  1.00  0.00     0.011 C 
HETATM   19  C12 UNL     1      -1.902   6.788  13.879  1.00  0.00    -0.064 C 
HETATM   20  C13 UNL     1      -0.759   5.998  14.466  1.00  0.00     0.048 C 
BRANCH  19  21
HETATM   21  C11 UNL     1      -2.789   6.123  12.926  1.00  0.00     0.003 C 
HETATM   22  C10 UNL     1      -3.443   4.962  13.110  1.00  0.00    -0.018 C 
BRANCH  22  23
HETATM   23  C9  UNL     1      -4.354   4.297  12.097  1.00  0.00     0.050 C 
HETATM   24  C4  UNL     1      -5.630   3.653  12.729  1.00  0.00     0.024 C 
HETATM   25  C5  UNL     1      -5.926   2.439  11.840  1.00  0.00     0.013 C 
HETATM   26  C6  UNL     1      -4.533   1.912  11.514  1.00  0.00     0.039 C 
HETATM   27  C7  UNL     1      -3.735   3.181  11.191  1.00  0.00     0.062 C 
HETATM   28  C8  UNL     1      -2.229   2.940  11.288  1.00  0.00     0.046 C 
BRANCH  24  29
HETATM   29  C2  UNL     1      -6.795   4.614  12.915  1.00  0.00    -0.088 C 
HETATM   30  C1  UNL     1      -8.063   4.215  12.706  1.00  0.00     0.014 C 
HETATM   31  C3  UNL     1      -6.503   6.025  13.351  1.00  0.00     0.043 C 
ENDBRANCH  24  29
BRANCH  27  32
HETATM   32  O1  UNL     1      -4.012   3.515   9.819  1.00  0.00    -0.390 OA
HETATM   33  H14 UNL     1      -3.494   4.308   9.599  1.00  0.00     0.210 HD
ENDBRANCH  27  32
ENDBRANCH  22  23
ENDBRANCH  19  21
ENDBRANCH   1  18
BRANCH  15  34
HETATM   34  O4  UNL     1      -3.732  11.762  17.908  1.00  0.00    -0.389 OA
HETATM   35  H44 UNL     1      -4.685  11.898  18.065  1.00  0.00     0.210 HD
ENDBRANCH  15  34
BRANCH  11  36
HETATM   36  C26 UNL     1      -1.521  15.235  13.745  1.00  0.00     0.265 C 
HETATM   37  O3  UNL     1      -1.902  15.019  12.600  1.00  0.00    -0.302 OA
ENDBRANCH  11  36
TORSDOF 7
ENDMDL
MODEL 7
REMARK minimizedAffinity -8.34076309
REMARK  7 active torsions:
REMARK  status: ('A' for Active; 'I' for Inactive)
REMARK    1  A    between atoms: C2_2  and  C4_4 
REMARK    2  A    between atoms: C7_7  and  O1_9 
REMARK    3  A    between atoms: C9_10  and  C10_11 
REMARK    4  A    between atoms: C11_12  and  C12_13 
REMARK    5  A    between atoms: C14_15  and  C15_16 
REMARK    6  A    between atoms: C24_26  and  C26_28 
REMARK    7  A    between atoms: C29_32  and  O4_34 
ROOT
HETATM    1  C15 UNL     1      -1.606   8.739  13.025  1.00  0.00     0.149 C 
HETATM    2  C16 UNL     1      -1.546   9.807  14.120  1.00  0.00     0.054 C 
HETATM    3  C17 UNL     1      -0.149   9.670  14.789  1.00  0.00     0.050 C 
HETATM    4  C18 UNL     1       0.556   8.717  13.804  1.00  0.00     0.272 C 
HETATM    5  O2  UNL     1       1.164   9.459  12.750  1.00  0.00    -0.360 OA
HETATM    6  C19 UNL     1       2.542   9.749  12.965  1.00  0.00     0.171 C 
HETATM    7  C20 UNL     1       2.929  10.122  14.393  1.00  0.00     0.027 C 
HETATM    8  C21 UNL     1       2.049  11.171  15.070  1.00  0.00     0.012 C 
HETATM    9  C22 UNL     1       0.519  11.090  14.841  1.00  0.00     0.032 C 
HETATM   10  C23 UNL     1      -0.204  12.009  15.847  1.00  0.00    -0.066 C 
HETATM   11  C24 UNL     1      -0.722  13.217  15.499  1.00  0.00    -0.021 C 
HETATM   12  C25 UNL     1      -0.658  13.844  14.127  1.00  0.00     0.052 C 
HETATM   13  C27 UNL     1      -0.303  11.387  17.230  1.00  0.00     0.038 C 
HETATM   14  C28 UNL     1      -0.947  10.000  17.200  1.00  0.00     0.042 C 
HETATM   15  C29 UNL     1      -0.256   9.035  16.218  1.00  0.00     0.067 C 
HETATM   16  C30 UNL     1      -0.966   7.671  16.269  1.00  0.00     0.047 C 
HETATM   17  O5  UNL     1      -0.480   7.896  13.249  1.00  0.00    -0.351 OA
ENDROOT
BRANCH   1  18
HETATM   18  C14 UNL     1      -2.904   7.972  13.033  1.00  0.00     0.011 C 
HETATM   19  C12 UNL     1      -3.112   6.637  13.089  1.00  0.00    -0.064 C 
HETATM   20  C13 UNL     1      -1.998   5.620  13.086  1.00  0.00     0.048 C 
BRANCH  19  21
HETATM   21  C11 UNL     1      -4.492   6.156  13.118  1.00  0.00     0.003 C 
HETATM   22  C10 UNL     1      -5.145   5.645  14.178  1.00  0.00    -0.018 C 
BRANCH  22  23
HETATM   23  C9  UNL     1      -6.578   5.150  14.172  1.00  0.00     0.050 C 
HETATM   24  C4  UNL     1      -7.100   4.758  12.753  1.00  0.00     0.024 C 
HETATM   25  C5  UNL     1      -8.597   5.093  12.790  1.00  0.00     0.013 C 
HETATM   26  C6  UNL     1      -8.633   6.380  13.605  1.00  0.00     0.039 C 
HETATM   27  C7  UNL     1      -7.673   6.098  14.766  1.00  0.00     0.062 C 
HETATM   28  C8  UNL     1      -7.207   7.388  15.439  1.00  0.00     0.046 C 
BRANCH  24  29
HETATM   29  C2  UNL     1      -6.770   3.333  12.331  1.00  0.00    -0.088 C 
HETATM   30  C1  UNL     1      -7.485   2.290  12.793  1.00  0.00     0.014 C 
HETATM   31  C3  UNL     1      -5.630   3.111  11.373  1.00  0.00     0.043 C 
ENDBRANCH  24  29
BRANCH  27  32
HETATM   32  O1  UNL     1      -8.413   5.360  15.756  1.00  0.00    -0.390 OA
HETATM   33  H14 UNL     1      -7.816   5.194  16.506  1.00  0.00     0.210 HD
ENDBRANCH  27  32
ENDBRANCH  22  23
ENDBRANCH  19  21
ENDBRANCH   1  18
BRANCH  15  34
HETATM   34  O4  UNL     1       1.072   8.810  16.717  1.00  0.00    -0.389 OA
HETATM   35  H44 UNL     1       1.008   8.386  17.592  1.00  0.00     0.210 HD
ENDBRANCH  15  34
BRANCH  11  36
HETATM   36  C26 UNL     1      -1.434  14.096  16.485  1.00  0.00     0.265 C 
HETATM   37  O3  UNL     1      -2.640  14.018  16.687  1.00  0.00    -0.302 OA
ENDBRANCH  11  36
TORSDOF 7
ENDMDL
MODEL 8
REMARK minimizedAffinity -8.28607655
REMARK  7 active torsions:
REMARK  status: ('A' for Active; 'I' for Inactive)
REMARK    1  A    between atoms: C2_2  and  C4_4 
REMARK    2  A    between atoms: C7_7  and  O1_9 
REMARK    3  A    between atoms: C9_10  and  C10_11 
REMARK    4  A    between atoms: C11_12  and  C12_13 
REMARK    5  A    between atoms: C14_15  and  C15_16 
REMARK    6  A    between atoms: C24_26  and  C26_28 
REMARK    7  A    between atoms: C29_32  and  O4_34 
ROOT
HETATM    1  C15 UNL     1      -1.983   9.231  15.535  1.00  0.00     0.149 C 
HETATM    2  C16 UNL     1      -2.430  10.689  15.657  1.00  0.00     0.054 C 
HETATM    3  C17 UNL     1      -1.570  11.317  16.791  1.00  0.00     0.050 C 
HETATM    4  C18 UNL     1      -0.512  10.216  17.001  1.00  0.00     0.272 C 
HETATM    5  O2  UNL     1       0.580  10.404  16.105  1.00  0.00    -0.360 OA
HETATM    6  C19 UNL     1       1.674  11.123  16.667  1.00  0.00     0.171 C 
HETATM    7  C20 UNL     1       1.305  12.293  17.573  1.00  0.00     0.027 C 
HETATM    8  C21 UNL     1       0.257  13.259  17.023  1.00  0.00     0.012 C 
HETATM    9  C22 UNL     1      -0.951  12.658  16.261  1.00  0.00     0.032 C 
HETATM   10  C23 UNL     1      -2.037  13.738  16.077  1.00  0.00    -0.066 C 
HETATM   11  C24 UNL     1      -2.248  14.376  14.895  1.00  0.00    -0.021 C 
HETATM   12  C25 UNL     1      -1.470  14.154  13.620  1.00  0.00     0.052 C 
HETATM   13  C27 UNL     1      -2.850  13.960  17.342  1.00  0.00     0.038 C 
HETATM   14  C28 UNL     1      -3.458  12.664  17.878  1.00  0.00     0.042 C 
HETATM   15  C29 UNL     1      -2.414  11.551  18.091  1.00  0.00     0.067 C 
HETATM   16  C30 UNL     1      -3.119  10.298  18.639  1.00  0.00     0.047 C 
HETATM   17  O5  UNL     1      -1.166   8.982  16.675  1.00  0.00    -0.351 OA
ENDROOT
BRANCH   1  18
HETATM   18  C14 UNL     1      -3.143   8.272  15.444  1.00  0.00     0.011 C 
HETATM   19  C12 UNL     1      -3.148   6.957  15.129  1.00  0.00    -0.064 C 
HETATM   20  C13 UNL     1      -1.913   6.193  14.723  1.00  0.00     0.048 C 
BRANCH  19  21
HETATM   21  C11 UNL     1      -4.427   6.249  15.149  1.00  0.00     0.003 C 
HETATM   22  C10 UNL     1      -5.391   6.301  14.212  1.00  0.00    -0.018 C 
BRANCH  22  23
HETATM   23  C9  UNL     1      -6.710   5.557  14.266  1.00  0.00     0.050 C 
HETATM   24  C4  UNL     1      -7.163   4.983  12.884  1.00  0.00     0.024 C 
HETATM   25  C5  UNL     1      -8.695   5.044  12.929  1.00  0.00     0.013 C 
HETATM   26  C6  UNL     1      -8.959   6.354  13.660  1.00  0.00     0.039 C 
HETATM   27  C7  UNL     1      -7.954   6.329  14.818  1.00  0.00     0.062 C 
HETATM   28  C8  UNL     1      -7.725   7.724  15.398  1.00  0.00     0.046 C 
BRANCH  24  29
HETATM   29  C2  UNL     1      -6.583   3.616  12.549  1.00  0.00    -0.088 C 
HETATM   30  C1  UNL     1      -5.346   3.497  12.030  1.00  0.00     0.014 C 
HETATM   31  C3  UNL     1      -7.415   2.392  12.822  1.00  0.00     0.043 C 
ENDBRANCH  24  29
BRANCH  27  32
HETATM   32  O1  UNL     1      -8.541   5.537  15.867  1.00  0.00    -0.390 OA
HETATM   33  H14 UNL     1      -7.918   5.532  16.615  1.00  0.00     0.210 HD
ENDBRANCH  27  32
ENDBRANCH  22  23
ENDBRANCH  19  21
ENDBRANCH   1  18
BRANCH  15  34
HETATM   34  O4  UNL     1      -1.532  11.998  19.132  1.00  0.00    -0.389 OA
HETATM   35  H44 UNL     1      -2.049  12.113  19.950  1.00  0.00     0.210 HD
ENDBRANCH  15  34
BRANCH  11  36
HETATM   36  C26 UNL     1      -3.315  15.417  14.726  1.00  0.00     0.265 C 
HETATM   37  O3  UNL     1      -3.781  15.712  13.632  1.00  0.00    -0.302 OA
ENDBRANCH  11  36
TORSDOF 7
ENDMDL
MODEL 9
REMARK minimizedAffinity -8.20492268
REMARK  7 active torsions:
REMARK  status: ('A' for Active; 'I' for Inactive)
REMARK    1  A    between atoms: C2_2  and  C4_4 
REMARK    2  A    between atoms: C7_7  and  O1_9 
REMARK    3  A    between atoms: C9_10  and  C10_11 
REMARK    4  A    between atoms: C11_12  and  C12_13 
REMARK    5  A    between atoms: C14_15  and  C15_16 
REMARK    6  A    between atoms: C24_26  and  C26_28 
REMARK    7  A    between atoms: C29_32  and  O4_34 
ROOT
HETATM    1  C15 UNL     1      -2.347  10.099  15.541  1.00  0.00     0.149 C 
HETATM    2  C16 UNL     1      -1.127  10.005  16.461  1.00  0.00     0.054 C 
HETATM    3  C17 UNL     1       0.021  10.772  15.744  1.00  0.00     0.050 C 
HETATM    4  C18 UNL     1      -0.757  11.475  14.614  1.00  0.00     0.272 C 
HETATM    5  O2  UNL     1      -1.270  12.723  15.070  1.00  0.00    -0.360 OA
HETATM    6  C19 UNL     1      -0.439  13.839  14.764  1.00  0.00     0.171 C 
HETATM    7  C20 UNL     1       1.062  13.609  14.905  1.00  0.00     0.027 C 
HETATM    8  C21 UNL     1       1.516  12.944  16.204  1.00  0.00     0.012 C 
HETATM    9  C22 UNL     1       0.654  11.785  16.763  1.00  0.00     0.032 C 
HETATM   10  C23 UNL     1       1.435  11.046  17.869  1.00  0.00    -0.066 C 
HETATM   11  C24 UNL     1       1.171  11.213  19.193  1.00  0.00    -0.021 C 
HETATM   12  C25 UNL     1       0.124  12.131  19.777  1.00  0.00     0.052 C 
HETATM   13  C27 UNL     1       2.478  10.097  17.304  1.00  0.00     0.038 C 
HETATM   14  C28 UNL     1       1.882   9.104  16.305  1.00  0.00     0.042 C 
HETATM   15  C29 UNL     1       1.099   9.790  15.169  1.00  0.00     0.067 C 
HETATM   16  C30 UNL     1       0.550   8.715  14.215  1.00  0.00     0.047 C 
HETATM   17  O5  UNL     1      -1.859  10.611  14.305  1.00  0.00    -0.351 OA
ENDROOT
BRANCH   1  18
HETATM   18  C14 UNL     1      -3.051   8.776  15.373  1.00  0.00     0.011 C 
HETATM   19  C12 UNL     1      -4.373   8.517  15.251  1.00  0.00    -0.064 C 
HETATM   20  C13 UNL     1      -5.441   9.578  15.336  1.00  0.00     0.048 C 
BRANCH  19  21
HETATM   21  C11 UNL     1      -4.787   7.127  15.064  1.00  0.00     0.003 C 
HETATM   22  C10 UNL     1      -5.483   6.628  14.027  1.00  0.00    -0.018 C 
BRANCH  22  23
HETATM   23  C9  UNL     1      -5.901   5.179  13.865  1.00  0.00     0.050 C 
HETATM   24  C4  UNL     1      -5.344   4.508  12.568  1.00  0.00     0.024 C 
HETATM   25  C5  UNL     1      -6.427   3.499  12.164  1.00  0.00     0.013 C 
HETATM   26  C6  UNL     1      -7.717   4.241  12.493  1.00  0.00     0.039 C 
HETATM   27  C7  UNL     1      -7.434   4.864  13.865  1.00  0.00     0.062 C 
HETATM   28  C8  UNL     1      -8.396   6.012  14.172  1.00  0.00     0.046 C 
BRANCH  24  29
HETATM   29  C2  UNL     1      -3.944   3.927  12.712  1.00  0.00    -0.088 C 
HETATM   30  C1  UNL     1      -3.626   2.740  12.161  1.00  0.00     0.014 C 
HETATM   31  C3  UNL     1      -2.912   4.714  13.474  1.00  0.00     0.043 C 
ENDBRANCH  24  29
BRANCH  27  32
HETATM   32  O1  UNL     1      -7.680   3.845  14.850  1.00  0.00    -0.390 OA
HETATM   33  H14 UNL     1      -7.522   4.238  15.726  1.00  0.00     0.210 HD
ENDBRANCH  27  32
ENDBRANCH  22  23
ENDBRANCH  19  21
ENDBRANCH   1  18
BRANCH  15  34
HETATM   34  O4  UNL     1       2.048  10.551  14.406  1.00  0.00    -0.389 OA
HETATM   35  H44 UNL     1       2.700   9.939  14.021  1.00  0.00     0.210 HD
ENDBRANCH  15  34
BRANCH  11  36
HETATM   36  C26 UNL     1       1.930  10.480  20.259  1.00  0.00     0.265 C 
HETATM   37  O3  UNL     1       2.707   9.566  20.006  1.00  0.00    -0.302 OA
ENDBRANCH  11  36
TORSDOF 7
ENDMDL
