MODEL 1
REMARK minimizedAffinity -9.87583733
REMARK  7 active torsions:
REMARK  status: ('A' for Active; 'I' for Inactive)
REMARK    1  A    between atoms: C2_2  and  C4_4 
REMARK    2  A    between atoms: C4_4  and  C6_6 
REMARK    3  A    between atoms: C7_7  and  C8_8 
REMARK    4  A    between atoms: C8_8  and  O1_10 
REMARK    5  A    between atoms: C8_8  and  C10_11 
REMARK    6  A    between atoms: C15_16  and  O2_17 
REMARK    7  A    between atoms: C26_29  and  O4_30 
ROOT
HETATM    1  C10 UNL     1      -5.654   6.657  13.358  1.00  0.00     0.034 C 
HETATM    2  C11 UNL     1      -5.688   8.125  13.863  1.00  0.00     0.009 C 
HETATM    3  C12 UNL     1      -4.256   8.670  13.727  1.00  0.00     0.006 C 
HETATM    4  C13 UNL     1      -3.503   7.567  12.990  1.00  0.00     0.003 C 
HETATM    5  C14 UNL     1      -1.966   7.570  13.047  1.00  0.00     0.024 C 
HETATM    6  C15 UNL     1      -1.368   8.910  12.573  1.00  0.00     0.123 C 
HETATM    7  C16 UNL     1       0.161   8.865  12.533  1.00  0.00     0.038 C 
HETATM    8  C17 UNL     1       0.669   7.694  11.678  1.00  0.00     0.003 C 
HETATM    9  C18 UNL     1       2.194   7.742  11.539  1.00  0.00     0.083 C 
HETATM   10  C19 UNL     1       2.674   6.615  10.654  1.00  0.00     0.127 C 
HETATM   11  O3  UNL     1       3.539   6.800   9.798  1.00  0.00    -0.298 OA
HETATM   12  C20 UNL     1       2.148   5.232  10.955  1.00  0.00     0.079 C 
HETATM   13  C21 UNL     1       0.636   5.237  11.169  1.00  0.00     0.017 C 
HETATM   14  C22 UNL     1       0.141   6.310  12.182  1.00  0.00    -0.035 C 
HETATM   15  C23 UNL     1       0.690   5.956  13.587  1.00  0.00     0.016 C 
HETATM   16  C24 UNL     1      -1.435   6.372  12.192  1.00  0.00     0.003 C 
HETATM   17  C25 UNL     1      -2.121   5.037  12.578  1.00  0.00     0.038 C 
HETATM   18  C26 UNL     1      -3.659   5.120  12.609  1.00  0.00     0.127 C 
HETATM   19  C27 UNL     1      -4.148   6.259  13.525  1.00  0.00    -0.007 C 
HETATM   20  C28 UNL     1      -3.775   5.970  15.001  1.00  0.00     0.019 C 
ENDROOT
BRANCH   1  21
HETATM   21  C8  UNL     1      -6.824   5.764  13.878  1.00  0.00     0.076 C 
HETATM   22  C9  UNL     1      -6.819   4.424  13.112  1.00  0.00     0.051 C 
BRANCH  21  23
HETATM   23  C7  UNL     1      -8.196   6.405  13.885  1.00  0.00     0.007 C 
HETATM   24  C6  UNL     1      -8.924   6.776  14.954  1.00  0.00    -0.023 C 
BRANCH  24  25
HETATM   25  C4  UNL     1     -10.282   7.458  14.957  1.00  0.00     0.007 C 
HETATM   26  C5  UNL     1     -10.225   8.993  14.930  1.00  0.00     0.014 C 
BRANCH  25  27
HETATM   27  C2  UNL     1     -11.239   6.921  13.852  1.00  0.00    -0.015 C 
HETATM   28  C1  UNL     1     -12.598   6.457  14.387  1.00  0.00     0.010 C 
HETATM   29  C3  UNL     1     -11.453   7.942  12.728  1.00  0.00     0.010 C 
ENDBRANCH  25  27
ENDBRANCH  24  25
ENDBRANCH  21  23
BRANCH  21  30
HETATM   30  O1  UNL     1      -6.558   5.388  15.234  1.00  0.00    -0.386 OA
HETATM   31  H17 UNL     1      -6.364   6.208  15.735  1.00  0.00     0.211 HD
ENDBRANCH  21  30
ENDBRANCH   1  21
BRANCH  18  32
HETATM   32  O4  UNL     1      -4.184   3.872  13.062  1.00  0.00    -0.395 OA
HETATM   33  H43 UNL     1      -3.861   3.186  12.448  1.00  0.00     0.210 HD
ENDBRANCH  18  32
BRANCH   6  34
HETATM   34  O2  UNL     1      -1.861   9.221  11.272  1.00  0.00    -0.395 OA
HETATM   35  H26 UNL     1      -1.509  10.092  11.021  1.00  0.00     0.210 HD
ENDBRANCH   6  34
TORSDOF 7
ENDMDL
MODEL 2
REMARK minimizedAffinity -9.79120922
REMARK  7 active torsions:
REMARK  status: ('A' for Active; 'I' for Inactive)
REMARK    1  A    between atoms: C2_2  and  C4_4 
REMARK    2  A    between atoms: C4_4  and  C6_6 
REMARK    3  A    between atoms: C7_7  and  C8_8 
REMARK    4  A    between atoms: C8_8  and  O1_10 
REMARK    5  A    between atoms: C8_8  and  C10_11 
REMARK    6  A    between atoms: C15_16  and  O2_17 
REMARK    7  A    between atoms: C26_29  and  O4_30 
ROOT
HETATM    1  C10 UNL     1      -1.162   4.947  11.596  1.00  0.00     0.034 C 
HETATM    2  C11 UNL     1      -1.492   3.436  11.461  1.00  0.00     0.009 C 
HETATM    3  C12 UNL     1      -2.896   3.237  12.057  1.00  0.00     0.006 C 
HETATM    4  C13 UNL     1      -3.387   4.653  12.343  1.00  0.00     0.003 C 
HETATM    5  C14 UNL     1      -4.561   4.834  13.320  1.00  0.00     0.024 C 
HETATM    6  C15 UNL     1      -5.797   4.012  12.904  1.00  0.00     0.123 C 
HETATM    7  C16 UNL     1      -6.992   4.281  13.821  1.00  0.00     0.038 C 
HETATM    8  C17 UNL     1      -7.319   5.781  13.895  1.00  0.00     0.003 C 
HETATM    9  C18 UNL     1      -8.595   6.020  14.708  1.00  0.00     0.083 C 
HETATM   10  C19 UNL     1      -8.933   7.493  14.729  1.00  0.00     0.127 C 
HETATM   11  O3  UNL     1     -10.090   7.885  14.577  1.00  0.00    -0.298 OA
HETATM   12  C20 UNL     1      -7.818   8.449  15.078  1.00  0.00     0.079 C 
HETATM   13  C21 UNL     1      -6.537   8.129  14.310  1.00  0.00     0.017 C 
HETATM   14  C22 UNL     1      -6.106   6.635  14.391  1.00  0.00    -0.035 C 
HETATM   15  C23 UNL     1      -5.724   6.307  15.856  1.00  0.00     0.016 C 
HETATM   16  C24 UNL     1      -4.895   6.360  13.418  1.00  0.00     0.003 C 
HETATM   17  C25 UNL     1      -3.634   7.210  13.715  1.00  0.00     0.038 C 
HETATM   18  C26 UNL     1      -2.452   6.911  12.773  1.00  0.00     0.127 C 
HETATM   19  C27 UNL     1      -2.098   5.411  12.765  1.00  0.00    -0.007 C 
HETATM   20  C28 UNL     1      -1.572   4.968  14.153  1.00  0.00     0.019 C 
ENDROOT
BRANCH   1  21
HETATM   21  C8  UNL     1       0.360   5.286  11.552  1.00  0.00     0.076 C 
HETATM   22  C9  UNL     1       0.911   5.340  12.993  1.00  0.00     0.051 C 
BRANCH  21  23
HETATM   23  C7  UNL     1       0.744   6.516  10.754  1.00  0.00     0.007 C 
HETATM   24  C6  UNL     1       1.963   6.846  10.291  1.00  0.00    -0.023 C 
BRANCH  24  25
HETATM   25  C4  UNL     1       2.337   8.058   9.454  1.00  0.00     0.007 C 
HETATM   26  C5  UNL     1       3.848   8.301   9.320  1.00  0.00     0.014 C 
BRANCH  25  27
HETATM   27  C2  UNL     1       1.650   8.072   8.056  1.00  0.00    -0.015 C 
HETATM   28  C1  UNL     1       1.959   6.835   7.205  1.00  0.00     0.010 C 
HETATM   29  C3  UNL     1       0.131   8.256   8.160  1.00  0.00     0.010 C 
ENDBRANCH  25  27
ENDBRANCH  24  25
ENDBRANCH  21  23
BRANCH  21  30
HETATM   30  O1  UNL     1       1.066   4.193  10.953  1.00  0.00    -0.386 OA
HETATM   31  H17 UNL     1       0.628   3.990  10.101  1.00  0.00     0.211 HD
ENDBRANCH  21  30
ENDBRANCH   1  21
BRANCH  18  32
HETATM   32  O4  UNL     1      -1.320   7.676  13.189  1.00  0.00    -0.395 OA
HETATM   33  H43 UNL     1      -1.585   8.614  13.166  1.00  0.00     0.210 HD
ENDBRANCH  18  32
BRANCH   6  34
HETATM   34  O2  UNL     1      -6.156   4.332  11.562  1.00  0.00    -0.395 OA
HETATM   35  H26 UNL     1      -6.904   3.763  11.310  1.00  0.00     0.210 HD
ENDBRANCH   6  34
TORSDOF 7
ENDMDL
MODEL 3
REMARK minimizedAffinity -9.68181705
REMARK  7 active torsions:
REMARK  status: ('A' for Active; 'I' for Inactive)
REMARK    1  A    between atoms: C2_2  and  C4_4 
REMARK    2  A    between atoms: C4_4  and  C6_6 
REMARK    3  A    between atoms: C7_7  and  C8_8 
REMARK    4  A    between atoms: C8_8  and  O1_10 
REMARK    5  A    between atoms: C8_8  and  C10_11 
REMARK    6  A    between atoms: C15_16  and  O2_17 
REMARK    7  A    between atoms: C26_29  and  O4_30 
ROOT
HETATM    1  C10 UNL     1      -5.117   6.919  13.494  1.00  0.00     0.034 C 
HETATM    2  C11 UNL     1      -5.104   8.435  13.831  1.00  0.00     0.009 C 
HETATM    3  C12 UNL     1      -3.680   8.938  13.537  1.00  0.00     0.006 C 
HETATM    4  C13 UNL     1      -2.989   7.748  12.881  1.00  0.00     0.003 C 
HETATM    5  C14 UNL     1      -1.452   7.734  12.833  1.00  0.00     0.024 C 
HETATM    6  C15 UNL     1      -0.877   9.001  12.171  1.00  0.00     0.123 C 
HETATM    7  C16 UNL     1       0.645   8.929  12.032  1.00  0.00     0.038 C 
HETATM    8  C17 UNL     1       1.084   7.661  11.283  1.00  0.00     0.003 C 
HETATM    9  C18 UNL     1       2.596   7.670  11.037  1.00  0.00     0.083 C 
HETATM   10  C19 UNL     1       3.005   6.443  10.256  1.00  0.00     0.127 C 
HETATM   11  O3  UNL     1       3.810   6.516   9.328  1.00  0.00    -0.298 OA
HETATM   12  C20 UNL     1       2.490   5.111  10.747  1.00  0.00     0.079 C 
HETATM   13  C21 UNL     1       0.996   5.163  11.061  1.00  0.00     0.017 C 
HETATM   14  C22 UNL     1       0.581   6.352  11.977  1.00  0.00    -0.035 C 
HETATM   15  C23 UNL     1       1.223   6.150  13.373  1.00  0.00     0.016 C 
HETATM   16  C24 UNL     1      -0.990   6.438  12.086  1.00  0.00     0.003 C 
HETATM   17  C25 UNL     1      -1.658   5.166  12.667  1.00  0.00     0.038 C 
HETATM   18  C26 UNL     1      -3.190   5.276  12.792  1.00  0.00     0.127 C 
HETATM   19  C27 UNL     1      -3.606   6.519  13.604  1.00  0.00    -0.007 C 
HETATM   20  C28 UNL     1      -3.133   6.393  15.074  1.00  0.00     0.019 C 
ENDROOT
BRANCH   1  21
HETATM   21  C8  UNL     1      -6.254   6.108  14.191  1.00  0.00     0.076 C 
HETATM   22  C9  UNL     1      -6.243   6.413  15.704  1.00  0.00     0.051 C 
BRANCH  21  23
HETATM   23  C7  UNL     1      -6.273   4.619  13.915  1.00  0.00     0.007 C 
HETATM   24  C6  UNL     1      -6.594   4.000  12.764  1.00  0.00    -0.023 C 
BRANCH  24  25
HETATM   25  C4  UNL     1      -6.570   2.508  12.479  1.00  0.00     0.007 C 
HETATM   26  C5  UNL     1      -7.954   1.840  12.457  1.00  0.00     0.014 C 
BRANCH  25  27
HETATM   27  C2  UNL     1      -5.761   2.142  11.199  1.00  0.00    -0.015 C 
HETATM   28  C1  UNL     1      -5.348   3.358  10.362  1.00  0.00     0.010 C 
HETATM   29  C3  UNL     1      -4.522   1.298  11.520  1.00  0.00     0.010 C 
ENDBRANCH  25  27
ENDBRANCH  24  25
ENDBRANCH  21  23
BRANCH  21  30
HETATM   30  O1  UNL     1      -7.523   6.606  13.748  1.00  0.00    -0.386 OA
HETATM   31  H17 UNL     1      -7.512   6.611  12.768  1.00  0.00     0.211 HD
ENDBRANCH  21  30
ENDBRANCH   1  21
BRANCH  18  32
HETATM   32  O4  UNL     1      -3.692   4.095  13.419  1.00  0.00    -0.395 OA
HETATM   33  H43 UNL     1      -3.417   3.340  12.867  1.00  0.00     0.210 HD
ENDBRANCH  18  32
BRANCH   6  34
HETATM   34  O2  UNL     1      -1.457   9.171  10.879  1.00  0.00    -0.395 OA
HETATM   35  H26 UNL     1      -1.116  10.003  10.507  1.00  0.00     0.210 HD
ENDBRANCH   6  34
TORSDOF 7
ENDMDL
MODEL 4
REMARK minimizedAffinity -9.41540527
REMARK  7 active torsions:
REMARK  status: ('A' for Active; 'I' for Inactive)
REMARK    1  A    between atoms: C2_2  and  C4_4 
REMARK    2  A    between atoms: C4_4  and  C6_6 
REMARK    3  A    between atoms: C7_7  and  C8_8 
REMARK    4  A    between atoms: C8_8  and  O1_10 
REMARK    5  A    between atoms: C8_8  and  C10_11 
REMARK    6  A    between atoms: C15_16  and  O2_17 
REMARK    7  A    between atoms: C26_29  and  O4_30 
ROOT
HETATM    1  C10 UNL     1       1.106   6.652  11.053  1.00  0.00     0.034 C 
HETATM    2  C11 UNL     1       1.411   5.130  11.036  1.00  0.00     0.009 C 
HETATM    3  C12 UNL     1       0.168   4.426  11.606  1.00  0.00     0.006 C 
HETATM    4  C13 UNL     1      -0.860   5.543  11.759  1.00  0.00     0.003 C 
HETATM    5  C14 UNL     1      -2.065   5.303  12.684  1.00  0.00     0.024 C 
HETATM    6  C15 UNL     1      -2.847   4.030  12.304  1.00  0.00     0.123 C 
HETATM    7  C16 UNL     1      -4.103   3.859  13.160  1.00  0.00     0.038 C 
HETATM    8  C17 UNL     1      -5.001   5.104  13.100  1.00  0.00     0.003 C 
HETATM    9  C18 UNL     1      -6.314   4.866  13.853  1.00  0.00     0.083 C 
HETATM   10  C19 UNL     1      -7.208   6.079  13.742  1.00  0.00     0.127 C 
HETATM   11  O3  UNL     1      -8.414   5.965  13.525  1.00  0.00    -0.298 OA
HETATM   12  C20 UNL     1      -6.586   7.422  14.041  1.00  0.00     0.079 C 
HETATM   13  C21 UNL     1      -5.240   7.590  13.339  1.00  0.00     0.017 C 
HETATM   14  C22 UNL     1      -4.258   6.402  13.556  1.00  0.00    -0.035 C 
HETATM   15  C23 UNL     1      -3.864   6.351  15.054  1.00  0.00     0.016 C 
HETATM   16  C24 UNL     1      -2.982   6.571  12.644  1.00  0.00     0.003 C 
HETATM   17  C25 UNL     1      -2.181   7.872  12.905  1.00  0.00     0.038 C 
HETATM   18  C26 UNL     1      -0.924   8.009  12.025  1.00  0.00     0.127 C 
HETATM   19  C27 UNL     1      -0.004   6.779  12.152  1.00  0.00    -0.007 C 
HETATM   20  C28 UNL     1       0.571   6.674  13.587  1.00  0.00     0.019 C 
ENDROOT
BRANCH   1  21
HETATM   21  C8  UNL     1       2.369   7.568  11.023  1.00  0.00     0.076 C 
HETATM   22  C9  UNL     1       2.628   8.029   9.573  1.00  0.00     0.051 C 
BRANCH  21  23
HETATM   23  C7  UNL     1       3.617   6.999  11.666  1.00  0.00     0.007 C 
HETATM   24  C6  UNL     1       4.836   6.860  11.112  1.00  0.00    -0.023 C 
BRANCH  24  25
HETATM   25  C4  UNL     1       6.096   6.330  11.774  1.00  0.00     0.007 C 
HETATM   26  C5  UNL     1       6.948   5.413  10.882  1.00  0.00     0.014 C 
BRANCH  25  27
HETATM   27  C2  UNL     1       6.972   7.450  12.410  1.00  0.00    -0.015 C 
HETATM   28  C1  UNL     1       6.799   8.820  11.745  1.00  0.00     0.010 C 
HETATM   29  C3  UNL     1       6.737   7.580  13.919  1.00  0.00     0.010 C 
ENDBRANCH  25  27
ENDBRANCH  24  25
ENDBRANCH  21  23
BRANCH  21  30
HETATM   30  O1  UNL     1       2.083   8.783  11.726  1.00  0.00    -0.386 OA
HETATM   31  H17 UNL     1       1.728   8.539  12.606  1.00  0.00     0.211 HD
ENDBRANCH  21  30
ENDBRANCH   1  21
BRANCH  18  32
HETATM   32  O4  UNL     1      -0.214   9.188  12.407  1.00  0.00    -0.395 OA
HETATM   33  H43 UNL     1      -0.828   9.939  12.299  1.00  0.00     0.210 HD
ENDBRANCH  18  32
BRANCH   6  34
HETATM   34  O2  UNL     1      -3.223   4.092  10.929  1.00  0.00    -0.395 OA
HETATM   35  H26 UNL     1      -3.668   3.256  10.705  1.00  0.00     0.210 HD
ENDBRANCH   6  34
TORSDOF 7
ENDMDL
MODEL 5
REMARK minimizedAffinity -9.36598015
REMARK  7 active torsions:
REMARK  status: ('A' for Active; 'I' for Inactive)
REMARK    1  A    between atoms: C2_2  and  C4_4 
REMARK    2  A    between atoms: C4_4  and  C6_6 
REMARK    3  A    between atoms: C7_7  and  C8_8 
REMARK    4  A    between atoms: C8_8  and  O1_10 
REMARK    5  A    between atoms: C8_8  and  C10_11 
REMARK    6  A    between atoms: C15_16  and  O2_17 
REMARK    7  A    between atoms: C26_29  and  O4_30 
ROOT
HETATM    1  C10 UNL     1      -3.104   8.343  15.234  1.00  0.00     0.034 C 
HETATM    2  C11 UNL     1      -3.706   6.915  15.328  1.00  0.00     0.009 C 
HETATM    3  C12 UNL     1      -2.855   6.017  14.414  1.00  0.00     0.006 C 
HETATM    4  C13 UNL     1      -1.701   6.914  13.977  1.00  0.00     0.003 C 
HETATM    5  C14 UNL     1      -0.887   6.501  12.738  1.00  0.00     0.024 C 
HETATM    6  C15 UNL     1      -0.317   5.075  12.864  1.00  0.00     0.123 C 
HETATM    7  C16 UNL     1       0.578   4.715  11.677  1.00  0.00     0.038 C 
HETATM    8  C17 UNL     1       1.699   5.748  11.481  1.00  0.00     0.003 C 
HETATM    9  C18 UNL     1       2.662   5.304  10.376  1.00  0.00     0.083 C 
HETATM   10  C19 UNL     1       3.786   6.303  10.230  1.00  0.00     0.127 C 
HETATM   11  O3  UNL     1       4.952   5.936  10.084  1.00  0.00    -0.298 OA
HETATM   12  C20 UNL     1       3.403   7.761  10.135  1.00  0.00     0.079 C 
HETATM   13  C21 UNL     1       2.380   8.147  11.201  1.00  0.00     0.017 C 
HETATM   14  C22 UNL     1       1.148   7.197  11.271  1.00  0.00    -0.035 C 
HETATM   15  C23 UNL     1       0.344   7.328   9.954  1.00  0.00     0.016 C 
HETATM   16  C24 UNL     1       0.250   7.555  12.517  1.00  0.00     0.003 C 
HETATM   17  C25 UNL     1      -0.298   9.004  12.512  1.00  0.00     0.038 C 
HETATM   18  C26 UNL     1      -1.195   9.330  13.721  1.00  0.00     0.127 C 
HETATM   19  C27 UNL     1      -2.351   8.320  13.860  1.00  0.00    -0.007 C 
HETATM   20  C28 UNL     1      -3.319   8.432  12.655  1.00  0.00     0.019 C 
ENDROOT
BRANCH   1  21
HETATM   21  C8  UNL     1      -4.083   9.489  15.638  1.00  0.00     0.076 C 
HETATM   22  C9  UNL     1      -3.639  10.084  16.991  1.00  0.00     0.051 C 
BRANCH  21  23
HETATM   23  C7  UNL     1      -5.556   9.137  15.633  1.00  0.00     0.007 C 
HETATM   24  C6  UNL     1      -6.130   8.011  15.171  1.00  0.00    -0.023 C 
BRANCH  24  25
HETATM   25  C4  UNL     1      -7.603   7.642  15.207  1.00  0.00     0.007 C 
HETATM   26  C5  UNL     1      -8.561   8.842  15.253  1.00  0.00     0.014 C 
BRANCH  25  27
HETATM   27  C2  UNL     1      -8.015   6.651  14.078  1.00  0.00    -0.015 C 
HETATM   28  C1  UNL     1      -7.530   5.216  14.310  1.00  0.00     0.010 C 
HETATM   29  C3  UNL     1      -9.530   6.646  13.837  1.00  0.00     0.010 C 
ENDBRANCH  25  27
ENDBRANCH  24  25
ENDBRANCH  21  23
BRANCH  21  30
HETATM   30  O1  UNL     1      -3.936  10.578  14.718  1.00  0.00    -0.386 OA
HETATM   31  H17 UNL     1      -4.024  10.212  13.813  1.00  0.00     0.211 HD
ENDBRANCH  21  30
ENDBRANCH   1  21
BRANCH  18  32
HETATM   32  O4  UNL     1      -1.717  10.650  13.572  1.00  0.00    -0.395 OA
HETATM   33  H43 UNL     1      -0.955  11.254  13.502  1.00  0.00     0.210 HD
ENDBRANCH  18  32
BRANCH   6  34
HETATM   34  O2  UNL     1       0.438   4.965  14.069  1.00  0.00    -0.395 OA
HETATM   35  H26 UNL     1       0.741   4.044  14.147  1.00  0.00     0.210 HD
ENDBRANCH   6  34
TORSDOF 7
ENDMDL
MODEL 6
REMARK minimizedAffinity -9.29688168
REMARK  7 active torsions:
REMARK  status: ('A' for Active; 'I' for Inactive)
REMARK    1  A    between atoms: C2_2  and  C4_4 
REMARK    2  A    between atoms: C4_4  and  C6_6 
REMARK    3  A    between atoms: C7_7  and  C8_8 
REMARK    4  A    between atoms: C8_8  and  O1_10 
REMARK    5  A    between atoms: C8_8  and  C10_11 
REMARK    6  A    between atoms: C15_16  and  O2_17 
REMARK    7  A    between atoms: C26_29  and  O4_30 
ROOT
HETATM    1  C10 UNL     1      -1.745   5.411  12.925  1.00  0.00     0.034 C 
HETATM    2  C11 UNL     1      -1.998   4.972  11.457  1.00  0.00     0.009 C 
HETATM    3  C12 UNL     1      -0.706   5.274  10.679  1.00  0.00     0.006 C 
HETATM    4  C13 UNL     1       0.289   5.700  11.753  1.00  0.00     0.003 C 
HETATM    5  C14 UNL     1       1.545   6.474  11.318  1.00  0.00     0.024 C 
HETATM    6  C15 UNL     1       2.350   5.719  10.242  1.00  0.00     0.123 C 
HETATM    7  C16 UNL     1       3.651   6.445   9.893  1.00  0.00     0.038 C 
HETATM    8  C17 UNL     1       4.503   6.709  11.145  1.00  0.00     0.003 C 
HETATM    9  C18 UNL     1       5.857   7.316  10.764  1.00  0.00     0.083 C 
HETATM   10  C19 UNL     1       6.703   7.521  11.999  1.00  0.00     0.127 C 
HETATM   11  O3  UNL     1       7.901   7.238  12.008  1.00  0.00    -0.298 OA
HETATM   12  C20 UNL     1       6.051   8.213  13.173  1.00  0.00     0.079 C 
HETATM   13  C21 UNL     1       4.668   7.637  13.470  1.00  0.00     0.017 C 
HETATM   14  C22 UNL     1       3.738   7.543  12.225  1.00  0.00    -0.035 C 
HETATM   15  C23 UNL     1       3.419   8.977  11.734  1.00  0.00     0.016 C 
HETATM   16  C24 UNL     1       2.415   6.764  12.586  1.00  0.00     0.003 C 
HETATM   17  C25 UNL     1       1.584   7.412  13.722  1.00  0.00     0.038 C 
HETATM   18  C26 UNL     1       0.282   6.654  14.044  1.00  0.00     0.127 C 
HETATM   19  C27 UNL     1      -0.588   6.459  12.787  1.00  0.00    -0.007 C 
HETATM   20  C28 UNL     1      -1.090   7.825  12.254  1.00  0.00     0.019 C 
ENDROOT
BRANCH   1  21
HETATM   21  C8  UNL     1      -3.038   5.689  13.752  1.00  0.00     0.076 C 
HETATM   22  C9  UNL     1      -2.826   5.209  15.204  1.00  0.00     0.051 C 
BRANCH  21  23
HETATM   23  C7  UNL     1      -4.329   5.158  13.165  1.00  0.00     0.007 C 
HETATM   24  C6  UNL     1      -4.492   4.075  12.383  1.00  0.00    -0.023 C 
BRANCH  24  25
HETATM   25  C4  UNL     1      -5.794   3.519  11.832  1.00  0.00     0.007 C 
HETATM   26  C5  UNL     1      -5.723   2.051  11.383  1.00  0.00     0.014 C 
BRANCH  25  27
HETATM   27  C2  UNL     1      -7.008   3.748  12.781  1.00  0.00    -0.015 C 
HETATM   28  C1  UNL     1      -7.952   4.861  12.316  1.00  0.00     0.010 C 
HETATM   29  C3  UNL     1      -7.809   2.461  13.014  1.00  0.00     0.010 C 
ENDBRANCH  25  27
ENDBRANCH  24  25
ENDBRANCH  21  23
BRANCH  21  30
HETATM   30  O1  UNL     1      -3.217   7.105  13.880  1.00  0.00    -0.386 OA
HETATM   31  H17 UNL     1      -3.170   7.490  12.980  1.00  0.00     0.211 HD
ENDBRANCH  21  30
ENDBRANCH   1  21
BRANCH  18  32
HETATM   32  O4  UNL     1      -0.448   7.381  15.033  1.00  0.00    -0.395 OA
HETATM   33  H43 UNL     1       0.134   7.469  15.811  1.00  0.00     0.210 HD
ENDBRANCH  18  32
BRANCH   6  34
HETATM   34  O2  UNL     1       2.658   4.406  10.707  1.00  0.00    -0.395 OA
HETATM   35  H26 UNL     1       3.120   3.938   9.990  1.00  0.00     0.210 HD
ENDBRANCH   6  34
TORSDOF 7
ENDMDL
MODEL 7
REMARK minimizedAffinity -9.13863945
REMARK  7 active torsions:
REMARK  status: ('A' for Active; 'I' for Inactive)
REMARK    1  A    between atoms: C2_2  and  C4_4 
REMARK    2  A    between atoms: C4_4  and  C6_6 
REMARK    3  A    between atoms: C7_7  and  C8_8 
REMARK    4  A    between atoms: C8_8  and  O1_10 
REMARK    5  A    between atoms: C8_8  and  C10_11 
REMARK    6  A    between atoms: C15_16  and  O2_17 
REMARK    7  A    between atoms: C26_29  and  O4_30 
ROOT
HETATM    1  C10 UNL     1      -0.185   6.066  12.385  1.00  0.00     0.034 C 
HETATM    2  C11 UNL     1      -0.067   4.556  12.042  1.00  0.00     0.009 C 
HETATM    3  C12 UNL     1      -1.463   3.946  12.257  1.00  0.00     0.006 C 
HETATM    4  C13 UNL     1      -2.359   5.148  12.536  1.00  0.00     0.003 C 
HETATM    5  C14 UNL     1      -3.720   4.901  13.208  1.00  0.00     0.024 C 
HETATM    6  C15 UNL     1      -4.576   3.881  12.433  1.00  0.00     0.123 C 
HETATM    7  C16 UNL     1      -5.968   3.723  13.050  1.00  0.00     0.038 C 
HETATM    8  C17 UNL     1      -6.687   5.075  13.173  1.00  0.00     0.003 C 
HETATM    9  C18 UNL     1      -8.125   4.884  13.667  1.00  0.00     0.083 C 
HETATM   10  C19 UNL     1      -8.836   6.216  13.733  1.00  0.00     0.127 C 
HETATM   11  O3  UNL     1      -9.995   6.342  13.338  1.00  0.00    -0.298 OA
HETATM   12  C20 UNL     1      -8.114   7.347  14.426  1.00  0.00     0.079 C 
HETATM   13  C21 UNL     1      -6.661   7.454  13.970  1.00  0.00     0.017 C 
HETATM   14  C22 UNL     1      -5.878   6.109  14.023  1.00  0.00    -0.035 C 
HETATM   15  C23 UNL     1      -5.746   5.669  15.502  1.00  0.00     0.016 C 
HETATM   16  C24 UNL     1      -4.458   6.274  13.355  1.00  0.00     0.003 C 
HETATM   17  C25 UNL     1      -3.561   7.345  14.024  1.00  0.00     0.038 C 
HETATM   18  C26 UNL     1      -2.168   7.475  13.378  1.00  0.00     0.127 C 
HETATM   19  C27 UNL     1      -1.437   6.119  13.325  1.00  0.00    -0.007 C 
HETATM   20  C28 UNL     1      -1.123   5.614  14.755  1.00  0.00     0.019 C 
ENDROOT
BRANCH   1  21
HETATM   21  C8  UNL     1       1.167   6.758  12.743  1.00  0.00     0.076 C 
HETATM   22  C9  UNL     1       0.889   8.201  13.215  1.00  0.00     0.051 C 
BRANCH  21  23
HETATM   23  C7  UNL     1       2.242   6.710  11.677  1.00  0.00     0.007 C 
HETATM   24  C6  UNL     1       2.520   7.643  10.748  1.00  0.00    -0.023 C 
BRANCH  24  25
HETATM   25  C4  UNL     1       3.627   7.611   9.708  1.00  0.00     0.007 C 
HETATM   26  C5  UNL     1       3.291   8.337   8.396  1.00  0.00     0.014 C 
BRANCH  25  27
HETATM   27  C2  UNL     1       5.003   8.083  10.263  1.00  0.00    -0.015 C 
HETATM   28  C1  UNL     1       4.909   9.297  11.194  1.00  0.00     0.010 C 
HETATM   29  C3  UNL     1       5.758   6.952  10.973  1.00  0.00     0.010 C 
ENDBRANCH  25  27
ENDBRANCH  24  25
ENDBRANCH  21  23
BRANCH  21  30
HETATM   30  O1  UNL     1       1.728   6.120  13.897  1.00  0.00    -0.386 OA
HETATM   31  H17 UNL     1       1.752   5.157  13.719  1.00  0.00     0.211 HD
ENDBRANCH  21  30
ENDBRANCH   1  21
BRANCH  18  32
HETATM   32  O4  UNL     1      -1.395   8.416  14.122  1.00  0.00    -0.395 OA
HETATM   33  H43 UNL     1      -1.887   9.258  14.118  1.00  0.00     0.210 HD
ENDBRANCH  18  32
BRANCH   6  34
HETATM   34  O2  UNL     1      -4.711   4.300  11.077  1.00  0.00    -0.395 OA
HETATM   35  H26 UNL     1      -5.210   3.614  10.602  1.00  0.00     0.210 HD
ENDBRANCH   6  34
TORSDOF 7
ENDMDL
MODEL 8
REMARK minimizedAffinity -8.90212631
REMARK  7 active torsions:
REMARK  status: ('A' for Active; 'I' for Inactive)
REMARK    1  A    between atoms: C2_2  and  C4_4 
REMARK    2  A    between atoms: C4_4  and  C6_6 
REMARK    3  A    between atoms: C7_7  and  C8_8 
REMARK    4  A    between atoms: C8_8  and  O1_10 
REMARK    5  A    between atoms: C8_8  and  C10_11 
REMARK    6  A    between atoms: C15_16  and  O2_17 
REMARK    7  A    between atoms: C26_29  and  O4_30 
ROOT
HETATM    1  C10 UNL     1      -3.004   6.958  13.366  1.00  0.00     0.034 C 
HETATM    2  C11 UNL     1      -4.385   7.547  12.967  1.00  0.00     0.009 C 
HETATM    3  C12 UNL     1      -4.639   8.744  13.900  1.00  0.00     0.006 C 
HETATM    4  C13 UNL     1      -3.330   8.906  14.666  1.00  0.00     0.003 C 
HETATM    5  C14 UNL     1      -3.347   9.720  15.971  1.00  0.00     0.024 C 
HETATM    6  C15 UNL     1      -3.920  11.136  15.768  1.00  0.00     0.123 C 
HETATM    7  C16 UNL     1      -3.834  11.973  17.046  1.00  0.00     0.038 C 
HETATM    8  C17 UNL     1      -2.397  12.026  17.589  1.00  0.00     0.003 C 
HETATM    9  C18 UNL     1      -2.304  12.972  18.790  1.00  0.00     0.083 C 
HETATM   10  C19 UNL     1      -0.877  13.054  19.281  1.00  0.00     0.127 C 
HETATM   11  O3  UNL     1      -0.371  14.131  19.598  1.00  0.00    -0.298 OA
HETATM   12  C20 UNL     1      -0.147  11.750  19.494  1.00  0.00     0.079 C 
HETATM   13  C21 UNL     1      -0.331  10.799  18.314  1.00  0.00     0.017 C 
HETATM   14  C22 UNL     1      -1.814  10.604  17.881  1.00  0.00    -0.035 C 
HETATM   15  C23 UNL     1      -2.574   9.887  19.026  1.00  0.00     0.016 C 
HETATM   16  C24 UNL     1      -1.891   9.769  16.545  1.00  0.00     0.003 C 
HETATM   17  C25 UNL     1      -1.259   8.358  16.639  1.00  0.00     0.038 C 
HETATM   18  C26 UNL     1      -1.366   7.545  15.335  1.00  0.00     0.127 C 
HETATM   19  C27 UNL     1      -2.823   7.448  14.843  1.00  0.00    -0.007 C 
HETATM   20  C28 UNL     1      -3.683   6.635  15.844  1.00  0.00     0.019 C 
ENDROOT
BRANCH   1  21
HETATM   21  C8  UNL     1      -2.783   5.474  12.938  1.00  0.00     0.076 C 
HETATM   22  C9  UNL     1      -1.445   5.359  12.177  1.00  0.00     0.051 C 
BRANCH  21  23
HETATM   23  C7  UNL     1      -3.921   4.824  12.180  1.00  0.00     0.007 C 
HETATM   24  C6  UNL     1      -4.963   4.140  12.689  1.00  0.00    -0.023 C 
BRANCH  24  25
HETATM   25  C4  UNL     1      -6.126   3.527  11.928  1.00  0.00     0.007 C 
HETATM   26  C5  UNL     1      -5.918   2.062  11.515  1.00  0.00     0.014 C 
BRANCH  25  27
HETATM   27  C2  UNL     1      -7.494   3.707  12.652  1.00  0.00    -0.015 C 
HETATM   28  C1  UNL     1      -7.407   3.572  14.176  1.00  0.00     0.010 C 
HETATM   29  C3  UNL     1      -8.167   5.038  12.294  1.00  0.00     0.010 C 
ENDBRANCH  25  27
ENDBRANCH  24  25
ENDBRANCH  21  23
BRANCH  21  30
HETATM   30  O1  UNL     1      -2.583   4.674  14.110  1.00  0.00    -0.386 OA
HETATM   31  H17 UNL     1      -3.325   4.857  14.722  1.00  0.00     0.211 HD
ENDBRANCH  21  30
ENDBRANCH   1  21
BRANCH  18  32
HETATM   32  O4  UNL     1      -0.839   6.237  15.556  1.00  0.00    -0.395 OA
HETATM   33  H43 UNL     1       0.084   6.346  15.851  1.00  0.00     0.210 HD
ENDBRANCH  18  32
BRANCH   6  34
HETATM   34  O2  UNL     1      -3.205  11.798  14.727  1.00  0.00    -0.395 OA
HETATM   35  H26 UNL     1      -3.620  12.666  14.586  1.00  0.00     0.210 HD
ENDBRANCH   6  34
TORSDOF 7
ENDMDL
MODEL 9
REMARK minimizedAffinity -8.77820587
REMARK  7 active torsions:
REMARK  status: ('A' for Active; 'I' for Inactive)
REMARK    1  A    between atoms: C2_2  and  C4_4 
REMARK    2  A    between atoms: C4_4  and  C6_6 
REMARK    3  A    between atoms: C7_7  and  C8_8 
REMARK    4  A    between atoms: C8_8  and  O1_10 
REMARK    5  A    between atoms: C8_8  and  C10_11 
REMARK    6  A    between atoms: C15_16  and  O2_17 
REMARK    7  A    between atoms: C26_29  and  O4_30 
ROOT
HETATM    1  C10 UNL     1      -0.868  10.264  17.931  1.00  0.00     0.034 C 
HETATM    2  C11 UNL     1      -2.381  10.595  18.051  1.00  0.00     0.009 C 
HETATM    3  C12 UNL     1      -3.104   9.731  17.003  1.00  0.00     0.006 C 
HETATM    4  C13 UNL     1      -2.014   8.817  16.453  1.00  0.00     0.003 C 
HETATM    5  C14 UNL     1      -2.262   8.116  15.106  1.00  0.00     0.024 C 
HETATM    6  C15 UNL     1      -3.569   7.299  15.106  1.00  0.00     0.123 C 
HETATM    7  C16 UNL     1      -3.752   6.521  13.801  1.00  0.00     0.038 C 
HETATM    8  C17 UNL     1      -2.538   5.630  13.501  1.00  0.00     0.003 C 
HETATM    9  C18 UNL     1      -2.792   4.761  12.265  1.00  0.00     0.083 C 
HETATM   10  C19 UNL     1      -1.611   3.854  12.012  1.00  0.00     0.127 C 
HETATM   11  O3  UNL     1      -1.767   2.672  11.704  1.00  0.00    -0.298 OA
HETATM   12  C20 UNL     1      -0.241   4.489  12.020  1.00  0.00     0.079 C 
HETATM   13  C21 UNL     1      -0.053   5.413  13.221  1.00  0.00     0.017 C 
HETATM   14  C22 UNL     1      -1.204   6.444  13.415  1.00  0.00    -0.035 C 
HETATM   15  C23 UNL     1      -1.198   7.426  12.218  1.00  0.00     0.016 C 
HETATM   16  C24 UNL     1      -1.024   7.216  14.779  1.00  0.00     0.003 C 
HETATM   17  C25 UNL     1       0.307   7.999  14.896  1.00  0.00     0.038 C 
HETATM   18  C26 UNL     1       0.456   8.770  16.222  1.00  0.00     0.127 C 
HETATM   19  C27 UNL     1      -0.742   9.708  16.471  1.00  0.00    -0.007 C 
HETATM   20  C28 UNL     1      -0.785  10.832  15.406  1.00  0.00     0.019 C 
ENDROOT
BRANCH   1  21
HETATM   21  C8  UNL     1       0.084  11.362  18.498  1.00  0.00     0.076 C 
HETATM   22  C9  UNL     1       0.367  12.407  17.399  1.00  0.00     0.051 C 
BRANCH  21  23
HETATM   23  C7  UNL     1       1.360  10.865  19.146  1.00  0.00     0.007 C 
HETATM   24  C6  UNL     1       1.579  10.625  20.452  1.00  0.00    -0.023 C 
BRANCH  24  25
HETATM   25  C4  UNL     1       2.846  10.085  21.093  1.00  0.00     0.007 C 
HETATM   26  C5  UNL     1       4.070  11.006  20.964  1.00  0.00     0.014 C 
BRANCH  25  27
HETATM   27  C2  UNL     1       2.644   9.642  22.572  1.00  0.00    -0.015 C 
HETATM   28  C1  UNL     1       2.234   8.173  22.725  1.00  0.00     0.010 C 
HETATM   29  C3  UNL     1       3.882   9.919  23.433  1.00  0.00     0.010 C 
ENDBRANCH  25  27
ENDBRANCH  24  25
ENDBRANCH  21  23
BRANCH  21  30
HETATM   30  O1  UNL     1      -0.607  12.104  19.510  1.00  0.00    -0.386 OA
HETATM   31  H17 UNL     1      -0.977  11.459  20.148  1.00  0.00     0.211 HD
ENDBRANCH  21  30
ENDBRANCH   1  21
BRANCH  18  32
HETATM   32  O4  UNL     1       1.667   9.526  16.188  1.00  0.00    -0.395 OA
HETATM   33  H43 UNL     1       2.395   8.893  16.042  1.00  0.00     0.210 HD
ENDBRANCH  18  32
BRANCH   6  34
HETATM   34  O2  UNL     1      -3.561   6.383  16.199  1.00  0.00    -0.395 OA
HETATM   35  H26 UNL     1      -4.417   5.919  16.205  1.00  0.00     0.210 HD
ENDBRANCH   6  34
TORSDOF 7
ENDMDL
