MODEL 1
REMARK minimizedAffinity -6.45380116
REMARK CNNscore 0.719793737
REMARK CNNaffinity 6.52236128
REMARK  6 active torsions:
REMARK  status: ('A' for Active; 'I' for Inactive)
REMARK    1  A    between atoms: C12_13  and  C13_14 
REMARK    2  A    between atoms: C13_14  and  C15_16 
REMARK    3  A    between atoms: C15_16  and  C16_17 
REMARK    4  A    between atoms: C16_17  and  C17_18 
REMARK    5  A    between atoms: C18_19  and  C20_21 
REMARK    6  A    between atoms: C20_21  and  O3_23 
ROOT
HETATM    1  C1  UNL     1      16.072  -1.521   0.914  1.00  0.00     0.052 C 
HETATM    2  C2  UNL     1      15.022  -1.780   1.957  1.00  0.00    -0.013 C 
HETATM    3  C3  UNL     1      14.222  -2.868   2.029  1.00  0.00    -0.066 C 
HETATM    4  C4  UNL     1      14.298  -4.046   1.088  1.00  0.00     0.036 C 
HETATM    5  C5  UNL     1      14.713  -5.298   1.872  1.00  0.00     0.010 C 
HETATM    6  C6  UNL     1      13.774  -5.563   3.077  1.00  0.00     0.007 C 
HETATM    7  C7  UNL     1      13.692  -4.285   3.972  1.00  0.00     0.068 C 
HETATM    8  C8  UNL     1      12.847  -4.564   5.200  1.00  0.00     0.133 C 
HETATM    9  O1  UNL     1      12.783  -3.767   6.137  1.00  0.00    -0.298 OA
HETATM   10  C9  UNL     1      12.081  -5.856   5.235  1.00  0.00     0.089 C 
HETATM   11  C10 UNL     1      12.957  -7.128   4.991  1.00  0.00    -0.026 C 
HETATM   12  C11 UNL     1      11.927  -8.191   4.543  1.00  0.00     0.016 C 
HETATM   13  C12 UNL     1      13.755  -7.485   6.318  1.00  0.00    -0.002 C 
HETATM   14  C21 UNL     1      15.019  -6.625   6.176  1.00  0.00     0.006 C 
HETATM   15  C22 UNL     1      15.414  -6.747   4.716  1.00  0.00     0.011 C 
HETATM   16  C23 UNL     1      14.097  -6.866   3.899  1.00  0.00    -0.032 C 
HETATM   17  C24 UNL     1      14.280  -8.055   2.924  1.00  0.00     0.016 C 
HETATM   18  C25 UNL     1      13.181  -3.094   3.124  1.00  0.00     0.027 C 
HETATM   19  C26 UNL     1      12.865  -1.785   3.857  1.00  0.00     0.018 C 
HETATM   20  C27 UNL     1      14.120  -1.046   4.269  1.00  0.00     0.084 C 
HETATM   21  C28 UNL     1      14.948  -0.741   3.044  1.00  0.00     0.155 C 
HETATM   22  O4  UNL     1      15.594   0.303   2.957  1.00  0.00    -0.293 OA
ENDROOT
BRANCH  13  23
HETATM   23  C13 UNL     1      14.019  -9.016   6.574  1.00  0.00    -0.014 C 
HETATM   24  C14 UNL     1      15.527  -9.243   6.777  1.00  0.00     0.010 C 
BRANCH  23  25
HETATM   25  C15 UNL     1      13.484  -9.954   5.458  1.00  0.00     0.008 C 
BRANCH  25  26
HETATM   26  C16 UNL     1      14.510 -10.932   4.850  1.00  0.00     0.028 C 
BRANCH  26  27
HETATM   27  C17 UNL     1      13.888 -12.070   4.086  1.00  0.00    -0.013 C 
HETATM   28  C18 UNL     1      12.802 -12.794   4.429  1.00  0.00     0.008 C 
HETATM   29  C19 UNL     1      11.956 -12.583   5.647  1.00  0.00     0.055 C 
BRANCH  28  30
HETATM   30  C20 UNL     1      12.411 -13.884   3.496  1.00  0.00     0.171 C 
HETATM   31  O2  UNL     1      13.131 -14.764   3.058  1.00  0.00    -0.646 OA
BRANCH  30  32
HETATM   32  O3  UNL     1      11.112 -13.826   3.159  1.00  0.00    -0.773 OA
HETATM   33  H28 UNL     1      11.004 -14.588   2.551  1.00  0.00     0.167 HD
ENDBRANCH  30  32
ENDBRANCH  28  30
ENDBRANCH  26  27
ENDBRANCH  25  26
ENDBRANCH  23  25
ENDBRANCH  13  23
TORSDOF 6
ENDMDL
MODEL 2
REMARK minimizedAffinity -8.44151402
REMARK CNNscore 0.693804324
REMARK CNNaffinity 7.22864962
REMARK  6 active torsions:
REMARK  status: ('A' for Active; 'I' for Inactive)
REMARK    1  A    between atoms: C12_13  and  C13_14 
REMARK    2  A    between atoms: C13_14  and  C15_16 
REMARK    3  A    between atoms: C15_16  and  C16_17 
REMARK    4  A    between atoms: C16_17  and  C17_18 
REMARK    5  A    between atoms: C18_19  and  C20_21 
REMARK    6  A    between atoms: C20_21  and  O3_23 
ROOT
HETATM    1  C1  UNL     1      -1.046   5.267  11.163  1.00  0.00     0.052 C 
HETATM    2  C2  UNL     1      -2.165   4.408  11.682  1.00  0.00    -0.013 C 
HETATM    3  C3  UNL     1      -2.896   4.640  12.795  1.00  0.00    -0.066 C 
HETATM    4  C4  UNL     1      -2.744   5.855  13.678  1.00  0.00     0.036 C 
HETATM    5  C5  UNL     1      -4.034   6.684  13.632  1.00  0.00     0.010 C 
HETATM    6  C6  UNL     1      -5.278   5.837  14.001  1.00  0.00     0.007 C 
HETATM    7  C7  UNL     1      -5.340   4.567  13.093  1.00  0.00     0.068 C 
HETATM    8  C8  UNL     1      -6.601   3.778  13.387  1.00  0.00     0.133 C 
HETATM    9  O1  UNL     1      -6.957   2.837  12.677  1.00  0.00    -0.298 OA
HETATM   10  C9  UNL     1      -7.411   4.187  14.585  1.00  0.00     0.089 C 
HETATM   11  C10 UNL     1      -7.807   5.699  14.606  1.00  0.00    -0.026 C 
HETATM   12  C11 UNL     1      -8.117   5.967  16.097  1.00  0.00     0.016 C 
HETATM   13  C12 UNL     1      -9.025   5.943  13.615  1.00  0.00    -0.002 C 
HETATM   14  C21 UNL     1      -8.310   6.180  12.277  1.00  0.00     0.006 C 
HETATM   15  C22 UNL     1      -7.119   7.055  12.619  1.00  0.00     0.011 C 
HETATM   16  C23 UNL     1      -6.638   6.630  14.035  1.00  0.00    -0.032 C 
HETATM   17  C24 UNL     1      -6.452   7.931  14.854  1.00  0.00     0.016 C 
HETATM   18  C25 UNL     1      -4.039   3.744  13.269  1.00  0.00     0.027 C 
HETATM   19  C26 UNL     1      -3.973   2.369  12.595  1.00  0.00     0.018 C 
HETATM   20  C27 UNL     1      -3.785   2.478  11.097  1.00  0.00     0.084 C 
HETATM   21  C28 UNL     1      -2.514   3.237  10.804  1.00  0.00     0.155 C 
HETATM   22  O4  UNL     1      -1.808   2.945   9.838  1.00  0.00    -0.293 OA
ENDROOT
BRANCH  13  23
HETATM   23  C13 UNL     1     -10.042   7.069  14.034  1.00  0.00    -0.014 C 
HETATM   24  C14 UNL     1      -9.675   7.585  15.437  1.00  0.00     0.010 C 
BRANCH  23  25
HETATM   25  C15 UNL     1     -11.532   6.633  14.000  1.00  0.00     0.008 C 
BRANCH  25  26
HETATM   26  C16 UNL     1     -12.568   7.774  14.000  1.00  0.00     0.028 C 
BRANCH  26  27
HETATM   27  C17 UNL     1     -13.620   7.642  12.932  1.00  0.00    -0.013 C 
HETATM   28  C18 UNL     1     -14.959   7.610  13.095  1.00  0.00     0.008 C 
HETATM   29  C19 UNL     1     -15.687   7.739  14.398  1.00  0.00     0.055 C 
BRANCH  28  30
HETATM   30  C20 UNL     1     -15.774   7.449  11.862  1.00  0.00     0.171 C 
HETATM   31  O2  UNL     1     -15.914   8.264  10.966  1.00  0.00    -0.646 OA
BRANCH  30  32
HETATM   32  O3  UNL     1     -16.377   6.250  11.802  1.00  0.00    -0.773 OA
HETATM   33  H28 UNL     1     -16.870   6.289  10.955  1.00  0.00     0.167 HD
ENDBRANCH  30  32
ENDBRANCH  28  30
ENDBRANCH  26  27
ENDBRANCH  25  26
ENDBRANCH  23  25
ENDBRANCH  13  23
TORSDOF 6
ENDMDL
MODEL 3
REMARK minimizedAffinity -6.9639473
REMARK CNNscore 0.595229626
REMARK CNNaffinity 6.15930223
REMARK  6 active torsions:
REMARK  status: ('A' for Active; 'I' for Inactive)
REMARK    1  A    between atoms: C12_13  and  C13_14 
REMARK    2  A    between atoms: C13_14  and  C15_16 
REMARK    3  A    between atoms: C15_16  and  C16_17 
REMARK    4  A    between atoms: C16_17  and  C17_18 
REMARK    5  A    between atoms: C18_19  and  C20_21 
REMARK    6  A    between atoms: C20_21  and  O3_23 
ROOT
HETATM    1  C1  UNL     1       5.947  14.597  23.102  1.00  0.00     0.052 C 
HETATM    2  C2  UNL     1       5.116  13.356  22.931  1.00  0.00    -0.013 C 
HETATM    3  C3  UNL     1       3.801  13.315  22.617  1.00  0.00    -0.066 C 
HETATM    4  C4  UNL     1       2.956  14.531  22.323  1.00  0.00     0.036 C 
HETATM    5  C5  UNL     1       2.481  14.481  20.865  1.00  0.00     0.010 C 
HETATM    6  C6  UNL     1       1.742  13.156  20.543  1.00  0.00     0.007 C 
HETATM    7  C7  UNL     1       2.648  11.942  20.929  1.00  0.00     0.068 C 
HETATM    8  C8  UNL     1       1.970  10.644  20.536  1.00  0.00     0.133 C 
HETATM    9  O1  UNL     1       2.563   9.565  20.577  1.00  0.00    -0.298 OA
HETATM   10  C9  UNL     1       0.537  10.717  20.090  1.00  0.00     0.089 C 
HETATM   11  C10 UNL     1       0.277  11.731  18.930  1.00  0.00    -0.026 C 
HETATM   12  C11 UNL     1      -1.240  12.015  19.037  1.00  0.00     0.016 C 
HETATM   13  C12 UNL     1       0.744  11.094  17.552  1.00  0.00    -0.002 C 
HETATM   14  C21 UNL     1       2.231  11.473  17.508  1.00  0.00     0.006 C 
HETATM   15  C22 UNL     1       2.286  12.904  18.009  1.00  0.00     0.011 C 
HETATM   16  C23 UNL     1       1.170  13.051  19.081  1.00  0.00    -0.032 C 
HETATM   17  C24 UNL     1       0.390  14.346  18.741  1.00  0.00     0.016 C 
HETATM   18  C25 UNL     1       3.006  12.024  22.434  1.00  0.00     0.027 C 
HETATM   19  C26 UNL     1       3.746  10.832  23.053  1.00  0.00     0.018 C 
HETATM   20  C27 UNL     1       5.200  10.787  22.636  1.00  0.00     0.084 C 
HETATM   21  C28 UNL     1       5.883  12.067  23.054  1.00  0.00     0.155 C 
HETATM   22  O4  UNL     1       7.055  12.068  23.431  1.00  0.00    -0.293 OA
ENDROOT
BRANCH  13  23
HETATM   23  C13 UNL     1      -0.086  11.512  16.281  1.00  0.00    -0.014 C 
HETATM   24  C14 UNL     1       0.704  12.568  15.487  1.00  0.00     0.010 C 
BRANCH  23  25
HETATM   25  C15 UNL     1      -1.513  12.036  16.591  1.00  0.00     0.008 C 
BRANCH  25  26
HETATM   26  C16 UNL     1      -2.587  11.737  15.527  1.00  0.00     0.028 C 
BRANCH  26  27
HETATM   27  C17 UNL     1      -2.130  10.794  14.447  1.00  0.00    -0.013 C 
HETATM   28  C18 UNL     1      -2.685   9.615  14.095  1.00  0.00     0.008 C 
HETATM   29  C19 UNL     1      -3.918   9.012  14.697  1.00  0.00     0.055 C 
BRANCH  28  30
HETATM   30  C20 UNL     1      -2.013   8.867  13.001  1.00  0.00     0.171 C 
HETATM   31  O2  UNL     1      -2.131   7.680  12.746  1.00  0.00    -0.646 OA
BRANCH  30  32
HETATM   32  O3  UNL     1      -1.220   9.655  12.256  1.00  0.00    -0.773 OA
HETATM   33  H28 UNL     1      -0.851   9.036  11.591  1.00  0.00     0.167 HD
ENDBRANCH  30  32
ENDBRANCH  28  30
ENDBRANCH  26  27
ENDBRANCH  25  26
ENDBRANCH  23  25
ENDBRANCH  13  23
TORSDOF 6
ENDMDL
MODEL 4
REMARK minimizedAffinity -8.29219723
REMARK CNNscore 0.515968502
REMARK CNNaffinity 6.72600031
REMARK  6 active torsions:
REMARK  status: ('A' for Active; 'I' for Inactive)
REMARK    1  A    between atoms: C12_13  and  C13_14 
REMARK    2  A    between atoms: C13_14  and  C15_16 
REMARK    3  A    between atoms: C15_16  and  C16_17 
REMARK    4  A    between atoms: C16_17  and  C17_18 
REMARK    5  A    between atoms: C18_19  and  C20_21 
REMARK    6  A    between atoms: C20_21  and  O3_23 
ROOT
HETATM    1  C1  UNL     1      -3.237   1.099  11.735  1.00  0.00     0.052 C 
HETATM    2  C2  UNL     1      -2.523   2.412  11.581  1.00  0.00    -0.013 C 
HETATM    3  C3  UNL     1      -3.096   3.637  11.599  1.00  0.00    -0.066 C 
HETATM    4  C4  UNL     1      -4.565   3.888  11.842  1.00  0.00     0.036 C 
HETATM    5  C5  UNL     1      -4.738   4.674  13.148  1.00  0.00     0.010 C 
HETATM    6  C6  UNL     1      -3.907   5.982  13.151  1.00  0.00     0.007 C 
HETATM    7  C7  UNL     1      -2.412   5.656  12.832  1.00  0.00     0.068 C 
HETATM    8  C8  UNL     1      -1.576   6.918  12.919  1.00  0.00     0.133 C 
HETATM    9  O1  UNL     1      -0.345   6.884  12.883  1.00  0.00    -0.298 OA
HETATM   10  C9  UNL     1      -2.305   8.225  13.053  1.00  0.00     0.089 C 
HETATM   11  C10 UNL     1      -3.322   8.275  14.238  1.00  0.00    -0.026 C 
HETATM   12  C11 UNL     1      -4.278   9.424  13.842  1.00  0.00     0.016 C 
HETATM   13  C12 UNL     1      -2.538   8.494  15.603  1.00  0.00    -0.002 C 
HETATM   14  C21 UNL     1      -2.183   7.056  16.007  1.00  0.00     0.006 C 
HETATM   15  C22 UNL     1      -3.426   6.244  15.697  1.00  0.00     0.011 C 
HETATM   16  C23 UNL     1      -4.077   6.877  14.435  1.00  0.00    -0.032 C 
HETATM   17  C24 UNL     1      -5.585   7.047  14.745  1.00  0.00     0.016 C 
HETATM   18  C25 UNL     1      -2.322   4.946  11.458  1.00  0.00     0.027 C 
HETATM   19  C26 UNL     1      -0.924   4.695  10.880  1.00  0.00     0.018 C 
HETATM   20  C27 UNL     1      -0.208   3.567  11.591  1.00  0.00     0.084 C 
HETATM   21  C28 UNL     1      -1.026   2.303  11.479  1.00  0.00     0.155 C 
HETATM   22  O4  UNL     1      -0.484   1.204  11.364  1.00  0.00    -0.293 OA
ENDROOT
BRANCH  13  23
HETATM   23  C13 UNL     1      -3.291   9.328  16.705  1.00  0.00    -0.014 C 
HETATM   24  C14 UNL     1      -3.947  10.557  16.050  1.00  0.00     0.010 C 
BRANCH  23  25
HETATM   25  C15 UNL     1      -2.399   9.772  17.895  1.00  0.00     0.008 C 
BRANCH  25  26
HETATM   26  C16 UNL     1      -1.478  10.980  17.634  1.00  0.00     0.028 C 
BRANCH  26  27
HETATM   27  C17 UNL     1      -0.011  10.642  17.649  1.00  0.00    -0.013 C 
HETATM   28  C18 UNL     1       0.830  10.675  18.703  1.00  0.00     0.008 C 
HETATM   29  C19 UNL     1       0.458  11.027  20.111  1.00  0.00     0.055 C 
BRANCH  28  30
HETATM   30  C20 UNL     1       2.246  10.310  18.434  1.00  0.00     0.171 C 
HETATM   31  O2  UNL     1       3.239  10.847  18.893  1.00  0.00    -0.646 OA
BRANCH  30  32
HETATM   32  O3  UNL     1       2.353   9.266  17.595  1.00  0.00    -0.773 OA
HETATM   33  H28 UNL     1       3.323   9.146  17.510  1.00  0.00     0.167 HD
ENDBRANCH  30  32
ENDBRANCH  28  30
ENDBRANCH  26  27
ENDBRANCH  25  26
ENDBRANCH  23  25
ENDBRANCH  13  23
TORSDOF 6
ENDMDL
MODEL 5
REMARK minimizedAffinity -7.49221087
REMARK CNNscore 0.481334955
REMARK CNNaffinity 6.32114792
REMARK  6 active torsions:
REMARK  status: ('A' for Active; 'I' for Inactive)
REMARK    1  A    between atoms: C12_13  and  C13_14 
REMARK    2  A    between atoms: C13_14  and  C15_16 
REMARK    3  A    between atoms: C15_16  and  C16_17 
REMARK    4  A    between atoms: C16_17  and  C17_18 
REMARK    5  A    between atoms: C18_19  and  C20_21 
REMARK    6  A    between atoms: C20_21  and  O3_23 
ROOT
HETATM    1  C1  UNL     1      -4.774  12.989  16.602  1.00  0.00     0.052 C 
HETATM    2  C2  UNL     1      -3.638  12.056  16.910  1.00  0.00    -0.013 C 
HETATM    3  C3  UNL     1      -3.623  10.721  16.696  1.00  0.00    -0.066 C 
HETATM    4  C4  UNL     1      -4.745   9.949  16.045  1.00  0.00     0.036 C 
HETATM    5  C5  UNL     1      -4.251   9.354  14.720  1.00  0.00     0.010 C 
HETATM    6  C6  UNL     1      -2.976   8.495  14.911  1.00  0.00     0.007 C 
HETATM    7  C7  UNL     1      -1.880   9.334  15.645  1.00  0.00     0.068 C 
HETATM    8  C8  UNL     1      -0.600   8.531  15.758  1.00  0.00     0.133 C 
HETATM    9  O1  UNL     1       0.455   9.042  16.138  1.00  0.00    -0.298 OA
HETATM   10  C9  UNL     1      -0.659   7.075  15.387  1.00  0.00     0.089 C 
HETATM   11  C10 UNL     1      -1.242   6.799  13.963  1.00  0.00    -0.026 C 
HETATM   12  C11 UNL     1      -1.693   5.322  14.042  1.00  0.00     0.016 C 
HETATM   13  C12 UNL     1      -0.133   7.104  12.867  1.00  0.00    -0.002 C 
HETATM   14  C21 UNL     1      -0.326   8.607  12.621  1.00  0.00     0.006 C 
HETATM   15  C22 UNL     1      -1.829   8.810  12.595  1.00  0.00     0.011 C 
HETATM   16  C23 UNL     1      -2.439   7.798  13.605  1.00  0.00    -0.032 C 
HETATM   17  C24 UNL     1      -3.613   7.094  12.880  1.00  0.00     0.016 C 
HETATM   18  C25 UNL     1      -2.431   9.818  17.010  1.00  0.00     0.027 C 
HETATM   19  C26 UNL     1      -1.452  10.514  17.963  1.00  0.00     0.018 C 
HETATM   20  C27 UNL     1      -1.125  11.922  17.514  1.00  0.00     0.084 C 
HETATM   21  C28 UNL     1      -2.397  12.731  17.431  1.00  0.00     0.155 C 
HETATM   22  O4  UNL     1      -2.410  13.926  17.725  1.00  0.00    -0.293 OA
ENDROOT
BRANCH  13  23
HETATM   23  C13 UNL     1      -0.176   6.207  11.573  1.00  0.00    -0.014 C 
HETATM   24  C14 UNL     1       0.561   4.884  11.850  1.00  0.00     0.010 C 
BRANCH  23  25
HETATM   25  C15 UNL     1       0.404   6.885  10.303  1.00  0.00     0.008 C 
BRANCH  25  26
HETATM   26  C16 UNL     1       1.737   6.312   9.782  1.00  0.00     0.028 C 
BRANCH  26  27
HETATM   27  C17 UNL     1       2.945   7.108  10.196  1.00  0.00    -0.013 C 
HETATM   28  C18 UNL     1       3.571   8.077   9.496  1.00  0.00     0.008 C 
HETATM   29  C19 UNL     1       3.159   8.593   8.151  1.00  0.00     0.055 C 
BRANCH  28  30
HETATM   30  C20 UNL     1       4.765   8.691  10.135  1.00  0.00     0.171 C 
HETATM   31  O2  UNL     1       5.383   9.667   9.745  1.00  0.00    -0.646 OA
BRANCH  30  32
HETATM   32  O3  UNL     1       5.130   8.048  11.257  1.00  0.00    -0.773 OA
HETATM   33  H28 UNL     1       5.915   8.553  11.558  1.00  0.00     0.167 HD
ENDBRANCH  30  32
ENDBRANCH  28  30
ENDBRANCH  26  27
ENDBRANCH  25  26
ENDBRANCH  23  25
ENDBRANCH  13  23
TORSDOF 6
ENDMDL
MODEL 6
REMARK minimizedAffinity -7.68007803
REMARK CNNscore 0.470908821
REMARK CNNaffinity 6.85568571
REMARK  6 active torsions:
REMARK  status: ('A' for Active; 'I' for Inactive)
REMARK    1  A    between atoms: C12_13  and  C13_14 
REMARK    2  A    between atoms: C13_14  and  C15_16 
REMARK    3  A    between atoms: C15_16  and  C16_17 
REMARK    4  A    between atoms: C16_17  and  C17_18 
REMARK    5  A    between atoms: C18_19  and  C20_21 
REMARK    6  A    between atoms: C20_21  and  O3_23 
ROOT
HETATM    1  C1  UNL     1      -1.097   5.488  11.120  1.00  0.00     0.052 C 
HETATM    2  C2  UNL     1      -2.166   4.574  11.648  1.00  0.00    -0.013 C 
HETATM    3  C3  UNL     1      -2.906   4.775  12.762  1.00  0.00    -0.066 C 
HETATM    4  C4  UNL     1      -2.816   6.002  13.636  1.00  0.00     0.036 C 
HETATM    5  C5  UNL     1      -4.149   6.761  13.588  1.00  0.00     0.010 C 
HETATM    6  C6  UNL     1      -5.345   5.851  13.968  1.00  0.00     0.007 C 
HETATM    7  C7  UNL     1      -5.342   4.573  13.068  1.00  0.00     0.068 C 
HETATM    8  C8  UNL     1      -6.558   3.721  13.371  1.00  0.00     0.133 C 
HETATM    9  O1  UNL     1      -6.866   2.757  12.669  1.00  0.00    -0.298 OA
HETATM   10  C9  UNL     1      -7.385   4.094  14.569  1.00  0.00     0.089 C 
HETATM   11  C10 UNL     1      -7.862   5.583  14.582  1.00  0.00    -0.026 C 
HETATM   12  C11 UNL     1      -8.180   5.844  16.072  1.00  0.00     0.016 C 
HETATM   13  C12 UNL     1      -9.093   5.755  13.593  1.00  0.00    -0.002 C 
HETATM   14  C21 UNL     1      -8.396   6.021  12.251  1.00  0.00     0.006 C 
HETATM   15  C22 UNL     1      -7.252   6.960  12.584  1.00  0.00     0.011 C 
HETATM   16  C23 UNL     1      -6.745   6.571  14.001  1.00  0.00    -0.032 C 
HETATM   17  C24 UNL     1      -6.626   7.886  14.811  1.00  0.00     0.016 C 
HETATM   18  C25 UNL     1      -3.998   3.822  13.246  1.00  0.00     0.027 C 
HETATM   19  C26 UNL     1      -3.860   2.448  12.580  1.00  0.00     0.018 C 
HETATM   20  C27 UNL     1      -3.684   2.557  11.081  1.00  0.00     0.084 C 
HETATM   21  C28 UNL     1      -2.455   3.380  10.779  1.00  0.00     0.155 C 
HETATM   22  O4  UNL     1      -1.738   3.119   9.813  1.00  0.00    -0.293 OA
ENDROOT
BRANCH  13  23
HETATM   23  C13 UNL     1     -10.168   6.828  14.008  1.00  0.00    -0.014 C 
HETATM   24  C14 UNL     1     -10.892   7.332  12.747  1.00  0.00     0.010 C 
BRANCH  23  25
HETATM   25  C15 UNL     1      -9.599   8.028  14.812  1.00  0.00     0.008 C 
BRANCH  25  26
HETATM   26  C16 UNL     1     -10.583   9.180  15.092  1.00  0.00     0.028 C 
BRANCH  26  27
HETATM   27  C17 UNL     1      -9.957  10.547  15.024  1.00  0.00    -0.013 C 
HETATM   28  C18 UNL     1     -10.556  11.711  14.700  1.00  0.00     0.008 C 
HETATM   29  C19 UNL     1     -12.007  11.888  14.369  1.00  0.00     0.055 C 
BRANCH  28  30
HETATM   30  C20 UNL     1      -9.693  12.921  14.690  1.00  0.00     0.171 C 
HETATM   31  O2  UNL     1      -9.854  13.929  14.024  1.00  0.00    -0.646 OA
BRANCH  30  32
HETATM   32  O3  UNL     1      -8.656  12.814  15.537  1.00  0.00    -0.773 OA
HETATM   33  H28 UNL     1      -8.184  13.667  15.422  1.00  0.00     0.167 HD
ENDBRANCH  30  32
ENDBRANCH  28  30
ENDBRANCH  26  27
ENDBRANCH  25  26
ENDBRANCH  23  25
ENDBRANCH  13  23
TORSDOF 6
ENDMDL
MODEL 7
REMARK minimizedAffinity -6.67983294
REMARK CNNscore 0.450387478
REMARK CNNaffinity 5.74549532
REMARK  6 active torsions:
REMARK  status: ('A' for Active; 'I' for Inactive)
REMARK    1  A    between atoms: C12_13  and  C13_14 
REMARK    2  A    between atoms: C13_14  and  C15_16 
REMARK    3  A    between atoms: C15_16  and  C16_17 
REMARK    4  A    between atoms: C16_17  and  C17_18 
REMARK    5  A    between atoms: C18_19  and  C20_21 
REMARK    6  A    between atoms: C20_21  and  O3_23 
ROOT
HETATM    1  C1  UNL     1       6.255  15.888  23.326  1.00  0.00     0.052 C 
HETATM    2  C2  UNL     1       5.904  14.437  23.162  1.00  0.00    -0.013 C 
HETATM    3  C3  UNL     1       4.661  13.933  22.985  1.00  0.00    -0.066 C 
HETATM    4  C4  UNL     1       3.411  14.770  22.861  1.00  0.00     0.036 C 
HETATM    5  C5  UNL     1       2.812  14.587  21.461  1.00  0.00     0.010 C 
HETATM    6  C6  UNL     1       2.557  13.093  21.133  1.00  0.00     0.007 C 
HETATM    7  C7  UNL     1       3.874  12.277  21.341  1.00  0.00     0.068 C 
HETATM    8  C8  UNL     1       3.658  10.832  20.937  1.00  0.00     0.133 C 
HETATM    9  O1  UNL     1       4.595  10.037  20.846  1.00  0.00    -0.298 OA
HETATM   10  C9  UNL     1       2.249  10.395  20.649  1.00  0.00     0.089 C 
HETATM   11  C10 UNL     1       1.508  11.275  19.592  1.00  0.00    -0.026 C 
HETATM   12  C11 UNL     1       0.014  10.993  19.874  1.00  0.00     0.016 C 
HETATM   13  C12 UNL     1       2.001  10.881  18.133  1.00  0.00    -0.002 C 
HETATM   14  C21 UNL     1       3.240  11.770  17.960  1.00  0.00     0.006 C 
HETATM   15  C22 UNL     1       2.845  13.113  18.544  1.00  0.00     0.011 C 
HETATM   16  C23 UNL     1       1.887  12.824  19.734  1.00  0.00    -0.032 C 
HETATM   17  C24 UNL     1       0.664  13.759  19.563  1.00  0.00     0.016 C 
HETATM   18  C25 UNL     1       4.359  12.447  22.803  1.00  0.00     0.027 C 
HETATM   19  C26 UNL     1       5.542  11.587  23.262  1.00  0.00     0.018 C 
HETATM   20  C27 UNL     1       6.856  12.077  22.693  1.00  0.00     0.084 C 
HETATM   21  C28 UNL     1       7.086  13.506  23.120  1.00  0.00     0.155 C 
HETATM   22  O4  UNL     1       8.218  13.920  23.372  1.00  0.00    -0.293 OA
ENDROOT
BRANCH  13  23
HETATM   23  C13 UNL     1       0.929  11.003  16.986  1.00  0.00    -0.014 C 
HETATM   24  C14 UNL     1      -0.359  10.280  17.419  1.00  0.00     0.010 C 
BRANCH  23  25
HETATM   25  C15 UNL     1       1.402  10.470  15.607  1.00  0.00     0.008 C 
BRANCH  25  26
HETATM   26  C16 UNL     1       0.308   9.862  14.708  1.00  0.00     0.028 C 
BRANCH  26  27
HETATM   27  C17 UNL     1       0.696   8.551  14.078  1.00  0.00    -0.013 C 
HETATM   28  C18 UNL     1       0.353   8.093  12.856  1.00  0.00     0.008 C 
HETATM   29  C19 UNL     1      -0.471   8.827  11.843  1.00  0.00     0.055 C 
BRANCH  28  30
HETATM   30  C20 UNL     1       0.859   6.744  12.488  1.00  0.00     0.171 C 
HETATM   31  O2  UNL     1       0.560   6.095  11.500  1.00  0.00    -0.646 OA
BRANCH  30  32
HETATM   32  O3  UNL     1       1.738   6.267  13.385  1.00  0.00    -0.773 OA
HETATM   33  H28 UNL     1       1.977   5.389  13.019  1.00  0.00     0.167 HD
ENDBRANCH  30  32
ENDBRANCH  28  30
ENDBRANCH  26  27
ENDBRANCH  25  26
ENDBRANCH  23  25
ENDBRANCH  13  23
TORSDOF 6
ENDMDL
MODEL 8
REMARK minimizedAffinity -8.16576099
REMARK CNNscore 0.440521181
REMARK CNNaffinity 6.27357721
REMARK  6 active torsions:
REMARK  status: ('A' for Active; 'I' for Inactive)
REMARK    1  A    between atoms: C12_13  and  C13_14 
REMARK    2  A    between atoms: C13_14  and  C15_16 
REMARK    3  A    between atoms: C15_16  and  C16_17 
REMARK    4  A    between atoms: C16_17  and  C17_18 
REMARK    5  A    between atoms: C18_19  and  C20_21 
REMARK    6  A    between atoms: C20_21  and  O3_23 
ROOT
HETATM    1  C1  UNL     1      -5.533   4.870  13.342  1.00  0.00     0.052 C 
HETATM    2  C2  UNL     1      -4.206   5.527  13.088  1.00  0.00    -0.013 C 
HETATM    3  C3  UNL     1      -3.972   6.858  13.041  1.00  0.00    -0.066 C 
HETATM    4  C4  UNL     1      -5.016   7.917  13.302  1.00  0.00     0.036 C 
HETATM    5  C5  UNL     1      -4.635   8.710  14.559  1.00  0.00     0.010 C 
HETATM    6  C6  UNL     1      -3.206   9.301  14.458  1.00  0.00     0.007 C 
HETATM    7  C7  UNL     1      -2.187   8.163  14.126  1.00  0.00     0.068 C 
HETATM    8  C8  UNL     1      -0.776   8.717  14.113  1.00  0.00     0.133 C 
HETATM    9  O1  UNL     1       0.209   7.980  14.050  1.00  0.00    -0.298 OA
HETATM   10  C9  UNL     1      -0.616  10.210  14.180  1.00  0.00     0.089 C 
HETATM   11  C10 UNL     1      -1.354  10.881  15.383  1.00  0.00    -0.026 C 
HETATM   12  C11 UNL     1      -1.500  12.355  14.938  1.00  0.00     0.016 C 
HETATM   13  C12 UNL     1      -0.511  10.663  16.712  1.00  0.00    -0.002 C 
HETATM   14  C21 UNL     1      -1.021   9.300  17.199  1.00  0.00     0.006 C 
HETATM   15  C22 UNL     1      -2.521   9.338  16.970  1.00  0.00     0.011 C 
HETATM   16  C23 UNL     1      -2.761  10.180  15.686  1.00  0.00    -0.032 C 
HETATM   17  C24 UNL     1      -3.880  11.198  16.020  1.00  0.00     0.016 C 
HETATM   18  C25 UNL     1      -2.597   7.478  12.798  1.00  0.00     0.027 C 
HETATM   19  C26 UNL     1      -1.629   6.447  12.205  1.00  0.00     0.018 C 
HETATM   20  C27 UNL     1      -1.650   5.141  12.970  1.00  0.00     0.084 C 
HETATM   21  C28 UNL     1      -3.049   4.573  12.957  1.00  0.00     0.155 C 
HETATM   22  O4  UNL     1      -3.241   3.359  12.900  1.00  0.00    -0.293 OA
ENDROOT
BRANCH  13  23
HETATM   23  C13 UNL     1      -0.588  11.820  17.777  1.00  0.00    -0.014 C 
HETATM   24  C14 UNL     1       0.508  12.858  17.476  1.00  0.00     0.010 C 
BRANCH  23  25
HETATM   25  C15 UNL     1      -0.481  11.345  19.251  1.00  0.00     0.008 C 
BRANCH  25  26
HETATM   26  C16 UNL     1       0.927  11.392  19.874  1.00  0.00     0.028 C 
BRANCH  26  27
HETATM   27  C17 UNL     1       1.202  10.273  20.843  1.00  0.00    -0.013 C 
HETATM   28  C18 UNL     1       2.354  10.015  21.496  1.00  0.00     0.008 C 
HETATM   29  C19 UNL     1       3.609  10.829  21.415  1.00  0.00     0.055 C 
BRANCH  28  30
HETATM   30  C20 UNL     1       2.359   8.824  22.386  1.00  0.00     0.171 C 
HETATM   31  O2  UNL     1       1.623   7.854  22.314  1.00  0.00    -0.646 OA
BRANCH  30  32
HETATM   32  O3  UNL     1       3.309   8.898  23.332  1.00  0.00    -0.773 OA
HETATM   33  H28 UNL     1       3.192   8.063  23.833  1.00  0.00     0.167 HD
ENDBRANCH  30  32
ENDBRANCH  28  30
ENDBRANCH  26  27
ENDBRANCH  25  26
ENDBRANCH  23  25
ENDBRANCH  13  23
TORSDOF 6
ENDMDL
MODEL 9
REMARK minimizedAffinity -9.24223423
REMARK CNNscore 0.346559137
REMARK CNNaffinity 6.66728544
REMARK  6 active torsions:
REMARK  status: ('A' for Active; 'I' for Inactive)
REMARK    1  A    between atoms: C12_13  and  C13_14 
REMARK    2  A    between atoms: C13_14  and  C15_16 
REMARK    3  A    between atoms: C15_16  and  C16_17 
REMARK    4  A    between atoms: C16_17  and  C17_18 
REMARK    5  A    between atoms: C18_19  and  C20_21 
REMARK    6  A    between atoms: C20_21  and  O3_23 
ROOT
HETATM    1  C1  UNL     1      -5.718   5.241  13.489  1.00  0.00     0.052 C 
HETATM    2  C2  UNL     1      -4.738   6.342  13.777  1.00  0.00    -0.013 C 
HETATM    3  C3  UNL     1      -3.402   6.200  13.930  1.00  0.00    -0.066 C 
HETATM    4  C4  UNL     1      -2.660   4.894  13.773  1.00  0.00     0.036 C 
HETATM    5  C5  UNL     1      -1.700   4.994  12.581  1.00  0.00     0.010 C 
HETATM    6  C6  UNL     1      -0.742   6.206  12.709  1.00  0.00     0.007 C 
HETATM    7  C7  UNL     1      -1.573   7.512  12.931  1.00  0.00     0.068 C 
HETATM    8  C8  UNL     1      -0.650   8.714  12.968  1.00  0.00     0.133 C 
HETATM    9  O1  UNL     1      -1.085   9.866  12.955  1.00  0.00    -0.298 OA
HETATM   10  C9  UNL     1       0.829   8.452  13.023  1.00  0.00     0.089 C 
HETATM   11  C10 UNL     1       1.356   7.512  11.890  1.00  0.00    -0.026 C 
HETATM   12  C11 UNL     1       2.693   6.981  12.459  1.00  0.00     0.016 C 
HETATM   13  C12 UNL     1       1.483   8.333  10.535  1.00  0.00    -0.002 C 
HETATM   14  C21 UNL     1       0.072   8.202   9.945  1.00  0.00     0.006 C 
HETATM   15  C22 UNL     1      -0.327   6.760  10.198  1.00  0.00     0.011 C 
HETATM   16  C23 UNL     1       0.316   6.345  11.551  1.00  0.00    -0.032 C 
HETATM   17  C24 UNL     1       1.003   4.976  11.319  1.00  0.00     0.016 C 
HETATM   18  C25 UNL     1      -2.444   7.358  14.203  1.00  0.00     0.027 C 
HETATM   19  C26 UNL     1      -3.205   8.595  14.694  1.00  0.00     0.018 C 
HETATM   20  C27 UNL     1      -4.404   8.908  13.824  1.00  0.00     0.084 C 
HETATM   21  C28 UNL     1      -5.338   7.722  13.811  1.00  0.00     0.155 C 
HETATM   22  O4  UNL     1      -6.559   7.876  13.769  1.00  0.00    -0.293 OA
ENDROOT
BRANCH  13  23
HETATM   23  C13 UNL     1       2.650   7.899   9.571  1.00  0.00    -0.014 C 
HETATM   24  C14 UNL     1       3.873   8.798   9.822  1.00  0.00     0.010 C 
BRANCH  23  25
HETATM   25  C15 UNL     1       2.276   7.914   8.065  1.00  0.00     0.008 C 
BRANCH  25  26
HETATM   26  C16 UNL     1       2.313   6.550   7.347  1.00  0.00     0.028 C 
BRANCH  26  27
HETATM   27  C17 UNL     1       3.072   5.488   8.096  1.00  0.00    -0.013 C 
HETATM   28  C18 UNL     1       3.578   4.338   7.605  1.00  0.00     0.008 C 
HETATM   29  C19 UNL     1       3.518   3.893   6.175  1.00  0.00     0.055 C 
BRANCH  28  30
HETATM   30  C20 UNL     1       4.269   3.449   8.576  1.00  0.00     0.171 C 
HETATM   31  O2  UNL     1       5.395   2.993   8.476  1.00  0.00    -0.646 OA
BRANCH  30  32
HETATM   32  O3  UNL     1       3.509   3.178   9.650  1.00  0.00    -0.773 OA
HETATM   33  H28 UNL     1       4.083   2.593  10.188  1.00  0.00     0.167 HD
ENDBRANCH  30  32
ENDBRANCH  28  30
ENDBRANCH  26  27
ENDBRANCH  25  26
ENDBRANCH  23  25
ENDBRANCH  13  23
TORSDOF 6
ENDMDL
