MODEL 1
REMARK minimizedAffinity -7.68991184
REMARK CNNscore 0.628448725
REMARK CNNaffinity 6.88912344
REMARK  4 active torsions:
REMARK  status: ('A' for Active; 'I' for Inactive)
REMARK    1  A    between atoms: C4_4  and  C5_5 
REMARK    2  A    between atoms: C5_5  and  C6_7 
REMARK    3  A    between atoms: C6_7  and  C7_8 
REMARK    4  A    between atoms: C7_8  and  C9_10 
ROOT
HETATM    1  C9  UNL     1      -1.918   8.770  15.367  1.00  0.00    -0.002 C 
HETATM    2  C10 UNL     1      -3.045   9.329  14.447  1.00  0.00     0.006 C 
HETATM    3  C11 UNL     1      -2.644   9.018  12.989  1.00  0.00     0.011 C 
HETATM    4  C12 UNL     1      -1.511   7.983  13.105  1.00  0.00    -0.032 C 
HETATM    5  C13 UNL     1      -2.224   6.602  13.346  1.00  0.00     0.016 C 
HETATM    6  C14 UNL     1      -0.570   7.763  11.873  1.00  0.00     0.004 C 
HETATM    7  C15 UNL     1      -0.656   8.812  10.757  1.00  0.00     0.007 C 
HETATM    8  C16 UNL     1       0.262   8.513   9.554  1.00  0.00     0.007 C 
HETATM    9  C17 UNL     1       1.132   7.238   9.686  1.00  0.00     0.010 C 
HETATM   10  C18 UNL     1       2.187   7.064   8.546  1.00  0.00     0.018 C 
HETATM   11  C19 UNL     1       1.494   7.028   7.170  1.00  0.00     0.023 C 
HETATM   12  C20 UNL     1       3.255   8.168   8.537  1.00  0.00     0.023 C 
HETATM   13  C21 UNL     1       2.911   5.721   8.734  1.00  0.00     0.135 C 
HETATM   14  O2  UNL     1       3.621   5.234   7.851  1.00  0.00    -0.297 OA
HETATM   15  C22 UNL     1       2.707   4.984  10.035  1.00  0.00     0.080 C 
HETATM   16  C23 UNL     1       2.790   5.958  11.196  1.00  0.00     0.018 C 
HETATM   17  C24 UNL     1       1.778   7.090  11.081  1.00  0.00    -0.026 A 
HETATM   18  C25 UNL     1       2.070   8.336  11.875  1.00  0.00     0.021 A 
HETATM   19  C26 UNL     1       0.891   7.467  12.285  1.00  0.00    -0.027 A 
HETATM   20  C27 UNL     1       1.034   6.773  13.632  1.00  0.00     0.011 C 
HETATM   21  C28 UNL     1       0.304   7.475  14.797  1.00  0.00     0.011 C 
HETATM   22  C29 UNL     1      -0.738   8.525  14.367  1.00  0.00    -0.032 C 
HETATM   23  C30 UNL     1      -0.013   9.871  14.103  1.00  0.00     0.016 C 
ENDROOT
BRANCH   1  24
HETATM   24  C7  UNL     1      -1.774   9.543  16.716  1.00  0.00    -0.007 C 
HETATM   25  C8  UNL     1      -3.020   9.669  17.598  1.00  0.00     0.011 C 
BRANCH  24  26
HETATM   26  C6  UNL     1      -0.961  10.854  16.565  1.00  0.00     0.087 C 
BRANCH  26  27
HETATM   27  C5  UNL     1      -1.750  12.151  16.541  1.00  0.00     0.149 C 
HETATM   28  O1  UNL     1      -2.420  12.480  15.562  1.00  0.00    -0.293 OA
BRANCH  27  29
HETATM   29  C4  UNL     1      -1.628  13.138  17.654  1.00  0.00     0.052 C 
HETATM   30  C2  UNL     1      -2.424  13.382  18.714  1.00  0.00    -0.084 C 
HETATM   31  C1  UNL     1      -3.747  12.738  19.021  1.00  0.00     0.043 C 
HETATM   32  C3  UNL     1      -2.024  14.439  19.716  1.00  0.00     0.043 C 
ENDBRANCH  27  29
ENDBRANCH  26  27
ENDBRANCH  24  26
ENDBRANCH   1  24
TORSDOF 4
ENDMDL
MODEL 2
REMARK minimizedAffinity -6.95449114
REMARK CNNscore 0.461743057
REMARK CNNaffinity 6.49208879
REMARK  4 active torsions:
REMARK  status: ('A' for Active; 'I' for Inactive)
REMARK    1  A    between atoms: C4_4  and  C5_5 
REMARK    2  A    between atoms: C5_5  and  C6_7 
REMARK    3  A    between atoms: C6_7  and  C7_8 
REMARK    4  A    between atoms: C7_8  and  C9_10 
ROOT
HETATM    1  C9  UNL     1      -2.989  12.240  17.743  1.00  0.00    -0.002 C 
HETATM    2  C10 UNL     1      -2.828  11.230  18.919  1.00  0.00     0.006 C 
HETATM    3  C11 UNL     1      -2.273   9.918  18.326  1.00  0.00     0.011 C 
HETATM    4  C12 UNL     1      -1.782  10.300  16.918  1.00  0.00    -0.032 C 
HETATM    5  C13 UNL     1      -0.370  10.959  17.128  1.00  0.00     0.016 C 
HETATM    6  C14 UNL     1      -1.563   9.159  15.867  1.00  0.00     0.004 C 
HETATM    7  C15 UNL     1      -2.148   7.786  16.224  1.00  0.00     0.007 C 
HETATM    8  C16 UNL     1      -1.860   6.698  15.169  1.00  0.00     0.007 C 
HETATM    9  C17 UNL     1      -1.066   7.174  13.926  1.00  0.00     0.010 C 
HETATM   10  C18 UNL     1      -0.955   6.105  12.792  1.00  0.00     0.018 C 
HETATM   11  C19 UNL     1      -0.285   4.823  13.322  1.00  0.00     0.023 C 
HETATM   12  C20 UNL     1      -2.312   5.737  12.171  1.00  0.00     0.023 C 
HETATM   13  C21 UNL     1      -0.066   6.658  11.667  1.00  0.00     0.135 C 
HETATM   14  O2  UNL     1       0.371   5.938  10.767  1.00  0.00    -0.297 OA
HETATM   15  C22 UNL     1       0.289   8.125  11.703  1.00  0.00     0.080 C 
HETATM   16  C23 UNL     1      -0.942   8.944  12.049  1.00  0.00     0.018 C 
HETATM   17  C24 UNL     1      -1.561   8.530  13.377  1.00  0.00    -0.026 A 
HETATM   18  C25 UNL     1      -3.003   8.912  13.594  1.00  0.00     0.021 A 
HETATM   19  C26 UNL     1      -1.931   9.595  14.430  1.00  0.00    -0.027 A 
HETATM   20  C27 UNL     1      -1.749  11.083  14.160  1.00  0.00     0.011 C 
HETATM   21  C28 UNL     1      -2.452  12.010  15.174  1.00  0.00     0.011 C 
HETATM   22  C29 UNL     1      -2.899  11.321  16.477  1.00  0.00    -0.032 C 
HETATM   23  C30 UNL     1      -4.278  10.649  16.242  1.00  0.00     0.016 C 
ENDROOT
BRANCH   1  24
HETATM   24  C7  UNL     1      -4.115  13.295  17.978  1.00  0.00    -0.007 C 
HETATM   25  C8  UNL     1      -3.855  14.729  17.506  1.00  0.00     0.011 C 
BRANCH  24  26
HETATM   26  C6  UNL     1      -4.742  13.190  19.392  1.00  0.00     0.087 C 
BRANCH  26  27
HETATM   27  C5  UNL     1      -6.169  13.684  19.547  1.00  0.00     0.149 C 
HETATM   28  O1  UNL     1      -6.677  14.454  18.731  1.00  0.00    -0.293 OA
BRANCH  27  29
HETATM   29  C4  UNL     1      -6.959  13.359  20.771  1.00  0.00     0.052 C 
HETATM   30  C2  UNL     1      -6.708  13.590  22.075  1.00  0.00    -0.084 C 
HETATM   31  C1  UNL     1      -5.466  14.198  22.665  1.00  0.00     0.043 C 
HETATM   32  C3  UNL     1      -7.724  13.173  23.112  1.00  0.00     0.043 C 
ENDBRANCH  27  29
ENDBRANCH  26  27
ENDBRANCH  24  26
ENDBRANCH   1  24
TORSDOF 4
ENDMDL
MODEL 3
REMARK minimizedAffinity -7.10091639
REMARK CNNscore 0.384068668
REMARK CNNaffinity 6.45676422
REMARK  4 active torsions:
REMARK  status: ('A' for Active; 'I' for Inactive)
REMARK    1  A    between atoms: C4_4  and  C5_5 
REMARK    2  A    between atoms: C5_5  and  C6_7 
REMARK    3  A    between atoms: C6_7  and  C7_8 
REMARK    4  A    between atoms: C7_8  and  C9_10 
ROOT
HETATM    1  C9  UNL     1      -1.735   7.059  13.892  1.00  0.00    -0.002 C 
HETATM    2  C10 UNL     1      -2.634   6.258  14.883  1.00  0.00     0.006 C 
HETATM    3  C11 UNL     1      -3.234   7.273  15.879  1.00  0.00     0.011 C 
HETATM    4  C12 UNL     1      -2.981   8.649  15.240  1.00  0.00    -0.032 C 
HETATM    5  C13 UNL     1      -4.115   8.831  14.165  1.00  0.00     0.016 C 
HETATM    6  C14 UNL     1      -3.055   9.922  16.150  1.00  0.00     0.004 C 
HETATM    7  C15 UNL     1      -3.069   9.674  17.664  1.00  0.00     0.007 C 
HETATM    8  C16 UNL     1      -3.188  10.963  18.501  1.00  0.00     0.007 C 
HETATM    9  C17 UNL     1      -3.239  12.280  17.686  1.00  0.00     0.010 C 
HETATM   10  C18 UNL     1      -3.166  13.574  18.558  1.00  0.00     0.018 C 
HETATM   11  C19 UNL     1      -4.318  13.602  19.581  1.00  0.00     0.023 C 
HETATM   12  C20 UNL     1      -1.832  13.725  19.307  1.00  0.00     0.023 C 
HETATM   13  C21 UNL     1      -3.327  14.802  17.648  1.00  0.00     0.135 C 
HETATM   14  O2  UNL     1      -3.538  15.928  18.104  1.00  0.00    -0.297 OA
HETATM   15  C22 UNL     1      -3.248  14.591  16.156  1.00  0.00     0.080 C 
HETATM   16  C23 UNL     1      -2.094  13.661  15.828  1.00  0.00     0.018 C 
HETATM   17  C24 UNL     1      -2.211  12.317  16.534  1.00  0.00    -0.026 A 
HETATM   18  C25 UNL     1      -0.941  11.519  16.677  1.00  0.00     0.021 A 
HETATM   19  C26 UNL     1      -2.027  11.004  15.745  1.00  0.00    -0.027 A 
HETATM   20  C27 UNL     1      -1.666  11.004  14.266  1.00  0.00     0.011 C 
HETATM   21  C28 UNL     1      -1.215   9.635  13.715  1.00  0.00     0.011 C 
HETATM   22  C29 UNL     1      -1.548   8.433  14.619  1.00  0.00    -0.032 C 
HETATM   23  C30 UNL     1      -0.437   8.290  15.692  1.00  0.00     0.016 C 
ENDROOT
BRANCH   1  24
HETATM   24  C7  UNL     1      -0.561   6.218  13.298  1.00  0.00    -0.007 C 
HETATM   25  C8  UNL     1       0.850   6.498  13.825  1.00  0.00     0.011 C 
BRANCH  24  26
HETATM   26  C6  UNL     1      -0.652   6.074  11.757  1.00  0.00     0.087 C 
BRANCH  26  27
HETATM   27  C5  UNL     1       0.219   7.002  10.930  1.00  0.00     0.149 C 
HETATM   28  O1  UNL     1       0.025   8.218  10.906  1.00  0.00    -0.293 OA
BRANCH  27  29
HETATM   29  C4  UNL     1       1.256   6.453  10.007  1.00  0.00     0.052 C 
HETATM   30  C2  UNL     1       1.698   6.888   8.811  1.00  0.00    -0.084 C 
HETATM   31  C1  UNL     1       1.178   8.060   8.024  1.00  0.00     0.043 C 
HETATM   32  C3  UNL     1       2.803   6.136   8.108  1.00  0.00     0.043 C 
ENDBRANCH  27  29
ENDBRANCH  26  27
ENDBRANCH  24  26
ENDBRANCH   1  24
TORSDOF 4
ENDMDL
MODEL 4
REMARK minimizedAffinity -8.99418545
REMARK CNNscore 0.31650126
REMARK CNNaffinity 6.54675436
REMARK  4 active torsions:
REMARK  status: ('A' for Active; 'I' for Inactive)
REMARK    1  A    between atoms: C4_4  and  C5_5 
REMARK    2  A    between atoms: C5_5  and  C6_7 
REMARK    3  A    between atoms: C6_7  and  C7_8 
REMARK    4  A    between atoms: C7_8  and  C9_10 
ROOT
HETATM    1  C9  UNL     1      -6.109   6.982  13.899  1.00  0.00    -0.002 C 
HETATM    2  C10 UNL     1      -6.320   8.349  14.619  1.00  0.00     0.006 C 
HETATM    3  C11 UNL     1      -4.925   8.975  14.832  1.00  0.00     0.011 C 
HETATM    4  C12 UNL     1      -3.986   8.162  13.923  1.00  0.00    -0.032 C 
HETATM    5  C13 UNL     1      -4.179   8.753  12.479  1.00  0.00     0.016 C 
HETATM    6  C14 UNL     1      -2.445   8.217  14.199  1.00  0.00     0.004 C 
HETATM    7  C15 UNL     1      -2.017   8.830  15.539  1.00  0.00     0.007 C 
HETATM    8  C16 UNL     1      -0.488   8.895  15.729  1.00  0.00     0.007 C 
HETATM    9  C17 UNL     1       0.350   8.308  14.565  1.00  0.00     0.010 C 
HETATM   10  C18 UNL     1       1.881   8.213  14.865  1.00  0.00     0.018 C 
HETATM   11  C19 UNL     1       2.451   9.602  15.210  1.00  0.00     0.023 C 
HETATM   12  C20 UNL     1       2.214   7.240  16.007  1.00  0.00     0.023 C 
HETATM   13  C21 UNL     1       2.608   7.715  13.606  1.00  0.00     0.135 C 
HETATM   14  O2  UNL     1       3.835   7.770  13.497  1.00  0.00    -0.297 OA
HETATM   15  C22 UNL     1       1.770   7.172  12.474  1.00  0.00     0.080 C 
HETATM   16  C23 UNL     1       0.687   6.262  13.026  1.00  0.00     0.018 C 
HETATM   17  C24 UNL     1      -0.207   6.968  14.036  1.00  0.00    -0.026 A 
HETATM   18  C25 UNL     1      -0.980   6.087  14.982  1.00  0.00     0.021 A 
HETATM   19  C26 UNL     1      -1.742   6.868  13.923  1.00  0.00    -0.027 A 
HETATM   20  C27 UNL     1      -2.411   6.021  12.848  1.00  0.00     0.011 C 
HETATM   21  C28 UNL     1      -3.919   5.778  13.068  1.00  0.00     0.011 C 
HETATM   22  C29 UNL     1      -4.579   6.712  14.100  1.00  0.00    -0.032 C 
HETATM   23  C30 UNL     1      -4.351   6.131  15.520  1.00  0.00     0.016 C 
ENDROOT
BRANCH   1  24
HETATM   24  C7  UNL     1      -7.228   5.937  14.208  1.00  0.00    -0.007 C 
HETATM   25  C8  UNL     1      -7.064   5.069  15.459  1.00  0.00     0.011 C 
BRANCH  24  26
HETATM   26  C6  UNL     1      -7.681   5.161  12.945  1.00  0.00     0.087 C 
BRANCH  26  27
HETATM   27  C5  UNL     1      -7.279   3.700  12.858  1.00  0.00     0.149 C 
HETATM   28  O1  UNL     1      -8.073   2.796  13.121  1.00  0.00    -0.293 OA
BRANCH  27  29
HETATM   29  C4  UNL     1      -5.864   3.313  12.583  1.00  0.00     0.052 C 
HETATM   30  C2  UNL     1      -5.346   2.337  11.812  1.00  0.00    -0.084 C 
HETATM   31  C1  UNL     1      -6.103   1.285  11.050  1.00  0.00     0.043 C 
HETATM   32  C3  UNL     1      -3.846   2.200  11.694  1.00  0.00     0.043 C 
ENDBRANCH  27  29
ENDBRANCH  26  27
ENDBRANCH  24  26
ENDBRANCH   1  24
TORSDOF 4
ENDMDL
MODEL 5
REMARK minimizedAffinity -7.00770473
REMARK CNNscore 0.313824564
REMARK CNNaffinity 5.37131071
REMARK  4 active torsions:
REMARK  status: ('A' for Active; 'I' for Inactive)
REMARK    1  A    between atoms: C4_4  and  C5_5 
REMARK    2  A    between atoms: C5_5  and  C6_7 
REMARK    3  A    between atoms: C6_7  and  C7_8 
REMARK    4  A    between atoms: C7_8  and  C9_10 
ROOT
HETATM    1  C9  UNL     1       6.727   9.060  11.821  1.00  0.00    -0.002 C 
HETATM    2  C10 UNL     1       6.091  10.423  11.410  1.00  0.00     0.006 C 
HETATM    3  C11 UNL     1       6.446  11.445  12.511  1.00  0.00     0.011 C 
HETATM    4  C12 UNL     1       7.563  10.772  13.328  1.00  0.00    -0.032 C 
HETATM    5  C13 UNL     1       8.883  10.999  12.504  1.00  0.00     0.016 C 
HETATM    6  C14 UNL     1       7.865  11.312  14.767  1.00  0.00     0.004 C 
HETATM    7  C15 UNL     1       6.823  12.263  15.368  1.00  0.00     0.007 C 
HETATM    8  C16 UNL     1       7.202  12.791  16.767  1.00  0.00     0.007 C 
HETATM    9  C17 UNL     1       8.539  12.255  17.338  1.00  0.00     0.010 C 
HETATM   10  C18 UNL     1       8.803  12.653  18.826  1.00  0.00     0.018 C 
HETATM   11  C19 UNL     1       8.798  14.186  18.984  1.00  0.00     0.023 C 
HETATM   12  C20 UNL     1       7.783  12.050  19.804  1.00  0.00     0.023 C 
HETATM   13  C21 UNL     1      10.195  12.150  19.240  1.00  0.00     0.135 C 
HETATM   14  O2  UNL     1      10.742  12.528  20.278  1.00  0.00    -0.297 OA
HETATM   15  C22 UNL     1      10.902  11.188  18.316  1.00  0.00     0.080 C 
HETATM   16  C23 UNL     1       9.926  10.133  17.828  1.00  0.00     0.018 C 
HETATM   17  C24 UNL     1       8.722  10.737  17.119  1.00  0.00    -0.026 A 
HETATM   18  C25 UNL     1       7.494   9.870  17.022  1.00  0.00     0.021 A 
HETATM   19  C26 UNL     1       8.267  10.188  15.751  1.00  0.00    -0.027 A 
HETATM   20  C27 UNL     1       8.958   8.999  15.097  1.00  0.00     0.011 C 
HETATM   21  C28 UNL     1       8.192   8.388  13.904  1.00  0.00     0.011 C 
HETATM   22  C29 UNL     1       7.069   9.276  13.335  1.00  0.00    -0.032 C 
HETATM   23  C30 UNL     1       5.785   9.063  14.179  1.00  0.00     0.016 C 
ENDROOT
BRANCH   1  24
HETATM   24  C7  UNL     1       5.954   7.821  11.269  1.00  0.00    -0.007 C 
HETATM   25  C8  UNL     1       6.751   6.535  11.032  1.00  0.00     0.011 C 
BRANCH  24  26
HETATM   26  C6  UNL     1       4.980   8.191  10.121  1.00  0.00     0.087 C 
BRANCH  26  27
HETATM   27  C5  UNL     1       3.827   7.238   9.866  1.00  0.00     0.149 C 
HETATM   28  O1  UNL     1       4.013   6.035   9.685  1.00  0.00    -0.293 OA
BRANCH  27  29
HETATM   29  C4  UNL     1       2.437   7.753   9.689  1.00  0.00     0.052 C 
HETATM   30  C2  UNL     1       1.652   7.828   8.596  1.00  0.00    -0.084 C 
HETATM   31  C1  UNL     1       2.024   7.461   7.186  1.00  0.00     0.043 C 
HETATM   32  C3  UNL     1       0.250   8.375   8.724  1.00  0.00     0.043 C 
ENDBRANCH  27  29
ENDBRANCH  26  27
ENDBRANCH  24  26
ENDBRANCH   1  24
TORSDOF 4
ENDMDL
MODEL 6
REMARK minimizedAffinity -6.46727371
REMARK CNNscore 0.276427448
REMARK CNNaffinity 5.13452959
REMARK  4 active torsions:
REMARK  status: ('A' for Active; 'I' for Inactive)
REMARK    1  A    between atoms: C4_4  and  C5_5 
REMARK    2  A    between atoms: C5_5  and  C6_7 
REMARK    3  A    between atoms: C6_7  and  C7_8 
REMARK    4  A    between atoms: C7_8  and  C9_10 
ROOT
HETATM    1  C9  UNL     1       6.928   8.358  13.982  1.00  0.00    -0.002 C 
HETATM    2  C10 UNL     1       8.063   7.697  13.143  1.00  0.00     0.006 C 
HETATM    3  C11 UNL     1       9.404   8.264  13.657  1.00  0.00     0.011 C 
HETATM    4  C12 UNL     1       9.057   8.939  14.996  1.00  0.00    -0.032 C 
HETATM    5  C13 UNL     1       8.991   7.775  16.051  1.00  0.00     0.016 C 
HETATM    6  C14 UNL     1      10.061   9.987  15.587  1.00  0.00     0.004 C 
HETATM    7  C15 UNL     1      11.157  10.487  14.637  1.00  0.00     0.007 C 
HETATM    8  C16 UNL     1      12.137  11.482  15.293  1.00  0.00     0.007 C 
HETATM    9  C17 UNL     1      11.835  11.832  16.772  1.00  0.00     0.010 C 
HETATM   10  C18 UNL     1      12.722  12.980  17.350  1.00  0.00     0.018 C 
HETATM   11  C19 UNL     1      14.216  12.616  17.242  1.00  0.00     0.023 C 
HETATM   12  C20 UNL     1      12.490  14.333  16.658  1.00  0.00     0.023 C 
HETATM   13  C21 UNL     1      12.398  13.162  18.841  1.00  0.00     0.135 C 
HETATM   14  O2  UNL     1      13.112  13.837  19.586  1.00  0.00    -0.297 OA
HETATM   15  C22 UNL     1      11.179  12.461  19.390  1.00  0.00     0.080 C 
HETATM   16  C23 UNL     1      10.017  12.621  18.427  1.00  0.00     0.018 C 
HETATM   17  C24 UNL     1      10.335  12.089  17.037  1.00  0.00    -0.026 A 
HETATM   18  C25 UNL     1       9.483  12.607  15.907  1.00  0.00     0.021 A 
HETATM   19  C26 UNL     1       9.347  11.149  16.316  1.00  0.00    -0.027 A 
HETATM   20  C27 UNL     1       8.007  10.771  16.935  1.00  0.00     0.011 C 
HETATM   21  C28 UNL     1       7.020  10.092  15.963  1.00  0.00     0.011 C 
HETATM   22  C29 UNL     1       7.653   9.570  14.659  1.00  0.00    -0.032 C 
HETATM   23  C30 UNL     1       7.740  10.739  13.642  1.00  0.00     0.016 C 
ENDROOT
BRANCH   1  24
HETATM   24  C7  UNL     1       5.572   8.469  13.217  1.00  0.00    -0.007 C 
HETATM   25  C8  UNL     1       4.288   8.183  14.002  1.00  0.00     0.011 C 
BRANCH  24  26
HETATM   26  C6  UNL     1       5.625   7.808  11.815  1.00  0.00     0.087 C 
BRANCH  26  27
HETATM   27  C5  UNL     1       5.280   8.690  10.628  1.00  0.00     0.149 C 
HETATM   28  O1  UNL     1       5.856   9.761  10.433  1.00  0.00    -0.293 OA
BRANCH  27  29
HETATM   29  C4  UNL     1       4.134   8.352   9.735  1.00  0.00     0.052 C 
HETATM   30  C2  UNL     1       3.513   7.181   9.494  1.00  0.00    -0.084 C 
HETATM   31  C1  UNL     1       3.886   5.829  10.036  1.00  0.00     0.043 C 
HETATM   32  C3  UNL     1       2.336   7.144   8.549  1.00  0.00     0.043 C 
ENDBRANCH  27  29
ENDBRANCH  26  27
ENDBRANCH  24  26
ENDBRANCH   1  24
TORSDOF 4
ENDMDL
MODEL 7
REMARK minimizedAffinity -8.32291031
REMARK CNNscore 0.27129361
REMARK CNNaffinity 6.29925299
REMARK  4 active torsions:
REMARK  status: ('A' for Active; 'I' for Inactive)
REMARK    1  A    between atoms: C4_4  and  C5_5 
REMARK    2  A    between atoms: C5_5  and  C6_7 
REMARK    3  A    between atoms: C6_7  and  C7_8 
REMARK    4  A    between atoms: C7_8  and  C9_10 
ROOT
HETATM    1  C9  UNL     1       3.529   7.714   9.980  1.00  0.00    -0.002 C 
HETATM    2  C10 UNL     1       3.398   6.412   9.133  1.00  0.00     0.006 C 
HETATM    3  C11 UNL     1       2.004   5.815   9.421  1.00  0.00     0.011 C 
HETATM    4  C12 UNL     1       1.229   6.946  10.119  1.00  0.00    -0.032 C 
HETATM    5  C13 UNL     1       0.733   7.893   8.966  1.00  0.00     0.016 C 
HETATM    6  C14 UNL     1      -0.052   6.577  10.942  1.00  0.00     0.004 C 
HETATM    7  C15 UNL     1      -0.260   5.087  11.244  1.00  0.00     0.007 C 
HETATM    8  C16 UNL     1      -1.560   4.788  12.017  1.00  0.00     0.007 C 
HETATM    9  C17 UNL     1      -2.412   6.029  12.386  1.00  0.00     0.010 C 
HETATM   10  C18 UNL     1      -3.618   5.718  13.330  1.00  0.00     0.018 C 
HETATM   11  C19 UNL     1      -4.551   4.673  12.688  1.00  0.00     0.023 C 
HETATM   12  C20 UNL     1      -3.187   5.215  14.717  1.00  0.00     0.023 C 
HETATM   13  C21 UNL     1      -4.437   7.002  13.537  1.00  0.00     0.135 C 
HETATM   14  O2  UNL     1      -5.560   6.984  14.046  1.00  0.00    -0.297 OA
HETATM   15  C22 UNL     1      -3.837   8.306  13.071  1.00  0.00     0.080 C 
HETATM   16  C23 UNL     1      -2.374   8.371  13.472  1.00  0.00     0.018 C 
HETATM   17  C24 UNL     1      -1.566   7.205  12.920  1.00  0.00    -0.026 A 
HETATM   18  C25 UNL     1      -0.266   6.899  13.617  1.00  0.00     0.021 A 
HETATM   19  C26 UNL     1      -0.224   7.457  12.202  1.00  0.00    -0.027 A 
HETATM   20  C27 UNL     1       0.364   8.856  12.075  1.00  0.00     0.011 C 
HETATM   21  C28 UNL     1       1.838   8.894  11.619  1.00  0.00     0.011 C 
HETATM   22  C29 UNL     1       2.361   7.577  11.016  1.00  0.00    -0.032 C 
HETATM   23  C30 UNL     1       2.815   6.643  12.168  1.00  0.00     0.016 C 
ENDROOT
BRANCH   1  24
HETATM   24  C7  UNL     1       5.002   8.060  10.365  1.00  0.00    -0.007 C 
HETATM   25  C8  UNL     1       5.799   7.007  11.142  1.00  0.00     0.011 C 
BRANCH  24  26
HETATM   26  C6  UNL     1       5.151   9.504  10.908  1.00  0.00     0.087 C 
BRANCH  26  27
HETATM   27  C5  UNL     1       6.558  10.068  10.978  1.00  0.00     0.149 C 
HETATM   28  O1  UNL     1       7.368   9.897  10.067  1.00  0.00    -0.293 OA
BRANCH  27  29
HETATM   29  C4  UNL     1       7.051  10.735  12.219  1.00  0.00     0.052 C 
HETATM   30  C2  UNL     1       6.699  11.898  12.801  1.00  0.00    -0.084 C 
HETATM   31  C1  UNL     1       5.720  12.913  12.278  1.00  0.00     0.043 C 
HETATM   32  C3  UNL     1       7.356  12.311  14.097  1.00  0.00     0.043 C 
ENDBRANCH  27  29
ENDBRANCH  26  27
ENDBRANCH  24  26
ENDBRANCH   1  24
TORSDOF 4
ENDMDL
MODEL 8
REMARK minimizedAffinity -7.23902464
REMARK CNNscore 0.243609995
REMARK CNNaffinity 6.02617502
REMARK  4 active torsions:
REMARK  status: ('A' for Active; 'I' for Inactive)
REMARK    1  A    between atoms: C4_4  and  C5_5 
REMARK    2  A    between atoms: C5_5  and  C6_7 
REMARK    3  A    between atoms: C6_7  and  C7_8 
REMARK    4  A    between atoms: C7_8  and  C9_10 
ROOT
HETATM    1  C9  UNL     1      -1.368  11.954  17.571  1.00  0.00    -0.002 C 
HETATM    2  C10 UNL     1      -0.626  12.888  16.567  1.00  0.00     0.006 C 
HETATM    3  C11 UNL     1      -0.412  12.086  15.266  1.00  0.00     0.011 C 
HETATM    4  C12 UNL     1      -1.338  10.864  15.400  1.00  0.00    -0.032 C 
HETATM    5  C13 UNL     1      -2.772  11.376  15.008  1.00  0.00     0.016 C 
HETATM    6  C14 UNL     1      -1.070   9.619  14.489  1.00  0.00     0.004 C 
HETATM    7  C15 UNL     1       0.276   9.593  13.754  1.00  0.00     0.007 C 
HETATM    8  C16 UNL     1       0.458   8.364  12.840  1.00  0.00     0.007 C 
HETATM    9  C17 UNL     1      -0.719   7.357  12.842  1.00  0.00     0.010 C 
HETATM   10  C18 UNL     1      -0.430   6.034  12.061  1.00  0.00     0.018 C 
HETATM   11  C19 UNL     1      -0.067   6.341  10.595  1.00  0.00     0.023 C 
HETATM   12  C20 UNL     1       0.696   5.196  12.687  1.00  0.00     0.023 C 
HETATM   13  C21 UNL     1      -1.700   5.170  12.051  1.00  0.00     0.135 C 
HETATM   14  O2  UNL     1      -1.815   4.189  11.312  1.00  0.00    -0.297 OA
HETATM   15  C22 UNL     1      -2.836   5.571  12.961  1.00  0.00     0.080 C 
HETATM   16  C23 UNL     1      -2.291   5.946  14.328  1.00  0.00     0.018 C 
HETATM   17  C24 UNL     1      -1.265   7.068  14.257  1.00  0.00    -0.026 A 
HETATM   18  C25 UNL     1      -0.328   7.197  15.430  1.00  0.00     0.021 A 
HETATM   19  C26 UNL     1      -1.371   8.282  15.204  1.00  0.00    -0.027 A 
HETATM   20  C27 UNL     1      -2.454   8.371  16.271  1.00  0.00     0.011 C 
HETATM   21  C28 UNL     1      -2.230   9.477  17.323  1.00  0.00     0.011 C 
HETATM   22  C29 UNL     1      -1.180  10.535  16.934  1.00  0.00    -0.032 C 
HETATM   23  C30 UNL     1       0.230  10.000  17.298  1.00  0.00     0.016 C 
ENDROOT
BRANCH   1  24
HETATM   24  C7  UNL     1      -1.069  12.285  19.067  1.00  0.00    -0.007 C 
HETATM   25  C8  UNL     1      -0.997  13.763  19.466  1.00  0.00     0.011 C 
BRANCH  24  26
HETATM   26  C6  UNL     1       0.065  11.408  19.656  1.00  0.00     0.087 C 
BRANCH  26  27
HETATM   27  C5  UNL     1       1.414  12.074  19.858  1.00  0.00     0.149 C 
HETATM   28  O1  UNL     1       2.041  12.559  18.916  1.00  0.00    -0.293 OA
BRANCH  27  29
HETATM   29  C4  UNL     1       2.088  12.042  21.189  1.00  0.00     0.052 C 
HETATM   30  C2  UNL     1       2.668  11.030  21.865  1.00  0.00    -0.084 C 
HETATM   31  C1  UNL     1       2.720   9.583  21.460  1.00  0.00     0.043 C 
HETATM   32  C3  UNL     1       3.314  11.303  23.202  1.00  0.00     0.043 C 
ENDBRANCH  27  29
ENDBRANCH  26  27
ENDBRANCH  24  26
ENDBRANCH   1  24
TORSDOF 4
ENDMDL
MODEL 9
REMARK minimizedAffinity -9.10678768
REMARK CNNscore 0.227669939
REMARK CNNaffinity 6.27970171
REMARK  4 active torsions:
REMARK  status: ('A' for Active; 'I' for Inactive)
REMARK    1  A    between atoms: C4_4  and  C5_5 
REMARK    2  A    between atoms: C5_5  and  C6_7 
REMARK    3  A    between atoms: C6_7  and  C7_8 
REMARK    4  A    between atoms: C7_8  and  C9_10 
ROOT
HETATM    1  C9  UNL     1       3.049   7.470  11.100  1.00  0.00    -0.002 C 
HETATM    2  C10 UNL     1       3.047   6.013  10.545  1.00  0.00     0.006 C 
HETATM    3  C11 UNL     1       1.630   5.443  10.759  1.00  0.00     0.011 C 
HETATM    4  C12 UNL     1       0.756   6.668  11.081  1.00  0.00    -0.032 C 
HETATM    5  C13 UNL     1       0.427   7.329   9.693  1.00  0.00     0.016 C 
HETATM    6  C14 UNL     1      -0.627   6.439  11.778  1.00  0.00     0.004 C 
HETATM    7  C15 UNL     1      -0.869   5.041  12.364  1.00  0.00     0.007 C 
HETATM    8  C16 UNL     1      -2.265   4.868  12.996  1.00  0.00     0.007 C 
HETATM    9  C17 UNL     1      -3.167   6.128  12.964  1.00  0.00     0.010 C 
HETATM   10  C18 UNL     1      -4.494   5.983  13.776  1.00  0.00     0.018 C 
HETATM   11  C19 UNL     1      -5.321   4.792  13.253  1.00  0.00     0.023 C 
HETATM   12  C20 UNL     1      -4.264   5.804  15.285  1.00  0.00     0.023 C 
HETATM   13  C21 UNL     1      -5.341   7.251  13.584  1.00  0.00     0.135 C 
HETATM   14  O2  UNL     1      -6.525   7.302  13.923  1.00  0.00    -0.297 OA
HETATM   15  C22 UNL     1      -4.686   8.446  12.934  1.00  0.00     0.080 C 
HETATM   16  C23 UNL     1      -3.296   8.648  13.511  1.00  0.00     0.018 C 
HETATM   17  C24 UNL     1      -2.412   7.421  13.343  1.00  0.00    -0.026 A 
HETATM   18  C25 UNL     1      -1.223   7.317  14.263  1.00  0.00     0.021 A 
HETATM   19  C26 UNL     1      -0.982   7.561  12.781  1.00  0.00    -0.027 A 
HETATM   20  C27 UNL     1      -0.388   8.920  12.437  1.00  0.00     0.011 C 
HETATM   21  C28 UNL     1       1.135   8.913  12.192  1.00  0.00     0.011 C 
HETATM   22  C29 UNL     1       1.746   7.517  11.968  1.00  0.00    -0.032 C 
HETATM   23  C30 UNL     1       2.035   6.868  13.347  1.00  0.00     0.016 C 
ENDROOT
BRANCH   1  24
HETATM   24  C7  UNL     1       4.450   7.943  11.602  1.00  0.00    -0.007 C 
HETATM   25  C8  UNL     1       5.070   9.170  10.924  1.00  0.00     0.011 C 
BRANCH  24  26
HETATM   26  C6  UNL     1       5.434   6.765  11.816  1.00  0.00     0.087 C 
BRANCH  26  27
HETATM   27  C5  UNL     1       6.815   7.111  12.342  1.00  0.00     0.149 C 
HETATM   28  O1  UNL     1       7.823   6.967  11.651  1.00  0.00    -0.293 OA
BRANCH  27  29
HETATM   29  C4  UNL     1       7.009   7.509  13.768  1.00  0.00     0.052 C 
HETATM   30  C2  UNL     1       8.110   7.911  14.433  1.00  0.00    -0.084 C 
HETATM   31  C1  UNL     1       9.513   7.994  13.898  1.00  0.00     0.043 C 
HETATM   32  C3  UNL     1       8.000   8.289  15.891  1.00  0.00     0.043 C 
ENDBRANCH  27  29
ENDBRANCH  26  27
ENDBRANCH  24  26
ENDBRANCH   1  24
TORSDOF 4
ENDMDL
