MODEL 1
REMARK minimizedAffinity -9.02493286
REMARK  12 active torsions:
REMARK  status: ('A' for Active; 'I' for Inactive)
REMARK    1  A    between atoms: C3_3  and  O1_4 
REMARK    2  A    between atoms: O1_4  and  C4_5 
REMARK    3  A    between atoms: C5_7  and  C6_8 
REMARK    4  A    between atoms: C6_8  and  O3_9 
REMARK    5  A    between atoms: C7_10  and  O4_11 
REMARK    6  A    between atoms: C8_12  and  O5_13 
REMARK    7  A    between atoms: C9_14  and  O6_15 
REMARK    8  A    between atoms: C10_16  and  O7_17 
REMARK    9  A    between atoms: C15_22  and  O8_23 
REMARK   10  A    between atoms: C15_22  and  C16_24 
REMARK   11  A    between atoms: C17_25  and  C18_26 
REMARK   12  A    between atoms: C18_26  and  O9_28 
ROOT
HETATM    1  C1  UNL     1       5.722  62.614 -36.153  1.00  0.00     0.016 C 
HETATM    2  C2  UNL     1       5.947  64.108 -36.432  1.00  0.00     0.052 C 
HETATM    3  C3  UNL     1       7.432  64.430 -36.675  1.00  0.00     0.160 C 
HETATM    4  C10 UNL     1       7.582  65.882 -37.226  1.00  0.00     0.148 C 
HETATM    5  C11 UNL     1       6.391  66.806 -36.931  1.00  0.00     0.046 C 
HETATM    6  C12 UNL     1       5.742  66.581 -35.545  1.00  0.00    -0.010 C 
HETATM    7  C13 UNL     1       4.600  67.622 -35.393  1.00  0.00     0.018 C 
HETATM    8  C14 UNL     1       6.774  66.923 -34.440  1.00  0.00     0.018 C 
HETATM    9  C15 UNL     1       5.193  65.092 -35.458  1.00  0.00     0.088 C 
ENDROOT
BRANCH   3  10
HETATM   10  O1  UNL     1       8.200  64.165 -35.497  1.00  0.00    -0.350 OA
BRANCH  10  11
HETATM   11  C4  UNL     1       9.312  63.292 -35.741  1.00  0.00     0.292 C 
HETATM   12  O2  UNL     1       8.827  61.939 -35.750  1.00  0.00    -0.348 OA
HETATM   13  C5  UNL     1       8.979  61.212 -34.523  1.00  0.00     0.179 C 
HETATM   14  C7  UNL     1       8.892  62.137 -33.303  1.00  0.00     0.180 C 
HETATM   15  C8  UNL     1      10.136  63.029 -33.316  1.00  0.00     0.183 C 
HETATM   16  C9  UNL     1      10.438  63.586 -34.716  1.00  0.00     0.204 C 
BRANCH  13  17
HETATM   17  C6  UNL     1       7.913  60.114 -34.511  1.00  0.00     0.198 C 
BRANCH  17  18
HETATM   18  O3  UNL     1       7.658  59.658 -35.838  1.00  0.00    -0.398 OA
HETATM   19  H10 UNL     1       8.525  59.355 -36.173  1.00  0.00     0.209 HD
ENDBRANCH  17  18
ENDBRANCH  13  17
BRANCH  14  20
HETATM   20  O4  UNL     1       8.857  61.432 -32.056  1.00  0.00    -0.390 OA
HETATM   21  H12 UNL     1       7.968  61.034 -31.990  1.00  0.00     0.210 HD
ENDBRANCH  14  20
BRANCH  15  22
HETATM   22  O5  UNL     1       9.986  64.085 -32.357  1.00  0.00    -0.390 OA
HETATM   23  H14 UNL     1       9.727  63.639 -31.527  1.00  0.00     0.210 HD
ENDBRANCH  15  22
BRANCH  16  24
HETATM   24  O6  UNL     1      11.670  62.988 -35.177  1.00  0.00    -0.388 OA
HETATM   25  H16 UNL     1      12.386  63.441 -34.696  1.00  0.00     0.210 HD
ENDBRANCH  16  24
ENDBRANCH  10  11
ENDBRANCH   3  10
BRANCH   4  26
HETATM   26  O7  UNL     1       8.798  66.497 -36.798  1.00  0.00    -0.393 OA
HETATM   27  H18 UNL     1       8.829  67.392 -37.180  1.00  0.00     0.210 HD
ENDBRANCH   4  26
BRANCH   9  28
HETATM   28  O8  UNL     1       3.854  65.102 -36.031  1.00  0.00    -0.385 OA
HETATM   29  H27 UNL     1       3.408  64.290 -35.734  1.00  0.00     0.211 HD
ENDBRANCH   9  28
BRANCH   9  30
HETATM   30  C16 UNL     1       4.942  64.694 -34.015  1.00  0.00     0.010 C 
HETATM   31  C17 UNL     1       4.185  63.690 -33.538  1.00  0.00     0.003 C 
BRANCH  31  32
HETATM   32  C18 UNL     1       3.983  63.329 -32.091  1.00  0.00     0.136 C 
HETATM   33  C19 UNL     1       3.587  64.549 -31.271  1.00  0.00     0.043 C 
BRANCH  32  34
HETATM   34  O9  UNL     1       2.981  62.329 -31.963  1.00  0.00    -0.392 OA
HETATM   35  H34 UNL     1       2.867  62.156 -31.014  1.00  0.00     0.210 HD
ENDBRANCH  32  34
ENDBRANCH  31  32
ENDBRANCH   9  30
TORSDOF 12
ENDMDL
MODEL 2
REMARK minimizedAffinity -8.52912903
REMARK  12 active torsions:
REMARK  status: ('A' for Active; 'I' for Inactive)
REMARK    1  A    between atoms: C3_3  and  O1_4 
REMARK    2  A    between atoms: O1_4  and  C4_5 
REMARK    3  A    between atoms: C5_7  and  C6_8 
REMARK    4  A    between atoms: C6_8  and  O3_9 
REMARK    5  A    between atoms: C7_10  and  O4_11 
REMARK    6  A    between atoms: C8_12  and  O5_13 
REMARK    7  A    between atoms: C9_14  and  O6_15 
REMARK    8  A    between atoms: C10_16  and  O7_17 
REMARK    9  A    between atoms: C15_22  and  O8_23 
REMARK   10  A    between atoms: C15_22  and  C16_24 
REMARK   11  A    between atoms: C17_25  and  C18_26 
REMARK   12  A    between atoms: C18_26  and  O9_28 
ROOT
HETATM    1  C1  UNL     1       5.564  63.015 -33.595  1.00  0.00     0.016 C 
HETATM    2  C2  UNL     1       5.326  63.948 -34.792  1.00  0.00     0.052 C 
HETATM    3  C3  UNL     1       6.437  63.821 -35.849  1.00  0.00     0.160 C 
HETATM    4  C10 UNL     1       6.019  64.562 -37.157  1.00  0.00     0.148 C 
HETATM    5  C11 UNL     1       4.932  65.631 -36.969  1.00  0.00     0.046 C 
HETATM    6  C12 UNL     1       5.046  66.426 -35.647  1.00  0.00    -0.010 C 
HETATM    7  C13 UNL     1       3.911  67.486 -35.643  1.00  0.00     0.018 C 
HETATM    8  C14 UNL     1       6.373  67.226 -35.648  1.00  0.00     0.018 C 
HETATM    9  C15 UNL     1       4.914  65.424 -34.419  1.00  0.00     0.088 C 
ENDROOT
BRANCH   3  10
HETATM   10  O1  UNL     1       7.692  64.244 -35.308  1.00  0.00    -0.350 OA
BRANCH  10  11
HETATM   11  C4  UNL     1       8.794  63.443 -35.762  1.00  0.00     0.292 C 
HETATM   12  O2  UNL     1       8.368  62.071 -35.795  1.00  0.00    -0.348 OA
HETATM   13  C5  UNL     1       8.724  61.280 -34.652  1.00  0.00     0.179 C 
HETATM   14  C7  UNL     1       8.772  62.124 -33.372  1.00  0.00     0.180 C 
HETATM   15  C8  UNL     1       9.964  63.076 -33.499  1.00  0.00     0.183 C 
HETATM   16  C9  UNL     1      10.041  63.731 -34.887  1.00  0.00     0.204 C 
BRANCH  13  17
HETATM   17  C6  UNL     1       7.715  60.132 -34.565  1.00  0.00     0.198 C 
BRANCH  17  18
HETATM   18  O3  UNL     1       7.537  59.531 -35.847  1.00  0.00    -0.398 OA
HETATM   19  H10 UNL     1       8.432  59.245 -36.119  1.00  0.00     0.209 HD
ENDBRANCH  17  18
ENDBRANCH  13  17
BRANCH  14  20
HETATM   20  O4  UNL     1       8.945  61.344 -32.183  1.00  0.00    -0.390 OA
HETATM   21  H12 UNL     1       8.091  60.899 -32.021  1.00  0.00     0.210 HD
ENDBRANCH  14  20
BRANCH  15  22
HETATM   22  O5  UNL     1       9.909  64.064 -32.460  1.00  0.00    -0.390 OA
HETATM   23  H14 UNL     1       9.790  63.556 -31.634  1.00  0.00     0.210 HD
ENDBRANCH  15  22
BRANCH  16  24
HETATM   24  O6  UNL     1      11.218  63.225 -35.555  1.00  0.00    -0.388 OA
HETATM   25  H16 UNL     1      11.977  63.684 -35.149  1.00  0.00     0.210 HD
ENDBRANCH  16  24
ENDBRANCH  10  11
ENDBRANCH   3  10
BRANCH   4  26
HETATM   26  O7  UNL     1       7.143  65.120 -37.841  1.00  0.00    -0.393 OA
HETATM   27  H18 UNL     1       6.812  65.559 -38.645  1.00  0.00     0.210 HD
ENDBRANCH   4  26
BRANCH   9  28
HETATM   28  O8  UNL     1       3.491  65.271 -34.151  1.00  0.00    -0.385 OA
HETATM   29  H27 UNL     1       3.405  64.903 -33.254  1.00  0.00     0.211 HD
ENDBRANCH   9  28
BRANCH   9  30
HETATM   30  C16 UNL     1       5.434  66.062 -33.144  1.00  0.00     0.010 C 
HETATM   31  C17 UNL     1       6.565  66.764 -32.954  1.00  0.00     0.003 C 
BRANCH  31  32
HETATM   32  C18 UNL     1       7.026  67.390 -31.667  1.00  0.00     0.136 C 
HETATM   33  C19 UNL     1       8.029  68.505 -31.927  1.00  0.00     0.043 C 
BRANCH  32  34
HETATM   34  O9  UNL     1       5.920  67.910 -30.940  1.00  0.00    -0.392 OA
HETATM   35  H34 UNL     1       6.273  68.329 -30.139  1.00  0.00     0.210 HD
ENDBRANCH  32  34
ENDBRANCH  31  32
ENDBRANCH   9  30
TORSDOF 12
ENDMDL
MODEL 3
REMARK minimizedAffinity -8.34764767
REMARK  12 active torsions:
REMARK  status: ('A' for Active; 'I' for Inactive)
REMARK    1  A    between atoms: C3_3  and  O1_4 
REMARK    2  A    between atoms: O1_4  and  C4_5 
REMARK    3  A    between atoms: C5_7  and  C6_8 
REMARK    4  A    between atoms: C6_8  and  O3_9 
REMARK    5  A    between atoms: C7_10  and  O4_11 
REMARK    6  A    between atoms: C8_12  and  O5_13 
REMARK    7  A    between atoms: C9_14  and  O6_15 
REMARK    8  A    between atoms: C10_16  and  O7_17 
REMARK    9  A    between atoms: C15_22  and  O8_23 
REMARK   10  A    between atoms: C15_22  and  C16_24 
REMARK   11  A    between atoms: C17_25  and  C18_26 
REMARK   12  A    between atoms: C18_26  and  O9_28 
ROOT
HETATM    1  C1  UNL     1      -3.283  52.512 -25.702  1.00  0.00     0.016 C 
HETATM    2  C2  UNL     1      -3.038  52.066 -24.253  1.00  0.00     0.052 C 
HETATM    3  C3  UNL     1      -1.543  52.097 -23.889  1.00  0.00     0.160 C 
HETATM    4  C10 UNL     1      -1.363  51.914 -22.351  1.00  0.00     0.148 C 
HETATM    5  C11 UNL     1      -2.554  51.256 -21.639  1.00  0.00     0.046 C 
HETATM    6  C12 UNL     1      -3.249  50.145 -22.461  1.00  0.00    -0.010 C 
HETATM    7  C13 UNL     1      -4.387  49.560 -21.582  1.00  0.00     0.018 C 
HETATM    8  C14 UNL     1      -2.250  48.983 -22.690  1.00  0.00     0.018 C 
HETATM    9  C15 UNL     1      -3.814  50.767 -23.811  1.00  0.00     0.088 C 
ENDROOT
BRANCH   3  10
HETATM   10  O1  UNL     1      -0.815  51.155 -24.683  1.00  0.00    -0.350 OA
BRANCH  10  11
HETATM   11  C4  UNL     1       0.546  51.549 -24.910  1.00  0.00     0.292 C 
HETATM   12  O2  UNL     1       0.672  52.941 -24.575  1.00  0.00    -0.348 OA
HETATM   13  C5  UNL     1       0.594  53.858 -25.676  1.00  0.00     0.179 C 
HETATM   14  C7  UNL     1      -0.322  53.331 -26.787  1.00  0.00     0.180 C 
HETATM   15  C8  UNL     1       0.371  52.119 -27.414  1.00  0.00     0.183 C 
HETATM   16  C9  UNL     1       0.961  51.174 -26.356  1.00  0.00     0.204 C 
BRANCH  13  17
HETATM   17  C6  UNL     1       0.128  55.203 -25.113  1.00  0.00     0.198 C 
BRANCH  17  18
HETATM   18  O3  UNL     1       1.189  55.834 -24.397  1.00  0.00    -0.398 OA
HETATM   19  H10 UNL     1       1.918  55.913 -25.043  1.00  0.00     0.209 HD
ENDBRANCH  17  18
ENDBRANCH  13  17
BRANCH  14  20
HETATM   20  O4  UNL     1      -0.572  54.291 -27.821  1.00  0.00    -0.390 OA
HETATM   21  H12 UNL     1      -1.183  54.951 -27.441  1.00  0.00     0.210 HD
ENDBRANCH  14  20
BRANCH  15  22
HETATM   22  O5  UNL     1      -0.544  51.428 -28.276  1.00  0.00    -0.390 OA
HETATM   23  H14 UNL     1      -0.915  52.119 -28.858  1.00  0.00     0.210 HD
ENDBRANCH  15  22
BRANCH  16  24
HETATM   24  O6  UNL     1       2.402  51.226 -26.466  1.00  0.00    -0.388 OA
HETATM   25  H16 UNL     1       2.631  50.701 -27.255  1.00  0.00     0.210 HD
ENDBRANCH  16  24
ENDBRANCH  10  11
ENDBRANCH   3  10
BRANCH   4  26
HETATM   26  O7  UNL     1      -0.155  51.221 -22.029  1.00  0.00    -0.393 OA
HETATM   27  H18 UNL     1      -0.104  51.148 -21.059  1.00  0.00     0.210 HD
ENDBRANCH   4  26
BRANCH   9  28
HETATM   28  O8  UNL     1      -5.133  51.304 -23.508  1.00  0.00    -0.385 OA
HETATM   29  H27 UNL     1      -5.596  51.425 -24.356  1.00  0.00     0.211 HD
ENDBRANCH   9  28
BRANCH   9  30
HETATM   30  C16 UNL     1      -4.114  49.676 -24.823  1.00  0.00     0.010 C 
HETATM   31  C17 UNL     1      -3.594  49.499 -26.049  1.00  0.00     0.003 C 
BRANCH  31  32
HETATM   32  C18 UNL     1      -3.918  48.386 -27.008  1.00  0.00     0.136 C 
HETATM   33  C19 UNL     1      -5.372  47.955 -26.877  1.00  0.00     0.043 C 
BRANCH  32  34
HETATM   34  O9  UNL     1      -3.665  48.792 -28.347  1.00  0.00    -0.392 OA
HETATM   35  H34 UNL     1      -3.919  48.055 -28.925  1.00  0.00     0.210 HD
ENDBRANCH  32  34
ENDBRANCH  31  32
ENDBRANCH   9  30
TORSDOF 12
ENDMDL
MODEL 4
REMARK minimizedAffinity -8.19596004
REMARK  12 active torsions:
REMARK  status: ('A' for Active; 'I' for Inactive)
REMARK    1  A    between atoms: C3_3  and  O1_4 
REMARK    2  A    between atoms: O1_4  and  C4_5 
REMARK    3  A    between atoms: C5_7  and  C6_8 
REMARK    4  A    between atoms: C6_8  and  O3_9 
REMARK    5  A    between atoms: C7_10  and  O4_11 
REMARK    6  A    between atoms: C8_12  and  O5_13 
REMARK    7  A    between atoms: C9_14  and  O6_15 
REMARK    8  A    between atoms: C10_16  and  O7_17 
REMARK    9  A    between atoms: C15_22  and  O8_23 
REMARK   10  A    between atoms: C15_22  and  C16_24 
REMARK   11  A    between atoms: C17_25  and  C18_26 
REMARK   12  A    between atoms: C18_26  and  O9_28 
ROOT
HETATM    1  C1  UNL     1       5.860  62.623 -35.995  1.00  0.00     0.016 C 
HETATM    2  C2  UNL     1       6.044  64.112 -36.325  1.00  0.00     0.052 C 
HETATM    3  C3  UNL     1       7.529  64.483 -36.491  1.00  0.00     0.160 C 
HETATM    4  C10 UNL     1       7.658  65.916 -37.094  1.00  0.00     0.148 C 
HETATM    5  C11 UNL     1       6.417  66.803 -36.912  1.00  0.00     0.046 C 
HETATM    6  C12 UNL     1       5.692  66.609 -35.559  1.00  0.00    -0.010 C 
HETATM    7  C13 UNL     1       4.504  67.608 -35.522  1.00  0.00     0.018 C 
HETATM    8  C14 UNL     1       6.640  67.036 -34.410  1.00  0.00     0.018 C 
HETATM    9  C15 UNL     1       5.195  65.104 -35.441  1.00  0.00     0.088 C 
ENDROOT
BRANCH   3  10
HETATM   10  O1  UNL     1       8.231  64.298 -35.257  1.00  0.00    -0.350 OA
BRANCH  10  11
HETATM   11  C4  UNL     1       8.391  62.914 -34.909  1.00  0.00     0.292 C 
HETATM   12  O2  UNL     1       8.928  62.846 -33.577  1.00  0.00    -0.348 OA
HETATM   13  C5  UNL     1      10.349  62.668 -33.486  1.00  0.00     0.179 C 
HETATM   14  C7  UNL     1      11.078  63.325 -34.663  1.00  0.00     0.180 C 
HETATM   15  C8  UNL     1      10.726  62.528 -35.921  1.00  0.00     0.183 C 
HETATM   16  C9  UNL     1       9.227  62.197 -36.000  1.00  0.00     0.204 C 
BRANCH  13  17
HETATM   17  C6  UNL     1      10.788  63.226 -32.130  1.00  0.00     0.198 C 
BRANCH  17  18
HETATM   18  O3  UNL     1      11.433  62.211 -31.362  1.00  0.00    -0.398 OA
HETATM   19  H10 UNL     1      12.177  61.908 -31.918  1.00  0.00     0.209 HD
ENDBRANCH  17  18
ENDBRANCH  13  17
BRANCH  14  20
HETATM   20  O4  UNL     1      12.504  63.328 -34.518  1.00  0.00    -0.390 OA
HETATM   21  H12 UNL     1      12.709  63.999 -33.838  1.00  0.00     0.210 HD
ENDBRANCH  14  20
BRANCH  15  22
HETATM   22  O5  UNL     1      11.162  63.242 -37.087  1.00  0.00    -0.390 OA
HETATM   23  H14 UNL     1      12.097  63.467 -36.911  1.00  0.00     0.210 HD
ENDBRANCH  15  22
BRANCH  16  24
HETATM   24  O6  UNL     1       9.078  60.768 -35.851  1.00  0.00    -0.388 OA
HETATM   25  H16 UNL     1       9.344  60.379 -36.704  1.00  0.00     0.210 HD
ENDBRANCH  16  24
ENDBRANCH  10  11
ENDBRANCH   3  10
BRANCH   4  26
HETATM   26  O7  UNL     1       8.822  66.597 -36.619  1.00  0.00    -0.393 OA
HETATM   27  H18 UNL     1       8.843  67.475 -37.037  1.00  0.00     0.210 HD
ENDBRANCH   4  26
BRANCH   9  28
HETATM   28  O8  UNL     1       3.895  65.037 -36.094  1.00  0.00    -0.385 OA
HETATM   29  H27 UNL     1       3.462  64.220 -35.790  1.00  0.00     0.211 HD
ENDBRANCH   9  28
BRANCH   9  30
HETATM   30  C16 UNL     1       4.870  64.755 -34.000  1.00  0.00     0.010 C 
HETATM   31  C17 UNL     1       4.300  63.640 -33.512  1.00  0.00     0.003 C 
BRANCH  31  32
HETATM   32  C18 UNL     1       4.013  63.338 -32.066  1.00  0.00     0.136 C 
HETATM   33  C19 UNL     1       3.635  64.603 -31.307  1.00  0.00     0.043 C 
BRANCH  32  34
HETATM   34  O9  UNL     1       2.962  62.388 -31.954  1.00  0.00    -0.392 OA
HETATM   35  H34 UNL     1       2.795  62.253 -31.006  1.00  0.00     0.210 HD
ENDBRANCH  32  34
ENDBRANCH  31  32
ENDBRANCH   9  30
TORSDOF 12
ENDMDL
MODEL 5
REMARK minimizedAffinity -8.12196732
REMARK  12 active torsions:
REMARK  status: ('A' for Active; 'I' for Inactive)
REMARK    1  A    between atoms: C3_3  and  O1_4 
REMARK    2  A    between atoms: O1_4  and  C4_5 
REMARK    3  A    between atoms: C5_7  and  C6_8 
REMARK    4  A    between atoms: C6_8  and  O3_9 
REMARK    5  A    between atoms: C7_10  and  O4_11 
REMARK    6  A    between atoms: C8_12  and  O5_13 
REMARK    7  A    between atoms: C9_14  and  O6_15 
REMARK    8  A    between atoms: C10_16  and  O7_17 
REMARK    9  A    between atoms: C15_22  and  O8_23 
REMARK   10  A    between atoms: C15_22  and  C16_24 
REMARK   11  A    between atoms: C17_25  and  C18_26 
REMARK   12  A    between atoms: C18_26  and  O9_28 
ROOT
HETATM    1  C1  UNL     1      -3.213  52.567 -25.153  1.00  0.00     0.016 C 
HETATM    2  C2  UNL     1      -2.681  52.246 -23.748  1.00  0.00     0.052 C 
HETATM    3  C3  UNL     1      -1.148  52.372 -23.672  1.00  0.00     0.160 C 
HETATM    4  C10 UNL     1      -0.680  52.317 -22.186  1.00  0.00     0.148 C 
HETATM    5  C11 UNL     1      -1.681  51.664 -21.221  1.00  0.00     0.046 C 
HETATM    6  C12 UNL     1      -2.449  50.463 -21.821  1.00  0.00    -0.010 C 
HETATM    7  C13 UNL     1      -3.371  49.897 -20.707  1.00  0.00     0.018 C 
HETATM    8  C14 UNL     1      -1.443  49.331 -22.153  1.00  0.00     0.018 C 
HETATM    9  C15 UNL     1      -3.286  50.952 -23.081  1.00  0.00     0.088 C 
ENDROOT
BRANCH   3  10
HETATM   10  O1  UNL     1      -0.526  51.403 -24.523  1.00  0.00    -0.350 OA
BRANCH  10  11
HETATM   11  C4  UNL     1       0.769  51.817 -24.985  1.00  0.00     0.292 C 
HETATM   12  O2  UNL     1       0.878  53.238 -24.802  1.00  0.00    -0.348 OA
HETATM   13  C5  UNL     1       0.599  54.040 -25.959  1.00  0.00     0.179 C 
HETATM   14  C7  UNL     1      -0.443  53.377 -26.868  1.00  0.00     0.180 C 
HETATM   15  C8  UNL     1       0.207  52.133 -27.477  1.00  0.00     0.183 C 
HETATM   16  C9  UNL     1       0.987  51.315 -26.435  1.00  0.00     0.204 C 
BRANCH  13  17
HETATM   17  C6  UNL     1       0.159  55.418 -25.459  1.00  0.00     0.198 C 
BRANCH  17  18
HETATM   18  O3  UNL     1       1.136  55.957 -24.571  1.00  0.00    -0.398 OA
HETATM   19  H10 UNL     1       1.965  55.977 -25.089  1.00  0.00     0.209 HD
ENDBRANCH  17  18
ENDBRANCH  13  17
BRANCH  14  20
HETATM   20  O4  UNL     1      -0.884  54.223 -27.938  1.00  0.00    -0.390 OA
HETATM   21  H12 UNL     1      -1.463  54.897 -27.533  1.00  0.00     0.210 HD
ENDBRANCH  14  20
BRANCH  15  22
HETATM   22  O5  UNL     1      -0.791  51.331 -28.125  1.00  0.00    -0.390 OA
HETATM   23  H14 UNL     1      -1.274  51.950 -28.707  1.00  0.00     0.210 HD
ENDBRANCH  15  22
BRANCH  16  24
HETATM   24  O6  UNL     1       2.392  51.401 -26.762  1.00  0.00    -0.388 OA
HETATM   25  H16 UNL     1       2.528  50.810 -27.525  1.00  0.00     0.210 HD
ENDBRANCH  16  24
ENDBRANCH  10  11
ENDBRANCH   3  10
BRANCH   4  26
HETATM   26  O7  UNL     1       0.605  51.704 -22.049  1.00  0.00    -0.393 OA
HETATM   27  H18 UNL     1       0.836  51.709 -21.103  1.00  0.00     0.210 HD
ENDBRANCH   4  26
BRANCH   9  28
HETATM   28  O8  UNL     1      -4.556  51.452 -22.574  1.00  0.00    -0.385 OA
HETATM   29  H27 UNL     1      -5.173  51.487 -23.327  1.00  0.00     0.211 HD
ENDBRANCH   9  28
BRANCH   9  30
HETATM   30  C16 UNL     1      -3.703  49.774 -23.942  1.00  0.00     0.010 C 
HETATM   31  C17 UNL     1      -4.932  49.437 -24.369  1.00  0.00     0.003 C 
BRANCH  31  32
HETATM   32  C18 UNL     1      -5.288  48.261 -25.237  1.00  0.00     0.136 C 
HETATM   33  C19 UNL     1      -6.716  47.800 -24.978  1.00  0.00     0.043 C 
BRANCH  32  34
HETATM   34  O9  UNL     1      -5.141  48.593 -26.612  1.00  0.00    -0.392 OA
HETATM   35  H34 UNL     1      -5.413  47.815 -27.127  1.00  0.00     0.210 HD
ENDBRANCH  32  34
ENDBRANCH  31  32
ENDBRANCH   9  30
TORSDOF 12
ENDMDL
MODEL 6
REMARK minimizedAffinity -8.08001137
REMARK  12 active torsions:
REMARK  status: ('A' for Active; 'I' for Inactive)
REMARK    1  A    between atoms: C3_3  and  O1_4 
REMARK    2  A    between atoms: O1_4  and  C4_5 
REMARK    3  A    between atoms: C5_7  and  C6_8 
REMARK    4  A    between atoms: C6_8  and  O3_9 
REMARK    5  A    between atoms: C7_10  and  O4_11 
REMARK    6  A    between atoms: C8_12  and  O5_13 
REMARK    7  A    between atoms: C9_14  and  O6_15 
REMARK    8  A    between atoms: C10_16  and  O7_17 
REMARK    9  A    between atoms: C15_22  and  O8_23 
REMARK   10  A    between atoms: C15_22  and  C16_24 
REMARK   11  A    between atoms: C17_25  and  C18_26 
REMARK   12  A    between atoms: C18_26  and  O9_28 
ROOT
HETATM    1  C1  UNL     1       3.603  68.276 -35.658  1.00  0.00     0.016 C 
HETATM    2  C2  UNL     1       4.676  67.493 -36.428  1.00  0.00     0.052 C 
HETATM    3  C3  UNL     1       4.292  66.013 -36.603  1.00  0.00     0.160 C 
HETATM    4  C10 UNL     1       5.256  65.326 -37.618  1.00  0.00     0.148 C 
HETATM    5  C11 UNL     1       6.602  66.041 -37.810  1.00  0.00     0.046 C 
HETATM    6  C12 UNL     1       7.177  66.667 -36.517  1.00  0.00    -0.010 C 
HETATM    7  C13 UNL     1       8.549  67.299 -36.878  1.00  0.00     0.018 C 
HETATM    8  C14 UNL     1       7.486  65.538 -35.501  1.00  0.00     0.018 C 
HETATM    9  C15 UNL     1       6.160  67.755 -35.963  1.00  0.00     0.088 C 
ENDROOT
BRANCH   3  10
HETATM   10  O1  UNL     1       4.216  65.363 -35.329  1.00  0.00    -0.350 OA
BRANCH  10  11
HETATM   11  C4  UNL     1       5.507  65.111 -34.754  1.00  0.00     0.292 C 
HETATM   12  O2  UNL     1       5.902  63.774 -35.105  1.00  0.00    -0.348 OA
HETATM   13  C5  UNL     1       5.654  62.769 -34.111  1.00  0.00     0.179 C 
HETATM   14  C7  UNL     1       4.412  63.096 -33.273  1.00  0.00     0.180 C 
HETATM   15  C8  UNL     1       4.745  64.326 -32.424  1.00  0.00     0.183 C 
HETATM   16  C9  UNL     1       5.467  65.415 -33.235  1.00  0.00     0.204 C 
BRANCH  13  17
HETATM   17  C6  UNL     1       5.539  61.429 -34.841  1.00  0.00     0.198 C 
BRANCH  17  18
HETATM   18  O3  UNL     1       6.314  60.434 -34.174  1.00  0.00    -0.398 OA
HETATM   19  H10 UNL     1       5.965  60.412 -33.261  1.00  0.00     0.209 HD
ENDBRANCH  17  18
ENDBRANCH  13  17
BRANCH  14  20
HETATM   20  O4  UNL     1       4.025  62.034 -32.392  1.00  0.00    -0.390 OA
HETATM   21  H12 UNL     1       3.631  61.341 -32.956  1.00  0.00     0.210 HD
ENDBRANCH  14  20
BRANCH  15  22
HETATM   22  O5  UNL     1       3.549  64.836 -31.818  1.00  0.00    -0.390 OA
HETATM   23  H14 UNL     1       3.131  64.062 -31.393  1.00  0.00     0.210 HD
ENDBRANCH  15  22
BRANCH  16  24
HETATM   24  O6  UNL     1       6.818  65.521 -32.734  1.00  0.00    -0.388 OA
HETATM   25  H16 UNL     1       6.756  66.003 -31.889  1.00  0.00     0.210 HD
ENDBRANCH  16  24
ENDBRANCH  10  11
ENDBRANCH   3  10
BRANCH   4  26
HETATM   26  O7  UNL     1       5.474  63.948 -37.305  1.00  0.00    -0.393 OA
HETATM   27  H18 UNL     1       6.075  63.583 -37.978  1.00  0.00     0.210 HD
ENDBRANCH   4  26
BRANCH   9  28
HETATM   28  O8  UNL     1       6.463  69.004 -36.647  1.00  0.00    -0.385 OA
HETATM   29  H27 UNL     1       6.058  69.722 -36.130  1.00  0.00     0.211 HD
ENDBRANCH   9  28
BRANCH   9  30
HETATM   30  C16 UNL     1       6.458  68.082 -34.511  1.00  0.00     0.010 C 
HETATM   31  C17 UNL     1       7.143  69.122 -34.005  1.00  0.00     0.003 C 
BRANCH  31  32
HETATM   32  C18 UNL     1       7.396  69.407 -32.550  1.00  0.00     0.136 C 
HETATM   33  C19 UNL     1       8.708  70.155 -32.358  1.00  0.00     0.043 C 
BRANCH  32  34
HETATM   34  O9  UNL     1       6.331  70.170 -31.998  1.00  0.00    -0.392 OA
HETATM   35  H34 UNL     1       6.558  70.353 -31.072  1.00  0.00     0.210 HD
ENDBRANCH  32  34
ENDBRANCH  31  32
ENDBRANCH   9  30
TORSDOF 12
ENDMDL
MODEL 7
REMARK minimizedAffinity -7.7240262
REMARK  12 active torsions:
REMARK  status: ('A' for Active; 'I' for Inactive)
REMARK    1  A    between atoms: C3_3  and  O1_4 
REMARK    2  A    between atoms: O1_4  and  C4_5 
REMARK    3  A    between atoms: C5_7  and  C6_8 
REMARK    4  A    between atoms: C6_8  and  O3_9 
REMARK    5  A    between atoms: C7_10  and  O4_11 
REMARK    6  A    between atoms: C8_12  and  O5_13 
REMARK    7  A    between atoms: C9_14  and  O6_15 
REMARK    8  A    between atoms: C10_16  and  O7_17 
REMARK    9  A    between atoms: C15_22  and  O8_23 
REMARK   10  A    between atoms: C15_22  and  C16_24 
REMARK   11  A    between atoms: C17_25  and  C18_26 
REMARK   12  A    between atoms: C18_26  and  O9_28 
ROOT
HETATM    1  C1  UNL     1       7.270  66.547 -32.577  1.00  0.00     0.016 C 
HETATM    2  C2  UNL     1       6.258  65.811 -33.468  1.00  0.00     0.052 C 
HETATM    3  C3  UNL     1       6.513  64.293 -33.494  1.00  0.00     0.160 C 
HETATM    4  C10 UNL     1       5.315  63.560 -34.170  1.00  0.00     0.148 C 
HETATM    5  C11 UNL     1       4.450  64.447 -35.080  1.00  0.00     0.046 C 
HETATM    6  C12 UNL     1       5.250  65.500 -35.883  1.00  0.00    -0.010 C 
HETATM    7  C13 UNL     1       4.238  66.266 -36.777  1.00  0.00     0.018 C 
HETATM    8  C14 UNL     1       6.210  64.772 -36.858  1.00  0.00     0.018 C 
HETATM    9  C15 UNL     1       5.995  66.475 -34.873  1.00  0.00     0.088 C 
ENDROOT
BRANCH   3  10
HETATM   10  O1  UNL     1       7.786  64.011 -34.086  1.00  0.00    -0.350 OA
BRANCH  10  11
HETATM   11  C4  UNL     1       8.032  62.604 -34.236  1.00  0.00     0.292 C 
HETATM   12  O2  UNL     1       8.725  62.142 -33.065  1.00  0.00    -0.348 OA
HETATM   13  C5  UNL     1      10.152  62.045 -33.182  1.00  0.00     0.179 C 
HETATM   14  C7  UNL     1      10.714  63.101 -34.141  1.00  0.00     0.180 C 
HETATM   15  C8  UNL     1      10.241  62.737 -35.550  1.00  0.00     0.183 C 
HETATM   16  C9  UNL     1       8.755  62.345 -35.582  1.00  0.00     0.204 C 
BRANCH  13  17
HETATM   17  C6  UNL     1      10.731  62.159 -31.770  1.00  0.00     0.198 C 
BRANCH  17  18
HETATM   18  O3  UNL     1      11.277  63.461 -31.562  1.00  0.00    -0.398 OA
HETATM   19  H10 UNL     1      10.535  64.075 -31.731  1.00  0.00     0.209 HD
ENDBRANCH  17  18
ENDBRANCH  13  17
BRANCH  14  20
HETATM   20  O4  UNL     1      12.146  63.158 -34.148  1.00  0.00    -0.390 OA
HETATM   21  H12 UNL     1      12.408  63.581 -33.308  1.00  0.00     0.210 HD
ENDBRANCH  14  20
BRANCH  15  22
HETATM   22  O5  UNL     1      10.512  63.822 -36.449  1.00  0.00    -0.390 OA
HETATM   23  H14 UNL     1      11.453  64.042 -36.304  1.00  0.00     0.210 HD
ENDBRANCH  15  22
BRANCH  16  24
HETATM   24  O6  UNL     1       8.672  60.939 -35.904  1.00  0.00    -0.388 OA
HETATM   25  H16 UNL     1       8.849  60.870 -36.860  1.00  0.00     0.210 HD
ENDBRANCH  16  24
ENDBRANCH  10  11
ENDBRANCH   3  10
BRANCH   4  26
HETATM   26  O7  UNL     1       5.729  62.389 -34.877  1.00  0.00    -0.393 OA
HETATM   27  H18 UNL     1       4.936  61.981 -35.266  1.00  0.00     0.210 HD
ENDBRANCH   4  26
BRANCH   9  28
HETATM   28  O8  UNL     1       5.048  67.526 -34.526  1.00  0.00    -0.385 OA
HETATM   29  H27 UNL     1       5.561  68.263 -34.151  1.00  0.00     0.211 HD
ENDBRANCH   9  28
BRANCH   9  30
HETATM   30  C16 UNL     1       7.104  67.236 -35.578  1.00  0.00     0.010 C 
HETATM   31  C17 UNL     1       7.132  68.525 -35.956  1.00  0.00     0.003 C 
BRANCH  31  32
HETATM   32  C18 UNL     1       8.269  69.234 -36.641  1.00  0.00     0.136 C 
HETATM   33  C19 UNL     1       9.137  68.255 -37.420  1.00  0.00     0.043 C 
BRANCH  32  34
HETATM   34  O9  UNL     1       7.774  70.232 -37.524  1.00  0.00    -0.392 OA
HETATM   35  H34 UNL     1       8.542  70.635 -37.962  1.00  0.00     0.210 HD
ENDBRANCH  32  34
ENDBRANCH  31  32
ENDBRANCH   9  30
TORSDOF 12
ENDMDL
MODEL 8
REMARK minimizedAffinity -7.6205759
REMARK  12 active torsions:
REMARK  status: ('A' for Active; 'I' for Inactive)
REMARK    1  A    between atoms: C3_3  and  O1_4 
REMARK    2  A    between atoms: O1_4  and  C4_5 
REMARK    3  A    between atoms: C5_7  and  C6_8 
REMARK    4  A    between atoms: C6_8  and  O3_9 
REMARK    5  A    between atoms: C7_10  and  O4_11 
REMARK    6  A    between atoms: C8_12  and  O5_13 
REMARK    7  A    between atoms: C9_14  and  O6_15 
REMARK    8  A    between atoms: C10_16  and  O7_17 
REMARK    9  A    between atoms: C15_22  and  O8_23 
REMARK   10  A    between atoms: C15_22  and  C16_24 
REMARK   11  A    between atoms: C17_25  and  C18_26 
REMARK   12  A    between atoms: C18_26  and  O9_28 
ROOT
HETATM    1  C1  UNL     1       6.537  66.145 -37.884  1.00  0.00     0.016 C 
HETATM    2  C2  UNL     1       6.308  67.540 -37.282  1.00  0.00     0.052 C 
HETATM    3  C3  UNL     1       6.485  67.542 -35.754  1.00  0.00     0.160 C 
HETATM    4  C10 UNL     1       6.523  69.007 -35.221  1.00  0.00     0.148 C 
HETATM    5  C11 UNL     1       5.890  70.048 -36.158  1.00  0.00     0.046 C 
HETATM    6  C12 UNL     1       4.636  69.543 -36.911  1.00  0.00    -0.010 C 
HETATM    7  C13 UNL     1       4.102  70.724 -37.765  1.00  0.00     0.018 C 
HETATM    8  C14 UNL     1       3.521  69.227 -35.882  1.00  0.00     0.018 C 
HETATM    9  C15 UNL     1       5.033  68.298 -37.816  1.00  0.00     0.088 C 
ENDROOT
BRANCH   3  10
HETATM   10  O1  UNL     1       5.493  66.716 -35.135  1.00  0.00    -0.350 OA
BRANCH  10  11
HETATM   11  C4  UNL     1       5.931  66.156 -33.888  1.00  0.00     0.292 C 
HETATM   12  O2  UNL     1       7.101  65.359 -34.141  1.00  0.00    -0.348 OA
HETATM   13  C5  UNL     1       6.876  63.950 -34.290  1.00  0.00     0.179 C 
HETATM   14  C7  UNL     1       5.501  63.658 -34.903  1.00  0.00     0.180 C 
HETATM   15  C8  UNL     1       4.447  64.053 -33.866  1.00  0.00     0.183 C 
HETATM   16  C9  UNL     1       4.753  65.410 -33.211  1.00  0.00     0.204 C 
BRANCH  13  17
HETATM   17  C6  UNL     1       8.028  63.394 -35.131  1.00  0.00     0.198 C 
BRANCH  17  18
HETATM   18  O3  UNL     1       7.710  63.472 -36.519  1.00  0.00    -0.398 OA
HETATM   19  H10 UNL     1       7.528  64.418 -36.685  1.00  0.00     0.209 HD
ENDBRANCH  17  18
ENDBRANCH  13  17
BRANCH  14  20
HETATM   20  O4  UNL     1       5.308  62.278 -35.236  1.00  0.00    -0.390 OA
HETATM   21  H12 UNL     1       5.851  62.109 -36.030  1.00  0.00     0.210 HD
ENDBRANCH  14  20
BRANCH  15  22
HETATM   22  O5  UNL     1       3.145  64.050 -34.471  1.00  0.00    -0.390 OA
HETATM   23  H14 UNL     1       3.075  63.184 -34.916  1.00  0.00     0.210 HD
ENDBRANCH  15  22
BRANCH  16  24
HETATM   24  O6  UNL     1       5.076  65.172 -31.823  1.00  0.00    -0.388 OA
HETATM   25  H16 UNL     1       4.228  64.997 -31.375  1.00  0.00     0.210 HD
ENDBRANCH  16  24
ENDBRANCH  10  11
ENDBRANCH   3  10
BRANCH   4  26
HETATM   26  O7  UNL     1       5.959  69.119 -33.912  1.00  0.00    -0.393 OA
HETATM   27  H18 UNL     1       6.020  70.052 -33.642  1.00  0.00     0.210 HD
ENDBRANCH   4  26
BRANCH   9  28
HETATM   28  O8  UNL     1       5.519  68.833 -39.080  1.00  0.00    -0.385 OA
HETATM   29  H27 UNL     1       5.494  68.108 -39.728  1.00  0.00     0.211 HD
ENDBRANCH   9  28
BRANCH   9  30
HETATM   30  C16 UNL     1       3.798  67.518 -38.230  1.00  0.00     0.010 C 
HETATM   31  C17 UNL     1       3.110  67.579 -39.382  1.00  0.00     0.003 C 
BRANCH  31  32
HETATM   32  C18 UNL     1       1.897  66.768 -39.747  1.00  0.00     0.136 C 
HETATM   33  C19 UNL     1       0.625  67.412 -39.211  1.00  0.00     0.043 C 
BRANCH  32  34
HETATM   34  O9  UNL     1       1.796  66.628 -41.158  1.00  0.00    -0.392 OA
HETATM   35  H34 UNL     1       0.984  66.127 -41.340  1.00  0.00     0.210 HD
ENDBRANCH  32  34
ENDBRANCH  31  32
ENDBRANCH   9  30
TORSDOF 12
ENDMDL
MODEL 9
REMARK minimizedAffinity -7.56639862
REMARK  12 active torsions:
REMARK  status: ('A' for Active; 'I' for Inactive)
REMARK    1  A    between atoms: C3_3  and  O1_4 
REMARK    2  A    between atoms: O1_4  and  C4_5 
REMARK    3  A    between atoms: C5_7  and  C6_8 
REMARK    4  A    between atoms: C6_8  and  O3_9 
REMARK    5  A    between atoms: C7_10  and  O4_11 
REMARK    6  A    between atoms: C8_12  and  O5_13 
REMARK    7  A    between atoms: C9_14  and  O6_15 
REMARK    8  A    between atoms: C10_16  and  O7_17 
REMARK    9  A    between atoms: C15_22  and  O8_23 
REMARK   10  A    between atoms: C15_22  and  C16_24 
REMARK   11  A    between atoms: C17_25  and  C18_26 
REMARK   12  A    between atoms: C18_26  and  O9_28 
ROOT
HETATM    1  C1  UNL     1      -5.471  52.338 -23.828  1.00  0.00     0.016 C 
HETATM    2  C2  UNL     1      -4.350  51.634 -23.050  1.00  0.00     0.052 C 
HETATM    3  C3  UNL     1      -2.966  52.222 -23.378  1.00  0.00     0.160 C 
HETATM    4  C10 UNL     1      -1.903  51.681 -22.374  1.00  0.00     0.148 C 
HETATM    5  C11 UNL     1      -2.294  50.375 -21.666  1.00  0.00     0.046 C 
HETATM    6  C12 UNL     1      -3.075  49.380 -22.558  1.00  0.00    -0.010 C 
HETATM    7  C13 UNL     1      -3.344  48.108 -21.708  1.00  0.00     0.018 C 
HETATM    8  C14 UNL     1      -2.165  48.924 -23.726  1.00  0.00     0.018 C 
HETATM    9  C15 UNL     1      -4.430  50.059 -23.040  1.00  0.00     0.088 C 
ENDROOT
BRANCH   3  10
HETATM   10  O1  UNL     1      -2.643  52.000 -24.755  1.00  0.00    -0.350 OA
BRANCH  10  11
HETATM   11  C4  UNL     1      -2.127  50.683 -25.002  1.00  0.00     0.292 C 
HETATM   12  O2  UNL     1      -0.692  50.763 -25.038  1.00  0.00    -0.348 OA
HETATM   13  C5  UNL     1      -0.105  50.855 -26.344  1.00  0.00     0.179 C 
HETATM   14  C7  UNL     1      -1.022  51.593 -27.326  1.00  0.00     0.180 C 
HETATM   15  C8  UNL     1      -2.240  50.700 -27.573  1.00  0.00     0.183 C 
HETATM   16  C9  UNL     1      -2.792  50.095 -26.272  1.00  0.00     0.204 C 
BRANCH  13  17
HETATM   17  C6  UNL     1       1.257  51.533 -26.181  1.00  0.00     0.198 C 
BRANCH  17  18
HETATM   18  O3  UNL     1       1.117  52.951 -26.264  1.00  0.00    -0.398 OA
HETATM   19  H10 UNL     1       0.479  53.183 -25.560  1.00  0.00     0.209 HD
ENDBRANCH  17  18
ENDBRANCH  13  17
BRANCH  14  20
HETATM   20  O4  UNL     1      -0.401  51.865 -28.589  1.00  0.00    -0.390 OA
HETATM   21  H12 UNL     1       0.239  52.586 -28.430  1.00  0.00     0.210 HD
ENDBRANCH  14  20
BRANCH  15  22
HETATM   22  O5  UNL     1      -3.251  51.439 -28.272  1.00  0.00    -0.390 OA
HETATM   23  H14 UNL     1      -2.790  51.839 -29.035  1.00  0.00     0.210 HD
ENDBRANCH  15  22
BRANCH  16  24
HETATM   24  O6  UNL     1      -2.563  48.668 -26.312  1.00  0.00    -0.388 OA
HETATM   25  H16 UNL     1      -3.231  48.305 -26.922  1.00  0.00     0.210 HD
ENDBRANCH  16  24
ENDBRANCH  10  11
ENDBRANCH   3  10
BRANCH   4  26
HETATM   26  O7  UNL     1      -0.614  51.544 -22.977  1.00  0.00    -0.393 OA
HETATM   27  H18 UNL     1      -0.002  51.211 -22.297  1.00  0.00     0.210 HD
ENDBRANCH   4  26
BRANCH   9  28
HETATM   28  O8  UNL     1      -5.415  49.824 -21.994  1.00  0.00    -0.385 OA
HETATM   29  H27 UNL     1      -6.293  49.975 -22.386  1.00  0.00     0.211 HD
ENDBRANCH   9  28
BRANCH   9  30
HETATM   30  C16 UNL     1      -5.011  49.316 -24.229  1.00  0.00     0.010 C 
HETATM   31  C17 UNL     1      -6.020  48.428 -24.255  1.00  0.00     0.003 C 
BRANCH  31  32
HETATM   32  C18 UNL     1      -6.568  47.730 -25.470  1.00  0.00     0.136 C 
HETATM   33  C19 UNL     1      -8.050  48.028 -25.651  1.00  0.00     0.043 C 
BRANCH  32  34
HETATM   34  O9  UNL     1      -5.860  48.129 -26.636  1.00  0.00    -0.392 OA
HETATM   35  H34 UNL     1      -6.272  47.678 -27.391  1.00  0.00     0.210 HD
ENDBRANCH  32  34
ENDBRANCH  31  32
ENDBRANCH   9  30
TORSDOF 12
ENDMDL
