MODEL 1
REMARK minimizedAffinity -7.7209096
REMARK  9 active torsions:
REMARK  status: ('A' for Active; 'I' for Inactive)
REMARK    1  A    between atoms: O1_2  and  C2_3 
REMARK    2  A    between atoms: C2_3  and  C3_4 
REMARK    3  A    between atoms: C3_4  and  N1_5 
REMARK       I    between atoms: N1_5  and  C4_6 
REMARK    4  A    between atoms: C4_6  and  C5_8 
REMARK    5  A    between atoms: C5_8  and  C6_9 
REMARK    6  A    between atoms: C6_9  and  C7_10 
REMARK    7  A    between atoms: C10_13  and  O3_15 
REMARK    8  A    between atoms: C18_22  and  N2_23 
REMARK    9  A    between atoms: N2_23  and  C19_24 
ROOT
HETATM    1  C7  UNL     1      -2.728  50.618 -25.144  1.00  0.00    -0.005 C 
HETATM    2  C8  UNL     1      -3.244  51.596 -26.249  1.00  0.00     0.015 C 
HETATM    3  C9  UNL     1      -2.239  52.624 -26.754  1.00  0.00     0.038 C 
HETATM    4  C10 UNL     1      -0.881  52.017 -27.095  1.00  0.00     0.054 C 
HETATM    5  C11 UNL     1       0.093  53.115 -27.539  1.00  0.00     0.045 C 
HETATM    6  C12 UNL     1      -0.282  51.173 -25.957  1.00  0.00     0.043 C 
HETATM    7  C13 UNL     1      -1.217  50.831 -24.780  1.00  0.00     0.007 C 
HETATM    8  C14 UNL     1      -1.174  51.816 -23.546  1.00  0.00    -0.041 C 
HETATM    9  C15 UNL     1      -0.553  51.086 -22.330  1.00  0.00     0.015 C 
HETATM   10  C16 UNL     1      -0.370  53.118 -23.701  1.00  0.00     0.015 C 
HETATM   11  C17 UNL     1      -2.655  52.160 -23.279  1.00  0.00     0.045 C 
HETATM   12  C18 UNL     1      -3.476  50.963 -23.786  1.00  0.00     0.230 C 
ENDROOT
BRANCH   1  13
HETATM   13  C6  UNL     1      -3.040  49.144 -25.573  1.00  0.00     0.021 C 
BRANCH  13  14
HETATM   14  C5  UNL     1      -4.458  48.817 -26.045  1.00  0.00     0.103 C 
BRANCH  14  15
HETATM   15  C4  UNL     1      -4.470  48.294 -27.472  1.00  0.00     0.217 C 
HETATM   16  N1  UNL     1      -5.746  48.064 -27.944  1.00  0.00    -0.359 N 
HETATM   17  H8  UNL     1      -6.510  48.083 -27.281  1.00  0.00     0.162 HD
HETATM   18  O2  UNL     1      -3.461  48.108 -28.141  1.00  0.00    -0.274 OA
BRANCH  16  19
HETATM   19  C3  UNL     1      -5.981  47.475 -29.248  1.00  0.00     0.148 C 
BRANCH  19  20
HETATM   20  C2  UNL     1      -5.701  48.432 -30.412  1.00  0.00     0.186 C 
BRANCH  20  21
HETATM   21  O1  UNL     1      -4.676  47.922 -31.270  1.00  0.00    -0.394 OA
HETATM   22  C1  UNL     1      -5.017  48.004 -32.647  1.00  0.00     0.201 C 
ENDBRANCH  20  21
ENDBRANCH  19  20
ENDBRANCH  16  19
ENDBRANCH  14  15
ENDBRANCH  13  14
ENDBRANCH   1  13
BRANCH  12  23
HETATM   23  N2  UNL     1      -3.490  49.871 -22.800  1.00  0.00     0.093 N 
HETATM   24  H33 UNL     1      -3.094  49.027 -23.216  1.00  0.00     0.316 HD
BRANCH  23  25
HETATM   25  C19 UNL     1      -4.822  49.521 -22.278  1.00  0.00     0.225 C 
HETATM   26  C20 UNL     1      -4.963  49.799 -20.771  1.00  0.00     0.062 C 
HETATM   27  C21 UNL     1      -6.410  50.086 -20.375  1.00  0.00     0.169 C 
HETATM   28  O4  UNL     1      -7.308  49.406 -21.244  1.00  0.00    -0.391 OA
HETATM   29  C22 UNL     1      -7.282  49.933 -22.573  1.00  0.00     0.169 C 
HETATM   30  C23 UNL     1      -5.879  50.317 -23.044  1.00  0.00     0.062 C 
ENDBRANCH  23  25
ENDBRANCH  12  23
BRANCH   4  31
HETATM   31  O3  UNL     1      -1.075  51.156 -28.230  1.00  0.00    -0.390 OA
HETATM   32  H20 UNL     1      -0.195  50.899 -28.557  1.00  0.00     0.210 HD
ENDBRANCH   4  31
TORSDOF 9
ENDMDL
MODEL 2
REMARK minimizedAffinity -7.71746874
REMARK  9 active torsions:
REMARK  status: ('A' for Active; 'I' for Inactive)
REMARK    1  A    between atoms: O1_2  and  C2_3 
REMARK    2  A    between atoms: C2_3  and  C3_4 
REMARK    3  A    between atoms: C3_4  and  N1_5 
REMARK       I    between atoms: N1_5  and  C4_6 
REMARK    4  A    between atoms: C4_6  and  C5_8 
REMARK    5  A    between atoms: C5_8  and  C6_9 
REMARK    6  A    between atoms: C6_9  and  C7_10 
REMARK    7  A    between atoms: C10_13  and  O3_15 
REMARK    8  A    between atoms: C18_22  and  N2_23 
REMARK    9  A    between atoms: N2_23  and  C19_24 
ROOT
HETATM    1  C7  UNL     1      -2.271  50.899 -24.826  1.00  0.00    -0.005 C 
HETATM    2  C8  UNL     1      -3.112  51.680 -25.885  1.00  0.00     0.015 C 
HETATM    3  C9  UNL     1      -2.329  52.597 -26.817  1.00  0.00     0.038 C 
HETATM    4  C10 UNL     1      -1.100  51.925 -27.424  1.00  0.00     0.054 C 
HETATM    5  C11 UNL     1      -0.332  52.921 -28.301  1.00  0.00     0.045 C 
HETATM    6  C12 UNL     1      -0.174  51.280 -26.379  1.00  0.00     0.043 C 
HETATM    7  C13 UNL     1      -0.727  51.152 -24.946  1.00  0.00     0.007 C 
HETATM    8  C14 UNL     1      -0.376  52.332 -23.955  1.00  0.00    -0.041 C 
HETATM    9  C15 UNL     1       0.589  51.811 -22.861  1.00  0.00     0.015 C 
HETATM   10  C16 UNL     1       0.303  53.579 -24.545  1.00  0.00     0.015 C 
HETATM   11  C17 UNL     1      -1.734  52.733 -23.340  1.00  0.00     0.045 C 
HETATM   12  C18 UNL     1      -2.618  51.477 -23.389  1.00  0.00     0.230 C 
ENDROOT
BRANCH   1  13
HETATM   13  C6  UNL     1      -2.635  49.377 -24.899  1.00  0.00     0.021 C 
BRANCH  13  14
HETATM   14  C5  UNL     1      -2.738  48.728 -26.281  1.00  0.00     0.103 C 
BRANCH  14  15
HETATM   15  C4  UNL     1      -4.175  48.376 -26.632  1.00  0.00     0.217 C 
HETATM   16  N1  UNL     1      -4.368  48.222 -27.989  1.00  0.00    -0.359 N 
HETATM   17  H8  UNL     1      -3.629  48.521 -28.613  1.00  0.00     0.162 HD
HETATM   18  O2  UNL     1      -5.065  48.229 -25.804  1.00  0.00    -0.274 OA
BRANCH  16  19
HETATM   19  C3  UNL     1      -5.684  47.978 -28.548  1.00  0.00     0.148 C 
BRANCH  19  20
HETATM   20  C2  UNL     1      -5.721  48.046 -30.079  1.00  0.00     0.186 C 
BRANCH  20  21
HETATM   21  O1  UNL     1      -4.596  47.376 -30.656  1.00  0.00    -0.394 OA
HETATM   22  C1  UNL     1      -4.930  46.637 -31.822  1.00  0.00     0.201 C 
ENDBRANCH  20  21
ENDBRANCH  19  20
ENDBRANCH  16  19
ENDBRANCH  14  15
ENDBRANCH  13  14
ENDBRANCH   1  13
BRANCH  12  23
HETATM   23  N2  UNL     1      -2.314  50.567 -22.272  1.00  0.00     0.093 N 
HETATM   24  H33 UNL     1      -2.858  49.710 -22.369  1.00  0.00     0.316 HD
BRANCH  23  25
HETATM   25  C19 UNL     1      -2.588  51.113 -20.932  1.00  0.00     0.225 C 
HETATM   26  C20 UNL     1      -3.735  50.383 -20.213  1.00  0.00     0.062 C 
HETATM   27  C21 UNL     1      -3.594  50.449 -18.694  1.00  0.00     0.169 C 
HETATM   28  O4  UNL     1      -2.915  51.637 -18.308  1.00  0.00    -0.391 OA
HETATM   29  C22 UNL     1      -1.542  51.632 -18.708  1.00  0.00     0.169 C 
HETATM   30  C23 UNL     1      -1.316  51.015 -20.088  1.00  0.00     0.062 C 
ENDBRANCH  23  25
ENDBRANCH  12  23
BRANCH   4  31
HETATM   31  O3  UNL     1      -1.573  50.887 -28.299  1.00  0.00    -0.390 OA
HETATM   32  H20 UNL     1      -0.812  50.568 -28.814  1.00  0.00     0.210 HD
ENDBRANCH   4  31
TORSDOF 9
ENDMDL
MODEL 3
REMARK minimizedAffinity -7.71489191
REMARK  9 active torsions:
REMARK  status: ('A' for Active; 'I' for Inactive)
REMARK    1  A    between atoms: O1_2  and  C2_3 
REMARK    2  A    between atoms: C2_3  and  C3_4 
REMARK    3  A    between atoms: C3_4  and  N1_5 
REMARK       I    between atoms: N1_5  and  C4_6 
REMARK    4  A    between atoms: C4_6  and  C5_8 
REMARK    5  A    between atoms: C5_8  and  C6_9 
REMARK    6  A    between atoms: C6_9  and  C7_10 
REMARK    7  A    between atoms: C10_13  and  O3_15 
REMARK    8  A    between atoms: C18_22  and  N2_23 
REMARK    9  A    between atoms: N2_23  and  C19_24 
ROOT
HETATM    1  C7  UNL     1      -2.419  51.191 -22.110  1.00  0.00    -0.005 C 
HETATM    2  C8  UNL     1      -3.177  49.840 -22.313  1.00  0.00     0.015 C 
HETATM    3  C9  UNL     1      -3.536  49.078 -21.043  1.00  0.00     0.038 C 
HETATM    4  C10 UNL     1      -4.183  49.959 -19.978  1.00  0.00     0.054 C 
HETATM    5  C11 UNL     1      -4.462  49.139 -18.713  1.00  0.00     0.045 C 
HETATM    6  C12 UNL     1      -3.369  51.223 -19.651  1.00  0.00     0.043 C 
HETATM    7  C13 UNL     1      -2.205  51.565 -20.601  1.00  0.00     0.007 C 
HETATM    8  C14 UNL     1      -0.783  51.017 -20.187  1.00  0.00    -0.041 C 
HETATM    9  C15 UNL     1       0.131  52.205 -19.798  1.00  0.00     0.015 C 
HETATM   10  C16 UNL     1      -0.713  50.038 -19.003  1.00  0.00     0.015 C 
HETATM   11  C17 UNL     1      -0.257  50.317 -21.459  1.00  0.00     0.045 C 
HETATM   12  C18 UNL     1      -0.935  51.015 -22.649  1.00  0.00     0.230 C 
ENDROOT
BRANCH   1  13
HETATM   13  C6  UNL     1      -3.153  52.321 -22.909  1.00  0.00     0.021 C 
BRANCH  13  14
HETATM   14  C5  UNL     1      -4.280  51.912 -23.860  1.00  0.00     0.103 C 
BRANCH  14  15
HETATM   15  C4  UNL     1      -3.787  51.779 -25.292  1.00  0.00     0.217 C 
HETATM   16  N1  UNL     1      -3.903  50.492 -25.777  1.00  0.00    -0.359 N 
HETATM   17  H8  UNL     1      -4.118  49.753 -25.120  1.00  0.00     0.162 HD
HETATM   18  O2  UNL     1      -3.348  52.711 -25.954  1.00  0.00    -0.274 OA
BRANCH  16  19
HETATM   19  C3  UNL     1      -3.405  50.125 -27.089  1.00  0.00     0.148 C 
BRANCH  19  20
HETATM   20  C2  UNL     1      -3.770  48.696 -27.504  1.00  0.00     0.186 C 
BRANCH  20  21
HETATM   21  O1  UNL     1      -4.351  48.666 -28.811  1.00  0.00    -0.394 OA
HETATM   22  C1  UNL     1      -5.555  47.913 -28.865  1.00  0.00     0.201 C 
ENDBRANCH  20  21
ENDBRANCH  19  20
ENDBRANCH  16  19
ENDBRANCH  14  15
ENDBRANCH  13  14
ENDBRANCH   1  13
BRANCH  12  23
HETATM   23  N2  UNL     1      -0.253  52.274 -22.987  1.00  0.00     0.093 N 
HETATM   24  H33 UNL     1      -0.896  53.057 -22.867  1.00  0.00     0.316 HD
BRANCH  23  25
HETATM   25  C19 UNL     1       0.277  52.346 -24.360  1.00  0.00     0.225 C 
HETATM   26  C20 UNL     1      -0.104  51.122 -25.211  1.00  0.00     0.062 C 
HETATM   27  C21 UNL     1      -0.168  51.456 -26.699  1.00  0.00     0.169 C 
HETATM   28  O4  UNL     1       0.731  52.513 -27.011  1.00  0.00    -0.391 OA
HETATM   29  C22 UNL     1       0.327  53.758 -26.436  1.00  0.00     0.169 C 
HETATM   30  C23 UNL     1      -0.253  53.615 -25.029  1.00  0.00     0.062 C 
ENDBRANCH  23  25
ENDBRANCH  12  23
BRANCH   4  31
HETATM   31  O3  UNL     1      -5.460  50.374 -20.490  1.00  0.00    -0.390 OA
HETATM   32  H20 UNL     1      -5.948  50.792 -19.758  1.00  0.00     0.210 HD
ENDBRANCH   4  31
TORSDOF 9
ENDMDL
MODEL 4
REMARK minimizedAffinity -7.63763046
REMARK  9 active torsions:
REMARK  status: ('A' for Active; 'I' for Inactive)
REMARK    1  A    between atoms: O1_2  and  C2_3 
REMARK    2  A    between atoms: C2_3  and  C3_4 
REMARK    3  A    between atoms: C3_4  and  N1_5 
REMARK       I    between atoms: N1_5  and  C4_6 
REMARK    4  A    between atoms: C4_6  and  C5_8 
REMARK    5  A    between atoms: C5_8  and  C6_9 
REMARK    6  A    between atoms: C6_9  and  C7_10 
REMARK    7  A    between atoms: C10_13  and  O3_15 
REMARK    8  A    between atoms: C18_22  and  N2_23 
REMARK    9  A    between atoms: N2_23  and  C19_24 
ROOT
HETATM    1  C7  UNL     1      -2.824  50.446 -25.076  1.00  0.00    -0.005 C 
HETATM    2  C8  UNL     1      -3.311  51.455 -26.165  1.00  0.00     0.015 C 
HETATM    3  C9  UNL     1      -2.305  52.520 -26.587  1.00  0.00     0.038 C 
HETATM    4  C10 UNL     1      -0.923  51.950 -26.892  1.00  0.00     0.054 C 
HETATM    5  C11 UNL     1       0.048  53.082 -27.252  1.00  0.00     0.045 C 
HETATM    6  C12 UNL     1      -0.357  51.074 -25.761  1.00  0.00     0.043 C 
HETATM    7  C13 UNL     1      -1.334  50.671 -24.640  1.00  0.00     0.007 C 
HETATM    8  C14 UNL     1      -1.362  51.608 -23.369  1.00  0.00    -0.041 C 
HETATM    9  C15 UNL     1      -0.780  50.844 -22.155  1.00  0.00     0.015 C 
HETATM   10  C16 UNL     1      -0.577  52.929 -23.440  1.00  0.00     0.015 C 
HETATM   11  C17 UNL     1      -2.860  51.916 -23.153  1.00  0.00     0.045 C 
HETATM   12  C18 UNL     1      -3.635  50.725 -23.740  1.00  0.00     0.230 C 
ENDROOT
BRANCH   1  13
HETATM   13  C6  UNL     1      -3.088  48.984 -25.573  1.00  0.00     0.021 C 
BRANCH  13  14
HETATM   14  C5  UNL     1      -4.497  48.633 -26.057  1.00  0.00     0.103 C 
BRANCH  14  15
HETATM   15  C4  UNL     1      -4.524  48.346 -27.550  1.00  0.00     0.217 C 
HETATM   16  N1  UNL     1      -5.799  48.381 -28.075  1.00  0.00    -0.359 N 
HETATM   17  H8  UNL     1      -6.580  48.408 -27.431  1.00  0.00     0.162 HD
HETATM   18  O2  UNL     1      -3.525  48.122 -28.221  1.00  0.00    -0.274 OA
BRANCH  16  19
HETATM   19  C3  UNL     1      -6.062  48.043 -29.461  1.00  0.00     0.148 C 
BRANCH  19  20
HETATM   20  C2  UNL     1      -7.527  47.688 -29.738  1.00  0.00     0.186 C 
BRANCH  20  21
HETATM   21  O1  UNL     1      -8.371  48.838 -29.622  1.00  0.00    -0.394 OA
HETATM   22  C1  UNL     1      -8.650  49.448 -30.875  1.00  0.00     0.201 C 
ENDBRANCH  20  21
ENDBRANCH  19  20
ENDBRANCH  16  19
ENDBRANCH  14  15
ENDBRANCH  13  14
ENDBRANCH   1  13
BRANCH  12  23
HETATM   23  N2  UNL     1      -3.669  49.596 -22.797  1.00  0.00     0.093 N 
HETATM   24  H33 UNL     1      -3.327  48.752 -23.258  1.00  0.00     0.316 HD
BRANCH  23  25
HETATM   25  C19 UNL     1      -5.000  49.287 -22.244  1.00  0.00     0.225 C 
HETATM   26  C20 UNL     1      -5.118  49.630 -20.750  1.00  0.00     0.062 C 
HETATM   27  C21 UNL     1      -6.556  49.954 -20.348  1.00  0.00     0.169 C 
HETATM   28  O4  UNL     1      -7.473  49.251 -21.177  1.00  0.00    -0.391 OA
HETATM   29  C22 UNL     1      -7.457  49.721 -22.527  1.00  0.00     0.169 C 
HETATM   30  C23 UNL     1      -6.055  50.066 -23.030  1.00  0.00     0.062 C 
ENDBRANCH  23  25
ENDBRANCH  12  23
BRANCH   4  31
HETATM   31  O3  UNL     1      -1.052  51.130 -28.066  1.00  0.00    -0.390 OA
HETATM   32  H20 UNL     1      -0.154  50.901 -28.364  1.00  0.00     0.210 HD
ENDBRANCH   4  31
TORSDOF 9
ENDMDL
MODEL 5
REMARK minimizedAffinity -7.6231308
REMARK  9 active torsions:
REMARK  status: ('A' for Active; 'I' for Inactive)
REMARK    1  A    between atoms: O1_2  and  C2_3 
REMARK    2  A    between atoms: C2_3  and  C3_4 
REMARK    3  A    between atoms: C3_4  and  N1_5 
REMARK       I    between atoms: N1_5  and  C4_6 
REMARK    4  A    between atoms: C4_6  and  C5_8 
REMARK    5  A    between atoms: C5_8  and  C6_9 
REMARK    6  A    between atoms: C6_9  and  C7_10 
REMARK    7  A    between atoms: C10_13  and  O3_15 
REMARK    8  A    between atoms: C18_22  and  N2_23 
REMARK    9  A    between atoms: N2_23  and  C19_24 
ROOT
HETATM    1  C7  UNL     1      -2.482  50.262 -22.869  1.00  0.00    -0.005 C 
HETATM    2  C8  UNL     1      -3.556  50.971 -21.983  1.00  0.00     0.015 C 
HETATM    3  C9  UNL     1      -4.904  50.268 -21.878  1.00  0.00     0.038 C 
HETATM    4  C10 UNL     1      -4.781  48.779 -21.571  1.00  0.00     0.054 C 
HETATM    5  C11 UNL     1      -6.170  48.130 -21.537  1.00  0.00     0.045 C 
HETATM    6  C12 UNL     1      -3.844  48.030 -22.533  1.00  0.00     0.043 C 
HETATM    7  C13 UNL     1      -2.968  48.893 -23.461  1.00  0.00     0.007 C 
HETATM    8  C14 UNL     1      -3.558  49.194 -24.895  1.00  0.00    -0.041 C 
HETATM    9  C15 UNL     1      -2.710  48.459 -25.963  1.00  0.00     0.015 C 
HETATM   10  C16 UNL     1      -5.014  48.779 -25.168  1.00  0.00     0.015 C 
HETATM   11  C17 UNL     1      -3.426  50.724 -25.051  1.00  0.00     0.045 C 
HETATM   12  C18 UNL     1      -2.242  51.148 -24.165  1.00  0.00     0.230 C 
ENDROOT
BRANCH   1  13
HETATM   13  C6  UNL     1      -1.151  50.124 -22.055  1.00  0.00     0.021 C 
BRANCH  13  14
HETATM   14  C5  UNL     1      -1.228  49.534 -20.645  1.00  0.00     0.103 C 
BRANCH  14  15
HETATM   15  C4  UNL     1      -0.628  50.471 -19.609  1.00  0.00     0.217 C 
HETATM   16  N1  UNL     1      -0.663  51.793 -20.004  1.00  0.00    -0.359 N 
HETATM   17  H8  UNL     1      -0.900  51.997 -20.966  1.00  0.00     0.162 HD
HETATM   18  O2  UNL     1      -0.174  50.101 -18.534  1.00  0.00    -0.274 OA
BRANCH  16  19
HETATM   19  C3  UNL     1      -0.058  52.842 -19.206  1.00  0.00     0.148 C 
BRANCH  19  20
HETATM   20  C2  UNL     1       1.319  53.282 -19.715  1.00  0.00     0.186 C 
BRANCH  20  21
HETATM   21  O1  UNL     1       1.223  54.463 -20.516  1.00  0.00    -0.394 OA
HETATM   22  C1  UNL     1       1.457  54.217 -21.896  1.00  0.00     0.201 C 
ENDBRANCH  20  21
ENDBRANCH  19  20
ENDBRANCH  16  19
ENDBRANCH  14  15
ENDBRANCH  13  14
ENDBRANCH   1  13
BRANCH  12  23
HETATM   23  N2  UNL     1      -0.958  50.908 -24.842  1.00  0.00     0.093 N 
HETATM   24  H33 UNL     1      -0.190  51.197 -24.236  1.00  0.00     0.316 HD
BRANCH  23  25
HETATM   25  C19 UNL     1      -0.791  51.606 -26.129  1.00  0.00     0.225 C 
HETATM   26  C20 UNL     1      -0.710  53.134 -25.971  1.00  0.00     0.062 C 
HETATM   27  C21 UNL     1       0.093  53.784 -27.095  1.00  0.00     0.169 C 
HETATM   28  O4  UNL     1      -0.007  53.016 -28.287  1.00  0.00    -0.391 OA
HETATM   29  C22 UNL     1       0.654  51.753 -28.177  1.00  0.00     0.169 C 
HETATM   30  C23 UNL     1       0.480  51.097 -26.808  1.00  0.00     0.062 C 
ENDBRANCH  23  25
ENDBRANCH  12  23
BRANCH   4  31
HETATM   31  O3  UNL     1      -4.241  48.663 -20.244  1.00  0.00    -0.390 OA
HETATM   32  H20 UNL     1      -4.316  47.730 -19.977  1.00  0.00     0.210 HD
ENDBRANCH   4  31
TORSDOF 9
ENDMDL
MODEL 6
REMARK minimizedAffinity -7.59585524
REMARK  9 active torsions:
REMARK  status: ('A' for Active; 'I' for Inactive)
REMARK    1  A    between atoms: O1_2  and  C2_3 
REMARK    2  A    between atoms: C2_3  and  C3_4 
REMARK    3  A    between atoms: C3_4  and  N1_5 
REMARK       I    between atoms: N1_5  and  C4_6 
REMARK    4  A    between atoms: C4_6  and  C5_8 
REMARK    5  A    between atoms: C5_8  and  C6_9 
REMARK    6  A    between atoms: C6_9  and  C7_10 
REMARK    7  A    between atoms: C10_13  and  O3_15 
REMARK    8  A    between atoms: C18_22  and  N2_23 
REMARK    9  A    between atoms: N2_23  and  C19_24 
ROOT
HETATM    1  C7  UNL     1      -3.235  50.967 -24.758  1.00  0.00    -0.005 C 
HETATM    2  C8  UNL     1      -3.530  52.000 -25.892  1.00  0.00     0.015 C 
HETATM    3  C9  UNL     1      -2.314  52.544 -26.634  1.00  0.00     0.038 C 
HETATM    4  C10 UNL     1      -1.343  51.452 -27.073  1.00  0.00     0.054 C 
HETATM    5  C11 UNL     1      -0.121  52.075 -27.759  1.00  0.00     0.045 C 
HETATM    6  C12 UNL     1      -0.918  50.512 -25.932  1.00  0.00     0.043 C 
HETATM    7  C13 UNL     1      -1.713  50.615 -24.615  1.00  0.00     0.007 C 
HETATM    8  C14 UNL     1      -1.118  51.581 -23.516  1.00  0.00    -0.041 C 
HETATM    9  C15 UNL     1      -0.619  50.743 -22.313  1.00  0.00     0.015 C 
HETATM   10  C16 UNL     1       0.069  52.474 -23.918  1.00  0.00     0.015 C 
HETATM   11  C17 UNL     1      -2.309  52.473 -23.104  1.00  0.00     0.045 C 
HETATM   12  C18 UNL     1      -3.578  51.645 -23.364  1.00  0.00     0.230 C 
ENDROOT
BRANCH   1  13
HETATM   13  C6  UNL     1      -4.125  49.696 -24.975  1.00  0.00     0.021 C 
BRANCH  13  14
HETATM   14  C5  UNL     1      -3.492  48.484 -25.661  1.00  0.00     0.103 C 
BRANCH  14  15
HETATM   15  C4  UNL     1      -4.116  48.219 -27.022  1.00  0.00     0.217 C 
HETATM   16  N1  UNL     1      -5.486  48.064 -26.959  1.00  0.00    -0.359 N 
HETATM   17  H8  UNL     1      -5.912  47.960 -26.047  1.00  0.00     0.162 HD
HETATM   18  O2  UNL     1      -3.479  48.162 -28.067  1.00  0.00    -0.274 OA
BRANCH  16  19
HETATM   19  C3  UNL     1      -6.267  47.711 -28.129  1.00  0.00     0.148 C 
BRANCH  19  20
HETATM   20  C2  UNL     1      -5.790  48.398 -29.413  1.00  0.00     0.186 C 
BRANCH  20  21
HETATM   21  O1  UNL     1      -5.610  47.453 -30.472  1.00  0.00    -0.394 OA
HETATM   22  C1  UNL     1      -5.367  48.070 -31.729  1.00  0.00     0.201 C 
ENDBRANCH  20  21
ENDBRANCH  19  20
ENDBRANCH  16  19
ENDBRANCH  14  15
ENDBRANCH  13  14
ENDBRANCH   1  13
BRANCH  12  23
HETATM   23  N2  UNL     1      -3.831  50.697 -22.267  1.00  0.00     0.093 N 
HETATM   24  H33 UNL     1      -4.055  51.210 -21.414  1.00  0.00     0.316 HD
BRANCH  23  25
HETATM   25  C19 UNL     1      -2.710  49.793 -21.956  1.00  0.00     0.225 C 
HETATM   26  C20 UNL     1      -2.262  49.884 -20.487  1.00  0.00     0.062 C 
HETATM   27  C21 UNL     1      -1.635  48.580 -19.998  1.00  0.00     0.169 C 
HETATM   28  O4  UNL     1      -1.018  47.889 -21.077  1.00  0.00    -0.391 OA
HETATM   29  C22 UNL     1      -1.972  47.393 -22.020  1.00  0.00     0.169 C 
HETATM   30  C23 UNL     1      -3.132  48.357 -22.271  1.00  0.00     0.062 C 
ENDBRANCH  23  25
ENDBRANCH  12  23
BRANCH   4  31
HETATM   31  O3  UNL     1      -2.016  50.663 -28.070  1.00  0.00    -0.390 OA
HETATM   32  H20 UNL     1      -1.354  50.075 -28.475  1.00  0.00     0.210 HD
ENDBRANCH   4  31
TORSDOF 9
ENDMDL
MODEL 7
REMARK minimizedAffinity -7.53736305
REMARK  9 active torsions:
REMARK  status: ('A' for Active; 'I' for Inactive)
REMARK    1  A    between atoms: O1_2  and  C2_3 
REMARK    2  A    between atoms: C2_3  and  C3_4 
REMARK    3  A    between atoms: C3_4  and  N1_5 
REMARK       I    between atoms: N1_5  and  C4_6 
REMARK    4  A    between atoms: C4_6  and  C5_8 
REMARK    5  A    between atoms: C5_8  and  C6_9 
REMARK    6  A    between atoms: C6_9  and  C7_10 
REMARK    7  A    between atoms: C10_13  and  O3_15 
REMARK    8  A    between atoms: C18_22  and  N2_23 
REMARK    9  A    between atoms: N2_23  and  C19_24 
ROOT
HETATM    1  C7  UNL     1      -2.353  51.066 -23.348  1.00  0.00    -0.005 C 
HETATM    2  C8  UNL     1      -3.107  52.237 -22.639  1.00  0.00     0.015 C 
HETATM    3  C9  UNL     1      -4.441  51.879 -21.993  1.00  0.00     0.038 C 
HETATM    4  C10 UNL     1      -4.371  50.621 -21.133  1.00  0.00     0.054 C 
HETATM    5  C11 UNL     1      -5.757  50.291 -20.565  1.00  0.00     0.045 C 
HETATM    6  C12 UNL     1      -3.771  49.409 -21.867  1.00  0.00     0.043 C 
HETATM    7  C13 UNL     1      -3.086  49.685 -23.219  1.00  0.00     0.007 C 
HETATM    8  C14 UNL     1      -3.989  49.520 -24.505  1.00  0.00    -0.041 C 
HETATM    9  C15 UNL     1      -3.501  48.298 -25.320  1.00  0.00     0.015 C 
HETATM   10  C16 UNL     1      -5.496  49.300 -24.293  1.00  0.00     0.015 C 
HETATM   11  C17 UNL     1      -3.771  50.827 -25.296  1.00  0.00     0.045 C 
HETATM   12  C18 UNL     1      -2.372  51.337 -24.913  1.00  0.00     0.230 C 
ENDROOT
BRANCH   1  13
HETATM   13  C6  UNL     1      -0.877  51.013 -22.827  1.00  0.00     0.021 C 
BRANCH  13  14
HETATM   14  C5  UNL     1      -0.046  52.296 -22.889  1.00  0.00     0.103 C 
BRANCH  14  15
HETATM   15  C4  UNL     1       0.373  52.763 -21.505  1.00  0.00     0.217 C 
HETATM   16  N1  UNL     1      -0.172  51.996 -20.496  1.00  0.00    -0.359 N 
HETATM   17  H8  UNL     1      -0.908  51.344 -20.738  1.00  0.00     0.162 HD
HETATM   18  O2  UNL     1       1.125  53.709 -21.300  1.00  0.00    -0.274 OA
BRANCH  16  19
HETATM   19  C3  UNL     1       0.023  52.326 -19.098  1.00  0.00     0.148 C 
BRANCH  19  20
HETATM   20  C2  UNL     1      -0.559  51.283 -18.136  1.00  0.00     0.186 C 
BRANCH  20  21
HETATM   21  O1  UNL     1       0.474  50.625 -17.397  1.00  0.00    -0.394 OA
HETATM   22  C1  UNL     1       1.192  51.507 -16.544  1.00  0.00     0.201 C 
ENDBRANCH  20  21
ENDBRANCH  19  20
ENDBRANCH  16  19
ENDBRANCH  14  15
ENDBRANCH  13  14
ENDBRANCH   1  13
BRANCH  12  23
HETATM   23  N2  UNL     1      -1.323  50.634 -25.669  1.00  0.00     0.093 N 
HETATM   24  H33 UNL     1      -0.527  50.447 -25.059  1.00  0.00     0.316 HD
BRANCH  23  25
HETATM   25  C19 UNL     1      -0.815  51.356 -26.848  1.00  0.00     0.225 C 
HETATM   26  C20 UNL     1      -1.212  52.842 -26.854  1.00  0.00     0.062 C 
HETATM   27  C21 UNL     1      -0.209  53.701 -27.620  1.00  0.00     0.169 C 
HETATM   28  O4  UNL     1       0.413  52.941 -28.649  1.00  0.00    -0.391 OA
HETATM   29  C22 UNL     1       1.270  51.921 -28.129  1.00  0.00     0.169 C 
HETATM   30  C23 UNL     1       0.709  51.238 -26.882  1.00  0.00     0.062 C 
ENDBRANCH  23  25
ENDBRANCH  12  23
BRANCH   4  31
HETATM   31  O3  UNL     1      -3.527  50.922 -20.009  1.00  0.00    -0.390 OA
HETATM   32  H20 UNL     1      -3.611  50.189 -19.374  1.00  0.00     0.210 HD
ENDBRANCH   4  31
TORSDOF 9
ENDMDL
MODEL 8
REMARK minimizedAffinity -7.5284586
REMARK  9 active torsions:
REMARK  status: ('A' for Active; 'I' for Inactive)
REMARK    1  A    between atoms: O1_2  and  C2_3 
REMARK    2  A    between atoms: C2_3  and  C3_4 
REMARK    3  A    between atoms: C3_4  and  N1_5 
REMARK       I    between atoms: N1_5  and  C4_6 
REMARK    4  A    between atoms: C4_6  and  C5_8 
REMARK    5  A    between atoms: C5_8  and  C6_9 
REMARK    6  A    between atoms: C6_9  and  C7_10 
REMARK    7  A    between atoms: C10_13  and  O3_15 
REMARK    8  A    between atoms: C18_22  and  N2_23 
REMARK    9  A    between atoms: N2_23  and  C19_24 
ROOT
HETATM    1  C7  UNL     1      -2.941  49.084 -23.397  1.00  0.00    -0.005 C 
HETATM    2  C8  UNL     1      -2.446  48.008 -22.378  1.00  0.00     0.015 C 
HETATM    3  C9  UNL     1      -3.235  47.904 -21.078  1.00  0.00     0.038 C 
HETATM    4  C10 UNL     1      -4.745  47.854 -21.297  1.00  0.00     0.054 C 
HETATM    5  C11 UNL     1      -5.473  47.809 -19.948  1.00  0.00     0.045 C 
HETATM    6  C12 UNL     1      -5.276  49.000 -22.175  1.00  0.00     0.043 C 
HETATM    7  C13 UNL     1      -4.227  49.847 -22.922  1.00  0.00     0.007 C 
HETATM    8  C14 UNL     1      -3.740  51.158 -22.188  1.00  0.00    -0.041 C 
HETATM    9  C15 UNL     1      -4.245  52.398 -22.967  1.00  0.00     0.015 C 
HETATM   10  C16 UNL     1      -4.192  51.372 -20.734  1.00  0.00     0.015 C 
HETATM   11  C17 UNL     1      -2.199  51.074 -22.235  1.00  0.00     0.045 C 
HETATM   12  C18 UNL     1      -1.850  50.235 -23.475  1.00  0.00     0.230 C 
ENDROOT
BRANCH   1  13
HETATM   13  C6  UNL     1      -3.125  48.417 -24.802  1.00  0.00     0.021 C 
BRANCH  13  14
HETATM   14  C5  UNL     1      -4.464  48.607 -25.518  1.00  0.00     0.103 C 
BRANCH  14  15
HETATM   15  C4  UNL     1      -4.331  48.417 -27.021  1.00  0.00     0.217 C 
HETATM   16  N1  UNL     1      -5.551  48.286 -27.650  1.00  0.00    -0.359 N 
HETATM   17  H8  UNL     1      -6.373  48.149 -27.075  1.00  0.00     0.162 HD
HETATM   18  O2  UNL     1      -3.260  48.396 -27.615  1.00  0.00    -0.274 OA
BRANCH  16  19
HETATM   19  C3  UNL     1      -5.650  48.003 -29.069  1.00  0.00     0.148 C 
BRANCH  19  20
HETATM   20  C2  UNL     1      -7.088  48.016 -29.598  1.00  0.00     0.186 C 
BRANCH  20  21
HETATM   21  O1  UNL     1      -7.159  48.611 -30.897  1.00  0.00    -0.394 OA
HETATM   22  C1  UNL     1      -8.475  49.015 -31.249  1.00  0.00     0.201 C 
ENDBRANCH  20  21
ENDBRANCH  19  20
ENDBRANCH  16  19
ENDBRANCH  14  15
ENDBRANCH  13  14
ENDBRANCH   1  13
BRANCH  12  23
HETATM   23  N2  UNL     1      -1.903  51.047 -24.701  1.00  0.00     0.093 N 
HETATM   24  H33 UNL     1      -2.704  50.765 -25.265  1.00  0.00     0.316 HD
BRANCH  23  25
HETATM   25  C19 UNL     1      -0.708  50.959 -25.558  1.00  0.00     0.225 C 
HETATM   26  C20 UNL     1      -1.030  51.141 -27.051  1.00  0.00     0.062 C 
HETATM   27  C21 UNL     1       0.155  51.707 -27.829  1.00  0.00     0.169 C 
HETATM   28  O4  UNL     1       1.380  51.315 -27.224  1.00  0.00    -0.391 OA
HETATM   29  C22 UNL     1       1.577  51.928 -25.947  1.00  0.00     0.169 C 
HETATM   30  C23 UNL     1       0.294  52.029 -25.121  1.00  0.00     0.062 C 
ENDBRANCH  23  25
ENDBRANCH  12  23
BRANCH   4  31
HETATM   31  O3  UNL     1      -5.035  46.613 -21.962  1.00  0.00    -0.390 OA
HETATM   32  H20 UNL     1      -6.001  46.496 -21.955  1.00  0.00     0.210 HD
ENDBRANCH   4  31
TORSDOF 9
ENDMDL
MODEL 9
REMARK minimizedAffinity -7.42926598
REMARK  9 active torsions:
REMARK  status: ('A' for Active; 'I' for Inactive)
REMARK    1  A    between atoms: O1_2  and  C2_3 
REMARK    2  A    between atoms: C2_3  and  C3_4 
REMARK    3  A    between atoms: C3_4  and  N1_5 
REMARK       I    between atoms: N1_5  and  C4_6 
REMARK    4  A    between atoms: C4_6  and  C5_8 
REMARK    5  A    between atoms: C5_8  and  C6_9 
REMARK    6  A    between atoms: C6_9  and  C7_10 
REMARK    7  A    between atoms: C10_13  and  O3_15 
REMARK    8  A    between atoms: C18_22  and  N2_23 
REMARK    9  A    between atoms: N2_23  and  C19_24 
ROOT
HETATM    1  C7  UNL     1      -2.785  50.658 -22.818  1.00  0.00    -0.005 C 
HETATM    2  C8  UNL     1      -2.230  49.777 -23.983  1.00  0.00     0.015 C 
HETATM    3  C9  UNL     1      -3.178  48.715 -24.528  1.00  0.00     0.038 C 
HETATM    4  C10 UNL     1      -4.577  49.250 -24.813  1.00  0.00     0.054 C 
HETATM    5  C11 UNL     1      -5.488  48.117 -25.302  1.00  0.00     0.045 C 
HETATM    6  C12 UNL     1      -5.206  49.990 -23.621  1.00  0.00     0.043 C 
HETATM    7  C13 UNL     1      -4.273  50.329 -22.442  1.00  0.00     0.007 C 
HETATM    8  C14 UNL     1      -4.229  49.278 -21.264  1.00  0.00    -0.041 C 
HETATM    9  C15 UNL     1      -4.871  49.899 -19.999  1.00  0.00     0.015 C 
HETATM   10  C16 UNL     1      -4.951  47.937 -21.477  1.00  0.00     0.015 C 
HETATM   11  C17 UNL     1      -2.724  49.016 -21.040  1.00  0.00     0.045 C 
HETATM   12  C18 UNL     1      -1.991  50.289 -21.493  1.00  0.00     0.230 C 
ENDROOT
BRANCH   1  13
HETATM   13  C6  UNL     1      -2.577  52.170 -23.170  1.00  0.00     0.021 C 
BRANCH  13  14
HETATM   14  C5  UNL     1      -2.558  52.568 -24.647  1.00  0.00     0.103 C 
BRANCH  14  15
HETATM   15  C4  UNL     1      -1.142  52.805 -25.148  1.00  0.00     0.217 C 
HETATM   16  N1  UNL     1      -1.094  53.082 -26.499  1.00  0.00    -0.359 N 
HETATM   17  H8  UNL     1      -1.932  52.930 -27.046  1.00  0.00     0.162 HD
HETATM   18  O2  UNL     1      -0.149  52.770 -24.432  1.00  0.00    -0.274 OA
BRANCH  16  19
HETATM   19  C3  UNL     1       0.165  53.248 -27.198  1.00  0.00     0.148 C 
BRANCH  19  20
HETATM   20  C2  UNL     1       0.620  51.991 -27.947  1.00  0.00     0.186 C 
BRANCH  20  21
HETATM   21  O1  UNL     1       2.037  51.814 -27.854  1.00  0.00    -0.394 OA
HETATM   22  C1  UNL     1       2.467  51.473 -26.544  1.00  0.00     0.201 C 
ENDBRANCH  20  21
ENDBRANCH  19  20
ENDBRANCH  16  19
ENDBRANCH  14  15
ENDBRANCH  13  14
ENDBRANCH   1  13
BRANCH  12  23
HETATM   23  N2  UNL     1      -2.028  51.326 -20.449  1.00  0.00     0.093 N 
HETATM   24  H33 UNL     1      -2.864  51.899 -20.563  1.00  0.00     0.316 HD
BRANCH  23  25
HETATM   25  C19 UNL     1      -0.868  52.234 -20.433  1.00  0.00     0.225 C 
HETATM   26  C20 UNL     1      -0.430  52.616 -19.009  1.00  0.00     0.062 C 
HETATM   27  C21 UNL     1       1.057  52.956 -18.938  1.00  0.00     0.169 C 
HETATM   28  O4  UNL     1       1.506  53.483 -20.180  1.00  0.00    -0.391 OA
HETATM   29  C22 UNL     1       1.501  52.503 -21.221  1.00  0.00     0.169 C 
HETATM   30  C23 UNL     1       0.297  51.563 -21.161  1.00  0.00     0.062 C 
ENDBRANCH  23  25
ENDBRANCH  12  23
BRANCH   4  31
HETATM   31  O3  UNL     1      -4.461  50.181 -25.902  1.00  0.00    -0.390 OA
HETATM   32  H20 UNL     1      -5.362  50.399 -26.200  1.00  0.00     0.210 HD
ENDBRANCH   4  31
TORSDOF 9
ENDMDL
