MODEL 1
REMARK minimizedAffinity -7.0151
REMARK CNNscore 0.660512686
REMARK CNNaffinity 7.1486249
REMARK  9 active torsions:
REMARK  status: ('A' for Active; 'I' for Inactive)
REMARK    1  A    between atoms: O1_2  and  C2_3 
REMARK    2  A    between atoms: C2_3  and  C3_4 
REMARK    3  A    between atoms: C3_4  and  C4_5 
REMARK    4  A    between atoms: C4_5  and  O2_6 
REMARK    5  A    between atoms: O2_6  and  C5_7 
REMARK    6  A    between atoms: C31_36  and  O5_37 
REMARK    7  A    between atoms: C36_42  and  O6_44 
REMARK    8  A    between atoms: C38_45  and  O7_46 
REMARK    9  A    between atoms: C45_54  and  O9_55 
ROOT
HETATM    1  C5  UNL     1       2.233  56.832  -7.988  1.00  0.00     0.122 C 
HETATM    2  C6  UNL     1       3.114  56.046  -8.956  1.00  0.00     0.033 C 
HETATM    3  C7  UNL     1       2.378  54.906  -9.665  1.00  0.00     0.014 C 
HETATM    4  C8  UNL     1       1.614  53.922  -8.707  1.00  0.00    -0.010 C 
HETATM    5  C9  UNL     1       2.673  53.206  -7.823  1.00  0.00     0.018 C 
HETATM    6  C10 UNL     1       0.682  54.800  -7.818  1.00  0.00     0.073 C 
HETATM    7  C11 UNL     1       1.449  55.898  -7.059  1.00  0.00     0.045 C 
HETATM    8  C12 UNL     1      -0.441  55.437  -8.649  1.00  0.00     0.161 C 
HETATM    9  O3  UNL     1      -0.812  56.598  -8.499  1.00  0.00    -0.292 OA
HETATM   10  C13 UNL     1      -1.178  54.565  -9.597  1.00  0.00    -0.005 C 
HETATM   11  C14 UNL     1      -0.677  53.339  -9.842  1.00  0.00    -0.013 C 
HETATM   12  C15 UNL     1       0.745  52.821  -9.513  1.00  0.00     0.058 C 
HETATM   13  C16 UNL     1       1.523  52.454 -10.759  1.00  0.00    -0.091 C 
HETATM   14  C17 UNL     1       2.228  51.983 -11.617  1.00  0.00    -0.104 C 
HETATM   15  C18 UNL     1       3.123  51.248 -12.540  1.00  0.00     0.115 C 
HETATM   16  C19 UNL     1       2.522  51.292 -13.911  1.00  0.00     0.090 A 
HETATM   17  C20 UNL     1       1.014  51.303 -14.129  1.00  0.00     0.120 A 
HETATM   18  N1  UNL     1       1.808  50.215 -14.516  1.00  0.00    -0.243 NA
HETATM   19  C21 UNL     1       1.801  48.877 -14.167  1.00  0.00     0.240 C 
HETATM   20  O4  UNL     1       2.843  48.217 -14.271  1.00  0.00    -0.277 OA
HETATM   21  C22 UNL     1       0.505  48.244 -13.492  1.00  0.00     0.245 C 
HETATM   22  C23 UNL     1      -0.808  48.907 -14.097  1.00  0.00     0.145 C 
HETATM   23  C24 UNL     1      -1.647  49.589 -13.085  1.00  0.00    -0.103 C 
HETATM   24  C25 UNL     1      -2.207  49.920 -12.071  1.00  0.00    -0.092 C 
HETATM   25  C26 UNL     1      -2.784  50.201 -10.710  1.00  0.00     0.067 C 
HETATM   26  C27 UNL     1      -3.809  51.426 -11.003  1.00  0.00     0.034 C 
HETATM   27  C28 UNL     1      -3.117  52.711 -10.452  1.00  0.00     0.027 C 
HETATM   28  C29 UNL     1      -3.307  54.094 -11.042  1.00  0.00     0.013 C 
HETATM   29  C30 UNL     1      -2.511  55.082 -10.136  1.00  0.00     0.043 C 
HETATM   30  C31 UNL     1      -1.625  52.352 -10.456  1.00  0.00     0.096 C 
HETATM   31  C32 UNL     1      -1.729  50.966  -9.745  1.00  0.00     0.013 C 
HETATM   32  C33 UNL     1      -2.304  51.113  -8.281  1.00  0.00     0.020 C 
HETATM   33  C34 UNL     1      -0.312  50.428  -9.557  1.00  0.00     0.016 C 
HETATM   34  C35 UNL     1       0.584  51.441  -8.774  1.00  0.00     0.029 C 
HETATM   35  C36 UNL     1      -3.380  48.783 -10.097  1.00  0.00     0.102 C 
HETATM   36  C37 UNL     1      -4.825  48.978  -9.591  1.00  0.00     0.050 C 
HETATM   37  C38 UNL     1      -3.375  47.475 -11.044  1.00  0.00     0.183 C 
HETATM   38  C39 UNL     1      -1.975  46.976 -11.477  1.00  0.00     0.158 C 
HETATM   39  O8  UNL     1      -1.060  46.484 -10.492  1.00  0.00    -0.373 OA
HETATM   40  C40 UNL     1       0.151  46.142 -11.260  1.00  0.00     0.185 C 
HETATM   41  C41 UNL     1      -0.310  45.819 -12.702  1.00  0.00     0.028 C 
HETATM   42  C42 UNL     1       0.429  46.693 -13.768  1.00  0.00     0.060 C 
HETATM   43  C43 UNL     1      -1.842  45.991 -12.637  1.00  0.00     0.020 C 
HETATM   44  C44 UNL     1      -2.526  44.649 -12.369  1.00  0.00     0.013 C 
HETATM   45  C45 UNL     1       1.202  47.294 -11.284  1.00  0.00     0.385 C 
HETATM   46  N2  UNL     1       0.733  48.450 -12.029  1.00  0.00     0.134 N 
HETATM   47  H60 UNL     1       1.334  49.252 -11.880  1.00  0.00     0.321 HD
ENDROOT
BRANCH   1  48
HETATM   48  O2  UNL     1       3.050  57.669  -7.161  1.00  0.00    -0.386 OA
BRANCH  48  49
HETATM   49  C4  UNL     1       3.038  57.282  -5.788  1.00  0.00     0.170 C 
BRANCH  49  50
HETATM   50  C3  UNL     1       3.692  58.371  -4.948  1.00  0.00     0.052 C 
BRANCH  50  51
HETATM   51  C2  UNL     1       2.817  58.797  -3.774  1.00  0.00     0.169 C 
BRANCH  51  52
HETATM   52  O1  UNL     1       3.318  58.165  -2.595  1.00  0.00    -0.396 OA
HETATM   53  C1  UNL     1       4.735  58.251  -2.517  1.00  0.00     0.201 C 
ENDBRANCH  51  52
ENDBRANCH  50  51
ENDBRANCH  49  50
ENDBRANCH  48  49
ENDBRANCH   1  48
BRANCH  30  54
HETATM   54  O5  UNL     1      -1.191  52.287 -11.813  1.00  0.00    -0.384 OA
HETATM   55  H35 UNL     1      -0.968  53.182 -12.116  1.00  0.00     0.211 HD
ENDBRANCH  30  54
BRANCH  35  56
HETATM   56  O6  UNL     1      -2.636  48.420  -8.915  1.00  0.00    -0.386 OA
HETATM   57  H46 UNL     1      -2.106  47.616  -9.118  1.00  0.00     0.210 HD
ENDBRANCH  35  56
BRANCH  37  58
HETATM   58  O7  UNL     1      -4.024  46.368 -10.395  1.00  0.00    -0.390 OA
HETATM   59  H48 UNL     1      -4.976  46.554 -10.348  1.00  0.00     0.210 HD
ENDBRANCH  37  58
BRANCH  45  60
HETATM   60  O9  UNL     1       1.497  47.686  -9.958  1.00  0.00    -0.366 OA
HETATM   61  H59 UNL     1       2.002  48.510 -10.017  1.00  0.00     0.212 HD
ENDBRANCH  45  60
TORSDOF 9
ENDMDL
MODEL 2
REMARK minimizedAffinity -7.62451601
REMARK CNNscore 0.5438447
REMARK CNNaffinity 7.26679659
REMARK  9 active torsions:
REMARK  status: ('A' for Active; 'I' for Inactive)
REMARK    1  A    between atoms: O1_2  and  C2_3 
REMARK    2  A    between atoms: C2_3  and  C3_4 
REMARK    3  A    between atoms: C3_4  and  C4_5 
REMARK    4  A    between atoms: C4_5  and  O2_6 
REMARK    5  A    between atoms: O2_6  and  C5_7 
REMARK    6  A    between atoms: C31_36  and  O5_37 
REMARK    7  A    between atoms: C36_42  and  O6_44 
REMARK    8  A    between atoms: C38_45  and  O7_46 
REMARK    9  A    between atoms: C45_54  and  O9_55 
ROOT
HETATM    1  C5  UNL     1       7.188  55.185  -5.316  1.00  0.00     0.122 C 
HETATM    2  C6  UNL     1       7.349  53.722  -5.718  1.00  0.00     0.033 C 
HETATM    3  C7  UNL     1       6.282  53.237  -6.704  1.00  0.00     0.014 C 
HETATM    4  C8  UNL     1       4.802  53.518  -6.259  1.00  0.00    -0.010 C 
HETATM    5  C9  UNL     1       4.533  52.697  -4.967  1.00  0.00     0.018 C 
HETATM    6  C10 UNL     1       4.710  55.043  -5.951  1.00  0.00     0.073 C 
HETATM    7  C11 UNL     1       5.745  55.499  -4.907  1.00  0.00     0.045 C 
HETATM    8  C12 UNL     1       4.867  55.879  -7.230  1.00  0.00     0.161 C 
HETATM    9  O3  UNL     1       5.530  56.911  -7.281  1.00  0.00    -0.292 OA
HETATM   10  C13 UNL     1       4.084  55.468  -8.422  1.00  0.00    -0.005 C 
HETATM   11  C14 UNL     1       3.469  54.271  -8.389  1.00  0.00    -0.013 C 
HETATM   12  C15 UNL     1       3.725  53.110  -7.395  1.00  0.00     0.058 C 
HETATM   13  C16 UNL     1       4.245  51.868  -8.088  1.00  0.00    -0.091 C 
HETATM   14  C17 UNL     1       4.523  50.762  -8.481  1.00  0.00    -0.104 C 
HETATM   15  C18 UNL     1       4.717  49.338  -8.836  1.00  0.00     0.115 C 
HETATM   16  C19 UNL     1       4.858  49.240 -10.324  1.00  0.00     0.090 A 
HETATM   17  C20 UNL     1       4.125  50.187 -11.265  1.00  0.00     0.120 A 
HETATM   18  N1  UNL     1       3.820  48.820 -11.208  1.00  0.00    -0.243 NA
HETATM   19  C21 UNL     1       2.659  48.129 -10.915  1.00  0.00     0.240 C 
HETATM   20  O4  UNL     1       2.734  46.970 -10.487  1.00  0.00    -0.277 OA
HETATM   21  C22 UNL     1       1.256  48.879 -10.979  1.00  0.00     0.245 C 
HETATM   22  C23 UNL     1       1.259  49.949 -12.156  1.00  0.00     0.145 C 
HETATM   23  C24 UNL     1       1.026  51.336 -11.696  1.00  0.00    -0.103 C 
HETATM   24  C25 UNL     1       0.667  52.318 -11.096  1.00  0.00    -0.092 C 
HETATM   25  C26 UNL     1       0.151  53.414 -10.204  1.00  0.00     0.067 C 
HETATM   26  C27 UNL     1       0.652  54.759 -10.966  1.00  0.00     0.034 C 
HETATM   27  C28 UNL     1       1.858  55.301 -10.138  1.00  0.00     0.027 C 
HETATM   28  C29 UNL     1       3.023  56.060 -10.739  1.00  0.00     0.013 C 
HETATM   29  C30 UNL     1       3.941  56.486  -9.552  1.00  0.00     0.043 C 
HETATM   30  C31 UNL     1       2.379  54.063  -9.398  1.00  0.00     0.096 C 
HETATM   31  C32 UNL     1       1.015  53.549  -8.839  1.00  0.00     0.013 C 
HETATM   32  C33 UNL     1       0.363  54.601  -7.857  1.00  0.00     0.020 C 
HETATM   33  C34 UNL     1       1.296  52.324  -7.969  1.00  0.00     0.016 C 
HETATM   34  C35 UNL     1       2.326  52.650  -6.840  1.00  0.00     0.029 C 
HETATM   35  C36 UNL     1      -1.471  53.177  -9.976  1.00  0.00     0.102 C 
HETATM   36  C37 UNL     1      -2.253  54.477 -10.258  1.00  0.00     0.050 C 
HETATM   37  C38 UNL     1      -2.197  51.992 -10.799  1.00  0.00     0.183 C 
HETATM   38  C39 UNL     1      -1.700  50.561 -10.476  1.00  0.00     0.158 C 
HETATM   39  O8  UNL     1      -1.903  50.017  -9.168  1.00  0.00    -0.373 OA
HETATM   40  C40 UNL     1      -1.279  48.681  -9.230  1.00  0.00     0.185 C 
HETATM   41  C41 UNL     1      -1.329  48.233 -10.710  1.00  0.00     0.028 C 
HETATM   42  C42 UNL     1       0.086  47.860 -11.262  1.00  0.00     0.060 C 
HETATM   43  C43 UNL     1      -2.037  49.407 -11.418  1.00  0.00     0.020 C 
HETATM   44  C44 UNL     1      -3.540  49.142 -11.533  1.00  0.00     0.013 C 
HETATM   45  C45 UNL     1       0.195  48.674  -8.721  1.00  0.00     0.385 C 
HETATM   46  N2  UNL     1       1.082  49.422  -9.597  1.00  0.00     0.134 N 
HETATM   47  H60 UNL     1       1.986  49.570  -9.165  1.00  0.00     0.321 HD
ENDROOT
BRANCH   1  48
HETATM   48  O2  UNL     1       8.024  55.473  -4.189  1.00  0.00    -0.386 OA
BRANCH  48  49
HETATM   49  C4  UNL     1       9.410  55.258  -4.451  1.00  0.00     0.170 C 
BRANCH  49  50
HETATM   50  C3  UNL     1       9.901  56.285  -5.462  1.00  0.00     0.052 C 
BRANCH  50  51
HETATM   51  C2  UNL     1      10.694  57.409  -4.803  1.00  0.00     0.169 C 
BRANCH  51  52
HETATM   52  O1  UNL     1      10.205  58.652  -5.309  1.00  0.00    -0.396 OA
HETATM   53  C1  UNL     1      10.825  59.758  -4.665  1.00  0.00     0.201 C 
ENDBRANCH  51  52
ENDBRANCH  50  51
ENDBRANCH  49  50
ENDBRANCH  48  49
ENDBRANCH   1  48
BRANCH  30  54
HETATM   54  O5  UNL     1       2.987  53.199 -10.357  1.00  0.00    -0.384 OA
HETATM   55  H35 UNL     1       3.902  53.486 -10.505  1.00  0.00     0.211 HD
ENDBRANCH  30  54
BRANCH  35  56
HETATM   56  O6  UNL     1      -1.726  52.906  -8.582  1.00  0.00    -0.386 OA
HETATM   57  H46 UNL     1      -2.007  51.966  -8.495  1.00  0.00     0.210 HD
ENDBRANCH  35  56
BRANCH  37  58
HETATM   58  O7  UNL     1      -3.616  51.997 -10.564  1.00  0.00    -0.390 OA
HETATM   59  H48 UNL     1      -3.996  52.778 -10.999  1.00  0.00     0.210 HD
ENDBRANCH  37  58
BRANCH  45  60
HETATM   60  O9  UNL     1       0.246  49.234  -7.423  1.00  0.00    -0.366 OA
HETATM   61  H59 UNL     1       1.181  49.379  -7.220  1.00  0.00     0.212 HD
ENDBRANCH  45  60
TORSDOF 9
ENDMDL
MODEL 3
REMARK minimizedAffinity -8.38842964
REMARK CNNscore 0.467449993
REMARK CNNaffinity 7.16664124
REMARK  9 active torsions:
REMARK  status: ('A' for Active; 'I' for Inactive)
REMARK    1  A    between atoms: O1_2  and  C2_3 
REMARK    2  A    between atoms: C2_3  and  C3_4 
REMARK    3  A    between atoms: C3_4  and  C4_5 
REMARK    4  A    between atoms: C4_5  and  O2_6 
REMARK    5  A    between atoms: O2_6  and  C5_7 
REMARK    6  A    between atoms: C31_36  and  O5_37 
REMARK    7  A    between atoms: C36_42  and  O6_44 
REMARK    8  A    between atoms: C38_45  and  O7_46 
REMARK    9  A    between atoms: C45_54  and  O9_55 
ROOT
HETATM    1  C5  UNL     1      -1.663  50.144 -22.345  1.00  0.00     0.122 C 
HETATM    2  C6  UNL     1      -1.181  48.966 -21.503  1.00  0.00     0.033 C 
HETATM    3  C7  UNL     1      -2.320  48.132 -20.909  1.00  0.00     0.014 C 
HETATM    4  C8  UNL     1      -3.396  48.960 -20.118  1.00  0.00    -0.010 C 
HETATM    5  C9  UNL     1      -2.692  49.588 -18.882  1.00  0.00     0.018 C 
HETATM    6  C10 UNL     1      -3.889  50.083 -21.079  1.00  0.00     0.073 C 
HETATM    7  C11 UNL     1      -2.738  50.954 -21.612  1.00  0.00     0.045 C 
HETATM    8  C12 UNL     1      -4.681  49.498 -22.258  1.00  0.00     0.161 C 
HETATM    9  O3  UNL     1      -4.559  49.897 -23.412  1.00  0.00    -0.292 OA
HETATM   10  C13 UNL     1      -5.718  48.481 -21.954  1.00  0.00    -0.005 C 
HETATM   11  C14 UNL     1      -5.748  47.964 -20.711  1.00  0.00    -0.013 C 
HETATM   12  C15 UNL     1      -4.642  48.051 -19.630  1.00  0.00     0.058 C 
HETATM   13  C16 UNL     1      -4.093  46.689 -19.262  1.00  0.00    -0.091 C 
HETATM   14  C17 UNL     1      -3.646  45.693 -18.747  1.00  0.00    -0.104 C 
HETATM   15  C18 UNL     1      -3.130  44.567 -17.936  1.00  0.00     0.115 C 
HETATM   16  C19 UNL     1      -3.686  43.294 -18.493  1.00  0.00     0.090 A 
HETATM   17  C20 UNL     1      -5.070  43.229 -19.128  1.00  0.00     0.120 A 
HETATM   18  N1  UNL     1      -4.778  42.571 -17.926  1.00  0.00    -0.243 NA
HETATM   19  C21 UNL     1      -5.309  42.664 -16.653  1.00  0.00     0.240 C 
HETATM   20  O4  UNL     1      -4.616  42.338 -15.681  1.00  0.00    -0.277 OA
HETATM   21  C22 UNL     1      -6.738  43.332 -16.440  1.00  0.00     0.245 C 
HETATM   22  C23 UNL     1      -7.691  42.993 -17.667  1.00  0.00     0.145 C 
HETATM   23  C24 UNL     1      -8.175  44.190 -18.391  1.00  0.00    -0.103 C 
HETATM   24  C25 UNL     1      -8.542  45.298 -18.691  1.00  0.00    -0.092 C 
HETATM   25  C26 UNL     1      -8.938  46.736 -18.881  1.00  0.00     0.067 C 
HETATM   26  C27 UNL     1      -9.399  46.778 -20.438  1.00  0.00     0.034 C 
HETATM   27  C28 UNL     1      -8.246  47.488 -21.212  1.00  0.00     0.027 C 
HETATM   28  C29 UNL     1      -7.882  47.187 -22.651  1.00  0.00     0.013 C 
HETATM   29  C30 UNL     1      -6.746  48.180 -23.044  1.00  0.00     0.043 C 
HETATM   30  C31 UNL     1      -7.019  47.273 -20.316  1.00  0.00     0.096 C 
HETATM   31  C32 UNL     1      -7.652  47.720 -18.962  1.00  0.00     0.013 C 
HETATM   32  C33 UNL     1      -8.098  49.234 -19.008  1.00  0.00     0.020 C 
HETATM   33  C34 UNL     1      -6.561  47.666 -17.893  1.00  0.00     0.016 C 
HETATM   34  C35 UNL     1      -5.325  48.533 -18.297  1.00  0.00     0.029 C 
HETATM   35  C36 UNL     1     -10.038  47.130 -17.707  1.00  0.00     0.102 C 
HETATM   36  C37 UNL     1     -11.279  47.802 -18.331  1.00  0.00     0.050 C 
HETATM   37  C38 UNL     1     -10.566  45.960 -16.727  1.00  0.00     0.183 C 
HETATM   38  C39 UNL     1      -9.485  45.308 -15.831  1.00  0.00     0.158 C 
HETATM   39  O8  UNL     1      -8.825  46.090 -14.831  1.00  0.00    -0.373 OA
HETATM   40  C40 UNL     1      -7.860  45.157 -14.218  1.00  0.00     0.185 C 
HETATM   41  C41 UNL     1      -8.435  43.733 -14.407  1.00  0.00     0.028 C 
HETATM   42  C42 UNL     1      -7.427  42.782 -15.132  1.00  0.00     0.060 C 
HETATM   43  C43 UNL     1      -9.772  43.978 -15.137  1.00  0.00     0.020 C 
HETATM   44  C44 UNL     1     -10.927  44.057 -14.137  1.00  0.00     0.013 C 
HETATM   45  C45 UNL     1      -6.440  45.247 -14.855  1.00  0.00     0.385 C 
HETATM   46  N2  UNL     1      -6.424  44.779 -16.231  1.00  0.00     0.134 N 
HETATM   47  H60 UNL     1      -5.553  45.016 -16.690  1.00  0.00     0.321 HD
ENDROOT
BRANCH   1  48
HETATM   48  O2  UNL     1      -0.568  51.029 -22.612  1.00  0.00    -0.386 OA
BRANCH  48  49
HETATM   49  C4  UNL     1      -0.486  52.111 -21.686  1.00  0.00     0.170 C 
BRANCH  49  50
HETATM   50  C3  UNL     1       0.958  52.582 -21.583  1.00  0.00     0.052 C 
BRANCH  50  51
HETATM   51  C2  UNL     1       1.099  53.820 -20.704  1.00  0.00     0.169 C 
BRANCH  51  52
HETATM   52  O1  UNL     1       1.875  54.784 -21.417  1.00  0.00    -0.396 OA
HETATM   53  C1  UNL     1       1.593  54.757 -22.810  1.00  0.00     0.201 C 
ENDBRANCH  51  52
ENDBRANCH  50  51
ENDBRANCH  49  50
ENDBRANCH  48  49
ENDBRANCH   1  48
BRANCH  30  54
HETATM   54  O5  UNL     1      -6.667  45.891 -20.376  1.00  0.00    -0.384 OA
HETATM   55  H35 UNL     1      -6.114  45.740 -21.158  1.00  0.00     0.211 HD
ENDBRANCH  30  54
BRANCH  35  56
HETATM   56  O6  UNL     1      -9.480  48.146 -16.847  1.00  0.00    -0.386 OA
HETATM   57  H46 UNL     1      -9.314  47.747 -15.963  1.00  0.00     0.210 HD
ENDBRANCH  35  56
BRANCH  37  58
HETATM   58  O7  UNL     1     -11.590  46.452 -15.844  1.00  0.00    -0.390 OA
HETATM   59  H48 UNL     1     -12.390  46.625 -16.368  1.00  0.00     0.210 HD
ENDBRANCH  37  58
BRANCH  45  60
HETATM   60  O9  UNL     1      -5.992  46.588 -14.817  1.00  0.00    -0.366 OA
HETATM   61  H59 UNL     1      -5.203  46.633 -15.376  1.00  0.00     0.212 HD
ENDBRANCH  45  60
TORSDOF 9
ENDMDL
MODEL 4
REMARK minimizedAffinity -8.42804909
REMARK CNNscore 0.448076099
REMARK CNNaffinity 7.34948921
REMARK  9 active torsions:
REMARK  status: ('A' for Active; 'I' for Inactive)
REMARK    1  A    between atoms: O1_2  and  C2_3 
REMARK    2  A    between atoms: C2_3  and  C3_4 
REMARK    3  A    between atoms: C3_4  and  C4_5 
REMARK    4  A    between atoms: C4_5  and  O2_6 
REMARK    5  A    between atoms: O2_6  and  C5_7 
REMARK    6  A    between atoms: C31_36  and  O5_37 
REMARK    7  A    between atoms: C36_42  and  O6_44 
REMARK    8  A    between atoms: C38_45  and  O7_46 
REMARK    9  A    between atoms: C45_54  and  O9_55 
ROOT
HETATM    1  C5  UNL     1      -0.208  51.313 -18.471  1.00  0.00     0.122 C 
HETATM    2  C6  UNL     1      -0.336  50.041 -17.637  1.00  0.00     0.033 C 
HETATM    3  C7  UNL     1      -1.385  49.061 -18.171  1.00  0.00     0.014 C 
HETATM    4  C8  UNL     1      -2.803  49.691 -18.421  1.00  0.00    -0.010 C 
HETATM    5  C9  UNL     1      -3.366  50.146 -17.045  1.00  0.00     0.018 C 
HETATM    6  C10 UNL     1      -2.586  50.926 -19.345  1.00  0.00     0.073 C 
HETATM    7  C11 UNL     1      -1.579  51.934 -18.759  1.00  0.00     0.045 C 
HETATM    8  C12 UNL     1      -2.129  50.499 -20.747  1.00  0.00     0.161 C 
HETATM    9  O3  UNL     1      -1.254  51.087 -21.377  1.00  0.00    -0.292 OA
HETATM   10  C13 UNL     1      -2.867  49.392 -21.405  1.00  0.00    -0.005 C 
HETATM   11  C14 UNL     1      -3.730  48.680 -20.656  1.00  0.00    -0.013 C 
HETATM   12  C15 UNL     1      -3.831  48.649 -19.110  1.00  0.00     0.058 C 
HETATM   13  C16 UNL     1      -3.533  47.276 -18.544  1.00  0.00    -0.091 C 
HETATM   14  C17 UNL     1      -3.469  46.236 -17.936  1.00  0.00    -0.104 C 
HETATM   15  C18 UNL     1      -3.559  45.023 -17.093  1.00  0.00     0.115 C 
HETATM   16  C19 UNL     1      -3.304  43.829 -17.960  1.00  0.00     0.090 A 
HETATM   17  C20 UNL     1      -3.719  43.794 -19.425  1.00  0.00     0.120 A 
HETATM   18  N1  UNL     1      -4.321  42.966 -18.468  1.00  0.00    -0.243 NA
HETATM   19  C21 UNL     1      -5.627  42.822 -18.040  1.00  0.00     0.240 C 
HETATM   20  O4  UNL     1      -5.849  42.380 -16.905  1.00  0.00    -0.277 OA
HETATM   21  C22 UNL     1      -6.819  43.369 -18.943  1.00  0.00     0.245 C 
HETATM   22  C23 UNL     1      -6.470  43.182 -20.484  1.00  0.00     0.145 C 
HETATM   23  C24 UNL     1      -6.435  44.453 -21.241  1.00  0.00    -0.103 C 
HETATM   24  C25 UNL     1      -6.625  45.574 -21.642  1.00  0.00    -0.092 C 
HETATM   25  C26 UNL     1      -6.968  47.001 -21.972  1.00  0.00     0.067 C 
HETATM   26  C27 UNL     1      -6.115  47.270 -23.328  1.00  0.00     0.034 C 
HETATM   27  C28 UNL     1      -4.903  48.158 -22.907  1.00  0.00     0.027 C 
HETATM   28  C29 UNL     1      -3.548  48.115 -23.583  1.00  0.00     0.013 C 
HETATM   29  C30 UNL     1      -2.675  49.218 -22.910  1.00  0.00     0.043 C 
HETATM   30  C31 UNL     1      -4.739  47.866 -21.410  1.00  0.00     0.096 C 
HETATM   31  C32 UNL     1      -6.229  48.052 -20.984  1.00  0.00     0.013 C 
HETATM   32  C33 UNL     1      -6.724  49.528 -21.253  1.00  0.00     0.020 C 
HETATM   33  C34 UNL     1      -6.307  47.884 -19.467  1.00  0.00     0.016 C 
HETATM   34  C35 UNL     1      -5.342  48.870 -18.733  1.00  0.00     0.029 C 
HETATM   35  C36 UNL     1      -8.617  47.138 -22.020  1.00  0.00     0.102 C 
HETATM   36  C37 UNL     1      -9.065  47.835 -23.322  1.00  0.00     0.050 C 
HETATM   37  C38 UNL     1      -9.505  45.798 -21.863  1.00  0.00     0.183 C 
HETATM   38  C39 UNL     1      -9.367  45.068 -20.505  1.00  0.00     0.158 C 
HETATM   39  O8  UNL     1      -9.807  45.712 -19.304  1.00  0.00    -0.373 OA
HETATM   40  C40 UNL     1      -9.489  44.745 -18.236  1.00  0.00     0.185 C 
HETATM   41  C41 UNL     1      -9.496  43.342 -18.888  1.00  0.00     0.028 C 
HETATM   42  C42 UNL     1      -8.152  42.576 -18.655  1.00  0.00     0.060 C 
HETATM   43  C43 UNL     1      -9.859  43.629 -20.359  1.00  0.00     0.020 C 
HETATM   44  C44 UNL     1     -11.366  43.482 -20.583  1.00  0.00     0.013 C 
HETATM   45  C45 UNL     1      -8.107  45.014 -17.565  1.00  0.00     0.385 C 
HETATM   46  N2  UNL     1      -6.999  44.777 -18.475  1.00  0.00     0.134 N 
HETATM   47  H60 UNL     1      -6.130  45.132 -18.096  1.00  0.00     0.321 HD
ENDROOT
BRANCH   1  48
HETATM   48  O2  UNL     1       0.560  52.287 -17.755  1.00  0.00    -0.386 OA
BRANCH  48  49
HETATM   49  C4  UNL     1       1.518  52.956 -18.574  1.00  0.00     0.170 C 
BRANCH  49  50
HETATM   50  C3  UNL     1       0.805  53.644 -19.730  1.00  0.00     0.052 C 
BRANCH  50  51
HETATM   51  C2  UNL     1       1.487  53.378 -21.067  1.00  0.00     0.169 C 
BRANCH  51  52
HETATM   52  O1  UNL     1       1.830  54.637 -21.649  1.00  0.00    -0.396 OA
HETATM   53  C1  UNL     1       1.453  54.700 -23.019  1.00  0.00     0.201 C 
ENDBRANCH  51  52
ENDBRANCH  50  51
ENDBRANCH  49  50
ENDBRANCH  48  49
ENDBRANCH   1  48
BRANCH  30  54
HETATM   54  O5  UNL     1      -4.248  46.533 -21.272  1.00  0.00    -0.384 OA
HETATM   55  H35 UNL     1      -3.283  46.541 -21.368  1.00  0.00     0.211 HD
ENDBRANCH  30  54
BRANCH  35  56
HETATM   56  O6  UNL     1      -9.056  48.030 -20.973  1.00  0.00    -0.386 OA
HETATM   57  H46 UNL     1      -9.544  47.501 -20.301  1.00  0.00     0.210 HD
ENDBRANCH  35  56
BRANCH  37  58
HETATM   58  O7  UNL     1     -10.904  46.084 -22.036  1.00  0.00    -0.390 OA
HETATM   59  H48 UNL     1     -11.060  46.297 -22.971  1.00  0.00     0.210 HD
ENDBRANCH  37  58
BRANCH  45  60
HETATM   60  O9  UNL     1      -8.057  46.352 -17.113  1.00  0.00    -0.366 OA
HETATM   61  H59 UNL     1      -7.136  46.531 -16.873  1.00  0.00     0.212 HD
ENDBRANCH  45  60
TORSDOF 9
ENDMDL
MODEL 5
REMARK minimizedAffinity -8.87836361
REMARK CNNscore 0.437981188
REMARK CNNaffinity 7.53292227
REMARK  9 active torsions:
REMARK  status: ('A' for Active; 'I' for Inactive)
REMARK    1  A    between atoms: O1_2  and  C2_3 
REMARK    2  A    between atoms: C2_3  and  C3_4 
REMARK    3  A    between atoms: C3_4  and  C4_5 
REMARK    4  A    between atoms: C4_5  and  O2_6 
REMARK    5  A    between atoms: O2_6  and  C5_7 
REMARK    6  A    between atoms: C31_36  and  O5_37 
REMARK    7  A    between atoms: C36_42  and  O6_44 
REMARK    8  A    between atoms: C38_45  and  O7_46 
REMARK    9  A    between atoms: C45_54  and  O9_55 
ROOT
HETATM    1  C5  UNL     1       4.078  55.312  -8.580  1.00  0.00     0.122 C 
HETATM    2  C6  UNL     1       4.494  54.555  -9.839  1.00  0.00     0.033 C 
HETATM    3  C7  UNL     1       3.332  53.841 -10.536  1.00  0.00     0.014 C 
HETATM    4  C8  UNL     1       2.479  52.910  -9.600  1.00  0.00    -0.010 C 
HETATM    5  C9  UNL     1       3.402  51.759  -9.112  1.00  0.00     0.018 C 
HETATM    6  C10 UNL     1       2.030  53.784  -8.391  1.00  0.00     0.073 C 
HETATM    7  C11 UNL     1       3.216  54.439  -7.661  1.00  0.00     0.045 C 
HETATM    8  C12 UNL     1       1.033  54.867  -8.827  1.00  0.00     0.161 C 
HETATM    9  O3  UNL     1       1.068  56.021  -8.409  1.00  0.00    -0.292 OA
HETATM   10  C13 UNL     1      -0.088  54.457  -9.708  1.00  0.00    -0.005 C 
HETATM   11  C14 UNL     1      -0.040  53.228 -10.258  1.00  0.00    -0.013 C 
HETATM   12  C15 UNL     1       1.189  52.289 -10.353  1.00  0.00     0.058 C 
HETATM   13  C16 UNL     1       1.589  52.014 -11.787  1.00  0.00    -0.091 C 
HETATM   14  C17 UNL     1       1.957  51.575 -12.849  1.00  0.00    -0.104 C 
HETATM   15  C18 UNL     1       2.409  50.853 -14.060  1.00  0.00     0.115 C 
HETATM   16  C19 UNL     1       1.624  51.360 -15.229  1.00  0.00     0.090 A 
HETATM   17  C20 UNL     1       0.179  51.822 -15.091  1.00  0.00     0.120 A 
HETATM   18  N1  UNL     1       0.520  50.676 -15.821  1.00  0.00    -0.243 NA
HETATM   19  C21 UNL     1       0.162  49.346 -15.702  1.00  0.00     0.240 C 
HETATM   20  O4  UNL     1       0.916  48.472 -16.149  1.00  0.00    -0.277 OA
HETATM   21  C22 UNL     1      -1.129  48.948 -14.859  1.00  0.00     0.245 C 
HETATM   22  C23 UNL     1      -2.258  50.056 -15.030  1.00  0.00     0.145 C 
HETATM   23  C24 UNL     1      -2.659  50.694 -13.756  1.00  0.00    -0.103 C 
HETATM   24  C25 UNL     1      -2.907  50.928 -12.600  1.00  0.00    -0.092 C 
HETATM   25  C26 UNL     1      -3.126  51.043 -11.116  1.00  0.00     0.067 C 
HETATM   26  C27 UNL     1      -3.759  52.531 -10.963  1.00  0.00     0.034 C 
HETATM   27  C28 UNL     1      -2.621  53.428 -10.384  1.00  0.00     0.027 C 
HETATM   28  C29 UNL     1      -2.474  54.906 -10.682  1.00  0.00     0.013 C 
HETATM   29  C30 UNL     1      -1.270  55.418  -9.835  1.00  0.00     0.043 C 
HETATM   30  C31 UNL     1      -1.336  52.693 -10.789  1.00  0.00     0.096 C 
HETATM   31  C32 UNL     1      -1.738  51.264 -10.308  1.00  0.00     0.013 C 
HETATM   32  C33 UNL     1      -1.979  51.229  -8.747  1.00  0.00     0.020 C 
HETATM   33  C34 UNL     1      -0.544  50.338 -10.540  1.00  0.00     0.016 C 
HETATM   34  C35 UNL     1       0.740  50.874  -9.830  1.00  0.00     0.029 C 
HETATM   35  C36 UNL     1      -4.015  49.737 -10.621  1.00  0.00     0.102 C 
HETATM   36  C37 UNL     1      -5.220  50.192  -9.771  1.00  0.00     0.050 C 
HETATM   37  C38 UNL     1      -4.575  48.720 -11.743  1.00  0.00     0.183 C 
HETATM   38  C39 UNL     1      -3.493  47.974 -12.561  1.00  0.00     0.158 C 
HETATM   39  O8  UNL     1      -2.619  47.049 -11.906  1.00  0.00    -0.373 OA
HETATM   40  C40 UNL     1      -1.723  46.575 -12.978  1.00  0.00     0.185 C 
HETATM   41  C41 UNL     1      -2.502  46.716 -14.307  1.00  0.00     0.028 C 
HETATM   42  C42 UNL     1      -1.725  47.576 -15.358  1.00  0.00     0.060 C 
HETATM   43  C43 UNL     1      -3.871  47.273 -13.865  1.00  0.00     0.020 C 
HETATM   44  C44 UNL     1      -4.878  46.138 -13.668  1.00  0.00     0.013 C 
HETATM   45  C45 UNL     1      -0.389  47.379 -13.054  1.00  0.00     0.385 C 
HETATM   46  N2  UNL     1      -0.600  48.755 -13.474  1.00  0.00     0.134 N 
HETATM   47  H60 UNL     1       0.234  49.312 -13.339  1.00  0.00     0.321 HD
ENDROOT
BRANCH   1  48
HETATM   48  O2  UNL     1       5.242  55.695  -7.838  1.00  0.00    -0.386 OA
BRANCH  48  49
HETATM   49  C4  UNL     1       5.065  56.905  -7.104  1.00  0.00     0.170 C 
BRANCH  49  50
HETATM   50  C3  UNL     1       3.988  57.751  -7.770  1.00  0.00     0.052 C 
BRANCH  50  51
HETATM   51  C2  UNL     1       2.935  58.230  -6.778  1.00  0.00     0.169 C 
BRANCH  51  52
HETATM   52  O1  UNL     1       3.241  57.669  -5.500  1.00  0.00    -0.396 OA
HETATM   53  C1  UNL     1       2.422  58.220  -4.477  1.00  0.00     0.201 C 
ENDBRANCH  51  52
ENDBRANCH  50  51
ENDBRANCH  49  50
ENDBRANCH  48  49
ENDBRANCH   1  48
BRANCH  30  54
HETATM   54  O5  UNL     1      -1.183  52.819 -12.202  1.00  0.00    -0.384 OA
HETATM   55  H35 UNL     1      -0.752  53.665 -12.399  1.00  0.00     0.211 HD
ENDBRANCH  30  54
BRANCH  35  56
HETATM   56  O6  UNL     1      -3.227  48.934  -9.716  1.00  0.00    -0.386 OA
HETATM   57  H46 UNL     1      -3.013  48.084 -10.163  1.00  0.00     0.210 HD
ENDBRANCH  35  56
BRANCH  37  58
HETATM   58  O7  UNL     1      -5.412  47.711 -11.151  1.00  0.00    -0.390 OA
HETATM   59  H48 UNL     1      -6.237  48.129 -10.857  1.00  0.00     0.210 HD
ENDBRANCH  37  58
BRANCH  45  60
HETATM   60  O9  UNL     1       0.236  47.373 -11.786  1.00  0.00    -0.366 OA
HETATM   61  H59 UNL     1       0.952  48.024 -11.826  1.00  0.00     0.212 HD
ENDBRANCH  45  60
TORSDOF 9
ENDMDL
MODEL 6
REMARK minimizedAffinity -7.73604059
REMARK CNNscore 0.437381923
REMARK CNNaffinity 6.98532295
REMARK  9 active torsions:
REMARK  status: ('A' for Active; 'I' for Inactive)
REMARK    1  A    between atoms: O1_2  and  C2_3 
REMARK    2  A    between atoms: C2_3  and  C3_4 
REMARK    3  A    between atoms: C3_4  and  C4_5 
REMARK    4  A    between atoms: C4_5  and  O2_6 
REMARK    5  A    between atoms: O2_6  and  C5_7 
REMARK    6  A    between atoms: C31_36  and  O5_37 
REMARK    7  A    between atoms: C36_42  and  O6_44 
REMARK    8  A    between atoms: C38_45  and  O7_46 
REMARK    9  A    between atoms: C45_54  and  O9_55 
ROOT
HETATM    1  C5  UNL     1       9.849  56.857  -3.867  1.00  0.00     0.122 C 
HETATM    2  C6  UNL     1       9.797  56.305  -5.289  1.00  0.00     0.033 C 
HETATM    3  C7  UNL     1       8.374  56.142  -5.831  1.00  0.00     0.014 C 
HETATM    4  C8  UNL     1       7.406  55.328  -4.898  1.00  0.00    -0.010 C 
HETATM    5  C9  UNL     1       7.952  53.876  -4.804  1.00  0.00     0.018 C 
HETATM    6  C10 UNL     1       7.459  56.010  -3.498  1.00  0.00     0.073 C 
HETATM    7  C11 UNL     1       8.890  56.103  -2.938  1.00  0.00     0.045 C 
HETATM    8  C12 UNL     1       6.830  57.410  -3.536  1.00  0.00     0.161 C 
HETATM    9  O3  UNL     1       7.311  58.379  -2.956  1.00  0.00    -0.292 OA
HETATM   10  C13 UNL     1       5.519  57.558  -4.216  1.00  0.00    -0.005 C 
HETATM   11  C14 UNL     1       5.072  56.523  -4.952  1.00  0.00    -0.013 C 
HETATM   12  C15 UNL     1       5.887  55.303  -5.452  1.00  0.00     0.058 C 
HETATM   13  C16 UNL     1       5.956  55.242  -6.964  1.00  0.00    -0.091 C 
HETATM   14  C17 UNL     1       5.995  54.957  -8.135  1.00  0.00    -0.104 C 
HETATM   15  C18 UNL     1       5.995  54.416  -9.513  1.00  0.00     0.115 C 
HETATM   16  C19 UNL     1       5.263  55.378 -10.396  1.00  0.00     0.090 A 
HETATM   17  C20 UNL     1       4.093  56.209  -9.884  1.00  0.00     0.120 A 
HETATM   18  N1  UNL     1       3.919  55.202 -10.843  1.00  0.00    -0.243 NA
HETATM   19  C21 UNL     1       3.157  54.049 -10.865  1.00  0.00     0.240 C 
HETATM   20  O4  UNL     1       3.501  53.109 -11.594  1.00  0.00    -0.277 OA
HETATM   21  C22 UNL     1       1.947  53.882  -9.845  1.00  0.00     0.245 C 
HETATM   22  C23 UNL     1       1.242  55.286  -9.595  1.00  0.00     0.145 C 
HETATM   23  C24 UNL     1       1.270  55.719  -8.181  1.00  0.00    -0.103 C 
HETATM   24  C25 UNL     1       1.288  55.758  -6.976  1.00  0.00    -0.092 C 
HETATM   25  C26 UNL     1       1.341  55.606  -5.481  1.00  0.00     0.067 C 
HETATM   26  C27 UNL     1       1.274  57.144  -4.962  1.00  0.00     0.034 C 
HETATM   27  C28 UNL     1       2.718  57.509  -4.500  1.00  0.00     0.027 C 
HETATM   28  C29 UNL     1       3.306  58.903  -4.582  1.00  0.00     0.013 C 
HETATM   29  C30 UNL     1       4.723  58.832  -3.937  1.00  0.00     0.043 C 
HETATM   30  C31 UNL     1       3.608  56.530  -5.278  1.00  0.00     0.096 C 
HETATM   31  C32 UNL     1       2.826  55.218  -4.958  1.00  0.00     0.013 C 
HETATM   32  C33 UNL     1       2.820  54.916  -3.407  1.00  0.00     0.020 C 
HETATM   33  C34 UNL     1       3.593  54.051  -5.580  1.00  0.00     0.016 C 
HETATM   34  C35 UNL     1       5.072  54.009  -5.079  1.00  0.00     0.029 C 
HETATM   35  C36 UNL     1       0.150  54.551  -5.025  1.00  0.00     0.102 C 
HETATM   36  C37 UNL     1      -0.694  55.149  -3.879  1.00  0.00     0.050 C 
HETATM   37  C38 UNL     1      -0.878  54.020  -6.151  1.00  0.00     0.183 C 
HETATM   38  C39 UNL     1      -0.241  53.182  -7.287  1.00  0.00     0.158 C 
HETATM   39  O8  UNL     1       0.359  51.918  -6.986  1.00  0.00    -0.373 OA
HETATM   40  C40 UNL     1       0.876  51.444  -8.284  1.00  0.00     0.185 C 
HETATM   41  C41 UNL     1       0.003  52.100  -9.380  1.00  0.00     0.028 C 
HETATM   42  C42 UNL     1       0.859  52.895 -10.420  1.00  0.00     0.060 C 
HETATM   43  C43 UNL     1      -1.020  52.930  -8.577  1.00  0.00     0.020 C 
HETATM   44  C44 UNL     1      -2.309  52.135  -8.357  1.00  0.00     0.013 C 
HETATM   45  C45 UNL     1       2.376  51.808  -8.510  1.00  0.00     0.385 C 
HETATM   46  N2  UNL     1       2.578  53.241  -8.651  1.00  0.00     0.134 N 
HETATM   47  H60 UNL     1       3.561  53.479  -8.607  1.00  0.00     0.321 HD
ENDROOT
BRANCH   1  48
HETATM   48  O2  UNL     1      11.170  56.701  -3.335  1.00  0.00    -0.386 OA
BRANCH  48  49
HETATM   49  C4  UNL     1      11.665  55.368  -3.447  1.00  0.00     0.170 C 
BRANCH  49  50
HETATM   50  C3  UNL     1      12.625  55.281  -4.626  1.00  0.00     0.052 C 
BRANCH  50  51
HETATM   51  C2  UNL     1      13.886  54.494  -4.286  1.00  0.00     0.169 C 
BRANCH  51  52
HETATM   52  O1  UNL     1      14.746  54.521  -5.426  1.00  0.00    -0.396 OA
HETATM   53  C1  UNL     1      14.305  53.621  -6.435  1.00  0.00     0.201 C 
ENDBRANCH  51  52
ENDBRANCH  50  51
ENDBRANCH  49  50
ENDBRANCH  48  49
ENDBRANCH   1  48
BRANCH  30  54
HETATM   54  O5  UNL     1       3.585  56.910  -6.653  1.00  0.00    -0.384 OA
HETATM   55  H35 UNL     1       4.241  57.610  -6.798  1.00  0.00     0.211 HD
ENDBRANCH  30  54
BRANCH  35  56
HETATM   56  O6  UNL     1       0.747  53.371  -4.445  1.00  0.00    -0.386 OA
HETATM   57  H46 UNL     1       0.596  52.615  -5.058  1.00  0.00     0.210 HD
ENDBRANCH  35  56
BRANCH  37  58
HETATM   58  O7  UNL     1      -1.907  53.204  -5.566  1.00  0.00    -0.390 OA
HETATM   59  H48 UNL     1      -2.492  53.776  -5.042  1.00  0.00     0.210 HD
ENDBRANCH  37  58
BRANCH  45  60
HETATM   60  O9  UNL     1       3.142  51.338  -7.419  1.00  0.00    -0.366 OA
HETATM   61  H59 UNL     1       4.021  51.736  -7.504  1.00  0.00     0.212 HD
ENDBRANCH  45  60
TORSDOF 9
ENDMDL
MODEL 7
REMARK minimizedAffinity -7.2743988
REMARK CNNscore 0.382216454
REMARK CNNaffinity 7.22916412
REMARK  9 active torsions:
REMARK  status: ('A' for Active; 'I' for Inactive)
REMARK    1  A    between atoms: O1_2  and  C2_3 
REMARK    2  A    between atoms: C2_3  and  C3_4 
REMARK    3  A    between atoms: C3_4  and  C4_5 
REMARK    4  A    between atoms: C4_5  and  O2_6 
REMARK    5  A    between atoms: O2_6  and  C5_7 
REMARK    6  A    between atoms: C31_36  and  O5_37 
REMARK    7  A    between atoms: C36_42  and  O6_44 
REMARK    8  A    between atoms: C38_45  and  O7_46 
REMARK    9  A    between atoms: C45_54  and  O9_55 
ROOT
HETATM    1  C5  UNL     1      -0.598  54.046  -8.899  1.00  0.00     0.122 C 
HETATM    2  C6  UNL     1      -1.012  52.709  -8.289  1.00  0.00     0.033 C 
HETATM    3  C7  UNL     1      -1.092  51.570  -9.309  1.00  0.00     0.014 C 
HETATM    4  C8  UNL     1      -1.969  51.883 -10.575  1.00  0.00    -0.010 C 
HETATM    5  C9  UNL     1      -3.435  52.077 -10.098  1.00  0.00     0.018 C 
HETATM    6  C10 UNL     1      -1.423  53.213 -11.177  1.00  0.00     0.073 C 
HETATM    7  C11 UNL     1      -1.414  54.365 -10.157  1.00  0.00     0.045 C 
HETATM    8  C12 UNL     1      -0.012  53.025 -11.754  1.00  0.00     0.161 C 
HETATM    9  O3  UNL     1       0.888  53.848 -11.609  1.00  0.00    -0.292 OA
HETATM   10  C13 UNL     1       0.228  51.843 -12.618  1.00  0.00    -0.005 C 
HETATM   11  C14 UNL     1      -0.724  50.891 -12.659  1.00  0.00    -0.013 C 
HETATM   12  C15 UNL     1      -1.908  50.702 -11.679  1.00  0.00     0.058 C 
HETATM   13  C16 UNL     1      -1.829  49.387 -10.932  1.00  0.00    -0.091 C 
HETATM   14  C17 UNL     1      -2.004  48.339 -10.361  1.00  0.00    -0.104 C 
HETATM   15  C18 UNL     1      -2.413  47.066  -9.725  1.00  0.00     0.115 C 
HETATM   16  C19 UNL     1      -1.357  46.042 -10.001  1.00  0.00     0.090 A 
HETATM   17  C20 UNL     1      -0.552  46.044 -11.294  1.00  0.00     0.120 A 
HETATM   18  N1  UNL     1      -1.460  45.020 -10.992  1.00  0.00    -0.243 NA
HETATM   19  C21 UNL     1      -2.590  44.548 -11.635  1.00  0.00     0.240 C 
HETATM   20  O4  UNL     1      -3.464  43.969 -10.977  1.00  0.00    -0.277 OA
HETATM   21  C22 UNL     1      -2.825  44.890 -13.171  1.00  0.00     0.245 C 
HETATM   22  C23 UNL     1      -1.435  44.924 -13.945  1.00  0.00     0.145 C 
HETATM   23  C24 UNL     1      -1.137  46.232 -14.570  1.00  0.00    -0.103 C 
HETATM   24  C25 UNL     1      -1.212  47.312 -15.100  1.00  0.00    -0.092 C 
HETATM   25  C26 UNL     1      -1.505  48.648 -15.725  1.00  0.00     0.067 C 
HETATM   26  C27 UNL     1      -0.021  49.221 -16.056  1.00  0.00     0.034 C 
HETATM   27  C28 UNL     1       0.267  50.319 -14.985  1.00  0.00     0.027 C 
HETATM   28  C29 UNL     1       1.649  50.642 -14.456  1.00  0.00     0.013 C 
HETATM   29  C30 UNL     1       1.487  51.849 -13.483  1.00  0.00     0.043 C 
HETATM   30  C31 UNL     1      -0.654  49.940 -13.818  1.00  0.00     0.096 C 
HETATM   31  C32 UNL     1      -1.973  49.748 -14.629  1.00  0.00     0.013 C 
HETATM   32  C33 UNL     1      -2.418  51.092 -15.329  1.00  0.00     0.020 C 
HETATM   33  C34 UNL     1      -3.092  49.433 -13.637  1.00  0.00     0.016 C 
HETATM   34  C35 UNL     1      -3.214  50.543 -12.544  1.00  0.00     0.029 C 
HETATM   35  C36 UNL     1      -2.572  48.415 -16.970  1.00  0.00     0.102 C 
HETATM   36  C37 UNL     1      -2.065  49.105 -18.254  1.00  0.00     0.050 C 
HETATM   37  C38 UNL     1      -2.972  46.901 -17.364  1.00  0.00     0.183 C 
HETATM   38  C39 UNL     1      -3.713  46.104 -16.263  1.00  0.00     0.158 C 
HETATM   39  O8  UNL     1      -5.013  46.523 -15.836  1.00  0.00    -0.373 OA
HETATM   40  C40 UNL     1      -5.374  45.562 -14.776  1.00  0.00     0.185 C 
HETATM   41  C41 UNL     1      -4.600  44.256 -15.074  1.00  0.00     0.028 C 
HETATM   42  C42 UNL     1      -3.729  43.796 -13.859  1.00  0.00     0.060 C 
HETATM   43  C43 UNL     1      -3.826  44.584 -16.369  1.00  0.00     0.020 C 
HETATM   44  C44 UNL     1      -4.610  44.122 -17.598  1.00  0.00     0.013 C 
HETATM   45  C45 UNL     1      -5.023  46.075 -13.346  1.00  0.00     0.385 C 
HETATM   46  N2  UNL     1      -3.589  46.175 -13.135  1.00  0.00     0.134 N 
HETATM   47  H60 UNL     1      -3.378  46.681 -12.283  1.00  0.00     0.321 HD
ENDROOT
BRANCH   1  48
HETATM   48  O2  UNL     1      -0.832  55.101  -7.959  1.00  0.00    -0.386 OA
BRANCH  48  49
HETATM   49  C4  UNL     1      -0.058  56.269  -8.224  1.00  0.00     0.170 C 
BRANCH  49  50
HETATM   50  C3  UNL     1       0.318  56.939  -6.910  1.00  0.00     0.052 C 
BRANCH  50  51
HETATM   51  C2  UNL     1       1.815  57.207  -6.807  1.00  0.00     0.169 C 
BRANCH  51  52
HETATM   52  O1  UNL     1       2.436  56.718  -7.997  1.00  0.00    -0.396 OA
HETATM   53  C1  UNL     1       3.850  56.649  -7.858  1.00  0.00     0.201 C 
ENDBRANCH  51  52
ENDBRANCH  50  51
ENDBRANCH  49  50
ENDBRANCH  48  49
ENDBRANCH   1  48
BRANCH  30  54
HETATM   54  O5  UNL     1      -0.146  48.746 -13.225  1.00  0.00    -0.384 OA
HETATM   55  H35 UNL     1       0.550  48.979 -12.591  1.00  0.00     0.211 HD
ENDBRANCH  30  54
BRANCH  35  56
HETATM   56  O6  UNL     1      -3.813  49.089 -16.672  1.00  0.00    -0.386 OA
HETATM   57  H46 UNL     1      -4.505  48.407 -16.512  1.00  0.00     0.210 HD
ENDBRANCH  35  56
BRANCH  37  58
HETATM   58  O7  UNL     1      -3.817  46.879 -18.528  1.00  0.00    -0.390 OA
HETATM   59  H48 UNL     1      -3.284  47.132 -19.299  1.00  0.00     0.210 HD
ENDBRANCH  37  58
BRANCH  45  60
HETATM   60  O9  UNL     1      -5.611  47.345 -13.145  1.00  0.00    -0.366 OA
HETATM   61  H59 UNL     1      -5.226  47.704 -12.333  1.00  0.00     0.212 HD
ENDBRANCH  45  60
TORSDOF 9
ENDMDL
MODEL 8
REMARK minimizedAffinity -7.41053057
REMARK CNNscore 0.367698967
REMARK CNNaffinity 7.41555548
REMARK  9 active torsions:
REMARK  status: ('A' for Active; 'I' for Inactive)
REMARK    1  A    between atoms: O1_2  and  C2_3 
REMARK    2  A    between atoms: C2_3  and  C3_4 
REMARK    3  A    between atoms: C3_4  and  C4_5 
REMARK    4  A    between atoms: C4_5  and  O2_6 
REMARK    5  A    between atoms: O2_6  and  C5_7 
REMARK    6  A    between atoms: C31_36  and  O5_37 
REMARK    7  A    between atoms: C36_42  and  O6_44 
REMARK    8  A    between atoms: C38_45  and  O7_46 
REMARK    9  A    between atoms: C45_54  and  O9_55 
ROOT
HETATM    1  C5  UNL     1      -1.206  50.674 -21.540  1.00  0.00     0.122 C 
HETATM    2  C6  UNL     1      -2.695  50.818 -21.841  1.00  0.00     0.033 C 
HETATM    3  C7  UNL     1      -3.590  49.997 -20.908  1.00  0.00     0.014 C 
HETATM    4  C8  UNL     1      -3.204  48.477 -20.799  1.00  0.00    -0.010 C 
HETATM    5  C9  UNL     1      -3.414  47.835 -22.199  1.00  0.00     0.018 C 
HETATM    6  C10 UNL     1      -1.696  48.428 -20.410  1.00  0.00     0.073 C 
HETATM    7  C11 UNL     1      -0.804  49.202 -21.396  1.00  0.00     0.045 C 
HETATM    8  C12 UNL     1      -1.472  48.959 -18.987  1.00  0.00     0.161 C 
HETATM    9  O3  UNL     1      -0.533  49.690 -18.683  1.00  0.00    -0.292 OA
HETATM   10  C13 UNL     1      -2.375  48.468 -17.917  1.00  0.00    -0.005 C 
HETATM   11  C14 UNL     1      -3.470  47.776 -18.286  1.00  0.00    -0.013 C 
HETATM   12  C15 UNL     1      -4.093  47.689 -19.702  1.00  0.00     0.058 C 
HETATM   13  C16 UNL     1      -5.491  48.270 -19.749  1.00  0.00    -0.091 C 
HETATM   14  C17 UNL     1      -6.648  48.553 -19.938  1.00  0.00    -0.104 C 
HETATM   15  C18 UNL     1      -8.081  48.722 -20.270  1.00  0.00     0.115 C 
HETATM   16  C19 UNL     1      -8.791  49.219 -19.050  1.00  0.00     0.090 A 
HETATM   17  C20 UNL     1      -8.358  48.816 -17.646  1.00  0.00     0.120 A 
HETATM   18  N1  UNL     1      -9.583  48.405 -18.186  1.00  0.00    -0.243 NA
HETATM   19  C21 UNL     1     -10.130  47.159 -18.432  1.00  0.00     0.240 C 
HETATM   20  O4  UNL     1     -10.997  47.038 -19.307  1.00  0.00    -0.277 OA
HETATM   21  C22 UNL     1      -9.530  45.877 -17.704  1.00  0.00     0.245 C 
HETATM   22  C23 UNL     1      -9.057  46.252 -16.232  1.00  0.00     0.145 C 
HETATM   23  C24 UNL     1      -7.615  46.017 -15.996  1.00  0.00    -0.103 C 
HETATM   24  C25 UNL     1      -6.486  45.595 -16.019  1.00  0.00    -0.092 C 
HETATM   25  C26 UNL     1      -5.137  44.959 -16.208  1.00  0.00     0.067 C 
HETATM   26  C27 UNL     1      -4.220  45.733 -15.112  1.00  0.00     0.034 C 
HETATM   27  C28 UNL     1      -3.334  46.733 -15.918  1.00  0.00     0.027 C 
HETATM   28  C29 UNL     1      -2.856  48.064 -15.377  1.00  0.00     0.013 C 
HETATM   29  C30 UNL     1      -1.935  48.688 -16.470  1.00  0.00     0.043 C 
HETATM   30  C31 UNL     1      -4.125  46.958 -17.213  1.00  0.00     0.096 C 
HETATM   31  C32 UNL     1      -4.407  45.464 -17.564  1.00  0.00     0.013 C 
HETATM   32  C33 UNL     1      -3.064  44.670 -17.815  1.00  0.00     0.020 C 
HETATM   33  C34 UNL     1      -5.139  45.427 -18.905  1.00  0.00     0.016 C 
HETATM   34  C35 UNL     1      -4.329  46.166 -20.018  1.00  0.00     0.029 C 
HETATM   35  C36 UNL     1      -5.316  43.317 -16.089  1.00  0.00     0.102 C 
HETATM   36  C37 UNL     1      -4.287  42.730 -15.101  1.00  0.00     0.050 C 
HETATM   37  C38 UNL     1      -6.764  42.732 -15.679  1.00  0.00     0.183 C 
HETATM   38  C39 UNL     1      -7.906  43.023 -16.683  1.00  0.00     0.158 C 
HETATM   39  O8  UNL     1      -7.855  42.462 -17.999  1.00  0.00    -0.373 OA
HETATM   40  C40 UNL     1      -9.068  42.979 -18.661  1.00  0.00     0.185 C 
HETATM   41  C41 UNL     1     -10.100  43.264 -17.543  1.00  0.00     0.028 C 
HETATM   42  C42 UNL     1     -10.617  44.740 -17.581  1.00  0.00     0.060 C 
HETATM   43  C43 UNL     1      -9.361  42.845 -16.255  1.00  0.00     0.020 C 
HETATM   44  C44 UNL     1      -9.707  41.402 -15.880  1.00  0.00     0.013 C 
HETATM   45  C45 UNL     1      -8.804  44.275 -19.486  1.00  0.00     0.385 C 
HETATM   46  N2  UNL     1      -8.463  45.406 -18.638  1.00  0.00     0.134 N 
HETATM   47  H60 UNL     1      -8.112  46.182 -19.186  1.00  0.00     0.321 HD
ENDROOT
BRANCH   1  48
HETATM   48  O2  UNL     1      -0.439  51.223 -22.618  1.00  0.00    -0.386 OA
BRANCH  48  49
HETATM   49  C4  UNL     1      -0.005  52.559 -22.373  1.00  0.00     0.170 C 
BRANCH  49  50
HETATM   50  C3  UNL     1       0.893  52.584 -21.144  1.00  0.00     0.052 C 
BRANCH  50  51
HETATM   51  C2  UNL     1       0.686  53.840 -20.304  1.00  0.00     0.169 C 
BRANCH  51  52
HETATM   52  O1  UNL     1      -0.062  53.479 -19.142  1.00  0.00    -0.396 OA
HETATM   53  C1  UNL     1       0.686  52.630 -18.281  1.00  0.00     0.201 C 
ENDBRANCH  51  52
ENDBRANCH  50  51
ENDBRANCH  49  50
ENDBRANCH  48  49
ENDBRANCH   1  48
BRANCH  30  54
HETATM   54  O5  UNL     1      -5.289  47.718 -16.892  1.00  0.00    -0.384 OA
HETATM   55  H35 UNL     1      -5.057  48.660 -16.878  1.00  0.00     0.211 HD
ENDBRANCH  30  54
BRANCH  35  56
HETATM   56  O6  UNL     1      -4.984  42.704 -17.353  1.00  0.00    -0.386 OA
HETATM   57  H46 UNL     1      -5.810  42.341 -17.747  1.00  0.00     0.210 HD
ENDBRANCH  35  56
BRANCH  37  58
HETATM   58  O7  UNL     1      -6.715  41.303 -15.516  1.00  0.00    -0.390 OA
HETATM   59  H48 UNL     1      -6.204  41.103 -14.715  1.00  0.00     0.210 HD
ENDBRANCH  37  58
BRANCH  45  60
HETATM   60  O9  UNL     1      -7.749  44.045 -20.398  1.00  0.00    -0.366 OA
HETATM   61  H59 UNL     1      -7.496  44.908 -20.755  1.00  0.00     0.212 HD
ENDBRANCH  45  60
TORSDOF 9
ENDMDL
MODEL 9
REMARK minimizedAffinity -7.89094496
REMARK CNNscore 0.327396363
REMARK CNNaffinity 6.62460947
REMARK  9 active torsions:
REMARK  status: ('A' for Active; 'I' for Inactive)
REMARK    1  A    between atoms: O1_2  and  C2_3 
REMARK    2  A    between atoms: C2_3  and  C3_4 
REMARK    3  A    between atoms: C3_4  and  C4_5 
REMARK    4  A    between atoms: C4_5  and  O2_6 
REMARK    5  A    between atoms: O2_6  and  C5_7 
REMARK    6  A    between atoms: C31_36  and  O5_37 
REMARK    7  A    between atoms: C36_42  and  O6_44 
REMARK    8  A    between atoms: C38_45  and  O7_46 
REMARK    9  A    between atoms: C45_54  and  O9_55 
ROOT
HETATM    1  C5  UNL     1      -3.433  47.709 -19.266  1.00  0.00     0.122 C 
HETATM    2  C6  UNL     1      -4.406  47.901 -18.106  1.00  0.00     0.033 C 
HETATM    3  C7  UNL     1      -5.812  47.364 -18.391  1.00  0.00     0.014 C 
HETATM    4  C8  UNL     1      -6.454  47.883 -19.728  1.00  0.00    -0.010 C 
HETATM    5  C9  UNL     1      -6.648  49.419 -19.594  1.00  0.00     0.018 C 
HETATM    6  C10 UNL     1      -5.432  47.571 -20.863  1.00  0.00     0.073 C 
HETATM    7  C11 UNL     1      -4.043  48.177 -20.592  1.00  0.00     0.045 C 
HETATM    8  C12 UNL     1      -5.298  46.059 -21.091  1.00  0.00     0.161 C 
HETATM    9  O3  UNL     1      -4.222  45.502 -21.290  1.00  0.00    -0.292 OA
HETATM   10  C13 UNL     1      -6.547  45.263 -21.185  1.00  0.00    -0.005 C 
HETATM   11  C14 UNL     1      -7.702  45.862 -20.838  1.00  0.00    -0.013 C 
HETATM   12  C15 UNL     1      -7.876  47.182 -20.047  1.00  0.00     0.058 C 
HETATM   13  C16 UNL     1      -8.582  46.967 -18.724  1.00  0.00    -0.091 C 
HETATM   14  C17 UNL     1      -9.247  47.008 -17.718  1.00  0.00    -0.104 C 
HETATM   15  C18 UNL     1     -10.154  47.220 -16.568  1.00  0.00     0.115 C 
HETATM   16  C19 UNL     1     -10.702  45.891 -16.150  1.00  0.00     0.090 A 
HETATM   17  C20 UNL     1     -10.963  44.776 -17.154  1.00  0.00     0.120 A 
HETATM   18  N1  UNL     1     -12.008  45.416 -16.474  1.00  0.00    -0.243 NA
HETATM   19  C21 UNL     1     -13.108  46.134 -16.906  1.00  0.00     0.240 C 
HETATM   20  O4  UNL     1     -13.622  46.969 -16.150  1.00  0.00    -0.277 OA
HETATM   21  C22 UNL     1     -13.600  45.994 -18.413  1.00  0.00     0.245 C 
HETATM   22  C23 UNL     1     -13.382  44.504 -18.926  1.00  0.00     0.145 C 
HETATM   23  C24 UNL     1     -12.483  44.406 -20.097  1.00  0.00    -0.103 C 
HETATM   24  C25 UNL     1     -11.870  44.616 -21.113  1.00  0.00    -0.092 C 
HETATM   25  C26 UNL     1     -11.176  45.067 -22.369  1.00  0.00     0.067 C 
HETATM   26  C27 UNL     1     -10.288  43.768 -22.773  1.00  0.00     0.034 C 
HETATM   27  C28 UNL     1      -8.814  44.117 -22.399  1.00  0.00     0.027 C 
HETATM   28  C29 UNL     1      -7.788  43.094 -21.958  1.00  0.00     0.013 C 
HETATM   29  C30 UNL     1      -6.441  43.858 -21.776  1.00  0.00     0.043 C 
HETATM   30  C31 UNL     1      -8.958  45.198 -21.321  1.00  0.00     0.096 C 
HETATM   31  C32 UNL     1      -9.979  46.117 -22.062  1.00  0.00     0.013 C 
HETATM   32  C33 UNL     1      -9.369  46.689 -23.403  1.00  0.00     0.020 C 
HETATM   33  C34 UNL     1     -10.225  47.347 -21.188  1.00  0.00     0.016 C 
HETATM   34  C35 UNL     1      -8.888  48.081 -20.849  1.00  0.00     0.029 C 
HETATM   35  C36 UNL     1     -12.324  45.617 -23.428  1.00  0.00     0.102 C 
HETATM   36  C37 UNL     1     -12.138  44.967 -24.814  1.00  0.00     0.050 C 
HETATM   37  C38 UNL     1     -13.879  45.454 -23.025  1.00  0.00     0.183 C 
HETATM   38  C39 UNL     1     -14.323  46.236 -21.765  1.00  0.00     0.158 C 
HETATM   39  O8  UNL     1     -14.292  47.667 -21.770  1.00  0.00    -0.373 OA
HETATM   40  C40 UNL     1     -14.742  48.045 -20.417  1.00  0.00     0.185 C 
HETATM   41  C41 UNL     1     -15.636  46.890 -19.905  1.00  0.00     0.028 C 
HETATM   42  C42 UNL     1     -15.138  46.322 -18.535  1.00  0.00     0.060 C 
HETATM   43  C43 UNL     1     -15.646  45.893 -21.082  1.00  0.00     0.020 C 
HETATM   44  C44 UNL     1     -16.865  46.125 -21.977  1.00  0.00     0.013 C 
HETATM   45  C45 UNL     1     -13.560  48.282 -19.428  1.00  0.00     0.385 C 
HETATM   46  N2  UNL     1     -12.835  47.057 -19.135  1.00  0.00     0.134 N 
HETATM   47  H60 UNL     1     -11.967  47.250 -18.650  1.00  0.00     0.321 HD
ENDROOT
BRANCH   1  48
HETATM   48  O2  UNL     1      -2.252  48.487 -19.041  1.00  0.00    -0.386 OA
BRANCH  48  49
HETATM   49  C4  UNL     1      -1.285  48.349 -20.081  1.00  0.00     0.170 C 
BRANCH  49  50
HETATM   50  C3  UNL     1      -0.554  49.671 -20.274  1.00  0.00     0.052 C 
BRANCH  50  51
HETATM   51  C2  UNL     1      -0.815  50.279 -21.647  1.00  0.00     0.169 C 
BRANCH  51  52
HETATM   52  O1  UNL     1       0.071  51.386 -21.818  1.00  0.00    -0.396 OA
HETATM   53  C1  UNL     1      -0.330  52.215 -22.902  1.00  0.00     0.201 C 
ENDBRANCH  51  52
ENDBRANCH  50  51
ENDBRANCH  49  50
ENDBRANCH  48  49
ENDBRANCH   1  48
BRANCH  30  54
HETATM   54  O5  UNL     1      -9.470  44.579 -20.142  1.00  0.00    -0.384 OA
HETATM   55  H35 UNL     1      -8.734  44.191 -19.644  1.00  0.00     0.211 HD
ENDBRANCH  30  54
BRANCH  35  56
HETATM   56  O6  UNL     1     -12.122  47.026 -23.667  1.00  0.00    -0.386 OA
HETATM   57  H46 UNL     1     -12.870  47.520 -23.259  1.00  0.00     0.210 HD
ENDBRANCH  35  56
BRANCH  37  58
HETATM   58  O7  UNL     1     -14.736  45.882 -24.099  1.00  0.00    -0.390 OA
HETATM   59  H48 UNL     1     -14.667  45.237 -24.822  1.00  0.00     0.210 HD
ENDBRANCH  37  58
BRANCH  45  60
HETATM   60  O9  UNL     1     -12.666  49.227 -19.983  1.00  0.00    -0.366 OA
HETATM   61  H59 UNL     1     -11.868  49.210 -19.435  1.00  0.00     0.212 HD
ENDBRANCH  45  60
TORSDOF 9
ENDMDL
