MODEL 1
REMARK minimizedAffinity -7.63124895
REMARK CNNscore 0.871502757
REMARK CNNaffinity 6.96472979
REMARK  9 active torsions:
REMARK  status: ('A' for Active; 'I' for Inactive)
REMARK    1  A    between atoms: C2_2  and  C30_35 
REMARK    2  A    between atoms: C3_3  and  C4_4 
REMARK    3  A    between atoms: C4_4  and  O1_5 
REMARK    4  A    between atoms: C4_4  and  C5_6 
REMARK    5  A    between atoms: C5_6  and  C6_7 
REMARK    6  A    between atoms: C6_7  and  C8_9 
REMARK    7  A    between atoms: C10_11  and  O2_12 
REMARK    8  A    between atoms: C29_33  and  O5_34 
REMARK    9  A    between atoms: C30_35  and  O7_37 
ROOT
HETATM    1  C8  UNL     1      -1.920  52.338 -11.144  1.00  0.00     0.001 C 
HETATM    2  C9  UNL     1      -1.071  52.427 -12.444  1.00  0.00     0.038 C 
HETATM    3  C10 UNL     1       0.215  53.197 -12.082  1.00  0.00     0.132 C 
HETATM    4  C11 UNL     1       0.289  53.121 -10.533  1.00  0.00     0.017 C 
HETATM    5  C12 UNL     1       0.868  51.723 -10.133  1.00  0.00     0.023 C 
HETATM    6  C13 UNL     1       1.129  54.144  -9.759  1.00  0.00    -0.029 C 
HETATM    7  C14 UNL     1       0.888  54.386  -8.442  1.00  0.00     0.002 C 
HETATM    8  C15 UNL     1      -0.351  53.753  -7.814  1.00  0.00     0.157 C 
HETATM    9  O3  UNL     1      -0.547  53.812  -6.602  1.00  0.00    -0.293 OA
HETATM   10  C16 UNL     1      -1.389  53.042  -8.680  1.00  0.00     0.094 C 
HETATM   11  C17 UNL     1      -1.223  53.338 -10.169  1.00  0.00    -0.019 C 
HETATM   12  C18 UNL     1      -1.715  54.791 -10.429  1.00  0.00     0.017 C 
HETATM   13  C19 UNL     1       1.773  55.333  -7.579  1.00  0.00    -0.008 C 
HETATM   14  C20 UNL     1       0.967  56.646  -7.461  1.00  0.00     0.021 C 
HETATM   15  C21 UNL     1       2.075  54.773  -6.160  1.00  0.00     0.022 C 
HETATM   16  C22 UNL     1       3.052  55.616  -5.351  1.00  0.00     0.080 C 
HETATM   17  C23 UNL     1       4.356  55.805  -6.078  1.00  0.00     0.135 C 
HETATM   18  O4  UNL     1       5.423  55.649  -5.479  1.00  0.00    -0.297 OA
HETATM   19  C24 UNL     1       4.293  56.293  -7.532  1.00  0.00     0.018 C 
HETATM   20  C25 UNL     1       4.117  57.818  -7.527  1.00  0.00     0.023 C 
HETATM   21  C26 UNL     1       5.672  55.998  -8.179  1.00  0.00     0.023 C 
HETATM   22  C27 UNL     1       3.181  55.487  -8.288  1.00  0.00     0.016 C 
HETATM   23  C28 UNL     1       2.994  55.915  -9.754  1.00  0.00     0.043 C 
HETATM   24  C29 UNL     1       2.205  54.863 -10.534  1.00  0.00     0.149 C 
ENDROOT
BRANCH   1  25
HETATM   25  C6  UNL     1      -3.460  52.329 -11.393  1.00  0.00    -0.011 C 
HETATM   26  C7  UNL     1      -4.243  53.536 -10.864  1.00  0.00     0.010 C 
BRANCH  25  27
HETATM   27  C5  UNL     1      -4.091  50.990 -10.933  1.00  0.00     0.040 C 
BRANCH  27  28
HETATM   28  C4  UNL     1      -3.780  49.793 -11.846  1.00  0.00     0.142 C 
BRANCH  28  29
HETATM   29  C3  UNL     1      -4.842  48.730 -11.731  1.00  0.00     0.018 C 
HETATM   30  C2  UNL     1      -5.961  48.719 -10.973  1.00  0.00     0.010 C 
HETATM   31  C1  UNL     1      -6.360  49.782  -9.991  1.00  0.00     0.055 C 
BRANCH  30  32
HETATM   32  C30 UNL     1      -6.908  47.575 -11.046  1.00  0.00     0.171 C 
HETATM   33  O6  UNL     1      -6.663  46.486 -11.537  1.00  0.00    -0.646 OA
BRANCH  32  34
HETATM   34  O7  UNL     1      -8.116  47.829 -10.514  1.00  0.00    -0.773 OA
HETATM   35  H44 UNL     1      -8.605  46.992 -10.653  1.00  0.00     0.167 HD
ENDBRANCH  32  34
ENDBRANCH  30  32
ENDBRANCH  28  29
BRANCH  28  36
HETATM   36  O1  UNL     1      -3.647  50.210 -13.196  1.00  0.00    -0.392 OA
HETATM   37  H6  UNL     1      -3.471  49.410 -13.722  1.00  0.00     0.210 HD
ENDBRANCH  28  36
ENDBRANCH  27  28
ENDBRANCH  25  27
ENDBRANCH   1  25
BRANCH   3  38
HETATM   38  O2  UNL     1       1.326  52.615 -12.746  1.00  0.00    -0.394 OA
HETATM   39  H17 UNL     1       2.134  53.024 -12.366  1.00  0.00     0.210 HD
ENDBRANCH   3  38
BRANCH  24  40
HETATM   40  O5  UNL     1       3.097  53.887 -11.064  1.00  0.00    -0.391 OA
HETATM   41  H43 UNL     1       3.588  53.496 -10.317  1.00  0.00     0.210 HD
ENDBRANCH  24  40
TORSDOF 9
ENDMDL
MODEL 2
REMARK minimizedAffinity -7.94282913
REMARK CNNscore 0.850163758
REMARK CNNaffinity 6.58965826
REMARK  9 active torsions:
REMARK  status: ('A' for Active; 'I' for Inactive)
REMARK    1  A    between atoms: C2_2  and  C30_35 
REMARK    2  A    between atoms: C3_3  and  C4_4 
REMARK    3  A    between atoms: C4_4  and  O1_5 
REMARK    4  A    between atoms: C4_4  and  C5_6 
REMARK    5  A    between atoms: C5_6  and  C6_7 
REMARK    6  A    between atoms: C6_7  and  C8_9 
REMARK    7  A    between atoms: C10_11  and  O2_12 
REMARK    8  A    between atoms: C29_33  and  O5_34 
REMARK    9  A    between atoms: C30_35  and  O7_37 
ROOT
HETATM    1  C8  UNL     1       4.191  56.535  -7.628  1.00  0.00     0.001 C 
HETATM    2  C9  UNL     1       5.212  55.609  -8.349  1.00  0.00     0.038 C 
HETATM    3  C10 UNL     1       4.389  54.575  -9.144  1.00  0.00     0.132 C 
HETATM    4  C11 UNL     1       2.970  55.198  -9.238  1.00  0.00     0.017 C 
HETATM    5  C12 UNL     1       2.972  56.261 -10.388  1.00  0.00     0.023 C 
HETATM    6  C13 UNL     1       1.760  54.300  -9.518  1.00  0.00    -0.029 C 
HETATM    7  C14 UNL     1       0.503  54.704  -9.188  1.00  0.00     0.002 C 
HETATM    8  C15 UNL     1       0.357  55.984  -8.370  1.00  0.00     0.157 C 
HETATM    9  O3  UNL     1      -0.749  56.481  -8.163  1.00  0.00    -0.293 OA
HETATM   10  C16 UNL     1       1.581  56.674  -7.772  1.00  0.00     0.094 C 
HETATM   11  C17 UNL     1       2.828  55.791  -7.791  1.00  0.00    -0.019 C 
HETATM   12  C18 UNL     1       2.663  54.701  -6.694  1.00  0.00     0.017 C 
HETATM   13  C19 UNL     1      -0.771  53.883  -9.543  1.00  0.00    -0.008 C 
HETATM   14  C20 UNL     1      -1.182  53.183  -8.228  1.00  0.00     0.021 C 
HETATM   15  C21 UNL     1      -1.947  54.760 -10.061  1.00  0.00     0.022 C 
HETATM   16  C22 UNL     1      -3.152  53.966 -10.545  1.00  0.00     0.080 C 
HETATM   17  C23 UNL     1      -2.775  52.986 -11.624  1.00  0.00     0.135 C 
HETATM   18  O4  UNL     1      -3.465  52.898 -12.643  1.00  0.00    -0.297 OA
HETATM   19  C24 UNL     1      -1.585  52.056 -11.352  1.00  0.00     0.018 C 
HETATM   20  C25 UNL     1      -2.076  50.875 -10.502  1.00  0.00     0.023 C 
HETATM   21  C26 UNL     1      -1.131  51.474 -12.717  1.00  0.00     0.023 C 
HETATM   22  C27 UNL     1      -0.417  52.896 -10.730  1.00  0.00     0.016 C 
HETATM   23  C28 UNL     1       0.827  52.062 -10.376  1.00  0.00     0.043 C 
HETATM   24  C29 UNL     1       2.043  52.961 -10.153  1.00  0.00     0.149 C 
ENDROOT
BRANCH   1  25
HETATM   25  C6  UNL     1       4.697  57.091  -6.261  1.00  0.00    -0.011 C 
HETATM   26  C7  UNL     1       3.783  58.099  -5.555  1.00  0.00     0.010 C 
BRANCH  25  27
HETATM   27  C5  UNL     1       6.150  57.619  -6.378  1.00  0.00     0.040 C 
BRANCH  27  28
HETATM   28  C4  UNL     1       6.844  57.877  -5.032  1.00  0.00     0.142 C 
BRANCH  28  29
HETATM   29  C3  UNL     1       8.244  57.320  -5.025  1.00  0.00     0.018 C 
HETATM   30  C2  UNL     1       9.425  57.976  -5.012  1.00  0.00     0.010 C 
HETATM   31  C1  UNL     1       9.595  59.467  -5.075  1.00  0.00     0.055 C 
BRANCH  30  32
HETATM   32  C30 UNL     1      10.705  57.222  -4.960  1.00  0.00     0.171 C 
HETATM   33  O6  UNL     1      11.683  57.534  -4.302  1.00  0.00    -0.646 OA
BRANCH  32  34
HETATM   34  O7  UNL     1      10.722  56.118  -5.727  1.00  0.00    -0.773 OA
HETATM   35  H44 UNL     1      11.621  55.758  -5.585  1.00  0.00     0.167 HD
ENDBRANCH  32  34
ENDBRANCH  30  32
ENDBRANCH  28  29
BRANCH  28  36
HETATM   36  O1  UNL     1       6.866  59.264  -4.735  1.00  0.00    -0.392 OA
HETATM   37  H6  UNL     1       7.332  59.364  -3.886  1.00  0.00     0.210 HD
ENDBRANCH  28  36
ENDBRANCH  27  28
ENDBRANCH  25  27
ENDBRANCH   1  25
BRANCH   3  38
HETATM   38  O2  UNL     1       5.003  54.336 -10.400  1.00  0.00    -0.394 OA
HETATM   39  H17 UNL     1       4.371  53.807 -10.933  1.00  0.00     0.210 HD
ENDBRANCH   3  38
BRANCH  24  40
HETATM   40  O5  UNL     1       2.705  53.190 -11.394  1.00  0.00    -0.391 OA
HETATM   41  H43 UNL     1       2.061  53.591 -12.005  1.00  0.00     0.210 HD
ENDBRANCH  24  40
TORSDOF 9
ENDMDL
MODEL 3
REMARK minimizedAffinity -7.77854586
REMARK CNNscore 0.842840493
REMARK CNNaffinity 6.44351244
REMARK  9 active torsions:
REMARK  status: ('A' for Active; 'I' for Inactive)
REMARK    1  A    between atoms: C2_2  and  C30_35 
REMARK    2  A    between atoms: C3_3  and  C4_4 
REMARK    3  A    between atoms: C4_4  and  O1_5 
REMARK    4  A    between atoms: C4_4  and  C5_6 
REMARK    5  A    between atoms: C5_6  and  C6_7 
REMARK    6  A    between atoms: C6_7  and  C8_9 
REMARK    7  A    between atoms: C10_11  and  O2_12 
REMARK    8  A    between atoms: C29_33  and  O5_34 
REMARK    9  A    between atoms: C30_35  and  O7_37 
ROOT
HETATM    1  C8  UNL     1     -12.905  45.641 -27.661  1.00  0.00     0.001 C 
HETATM    2  C9  UNL     1     -13.191  44.358 -28.493  1.00  0.00     0.038 C 
HETATM    3  C10 UNL     1     -12.053  44.238 -29.527  1.00  0.00     0.132 C 
HETATM    4  C11 UNL     1     -10.929  45.156 -28.975  1.00  0.00     0.017 C 
HETATM    5  C12 UNL     1     -10.159  44.377 -27.856  1.00  0.00     0.023 C 
HETATM    6  C13 UNL     1      -9.844  45.685 -29.921  1.00  0.00    -0.029 C 
HETATM    7  C14 UNL     1      -9.125  46.795 -29.601  1.00  0.00     0.002 C 
HETATM    8  C15 UNL     1      -9.554  47.595 -28.374  1.00  0.00     0.157 C 
HETATM    9  O3  UNL     1      -8.865  48.520 -27.948  1.00  0.00    -0.293 OA
HETATM   10  C16 UNL     1     -10.862  47.277 -27.652  1.00  0.00     0.094 C 
HETATM   11  C17 UNL     1     -11.784  46.370 -28.466  1.00  0.00    -0.019 C 
HETATM   12  C18 UNL     1     -12.397  47.216 -29.619  1.00  0.00     0.017 C 
HETATM   13  C19 UNL     1      -7.942  47.317 -30.468  1.00  0.00    -0.008 C 
HETATM   14  C20 UNL     1      -8.515  48.516 -31.256  1.00  0.00     0.021 C 
HETATM   15  C21 UNL     1      -6.716  47.777 -29.629  1.00  0.00     0.022 C 
HETATM   16  C22 UNL     1      -5.499  48.158 -30.460  1.00  0.00     0.080 C 
HETATM   17  C23 UNL     1      -5.066  47.033 -31.361  1.00  0.00     0.135 C 
HETATM   18  O4  UNL     1      -3.873  46.727 -31.434  1.00  0.00    -0.297 OA
HETATM   19  C24 UNL     1      -6.139  46.377 -32.241  1.00  0.00     0.018 C 
HETATM   20  C25 UNL     1      -6.345  47.248 -33.488  1.00  0.00     0.023 C 
HETATM   21  C26 UNL     1      -5.571  45.017 -32.726  1.00  0.00     0.023 C 
HETATM   22  C27 UNL     1      -7.420  46.125 -31.373  1.00  0.00     0.016 C 
HETATM   23  C28 UNL     1      -8.588  45.502 -32.157  1.00  0.00     0.043 C 
HETATM   24  C29 UNL     1      -9.639  44.926 -31.208  1.00  0.00     0.149 C 
ENDROOT
BRANCH   1  25
HETATM   25  C6  UNL     1     -14.190  46.363 -27.150  1.00  0.00    -0.011 C 
HETATM   26  C7  UNL     1     -14.152  46.884 -25.709  1.00  0.00     0.010 C 
BRANCH  25  27
HETATM   27  C5  UNL     1     -15.453  45.505 -27.417  1.00  0.00     0.040 C 
BRANCH  27  28
HETATM   28  C4  UNL     1     -15.997  44.770 -26.181  1.00  0.00     0.142 C 
BRANCH  28  29
HETATM   29  C3  UNL     1     -17.375  45.259 -25.819  1.00  0.00     0.018 C 
HETATM   30  C2  UNL     1     -17.849  45.670 -24.622  1.00  0.00     0.010 C 
HETATM   31  C1  UNL     1     -17.084  45.657 -23.330  1.00  0.00     0.055 C 
BRANCH  30  32
HETATM   32  C30 UNL     1     -19.247  46.161 -24.494  1.00  0.00     0.171 C 
HETATM   33  O6  UNL     1     -19.714  47.122 -25.083  1.00  0.00    -0.646 OA
BRANCH  32  34
HETATM   34  O7  UNL     1     -20.003  45.446 -23.644  1.00  0.00    -0.773 OA
HETATM   35  H44 UNL     1     -20.869  45.903 -23.672  1.00  0.00     0.167 HD
ENDBRANCH  32  34
ENDBRANCH  30  32
ENDBRANCH  28  29
BRANCH  28  36
HETATM   36  O1  UNL     1     -16.014  43.368 -26.396  1.00  0.00    -0.392 OA
HETATM   37  H6  UNL     1     -16.383  42.963 -25.592  1.00  0.00     0.210 HD
ENDBRANCH  28  36
ENDBRANCH  27  28
ENDBRANCH  25  27
ENDBRANCH   1  25
BRANCH   3  38
HETATM   38  O2  UNL     1     -11.675  42.877 -29.668  1.00  0.00    -0.394 OA
HETATM   39  H17 UNL     1     -10.851  42.862 -30.202  1.00  0.00     0.210 HD
ENDBRANCH   3  38
BRANCH  24  40
HETATM   40  O5  UNL     1      -9.305  43.580 -30.881  1.00  0.00    -0.391 OA
HETATM   41  H43 UNL     1      -8.415  43.583 -30.483  1.00  0.00     0.210 HD
ENDBRANCH  24  40
TORSDOF 9
ENDMDL
MODEL 4
REMARK minimizedAffinity -7.38089466
REMARK CNNscore 0.738981605
REMARK CNNaffinity 6.63777924
REMARK  9 active torsions:
REMARK  status: ('A' for Active; 'I' for Inactive)
REMARK    1  A    between atoms: C2_2  and  C30_35 
REMARK    2  A    between atoms: C3_3  and  C4_4 
REMARK    3  A    between atoms: C4_4  and  O1_5 
REMARK    4  A    between atoms: C4_4  and  C5_6 
REMARK    5  A    between atoms: C5_6  and  C6_7 
REMARK    6  A    between atoms: C6_7  and  C8_9 
REMARK    7  A    between atoms: C10_11  and  O2_12 
REMARK    8  A    between atoms: C29_33  and  O5_34 
REMARK    9  A    between atoms: C30_35  and  O7_37 
ROOT
HETATM    1  C8  UNL     1     -10.070  47.143 -18.926  1.00  0.00     0.001 C 
HETATM    2  C9  UNL     1      -9.620  46.640 -17.525  1.00  0.00     0.038 C 
HETATM    3  C10 UNL     1      -8.089  46.814 -17.462  1.00  0.00     0.132 C 
HETATM    4  C11 UNL     1      -7.765  47.815 -18.603  1.00  0.00     0.017 C 
HETATM    5  C12 UNL     1      -8.072  49.263 -18.093  1.00  0.00     0.023 C 
HETATM    6  C13 UNL     1      -6.346  47.880 -19.180  1.00  0.00    -0.029 C 
HETATM    7  C14 UNL     1      -6.123  48.397 -20.419  1.00  0.00     0.002 C 
HETATM    8  C15 UNL     1      -7.335  48.733 -21.282  1.00  0.00     0.157 C 
HETATM    9  O3  UNL     1      -7.208  49.334 -22.347  1.00  0.00    -0.293 OA
HETATM   10  C16 UNL     1      -8.740  48.317 -20.851  1.00  0.00     0.094 C 
HETATM   11  C17 UNL     1      -8.735  47.289 -19.721  1.00  0.00    -0.019 C 
HETATM   12  C18 UNL     1      -8.299  45.919 -20.317  1.00  0.00     0.017 C 
HETATM   13  C19 UNL     1      -4.695  48.587 -21.012  1.00  0.00    -0.008 C 
HETATM   14  C20 UNL     1      -4.511  47.417 -22.005  1.00  0.00     0.021 C 
HETATM   15  C21 UNL     1      -4.510  49.941 -21.755  1.00  0.00     0.022 C 
HETATM   16  C22 UNL     1      -3.086  50.207 -22.221  1.00  0.00     0.080 C 
HETATM   17  C23 UNL     1      -2.107  50.150 -21.078  1.00  0.00     0.135 C 
HETATM   18  O4  UNL     1      -1.253  51.032 -20.956  1.00  0.00    -0.297 OA
HETATM   19  C24 UNL     1      -2.157  48.920 -20.162  1.00  0.00     0.018 C 
HETATM   20  C25 UNL     1      -1.380  47.780 -20.836  1.00  0.00     0.023 C 
HETATM   21  C26 UNL     1      -1.395  49.281 -18.860  1.00  0.00     0.023 C 
HETATM   22  C27 UNL     1      -3.655  48.606 -19.818  1.00  0.00     0.016 C 
HETATM   23  C28 UNL     1      -3.839  47.362 -18.932  1.00  0.00     0.043 C 
HETATM   24  C29 UNL     1      -5.238  47.333 -18.315  1.00  0.00     0.149 C 
ENDROOT
BRANCH   1  25
HETATM   25  C6  UNL     1     -11.320  46.402 -19.494  1.00  0.00    -0.011 C 
HETATM   26  C7  UNL     1     -12.042  47.080 -20.664  1.00  0.00     0.010 C 
BRANCH  25  27
HETATM   27  C5  UNL     1     -12.302  46.018 -18.358  1.00  0.00     0.040 C 
BRANCH  27  28
HETATM   28  C4  UNL     1     -13.250  47.148 -17.926  1.00  0.00     0.142 C 
BRANCH  28  29
HETATM   29  C3  UNL     1     -14.659  46.884 -18.390  1.00  0.00     0.018 C 
HETATM   30  C2  UNL     1     -15.694  47.744 -18.514  1.00  0.00     0.010 C 
HETATM   31  C1  UNL     1     -15.671  49.196 -18.131  1.00  0.00     0.055 C 
BRANCH  30  32
HETATM   32  C30 UNL     1     -17.004  47.276 -19.040  1.00  0.00     0.171 C 
HETATM   33  O6  UNL     1     -18.036  47.926 -19.044  1.00  0.00    -0.646 OA
BRANCH  32  34
HETATM   34  O7  UNL     1     -16.981  46.026 -19.533  1.00  0.00    -0.773 OA
HETATM   35  H44 UNL     1     -17.905  45.879 -19.820  1.00  0.00     0.167 HD
ENDBRANCH  32  34
ENDBRANCH  30  32
ENDBRANCH  28  29
BRANCH  28  36
HETATM   36  O1  UNL     1     -13.221  47.321 -16.518  1.00  0.00    -0.392 OA
HETATM   37  H6  UNL     1     -13.850  48.032 -16.308  1.00  0.00     0.210 HD
ENDBRANCH  28  36
ENDBRANCH  27  28
ENDBRANCH  25  27
ENDBRANCH   1  25
BRANCH   3  38
HETATM   38  O2  UNL     1      -7.710  47.262 -16.171  1.00  0.00    -0.394 OA
HETATM   39  H17 UNL     1      -6.762  47.515 -16.221  1.00  0.00     0.210 HD
ENDBRANCH   3  38
BRANCH  24  40
HETATM   40  O5  UNL     1      -5.237  48.055 -17.086  1.00  0.00    -0.391 OA
HETATM   41  H43 UNL     1      -4.940  48.963 -17.275  1.00  0.00     0.210 HD
ENDBRANCH  24  40
TORSDOF 9
ENDMDL
MODEL 5
REMARK minimizedAffinity -8.25439739
REMARK CNNscore 0.662252128
REMARK CNNaffinity 6.38500452
REMARK  9 active torsions:
REMARK  status: ('A' for Active; 'I' for Inactive)
REMARK    1  A    between atoms: C2_2  and  C30_35 
REMARK    2  A    between atoms: C3_3  and  C4_4 
REMARK    3  A    between atoms: C4_4  and  O1_5 
REMARK    4  A    between atoms: C4_4  and  C5_6 
REMARK    5  A    between atoms: C5_6  and  C6_7 
REMARK    6  A    between atoms: C6_7  and  C8_9 
REMARK    7  A    between atoms: C10_11  and  O2_12 
REMARK    8  A    between atoms: C29_33  and  O5_34 
REMARK    9  A    between atoms: C30_35  and  O7_37 
ROOT
HETATM    1  C8  UNL     1     -13.487  46.401 -27.162  1.00  0.00     0.001 C 
HETATM    2  C9  UNL     1     -12.869  47.431 -26.175  1.00  0.00     0.038 C 
HETATM    3  C10 UNL     1     -11.454  47.753 -26.698  1.00  0.00     0.132 C 
HETATM    4  C11 UNL     1     -11.471  47.281 -28.177  1.00  0.00     0.017 C 
HETATM    5  C12 UNL     1     -12.173  48.382 -29.040  1.00  0.00     0.023 C 
HETATM    6  C13 UNL     1     -10.150  46.982 -28.896  1.00  0.00    -0.029 C 
HETATM    7  C14 UNL     1     -10.124  46.180 -29.995  1.00  0.00     0.002 C 
HETATM    8  C15 UNL     1     -11.407  45.445 -30.375  1.00  0.00     0.157 C 
HETATM    9  O3  UNL     1     -11.492  44.823 -31.431  1.00  0.00    -0.293 OA
HETATM   10  C16 UNL     1     -12.615  45.450 -29.440  1.00  0.00     0.094 C 
HETATM   11  C17 UNL     1     -12.276  45.940 -28.033  1.00  0.00    -0.019 C 
HETATM   12  C18 UNL     1     -11.476  44.817 -27.312  1.00  0.00     0.017 C 
HETATM   13  C19 UNL     1      -8.833  45.927 -30.828  1.00  0.00    -0.008 C 
HETATM   14  C20 UNL     1      -8.343  44.525 -30.401  1.00  0.00     0.021 C 
HETATM   15  C21 UNL     1      -9.073  45.953 -32.364  1.00  0.00     0.022 C 
HETATM   16  C22 UNL     1      -7.804  45.847 -33.197  1.00  0.00     0.080 C 
HETATM   17  C23 UNL     1      -6.819  46.931 -32.848  1.00  0.00     0.135 C 
HETATM   18  O4  UNL     1      -6.256  47.563 -33.746  1.00  0.00    -0.297 OA
HETATM   19  C24 UNL     1      -6.480  47.131 -31.365  1.00  0.00     0.018 C 
HETATM   20  C25 UNL     1      -5.423  46.092 -30.963  1.00  0.00     0.023 C 
HETATM   21  C26 UNL     1      -5.818  48.527 -31.225  1.00  0.00     0.023 C 
HETATM   22  C27 UNL     1      -7.809  47.099 -30.534  1.00  0.00     0.016 C 
HETATM   23  C28 UNL     1      -7.596  47.250 -29.017  1.00  0.00     0.043 C 
HETATM   24  C29 UNL     1      -8.906  47.604 -28.313  1.00  0.00     0.149 C 
ENDROOT
BRANCH   1  25
HETATM   25  C6  UNL     1     -14.481  45.401 -26.494  1.00  0.00    -0.011 C 
HETATM   26  C7  UNL     1     -15.798  45.150 -27.237  1.00  0.00     0.010 C 
BRANCH  25  27
HETATM   27  C5  UNL     1     -14.722  45.767 -25.007  1.00  0.00     0.040 C 
BRANCH  27  28
HETATM   28  C4  UNL     1     -15.971  46.626 -24.756  1.00  0.00     0.142 C 
BRANCH  28  29
HETATM   29  C3  UNL     1     -16.875  45.989 -23.733  1.00  0.00     0.018 C 
HETATM   30  C2  UNL     1     -18.214  46.093 -23.592  1.00  0.00     0.010 C 
HETATM   31  C1  UNL     1     -19.113  46.962 -24.424  1.00  0.00     0.055 C 
BRANCH  30  32
HETATM   32  C30 UNL     1     -18.921  45.333 -22.527  1.00  0.00     0.171 C 
HETATM   33  O6  UNL     1     -18.952  45.635 -21.347  1.00  0.00    -0.646 OA
BRANCH  32  34
HETATM   34  O7  UNL     1     -19.554  44.232 -22.968  1.00  0.00    -0.773 OA
HETATM   35  H44 UNL     1     -19.948  43.857 -22.154  1.00  0.00     0.167 HD
ENDBRANCH  32  34
ENDBRANCH  30  32
ENDBRANCH  28  29
BRANCH  28  36
HETATM   36  O1  UNL     1     -15.608  47.934 -24.344  1.00  0.00    -0.392 OA
HETATM   37  H6  UNL     1     -16.436  48.419 -24.184  1.00  0.00     0.210 HD
ENDBRANCH  28  36
ENDBRANCH  27  28
ENDBRANCH  25  27
ENDBRANCH   1  25
BRANCH   3  38
HETATM   38  O2  UNL     1     -11.185  49.136 -26.533  1.00  0.00    -0.394 OA
HETATM   39  H17 UNL     1     -10.355  49.328 -27.021  1.00  0.00     0.210 HD
ENDBRANCH   3  38
BRANCH  24  40
HETATM   40  O5  UNL     1      -9.080  49.018 -28.304  1.00  0.00    -0.391 OA
HETATM   41  H43 UNL     1      -9.067  49.326 -29.229  1.00  0.00     0.210 HD
ENDBRANCH  24  40
TORSDOF 9
ENDMDL
MODEL 6
REMARK minimizedAffinity -7.74082327
REMARK CNNscore 0.639962494
REMARK CNNaffinity 6.48137426
REMARK  9 active torsions:
REMARK  status: ('A' for Active; 'I' for Inactive)
REMARK    1  A    between atoms: C2_2  and  C30_35 
REMARK    2  A    between atoms: C3_3  and  C4_4 
REMARK    3  A    between atoms: C4_4  and  O1_5 
REMARK    4  A    between atoms: C4_4  and  C5_6 
REMARK    5  A    between atoms: C5_6  and  C6_7 
REMARK    6  A    between atoms: C6_7  and  C8_9 
REMARK    7  A    between atoms: C10_11  and  O2_12 
REMARK    8  A    between atoms: C29_33  and  O5_34 
REMARK    9  A    between atoms: C30_35  and  O7_37 
ROOT
HETATM    1  C8  UNL     1      -8.549  46.523 -33.033  1.00  0.00     0.001 C 
HETATM    2  C9  UNL     1      -7.968  47.960 -32.901  1.00  0.00     0.038 C 
HETATM    3  C10 UNL     1      -7.874  48.264 -31.392  1.00  0.00     0.132 C 
HETATM    4  C11 UNL     1      -7.953  46.871 -30.710  1.00  0.00     0.017 C 
HETATM    5  C12 UNL     1      -6.540  46.201 -30.788  1.00  0.00     0.023 C 
HETATM    6  C13 UNL     1      -8.372  46.766 -29.239  1.00  0.00    -0.029 C 
HETATM    7  C14 UNL     1      -8.864  45.600 -28.739  1.00  0.00     0.002 C 
HETATM    8  C15 UNL     1      -9.157  44.469 -29.721  1.00  0.00     0.157 C 
HETATM    9  O3  UNL     1      -9.463  43.347 -29.322  1.00  0.00    -0.293 OA
HETATM   10  C16 UNL     1      -9.093  44.706 -31.228  1.00  0.00     0.094 C 
HETATM   11  C17 UNL     1      -9.057  46.189 -31.595  1.00  0.00    -0.019 C 
HETATM   12  C18 UNL     1     -10.479  46.777 -31.364  1.00  0.00     0.017 C 
HETATM   13  C19 UNL     1      -9.205  45.401 -27.233  1.00  0.00    -0.008 C 
HETATM   14  C20 UNL     1     -10.744  45.515 -27.148  1.00  0.00     0.021 C 
HETATM   15  C21 UNL     1      -8.748  44.025 -26.671  1.00  0.00     0.022 C 
HETATM   16  C22 UNL     1      -8.946  43.866 -25.171  1.00  0.00     0.080 C 
HETATM   17  C23 UNL     1      -8.247  44.954 -24.399  1.00  0.00     0.135 C 
HETATM   18  O4  UNL     1      -7.567  44.667 -23.411  1.00  0.00    -0.297 OA
HETATM   19  C24 UNL     1      -8.502  46.404 -24.830  1.00  0.00     0.018 C 
HETATM   20  C25 UNL     1      -9.828  46.869 -24.211  1.00  0.00     0.023 C 
HETATM   21  C26 UNL     1      -7.380  47.276 -24.206  1.00  0.00     0.023 C 
HETATM   22  C27 UNL     1      -8.419  46.490 -26.393  1.00  0.00     0.016 C 
HETATM   23  C28 UNL     1      -8.697  47.896 -26.952  1.00  0.00     0.043 C 
HETATM   24  C29 UNL     1      -8.225  48.012 -28.402  1.00  0.00     0.149 C 
ENDROOT
BRANCH   1  25
HETATM   25  C6  UNL     1      -9.415  46.305 -34.311  1.00  0.00    -0.011 C 
HETATM   26  C7  UNL     1      -9.923  44.880 -34.556  1.00  0.00     0.010 C 
BRANCH  25  27
HETATM   27  C5  UNL     1      -8.714  46.887 -35.565  1.00  0.00     0.040 C 
BRANCH  27  28
HETATM   28  C4  UNL     1      -9.456  46.632 -36.886  1.00  0.00     0.142 C 
BRANCH  28  29
HETATM   29  C3  UNL     1     -10.549  47.645 -37.102  1.00  0.00     0.018 C 
HETATM   30  C2  UNL     1     -11.797  47.466 -37.589  1.00  0.00     0.010 C 
HETATM   31  C1  UNL     1     -12.354  46.171 -38.105  1.00  0.00     0.055 C 
BRANCH  30  32
HETATM   32  C30 UNL     1     -12.743  48.611 -37.676  1.00  0.00     0.171 C 
HETATM   33  O6  UNL     1     -13.877  48.624 -37.230  1.00  0.00    -0.646 OA
BRANCH  32  34
HETATM   34  O7  UNL     1     -12.246  49.684 -38.314  1.00  0.00    -0.773 OA
HETATM   35  H44 UNL     1     -12.986  50.324 -38.289  1.00  0.00     0.167 HD
ENDBRANCH  32  34
ENDBRANCH  30  32
ENDBRANCH  28  29
BRANCH  28  36
HETATM   36  O1  UNL     1      -8.553  46.643 -37.981  1.00  0.00    -0.392 OA
HETATM   37  H6  UNL     1      -9.082  46.495 -38.784  1.00  0.00     0.210 HD
ENDBRANCH  28  36
ENDBRANCH  27  28
ENDBRANCH  25  27
ENDBRANCH   1  25
BRANCH   3  38
HETATM   38  O2  UNL     1      -6.677  48.977 -31.120  1.00  0.00    -0.394 OA
HETATM   39  H17 UNL     1      -6.575  49.005 -30.144  1.00  0.00     0.210 HD
ENDBRANCH   3  38
BRANCH  24  40
HETATM   40  O5  UNL     1      -6.857  48.407 -28.432  1.00  0.00    -0.391 OA
HETATM   41  H43 UNL     1      -6.345  47.745 -27.932  1.00  0.00     0.210 HD
ENDBRANCH  24  40
TORSDOF 9
ENDMDL
MODEL 7
REMARK minimizedAffinity -7.88356733
REMARK CNNscore 0.622153759
REMARK CNNaffinity 6.64218187
REMARK  9 active torsions:
REMARK  status: ('A' for Active; 'I' for Inactive)
REMARK    1  A    between atoms: C2_2  and  C30_35 
REMARK    2  A    between atoms: C3_3  and  C4_4 
REMARK    3  A    between atoms: C4_4  and  O1_5 
REMARK    4  A    between atoms: C4_4  and  C5_6 
REMARK    5  A    between atoms: C5_6  and  C6_7 
REMARK    6  A    between atoms: C6_7  and  C8_9 
REMARK    7  A    between atoms: C10_11  and  O2_12 
REMARK    8  A    between atoms: C29_33  and  O5_34 
REMARK    9  A    between atoms: C30_35  and  O7_37 
ROOT
HETATM    1  C8  UNL     1      -2.499  49.245 -19.265  1.00  0.00     0.001 C 
HETATM    2  C9  UNL     1      -1.230  49.975 -18.739  1.00  0.00     0.038 C 
HETATM    3  C10 UNL     1      -0.593  50.684 -19.951  1.00  0.00     0.132 C 
HETATM    4  C11 UNL     1      -1.727  50.736 -21.011  1.00  0.00     0.017 C 
HETATM    5  C12 UNL     1      -2.678  51.928 -20.659  1.00  0.00     0.023 C 
HETATM    6  C13 UNL     1      -1.377  50.920 -22.492  1.00  0.00    -0.029 C 
HETATM    7  C14 UNL     1      -2.254  50.546 -23.464  1.00  0.00     0.002 C 
HETATM    8  C15 UNL     1      -3.502  49.777 -23.042  1.00  0.00     0.157 C 
HETATM    9  O3  UNL     1      -4.401  49.538 -23.846  1.00  0.00    -0.293 OA
HETATM   10  C16 UNL     1      -3.661  49.268 -21.611  1.00  0.00     0.094 C 
HETATM   11  C17 UNL     1      -2.355  49.310 -20.818  1.00  0.00    -0.019 C 
HETATM   12  C18 UNL     1      -1.441  48.161 -21.334  1.00  0.00     0.017 C 
HETATM   13  C19 UNL     1      -2.000  50.805 -24.978  1.00  0.00    -0.008 C 
HETATM   14  C20 UNL     1      -1.546  49.443 -25.551  1.00  0.00     0.021 C 
HETATM   15  C21 UNL     1      -3.261  51.301 -25.740  1.00  0.00     0.022 C 
HETATM   16  C22 UNL     1      -3.002  51.693 -27.188  1.00  0.00     0.080 C 
HETATM   17  C23 UNL     1      -1.932  52.747 -27.296  1.00  0.00     0.135 C 
HETATM   18  O4  UNL     1      -2.105  53.726 -28.026  1.00  0.00    -0.297 OA
HETATM   19  C24 UNL     1      -0.611  52.494 -26.557  1.00  0.00     0.018 C 
HETATM   20  C25 UNL     1       0.261  51.572 -27.422  1.00  0.00     0.023 C 
HETATM   21  C26 UNL     1       0.129  53.853 -26.454  1.00  0.00     0.023 C 
HETATM   22  C27 UNL     1      -0.931  51.965 -25.116  1.00  0.00     0.016 C 
HETATM   23  C28 UNL     1       0.322  51.636 -24.285  1.00  0.00     0.043 C 
HETATM   24  C29 UNL     1      -0.024  51.510 -22.801  1.00  0.00     0.149 C 
ENDROOT
BRANCH   1  25
HETATM   25  C6  UNL     1      -2.835  47.929 -18.498  1.00  0.00    -0.011 C 
HETATM   26  C7  UNL     1      -2.094  47.702 -17.175  1.00  0.00     0.010 C 
BRANCH  25  27
HETATM   27  C5  UNL     1      -2.728  46.697 -19.434  1.00  0.00     0.040 C 
BRANCH  27  28
HETATM   28  C4  UNL     1      -4.057  45.963 -19.675  1.00  0.00     0.142 C 
BRANCH  28  29
HETATM   29  C3  UNL     1      -3.884  44.471 -19.559  1.00  0.00     0.018 C 
HETATM   30  C2  UNL     1      -3.608  43.725 -18.467  1.00  0.00     0.010 C 
HETATM   31  C1  UNL     1      -3.334  44.262 -17.091  1.00  0.00     0.055 C 
BRANCH  30  32
HETATM   32  C30 UNL     1      -3.523  42.244 -18.568  1.00  0.00     0.171 C 
HETATM   33  O6  UNL     1      -2.603  41.622 -19.070  1.00  0.00    -0.646 OA
BRANCH  32  34
HETATM   34  O7  UNL     1      -4.581  41.599 -18.047  1.00  0.00    -0.773 OA
HETATM   35  H44 UNL     1      -4.370  40.656 -18.204  1.00  0.00     0.167 HD
ENDBRANCH  32  34
ENDBRANCH  30  32
ENDBRANCH  28  29
BRANCH  28  36
HETATM   36  O1  UNL     1      -5.053  46.414 -18.770  1.00  0.00    -0.392 OA
HETATM   37  H6  UNL     1      -5.859  45.902 -18.960  1.00  0.00     0.210 HD
ENDBRANCH  28  36
ENDBRANCH  27  28
ENDBRANCH  25  27
ENDBRANCH   1  25
BRANCH   3  38
HETATM   38  O2  UNL     1      -0.105  51.958 -19.559  1.00  0.00    -0.394 OA
HETATM   39  H17 UNL     1       0.140  52.437 -20.381  1.00  0.00     0.210 HD
ENDBRANCH   3  38
BRANCH  24  40
HETATM   40  O5  UNL     1       0.053  52.790 -22.179  1.00  0.00    -0.391 OA
HETATM   41  H43 UNL     1      -0.559  53.386 -22.649  1.00  0.00     0.210 HD
ENDBRANCH  24  40
TORSDOF 9
ENDMDL
MODEL 8
REMARK minimizedAffinity -8.56399918
REMARK CNNscore 0.52276355
REMARK CNNaffinity 6.12305212
REMARK  9 active torsions:
REMARK  status: ('A' for Active; 'I' for Inactive)
REMARK    1  A    between atoms: C2_2  and  C30_35 
REMARK    2  A    between atoms: C3_3  and  C4_4 
REMARK    3  A    between atoms: C4_4  and  O1_5 
REMARK    4  A    between atoms: C4_4  and  C5_6 
REMARK    5  A    between atoms: C5_6  and  C6_7 
REMARK    6  A    between atoms: C6_7  and  C8_9 
REMARK    7  A    between atoms: C10_11  and  O2_12 
REMARK    8  A    between atoms: C29_33  and  O5_34 
REMARK    9  A    between atoms: C30_35  and  O7_37 
ROOT
HETATM    1  C8  UNL     1      -4.217  49.811 -22.786  1.00  0.00     0.001 C 
HETATM    2  C9  UNL     1      -4.799  48.373 -22.894  1.00  0.00     0.038 C 
HETATM    3  C10 UNL     1      -4.613  47.715 -21.513  1.00  0.00     0.132 C 
HETATM    4  C11 UNL     1      -4.370  48.904 -20.545  1.00  0.00     0.017 C 
HETATM    5  C12 UNL     1      -5.754  49.544 -20.190  1.00  0.00     0.023 C 
HETATM    6  C13 UNL     1      -3.677  48.663 -19.199  1.00  0.00    -0.029 C 
HETATM    7  C14 UNL     1      -3.069  49.685 -18.538  1.00  0.00     0.002 C 
HETATM    8  C15 UNL     1      -2.938  51.024 -19.257  1.00  0.00     0.157 C 
HETATM    9  O3  UNL     1      -2.532  52.023 -18.667  1.00  0.00    -0.293 OA
HETATM   10  C16 UNL     1      -3.293  51.153 -20.737  1.00  0.00     0.094 C 
HETATM   11  C17 UNL     1      -3.436  49.801 -21.434  1.00  0.00    -0.019 C 
HETATM   12  C18 UNL     1      -2.012  49.204 -21.626  1.00  0.00     0.017 C 
HETATM   13  C19 UNL     1      -2.443  49.523 -17.121  1.00  0.00    -0.008 C 
HETATM   14  C20 UNL     1      -0.919  49.425 -17.360  1.00  0.00     0.021 C 
HETATM   15  C21 UNL     1      -2.749  50.715 -16.170  1.00  0.00     0.022 C 
HETATM   16  C22 UNL     1      -2.266  50.513 -14.741  1.00  0.00     0.080 C 
HETATM   17  C23 UNL     1      -2.835  49.258 -14.134  1.00  0.00     0.135 C 
HETATM   18  O4  UNL     1      -3.306  49.286 -12.994  1.00  0.00    -0.297 OA
HETATM   19  C24 UNL     1      -2.703  47.959 -14.939  1.00  0.00     0.018 C 
HETATM   20  C25 UNL     1      -1.296  47.386 -14.714  1.00  0.00     0.023 C 
HETATM   21  C26 UNL     1      -3.709  46.940 -14.340  1.00  0.00     0.023 C 
HETATM   22  C27 UNL     1      -3.084  48.249 -16.432  1.00  0.00     0.016 C 
HETATM   23  C28 UNL     1      -2.953  47.023 -17.354  1.00  0.00     0.043 C 
HETATM   24  C29 UNL     1      -3.694  47.249 -18.672  1.00  0.00     0.149 C 
ENDROOT
BRANCH   1  25
HETATM   25  C6  UNL     1      -3.603  50.347 -24.116  1.00  0.00    -0.011 C 
HETATM   26  C7  UNL     1      -2.681  49.388 -24.877  1.00  0.00     0.010 C 
BRANCH  25  27
HETATM   27  C5  UNL     1      -2.940  51.733 -23.904  1.00  0.00     0.040 C 
BRANCH  27  28
HETATM   28  C4  UNL     1      -1.426  51.762 -24.171  1.00  0.00     0.142 C 
BRANCH  28  29
HETATM   29  C3  UNL     1      -1.089  52.715 -25.289  1.00  0.00     0.018 C 
HETATM   30  C2  UNL     1      -0.442  52.475 -26.450  1.00  0.00     0.010 C 
HETATM   31  C1  UNL     1       0.166  51.163 -26.855  1.00  0.00     0.055 C 
BRANCH  30  32
HETATM   32  C30 UNL     1      -0.253  53.563 -27.446  1.00  0.00     0.171 C 
HETATM   33  O6  UNL     1      -0.201  54.754 -27.189  1.00  0.00    -0.646 OA
BRANCH  32  34
HETATM   34  O7  UNL     1      -0.141  53.132 -28.714  1.00  0.00    -0.773 OA
HETATM   35  H44 UNL     1      -0.035  53.960 -29.226  1.00  0.00     0.167 HD
ENDBRANCH  32  34
ENDBRANCH  30  32
ENDBRANCH  28  29
BRANCH  28  36
HETATM   36  O1  UNL     1      -0.714  52.113 -22.996  1.00  0.00    -0.392 OA
HETATM   37  H6  UNL     1       0.229  52.133 -23.233  1.00  0.00     0.210 HD
ENDBRANCH  28  36
ENDBRANCH  27  28
ENDBRANCH  25  27
ENDBRANCH   1  25
BRANCH   3  38
HETATM   38  O2  UNL     1      -5.754  46.933 -21.196  1.00  0.00    -0.394 OA
HETATM   39  H17 UNL     1      -5.670  46.669 -20.254  1.00  0.00     0.210 HD
ENDBRANCH   3  38
BRANCH  24  40
HETATM   40  O5  UNL     1      -5.053  46.845 -18.535  1.00  0.00    -0.391 OA
HETATM   41  H43 UNL     1      -5.444  47.357 -17.803  1.00  0.00     0.210 HD
ENDBRANCH  24  40
TORSDOF 9
ENDMDL
MODEL 9
REMARK minimizedAffinity -9.7008028
REMARK CNNscore 0.520972908
REMARK CNNaffinity 6.57816696
REMARK  9 active torsions:
REMARK  status: ('A' for Active; 'I' for Inactive)
REMARK    1  A    between atoms: C2_2  and  C30_35 
REMARK    2  A    between atoms: C3_3  and  C4_4 
REMARK    3  A    between atoms: C4_4  and  O1_5 
REMARK    4  A    between atoms: C4_4  and  C5_6 
REMARK    5  A    between atoms: C5_6  and  C6_7 
REMARK    6  A    between atoms: C6_7  and  C8_9 
REMARK    7  A    between atoms: C10_11  and  O2_12 
REMARK    8  A    between atoms: C29_33  and  O5_34 
REMARK    9  A    between atoms: C30_35  and  O7_37 
ROOT
HETATM    1  C8  UNL     1      -1.113  49.442 -18.053  1.00  0.00     0.001 C 
HETATM    2  C9  UNL     1      -2.202  48.348 -18.242  1.00  0.00     0.038 C 
HETATM    3  C10 UNL     1      -2.646  48.414 -19.717  1.00  0.00     0.132 C 
HETATM    4  C11 UNL     1      -1.508  49.194 -20.430  1.00  0.00     0.017 C 
HETATM    5  C12 UNL     1      -0.326  48.205 -20.704  1.00  0.00     0.023 C 
HETATM    6  C13 UNL     1      -1.781  49.882 -21.773  1.00  0.00    -0.029 C 
HETATM    7  C14 UNL     1      -0.989  50.900 -22.206  1.00  0.00     0.002 C 
HETATM    8  C15 UNL     1       0.054  51.454 -21.239  1.00  0.00     0.157 C 
HETATM    9  O3  UNL     1       0.894  52.270 -21.612  1.00  0.00    -0.293 OA
HETATM   10  C16 UNL     1       0.070  51.020 -19.774  1.00  0.00     0.094 C 
HETATM   11  C17 UNL     1      -1.210  50.299 -19.355  1.00  0.00    -0.019 C 
HETATM   12  C18 UNL     1      -2.342  51.358 -19.232  1.00  0.00     0.017 C 
HETATM   13  C19 UNL     1      -1.152  51.564 -23.605  1.00  0.00    -0.008 C 
HETATM   14  C20 UNL     1      -1.880  52.900 -23.337  1.00  0.00     0.021 C 
HETATM   15  C21 UNL     1       0.202  51.838 -24.320  1.00  0.00     0.022 C 
HETATM   16  C22 UNL     1       0.062  52.357 -25.744  1.00  0.00     0.080 C 
HETATM   17  C23 UNL     1      -0.750  51.421 -26.599  1.00  0.00     0.135 C 
HETATM   18  O4  UNL     1      -0.354  51.120 -27.728  1.00  0.00    -0.297 OA
HETATM   19  C24 UNL     1      -2.108  50.960 -26.053  1.00  0.00     0.018 C 
HETATM   20  C25 UNL     1      -3.144  52.058 -26.336  1.00  0.00     0.023 C 
HETATM   21  C26 UNL     1      -2.536  49.713 -26.870  1.00  0.00     0.023 C 
HETATM   22  C27 UNL     1      -1.939  50.563 -24.546  1.00  0.00     0.016 C 
HETATM   23  C28 UNL     1      -3.249  50.117 -23.872  1.00  0.00     0.043 C 
HETATM   24  C29 UNL     1      -2.967  49.383 -22.561  1.00  0.00     0.149 C 
ENDROOT
BRANCH   1  25
HETATM   25  C6  UNL     1      -1.087  50.069 -16.625  1.00  0.00    -0.011 C 
HETATM   26  C7  UNL     1      -2.397  50.690 -16.129  1.00  0.00     0.010 C 
BRANCH  25  27
HETATM   27  C5  UNL     1       0.107  51.046 -16.468  1.00  0.00     0.040 C 
BRANCH  27  28
HETATM   28  C4  UNL     1       0.576  51.250 -15.019  1.00  0.00     0.142 C 
BRANCH  28  29
HETATM   29  C3  UNL     1       1.788  50.409 -14.715  1.00  0.00     0.018 C 
HETATM   30  C2  UNL     1       2.661  50.506 -13.688  1.00  0.00     0.010 C 
HETATM   31  C1  UNL     1       2.642  51.566 -12.626  1.00  0.00     0.055 C 
BRANCH  30  32
HETATM   32  C30 UNL     1       3.776  49.531 -13.553  1.00  0.00     0.171 C 
HETATM   33  O6  UNL     1       4.951  49.768 -13.777  1.00  0.00    -0.646 OA
BRANCH  32  34
HETATM   34  O7  UNL     1       3.389  48.309 -13.150  1.00  0.00    -0.773 OA
HETATM   35  H44 UNL     1       4.228  47.804 -13.124  1.00  0.00     0.167 HD
ENDBRANCH  32  34
ENDBRANCH  30  32
ENDBRANCH  28  29
BRANCH  28  36
HETATM   36  O1  UNL     1       0.853  52.619 -14.767  1.00  0.00    -0.392 OA
HETATM   37  H6  UNL     1       1.161  52.680 -13.847  1.00  0.00     0.210 HD
ENDBRANCH  28  36
ENDBRANCH  27  28
ENDBRANCH  25  27
ENDBRANCH   1  25
BRANCH   3  38
HETATM   38  O2  UNL     1      -2.851  47.102 -20.216  1.00  0.00    -0.394 OA
HETATM   39  H17 UNL     1      -2.970  47.179 -21.188  1.00  0.00     0.210 HD
ENDBRANCH   3  38
BRANCH  24  40
HETATM   40  O5  UNL     1      -2.774  47.995 -22.820  1.00  0.00    -0.391 OA
HETATM   41  H43 UNL     1      -2.038  47.909 -23.453  1.00  0.00     0.210 HD
ENDBRANCH  24  40
TORSDOF 9
ENDMDL
