MODEL 1
REMARK minimizedAffinity -7.57603645
REMARK  9 active torsions:
REMARK  status: ('A' for Active; 'I' for Inactive)
REMARK    1  A    between atoms: O1_2  and  C2_3 
REMARK    2  A    between atoms: C2_3  and  C3_4 
REMARK    3  A    between atoms: C3_4  and  N1_5 
REMARK       I    between atoms: N1_5  and  C4_6 
REMARK    4  A    between atoms: C4_6  and  C5_8 
REMARK    5  A    between atoms: C5_8  and  C7_10 
REMARK    6  A    between atoms: C14_17  and  N2_18 
REMARK       I    between atoms: N2_18  and  C15_19 
REMARK    7  A    between atoms: C15_19  and  C16_21 
REMARK    8  A    between atoms: C16_21  and  O4_22 
REMARK    9  A    between atoms: C21_27  and  O5_28 
ROOT
HETATM    1  C7  UNL     1      -2.510  49.972 -25.264  1.00  0.00     0.027 C 
HETATM    2  C8  UNL     1      -3.390  48.900 -24.608  1.00  0.00     0.009 C 
HETATM    3  C9  UNL     1      -2.737  48.307 -23.366  1.00  0.00     0.010 C 
HETATM    4  C10 UNL     1      -2.355  49.371 -22.313  1.00  0.00    -0.037 C 
HETATM    5  C11 UNL     1      -3.652  50.012 -21.758  1.00  0.00     0.015 C 
HETATM    6  C12 UNL     1      -1.613  48.650 -21.164  1.00  0.00     0.011 C 
HETATM    7  C13 UNL     1      -1.081  49.603 -20.107  1.00  0.00     0.026 C 
HETATM    8  C14 UNL     1      -0.205  50.709 -20.704  1.00  0.00     0.088 C 
HETATM    9  C18 UNL     1      -0.887  51.450 -21.891  1.00  0.00     0.012 C 
HETATM   10  C19 UNL     1       0.087  52.497 -22.456  1.00  0.00     0.012 C 
HETATM   11  C20 UNL     1      -1.396  50.418 -22.962  1.00  0.00     0.028 C 
HETATM   12  C21 UNL     1      -2.026  51.040 -24.244  1.00  0.00     0.128 C 
ENDROOT
BRANCH   1  13
HETATM   13  C5  UNL     1      -3.158  50.613 -26.530  1.00  0.00     0.080 C 
HETATM   14  C6  UNL     1      -3.585  49.621 -27.615  1.00  0.00     0.020 C 
BRANCH  13  15
HETATM   15  C4  UNL     1      -2.306  51.757 -27.086  1.00  0.00     0.222 C 
HETATM   16  N1  UNL     1      -1.205  51.394 -27.825  1.00  0.00    -0.359 N 
HETATM   17  H8  UNL     1      -0.930  50.422 -27.866  1.00  0.00     0.162 HD
HETATM   18  O2  UNL     1      -2.585  52.931 -26.852  1.00  0.00    -0.273 OA
BRANCH  16  19
HETATM   19  C3  UNL     1      -0.245  52.377 -28.295  1.00  0.00     0.148 C 
BRANCH  19  20
HETATM   20  C2  UNL     1       1.211  51.998 -28.023  1.00  0.00     0.186 C 
BRANCH  20  21
HETATM   21  O1  UNL     1       1.438  52.020 -26.611  1.00  0.00    -0.394 OA
HETATM   22  C1  UNL     1       2.564  51.231 -26.253  1.00  0.00     0.201 C 
ENDBRANCH  20  21
ENDBRANCH  19  20
ENDBRANCH  16  19
ENDBRANCH  13  15
ENDBRANCH   1  13
BRANCH  12  23
HETATM   23  O5  UNL     1      -1.042  51.831 -24.908  1.00  0.00    -0.395 OA
HETATM   24  H38 UNL     1      -1.493  52.518 -25.425  1.00  0.00     0.210 HD
ENDBRANCH  12  23
BRANCH   8  25
HETATM   25  N2  UNL     1       0.160  51.642 -19.645  1.00  0.00    -0.354 N 
HETATM   26  C15 UNL     1       0.266  51.273 -18.321  1.00  0.00     0.241 C 
HETATM   27  O3  UNL     1       0.171  50.118 -17.919  1.00  0.00    -0.271 OA
HETATM   28  H26 UNL     1       0.087  52.644 -19.804  1.00  0.00     0.162 HD
BRANCH  26  29
HETATM   29  C16 UNL     1       0.538  52.451 -17.381  1.00  0.00     0.269 C 
BRANCH  29  30
HETATM   30  O4  UNL     1       1.474  52.109 -16.355  1.00  0.00    -0.387 OA
HETATM   31  C17 UNL     1       2.760  52.646 -16.634  1.00  0.00     0.202 C 
ENDBRANCH  29  30
ENDBRANCH  26  29
ENDBRANCH   8  25
TORSDOF 9
ENDMDL
MODEL 2
REMARK minimizedAffinity -7.41861248
REMARK  9 active torsions:
REMARK  status: ('A' for Active; 'I' for Inactive)
REMARK    1  A    between atoms: O1_2  and  C2_3 
REMARK    2  A    between atoms: C2_3  and  C3_4 
REMARK    3  A    between atoms: C3_4  and  N1_5 
REMARK       I    between atoms: N1_5  and  C4_6 
REMARK    4  A    between atoms: C4_6  and  C5_8 
REMARK    5  A    between atoms: C5_8  and  C7_10 
REMARK    6  A    between atoms: C14_17  and  N2_18 
REMARK       I    between atoms: N2_18  and  C15_19 
REMARK    7  A    between atoms: C15_19  and  C16_21 
REMARK    8  A    between atoms: C16_21  and  O4_22 
REMARK    9  A    between atoms: C21_27  and  O5_28 
ROOT
HETATM    1  C7  UNL     1      -1.148  51.285 -19.866  1.00  0.00     0.027 C 
HETATM    2  C8  UNL     1      -2.604  50.807 -19.943  1.00  0.00     0.009 C 
HETATM    3  C9  UNL     1      -3.370  51.489 -21.070  1.00  0.00     0.010 C 
HETATM    4  C10 UNL     1      -2.701  51.317 -22.451  1.00  0.00    -0.037 C 
HETATM    5  C11 UNL     1      -2.749  49.820 -22.847  1.00  0.00     0.015 C 
HETATM    6  C12 UNL     1      -3.517  52.140 -23.474  1.00  0.00     0.011 C 
HETATM    7  C13 UNL     1      -2.898  52.148 -24.863  1.00  0.00     0.026 C 
HETATM    8  C14 UNL     1      -1.436  52.603 -24.849  1.00  0.00     0.088 C 
HETATM    9  C18 UNL     1      -0.569  51.832 -23.811  1.00  0.00     0.012 C 
HETATM   10  C19 UNL     1       0.862  52.396 -23.833  1.00  0.00     0.012 C 
HETATM   11  C20 UNL     1      -1.244  51.877 -22.392  1.00  0.00     0.028 C 
HETATM   12  C21 UNL     1      -0.431  51.210 -21.243  1.00  0.00     0.128 C 
ENDROOT
BRANCH   1  13
HETATM   13  C5  UNL     1      -0.330  50.592 -18.733  1.00  0.00     0.080 C 
HETATM   14  C6  UNL     1      -1.076  49.497 -17.968  1.00  0.00     0.020 C 
BRANCH  13  15
HETATM   15  C4  UNL     1       0.326  51.614 -17.801  1.00  0.00     0.222 C 
HETATM   16  N1  UNL     1       0.598  51.187 -16.522  1.00  0.00    -0.359 N 
HETATM   17  H8  UNL     1       0.250  50.290 -16.212  1.00  0.00     0.162 HD
HETATM   18  O2  UNL     1       0.564  52.760 -18.177  1.00  0.00    -0.273 OA
BRANCH  16  19
HETATM   19  C3  UNL     1       1.095  52.096 -15.505  1.00  0.00     0.148 C 
BRANCH  19  20
HETATM   20  C2  UNL     1       0.855  51.614 -14.074  1.00  0.00     0.186 C 
BRANCH  20  21
HETATM   21  O1  UNL     1       0.098  52.607 -13.375  1.00  0.00    -0.394 OA
HETATM   22  C1  UNL     1      -1.206  52.139 -13.060  1.00  0.00     0.201 C 
ENDBRANCH  20  21
ENDBRANCH  19  20
ENDBRANCH  16  19
ENDBRANCH  13  15
ENDBRANCH   1  13
BRANCH  12  23
HETATM   23  O5  UNL     1       0.814  51.891 -21.099  1.00  0.00    -0.395 OA
HETATM   24  H38 UNL     1       1.462  51.275 -20.719  1.00  0.00     0.210 HD
ENDBRANCH  12  23
BRANCH   8  25
HETATM   25  N2  UNL     1      -0.889  52.465 -26.193  1.00  0.00    -0.354 N 
HETATM   26  C15 UNL     1      -0.246  53.490 -26.852  1.00  0.00     0.241 C 
HETATM   27  O3  UNL     1       0.023  54.574 -26.343  1.00  0.00    -0.271 OA
HETATM   28  H26 UNL     1      -1.195  51.700 -26.790  1.00  0.00     0.162 HD
BRANCH  26  29
HETATM   29  C16 UNL     1       0.129  53.145 -28.296  1.00  0.00     0.269 C 
BRANCH  29  30
HETATM   30  O4  UNL     1       0.709  51.842 -28.401  1.00  0.00    -0.387 OA
HETATM   31  C17 UNL     1       2.045  51.834 -27.916  1.00  0.00     0.202 C 
ENDBRANCH  29  30
ENDBRANCH  26  29
ENDBRANCH   8  25
TORSDOF 9
ENDMDL
MODEL 3
REMARK minimizedAffinity -7.3691597
REMARK  9 active torsions:
REMARK  status: ('A' for Active; 'I' for Inactive)
REMARK    1  A    between atoms: O1_2  and  C2_3 
REMARK    2  A    between atoms: C2_3  and  C3_4 
REMARK    3  A    between atoms: C3_4  and  N1_5 
REMARK       I    between atoms: N1_5  and  C4_6 
REMARK    4  A    between atoms: C4_6  and  C5_8 
REMARK    5  A    between atoms: C5_8  and  C7_10 
REMARK    6  A    between atoms: C14_17  and  N2_18 
REMARK       I    between atoms: N2_18  and  C15_19 
REMARK    7  A    between atoms: C15_19  and  C16_21 
REMARK    8  A    between atoms: C16_21  and  O4_22 
REMARK    9  A    between atoms: C21_27  and  O5_28 
ROOT
HETATM    1  C7  UNL     1      -0.511  51.543 -22.729  1.00  0.00     0.027 C 
HETATM    2  C8  UNL     1      -1.443  50.325 -22.799  1.00  0.00     0.009 C 
HETATM    3  C9  UNL     1      -1.193  49.350 -21.655  1.00  0.00     0.010 C 
HETATM    4  C10 UNL     1      -1.310  50.004 -20.261  1.00  0.00    -0.037 C 
HETATM    5  C11 UNL     1      -2.779  50.443 -20.036  1.00  0.00     0.015 C 
HETATM    6  C12 UNL     1      -0.932  48.937 -19.208  1.00  0.00     0.011 C 
HETATM    7  C13 UNL     1      -0.898  49.484 -17.790  1.00  0.00     0.026 C 
HETATM    8  C14 UNL     1       0.005  50.715 -17.659  1.00  0.00     0.088 C 
HETATM    9  C18 UNL     1      -0.305  51.812 -18.718  1.00  0.00     0.012 C 
HETATM   10  C19 UNL     1       0.685  52.975 -18.542  1.00  0.00     0.012 C 
HETATM   11  C20 UNL     1      -0.305  51.195 -20.164  1.00  0.00     0.028 C 
HETATM   12  C21 UNL     1      -0.522  52.211 -21.325  1.00  0.00     0.128 C 
ENDROOT
BRANCH   1  13
HETATM   13  C5  UNL     1      -0.753  52.572 -23.876  1.00  0.00     0.080 C 
HETATM   14  C6  UNL     1      -2.044  52.367 -24.671  1.00  0.00     0.020 C 
BRANCH  13  15
HETATM   15  C4  UNL     1       0.475  52.712 -24.780  1.00  0.00     0.222 C 
HETATM   16  N1  UNL     1       0.828  51.599 -25.505  1.00  0.00    -0.359 N 
HETATM   17  H8  UNL     1       0.365  50.719 -25.326  1.00  0.00     0.162 HD
HETATM   18  O2  UNL     1       1.118  53.759 -24.823  1.00  0.00    -0.273 OA
BRANCH  16  19
HETATM   19  C3  UNL     1       2.046  51.560 -26.295  1.00  0.00     0.148 C 
BRANCH  19  20
HETATM   20  C2  UNL     1       1.825  51.820 -27.786  1.00  0.00     0.186 C 
BRANCH  20  21
HETATM   21  O1  UNL     1       0.419  51.880 -28.039  1.00  0.00    -0.394 OA
HETATM   22  C1  UNL     1       0.015  53.187 -28.424  1.00  0.00     0.201 C 
ENDBRANCH  20  21
ENDBRANCH  19  20
ENDBRANCH  16  19
ENDBRANCH  13  15
ENDBRANCH   1  13
BRANCH  12  23
HETATM   23  O5  UNL     1       0.539  53.164 -21.313  1.00  0.00    -0.395 OA
HETATM   24  H38 UNL     1       0.220  53.988 -21.716  1.00  0.00     0.210 HD
ENDBRANCH  12  23
BRANCH   8  25
HETATM   25  N2  UNL     1      -0.115  51.244 -16.306  1.00  0.00    -0.354 N 
HETATM   26  C15 UNL     1       0.969  51.449 -15.480  1.00  0.00     0.241 C 
HETATM   27  O3  UNL     1       2.137  51.313 -15.831  1.00  0.00    -0.271 OA
HETATM   28  H26 UNL     1      -1.015  51.226 -15.833  1.00  0.00     0.162 HD
BRANCH  26  29
HETATM   29  C16 UNL     1       0.582  51.892 -14.067  1.00  0.00     0.269 C 
BRANCH  29  30
HETATM   30  O4  UNL     1      -0.837  51.928 -13.888  1.00  0.00    -0.387 OA
HETATM   31  C17 UNL     1      -1.177  52.288 -12.556  1.00  0.00     0.202 C 
ENDBRANCH  29  30
ENDBRANCH  26  29
ENDBRANCH   8  25
TORSDOF 9
ENDMDL
MODEL 4
REMARK minimizedAffinity -7.35616112
REMARK  9 active torsions:
REMARK  status: ('A' for Active; 'I' for Inactive)
REMARK    1  A    between atoms: O1_2  and  C2_3 
REMARK    2  A    between atoms: C2_3  and  C3_4 
REMARK    3  A    between atoms: C3_4  and  N1_5 
REMARK       I    between atoms: N1_5  and  C4_6 
REMARK    4  A    between atoms: C4_6  and  C5_8 
REMARK    5  A    between atoms: C5_8  and  C7_10 
REMARK    6  A    between atoms: C14_17  and  N2_18 
REMARK       I    between atoms: N2_18  and  C15_19 
REMARK    7  A    between atoms: C15_19  and  C16_21 
REMARK    8  A    between atoms: C16_21  and  O4_22 
REMARK    9  A    between atoms: C21_27  and  O5_28 
ROOT
HETATM    1  C7  UNL     1      -0.437  51.576 -21.713  1.00  0.00     0.027 C 
HETATM    2  C8  UNL     1       0.103  52.582 -22.737  1.00  0.00     0.009 C 
HETATM    3  C9  UNL     1       0.246  51.965 -24.123  1.00  0.00     0.010 C 
HETATM    4  C10 UNL     1      -1.067  51.351 -24.653  1.00  0.00    -0.037 C 
HETATM    5  C11 UNL     1      -2.096  52.487 -24.877  1.00  0.00     0.015 C 
HETATM    6  C12 UNL     1      -0.755  50.673 -26.007  1.00  0.00     0.011 C 
HETATM    7  C13 UNL     1      -1.946  49.928 -26.589  1.00  0.00     0.026 C 
HETATM    8  C14 UNL     1      -2.541  48.917 -25.605  1.00  0.00     0.088 C 
HETATM    9  C18 UNL     1      -2.845  49.533 -24.209  1.00  0.00     0.012 C 
HETATM   10  C19 UNL     1      -3.383  48.433 -23.279  1.00  0.00     0.012 C 
HETATM   11  C20 UNL     1      -1.575  50.270 -23.647  1.00  0.00     0.028 C 
HETATM   12  C21 UNL     1      -1.724  50.861 -22.213  1.00  0.00     0.128 C 
ENDROOT
BRANCH   1  13
HETATM   13  C5  UNL     1      -0.613  52.181 -20.285  1.00  0.00     0.080 C 
HETATM   14  C6  UNL     1       0.055  53.541 -20.069  1.00  0.00     0.020 C 
BRANCH  13  15
HETATM   15  C4  UNL     1      -0.252  51.171 -19.193  1.00  0.00     0.222 C 
HETATM   16  N1  UNL     1      -0.111  51.674 -17.921  1.00  0.00    -0.359 N 
HETATM   17  H8  UNL     1      -0.120  52.674 -17.776  1.00  0.00     0.162 HD
HETATM   18  O2  UNL     1      -0.072  49.984 -19.456  1.00  0.00    -0.273 OA
BRANCH  16  19
HETATM   19  C3  UNL     1       0.357  50.847 -16.823  1.00  0.00     0.148 C 
BRANCH  19  20
HETATM   20  C2  UNL     1       1.019  51.636 -15.693  1.00  0.00     0.186 C 
BRANCH  20  21
HETATM   21  O1  UNL     1       1.606  52.821 -16.240  1.00  0.00    -0.394 OA
HETATM   22  C1  UNL     1       2.991  52.640 -16.503  1.00  0.00     0.201 C 
ENDBRANCH  20  21
ENDBRANCH  19  20
ENDBRANCH  16  19
ENDBRANCH  13  15
ENDBRANCH   1  13
BRANCH  12  23
HETATM   23  O5  UNL     1      -1.990  49.800 -21.298  1.00  0.00    -0.395 OA
HETATM   24  H38 UNL     1      -2.477  50.160 -20.539  1.00  0.00     0.210 HD
ENDBRANCH  12  23
BRANCH   8  25
HETATM   25  N2  UNL     1      -3.743  48.339 -26.195  1.00  0.00    -0.354 N 
HETATM   26  C15 UNL     1      -4.203  48.678 -27.449  1.00  0.00     0.241 C 
HETATM   27  O3  UNL     1      -3.599  49.407 -28.230  1.00  0.00    -0.271 OA
HETATM   28  H26 UNL     1      -4.425  47.874 -25.601  1.00  0.00     0.162 HD
BRANCH  26  29
HETATM   29  C16 UNL     1      -5.548  48.036 -27.798  1.00  0.00     0.269 C 
BRANCH  29  30
HETATM   30  O4  UNL     1      -5.481  47.282 -29.012  1.00  0.00    -0.387 OA
HETATM   31  C17 UNL     1      -5.704  48.111 -30.144  1.00  0.00     0.202 C 
ENDBRANCH  29  30
ENDBRANCH  26  29
ENDBRANCH   8  25
TORSDOF 9
ENDMDL
MODEL 5
REMARK minimizedAffinity -7.23646641
REMARK  9 active torsions:
REMARK  status: ('A' for Active; 'I' for Inactive)
REMARK    1  A    between atoms: O1_2  and  C2_3 
REMARK    2  A    between atoms: C2_3  and  C3_4 
REMARK    3  A    between atoms: C3_4  and  N1_5 
REMARK       I    between atoms: N1_5  and  C4_6 
REMARK    4  A    between atoms: C4_6  and  C5_8 
REMARK    5  A    between atoms: C5_8  and  C7_10 
REMARK    6  A    between atoms: C14_17  and  N2_18 
REMARK       I    between atoms: N2_18  and  C15_19 
REMARK    7  A    between atoms: C15_19  and  C16_21 
REMARK    8  A    between atoms: C16_21  and  O4_22 
REMARK    9  A    between atoms: C21_27  and  O5_28 
ROOT
HETATM    1  C7  UNL     1      -0.427  50.639 -17.448  1.00  0.00     0.027 C 
HETATM    2  C8  UNL     1      -1.315  49.439 -17.804  1.00  0.00     0.009 C 
HETATM    3  C9  UNL     1      -2.165  49.705 -19.040  1.00  0.00     0.010 C 
HETATM    4  C10 UNL     1      -1.332  50.110 -20.276  1.00  0.00    -0.037 C 
HETATM    5  C11 UNL     1      -0.455  48.907 -20.704  1.00  0.00     0.015 C 
HETATM    6  C12 UNL     1      -2.319  50.451 -21.416  1.00  0.00     0.011 C 
HETATM    7  C13 UNL     1      -1.629  50.976 -22.665  1.00  0.00     0.026 C 
HETATM    8  C14 UNL     1      -0.713  52.168 -22.370  1.00  0.00     0.088 C 
HETATM    9  C18 UNL     1       0.282  51.896 -21.205  1.00  0.00     0.012 C 
HETATM   10  C19 UNL     1       1.115  53.164 -20.949  1.00  0.00     0.012 C 
HETATM   11  C20 UNL     1      -0.488  51.379 -19.935  1.00  0.00     0.028 C 
HETATM   12  C21 UNL     1       0.389  51.149 -18.669  1.00  0.00     0.128 C 
ENDROOT
BRANCH   1  13
HETATM   13  C5  UNL     1       0.472  50.392 -16.196  1.00  0.00     0.080 C 
HETATM   14  C6  UNL     1       0.411  48.975 -15.621  1.00  0.00     0.020 C 
BRANCH  13  15
HETATM   15  C4  UNL     1       0.262  51.467 -15.127  1.00  0.00     0.222 C 
HETATM   16  N1  UNL     1      -0.506  51.109 -14.044  1.00  0.00    -0.359 N 
HETATM   17  H8  UNL     1      -0.997  50.226 -14.052  1.00  0.00     0.162 HD
HETATM   18  O2  UNL     1       0.735  52.595 -15.256  1.00  0.00    -0.273 OA
BRANCH  16  19
HETATM   19  C3  UNL     1      -0.888  52.074 -13.029  1.00  0.00     0.148 C 
BRANCH  19  20
HETATM   20  C2  UNL     1      -2.295  51.858 -12.469  1.00  0.00     0.186 C 
BRANCH  20  21
HETATM   21  O1  UNL     1      -2.648  52.986 -11.664  1.00  0.00    -0.394 OA
HETATM   22  C1  UNL     1      -4.023  52.957 -11.303  1.00  0.00     0.201 C 
ENDBRANCH  20  21
ENDBRANCH  19  20
ENDBRANCH  16  19
ENDBRANCH  13  15
ENDBRANCH   1  13
BRANCH  12  23
HETATM   23  O5  UNL     1       0.981  52.388 -18.282  1.00  0.00    -0.395 OA
HETATM   24  H38 UNL     1       1.804  52.201 -17.801  1.00  0.00     0.210 HD
ENDBRANCH  12  23
BRANCH   8  25
HETATM   25  N2  UNL     1      -0.003  52.527 -23.592  1.00  0.00    -0.354 N 
HETATM   26  C15 UNL     1      -0.638  53.006 -24.717  1.00  0.00     0.241 C 
HETATM   27  O3  UNL     1      -1.834  53.277 -24.770  1.00  0.00    -0.271 OA
HETATM   28  H26 UNL     1       0.943  52.187 -23.747  1.00  0.00     0.162 HD
BRANCH  26  29
HETATM   29  C16 UNL     1       0.301  53.194 -25.912  1.00  0.00     0.269 C 
BRANCH  29  30
HETATM   30  O4  UNL     1       0.075  54.439 -26.579  1.00  0.00    -0.387 OA
HETATM   31  C17 UNL     1      -0.419  54.233 -27.896  1.00  0.00     0.202 C 
ENDBRANCH  29  30
ENDBRANCH  26  29
ENDBRANCH   8  25
TORSDOF 9
ENDMDL
MODEL 6
REMARK minimizedAffinity -7.23309755
REMARK  9 active torsions:
REMARK  status: ('A' for Active; 'I' for Inactive)
REMARK    1  A    between atoms: O1_2  and  C2_3 
REMARK    2  A    between atoms: C2_3  and  C3_4 
REMARK    3  A    between atoms: C3_4  and  N1_5 
REMARK       I    between atoms: N1_5  and  C4_6 
REMARK    4  A    between atoms: C4_6  and  C5_8 
REMARK    5  A    between atoms: C5_8  and  C7_10 
REMARK    6  A    between atoms: C14_17  and  N2_18 
REMARK       I    between atoms: N2_18  and  C15_19 
REMARK    7  A    between atoms: C15_19  and  C16_21 
REMARK    8  A    between atoms: C16_21  and  O4_22 
REMARK    9  A    between atoms: C21_27  and  O5_28 
ROOT
HETATM    1  C7  UNL     1      -0.316  52.864 -23.714  1.00  0.00     0.027 C 
HETATM    2  C8  UNL     1       0.577  52.179 -22.671  1.00  0.00     0.009 C 
HETATM    3  C9  UNL     1      -0.111  52.065 -21.316  1.00  0.00     0.010 C 
HETATM    4  C10 UNL     1      -1.471  51.335 -21.384  1.00  0.00    -0.037 C 
HETATM    5  C11 UNL     1      -1.226  49.858 -21.781  1.00  0.00     0.015 C 
HETATM    6  C12 UNL     1      -2.101  51.385 -19.974  1.00  0.00     0.011 C 
HETATM    7  C13 UNL     1      -3.502  50.796 -19.926  1.00  0.00     0.026 C 
HETATM    8  C14 UNL     1      -4.439  51.430 -20.958  1.00  0.00     0.088 C 
HETATM    9  C18 UNL     1      -3.843  51.441 -22.395  1.00  0.00     0.012 C 
HETATM   10  C19 UNL     1      -4.828  52.145 -23.343  1.00  0.00     0.012 C 
HETATM   11  C20 UNL     1      -2.407  52.081 -22.388  1.00  0.00     0.028 C 
HETATM   12  C21 UNL     1      -1.732  52.226 -23.785  1.00  0.00     0.128 C 
ENDROOT
BRANCH   1  13
HETATM   13  C5  UNL     1       0.352  52.980 -25.118  1.00  0.00     0.080 C 
HETATM   14  C6  UNL     1       0.248  54.358 -25.776  1.00  0.00     0.020 C 
BRANCH  13  15
HETATM   15  C4  UNL     1      -0.090  51.851 -26.052  1.00  0.00     0.222 C 
HETATM   16  N1  UNL     1      -1.079  52.160 -26.957  1.00  0.00    -0.359 N 
HETATM   17  H8  UNL     1      -1.555  53.049 -26.890  1.00  0.00     0.162 HD
HETATM   18  O2  UNL     1       0.399  50.726 -25.968  1.00  0.00    -0.273 OA
BRANCH  16  19
HETATM   19  C3  UNL     1      -1.678  51.146 -27.806  1.00  0.00     0.148 C 
BRANCH  19  20
HETATM   20  C2  UNL     1      -3.070  50.703 -27.353  1.00  0.00     0.186 C 
BRANCH  20  21
HETATM   21  O1  UNL     1      -3.623  49.836 -28.346  1.00  0.00    -0.394 OA
HETATM   22  C1  UNL     1      -3.916  48.552 -27.810  1.00  0.00     0.201 C 
ENDBRANCH  20  21
ENDBRANCH  19  20
ENDBRANCH  16  19
ENDBRANCH  13  15
ENDBRANCH   1  13
BRANCH  12  23
HETATM   23  O5  UNL     1      -2.531  53.083 -24.599  1.00  0.00    -0.395 OA
HETATM   24  H38 UNL     1      -2.375  52.858 -25.531  1.00  0.00     0.210 HD
ENDBRANCH  12  23
BRANCH   8  25
HETATM   25  N2  UNL     1      -5.716  50.728 -20.926  1.00  0.00    -0.354 N 
HETATM   26  C15 UNL     1      -5.841  49.381 -21.189  1.00  0.00     0.241 C 
HETATM   27  O3  UNL     1      -4.891  48.624 -21.367  1.00  0.00    -0.271 OA
HETATM   28  H26 UNL     1      -6.586  51.254 -20.973  1.00  0.00     0.162 HD
BRANCH  26  29
HETATM   29  C16 UNL     1      -7.293  48.898 -21.218  1.00  0.00     0.269 C 
BRANCH  29  30
HETATM   30  O4  UNL     1      -7.963  49.292 -22.419  1.00  0.00    -0.387 OA
HETATM   31  C17 UNL     1      -7.304  48.774 -23.567  1.00  0.00     0.202 C 
ENDBRANCH  29  30
ENDBRANCH  26  29
ENDBRANCH   8  25
TORSDOF 9
ENDMDL
MODEL 7
REMARK minimizedAffinity -7.19416761
REMARK  9 active torsions:
REMARK  status: ('A' for Active; 'I' for Inactive)
REMARK    1  A    between atoms: O1_2  and  C2_3 
REMARK    2  A    between atoms: C2_3  and  C3_4 
REMARK    3  A    between atoms: C3_4  and  N1_5 
REMARK       I    between atoms: N1_5  and  C4_6 
REMARK    4  A    between atoms: C4_6  and  C5_8 
REMARK    5  A    between atoms: C5_8  and  C7_10 
REMARK    6  A    between atoms: C14_17  and  N2_18 
REMARK       I    between atoms: N2_18  and  C15_19 
REMARK    7  A    between atoms: C15_19  and  C16_21 
REMARK    8  A    between atoms: C16_21  and  O4_22 
REMARK    9  A    between atoms: C21_27  and  O5_28 
ROOT
HETATM    1  C7  UNL     1      -0.572  51.509 -22.607  1.00  0.00     0.027 C 
HETATM    2  C8  UNL     1      -1.541  50.340 -22.824  1.00  0.00     0.009 C 
HETATM    3  C9  UNL     1      -1.344  49.235 -21.792  1.00  0.00     0.010 C 
HETATM    4  C10 UNL     1      -1.464  49.735 -20.336  1.00  0.00    -0.037 C 
HETATM    5  C11 UNL     1      -2.922  50.197 -20.085  1.00  0.00     0.015 C 
HETATM    6  C12 UNL     1      -1.139  48.546 -19.403  1.00  0.00     0.011 C 
HETATM    7  C13 UNL     1      -1.112  48.932 -17.933  1.00  0.00     0.026 C 
HETATM    8  C14 UNL     1      -0.172  50.108 -17.654  1.00  0.00     0.088 C 
HETATM    9  C18 UNL     1      -0.428  51.326 -18.588  1.00  0.00     0.012 C 
HETATM   10  C19 UNL     1       0.596  52.428 -18.270  1.00  0.00     0.012 C 
HETATM   11  C20 UNL     1      -0.422  50.874 -20.094  1.00  0.00     0.028 C 
HETATM   12  C21 UNL     1      -0.586  52.018 -21.137  1.00  0.00     0.128 C 
ENDROOT
BRANCH   1  13
HETATM   13  C5  UNL     1      -0.760  52.666 -23.636  1.00  0.00     0.080 C 
HETATM   14  C6  UNL     1      -2.097  52.663 -24.381  1.00  0.00     0.020 C 
BRANCH  13  15
HETATM   15  C4  UNL     1       0.437  52.784 -24.582  1.00  0.00     0.222 C 
HETATM   16  N1  UNL     1       0.688  51.696 -25.385  1.00  0.00    -0.359 N 
HETATM   17  H8  UNL     1       0.175  50.838 -25.238  1.00  0.00     0.162 HD
HETATM   18  O2  UNL     1       1.146  53.788 -24.592  1.00  0.00    -0.273 OA
BRANCH  16  19
HETATM   19  C3  UNL     1       1.868  51.628 -26.229  1.00  0.00     0.148 C 
BRANCH  19  20
HETATM   20  C2  UNL     1       1.593  51.926 -27.703  1.00  0.00     0.186 C 
BRANCH  20  21
HETATM   21  O1  UNL     1       0.183  52.084 -27.886  1.00  0.00    -0.394 OA
HETATM   22  C1  UNL     1      -0.141  53.402 -28.308  1.00  0.00     0.201 C 
ENDBRANCH  20  21
ENDBRANCH  19  20
ENDBRANCH  16  19
ENDBRANCH  13  15
ENDBRANCH   1  13
BRANCH  12  23
HETATM   23  O5  UNL     1       0.505  52.927 -21.005  1.00  0.00    -0.395 OA
HETATM   24  H38 UNL     1       0.220  53.801 -21.318  1.00  0.00     0.210 HD
ENDBRANCH  12  23
BRANCH   8  25
HETATM   25  N2  UNL     1      -0.299  50.488 -16.252  1.00  0.00    -0.354 N 
HETATM   26  C15 UNL     1      -1.498  50.846 -15.675  1.00  0.00     0.241 C 
HETATM   27  O3  UNL     1      -2.583  50.779 -16.245  1.00  0.00    -0.271 OA
HETATM   28  H26 UNL     1       0.527  50.759 -15.724  1.00  0.00     0.162 HD
BRANCH  26  29
HETATM   29  C16 UNL     1      -1.359  51.324 -14.228  1.00  0.00     0.269 C 
BRANCH  29  30
HETATM   30  O4  UNL     1       0.006  51.565 -13.874  1.00  0.00    -0.387 OA
HETATM   31  C17 UNL     1       0.106  52.570 -12.873  1.00  0.00     0.202 C 
ENDBRANCH  29  30
ENDBRANCH  26  29
ENDBRANCH   8  25
TORSDOF 9
ENDMDL
MODEL 8
REMARK minimizedAffinity -7.1066761
REMARK  9 active torsions:
REMARK  status: ('A' for Active; 'I' for Inactive)
REMARK    1  A    between atoms: O1_2  and  C2_3 
REMARK    2  A    between atoms: C2_3  and  C3_4 
REMARK    3  A    between atoms: C3_4  and  N1_5 
REMARK       I    between atoms: N1_5  and  C4_6 
REMARK    4  A    between atoms: C4_6  and  C5_8 
REMARK    5  A    between atoms: C5_8  and  C7_10 
REMARK    6  A    between atoms: C14_17  and  N2_18 
REMARK       I    between atoms: N2_18  and  C15_19 
REMARK    7  A    between atoms: C15_19  and  C16_21 
REMARK    8  A    between atoms: C16_21  and  O4_22 
REMARK    9  A    between atoms: C21_27  and  O5_28 
ROOT
HETATM    1  C7  UNL     1      -0.828  52.181 -25.013  1.00  0.00     0.027 C 
HETATM    2  C8  UNL     1      -0.403  51.435 -26.284  1.00  0.00     0.009 C 
HETATM    3  C9  UNL     1      -0.997  50.033 -26.348  1.00  0.00     0.010 C 
HETATM    4  C10 UNL     1      -2.538  50.019 -26.237  1.00  0.00    -0.037 C 
HETATM    5  C11 UNL     1      -3.135  50.713 -27.487  1.00  0.00     0.015 C 
HETATM    6  C12 UNL     1      -2.993  48.542 -26.209  1.00  0.00     0.011 C 
HETATM    7  C13 UNL     1      -4.489  48.384 -25.988  1.00  0.00     0.026 C 
HETATM    8  C14 UNL     1      -4.978  49.122 -24.738  1.00  0.00     0.088 C 
HETATM    9  C18 UNL     1      -4.519  50.609 -24.692  1.00  0.00     0.012 C 
HETATM   10  C19 UNL     1      -5.008  51.246 -23.381  1.00  0.00     0.012 C 
HETATM   11  C20 UNL     1      -2.965  50.710 -24.903  1.00  0.00     0.028 C 
HETATM   12  C21 UNL     1      -2.367  52.145 -24.796  1.00  0.00     0.128 C 
ENDROOT
BRANCH   1  13
HETATM   13  C5  UNL     1      -0.251  53.628 -24.925  1.00  0.00     0.080 C 
HETATM   14  C6  UNL     1       0.308  54.186 -26.235  1.00  0.00     0.020 C 
BRANCH  13  15
HETATM   15  C4  UNL     1       0.729  53.778 -23.759  1.00  0.00     0.222 C 
HETATM   16  N1  UNL     1       0.556  52.915 -22.702  1.00  0.00    -0.359 N 
HETATM   17  H8  UNL     1      -0.262  52.323 -22.671  1.00  0.00     0.162 HD
HETATM   18  O2  UNL     1       1.601  54.644 -23.766  1.00  0.00    -0.273 OA
BRANCH  16  19
HETATM   19  C3  UNL     1       1.332  53.040 -21.481  1.00  0.00     0.148 C 
BRANCH  19  20
HETATM   20  C2  UNL     1       0.678  53.924 -20.419  1.00  0.00     0.186 C 
BRANCH  20  21
HETATM   21  O1  UNL     1       0.607  53.194 -19.192  1.00  0.00    -0.394 OA
HETATM   22  C1  UNL     1      -0.570  52.398 -19.128  1.00  0.00     0.201 C 
ENDBRANCH  20  21
ENDBRANCH  19  20
ENDBRANCH  16  19
ENDBRANCH  13  15
ENDBRANCH   1  13
BRANCH  12  23
HETATM   23  O5  UNL     1      -2.612  52.654 -23.486  1.00  0.00    -0.395 OA
HETATM   24  H38 UNL     1      -2.634  53.624 -23.529  1.00  0.00     0.210 HD
ENDBRANCH  12  23
BRANCH   8  25
HETATM   25  N2  UNL     1      -6.430  49.020 -24.670  1.00  0.00    -0.354 N 
HETATM   26  C15 UNL     1      -7.082  48.012 -23.994  1.00  0.00     0.241 C 
HETATM   27  O3  UNL     1      -6.518  47.171 -23.301  1.00  0.00    -0.271 OA
HETATM   28  H26 UNL     1      -7.006  49.530 -25.336  1.00  0.00     0.162 HD
BRANCH  26  29
HETATM   29  C16 UNL     1      -8.603  48.045 -24.170  1.00  0.00     0.269 C 
BRANCH  29  30
HETATM   30  O4  UNL     1      -9.002  47.568 -25.458  1.00  0.00    -0.387 OA
HETATM   31  C17 UNL     1      -9.708  48.569 -26.179  1.00  0.00     0.202 C 
ENDBRANCH  29  30
ENDBRANCH  26  29
ENDBRANCH   8  25
TORSDOF 9
ENDMDL
MODEL 9
REMARK minimizedAffinity -7.09321404
REMARK  9 active torsions:
REMARK  status: ('A' for Active; 'I' for Inactive)
REMARK    1  A    between atoms: O1_2  and  C2_3 
REMARK    2  A    between atoms: C2_3  and  C3_4 
REMARK    3  A    between atoms: C3_4  and  N1_5 
REMARK       I    between atoms: N1_5  and  C4_6 
REMARK    4  A    between atoms: C4_6  and  C5_8 
REMARK    5  A    between atoms: C5_8  and  C7_10 
REMARK    6  A    between atoms: C14_17  and  N2_18 
REMARK       I    between atoms: N2_18  and  C15_19 
REMARK    7  A    between atoms: C15_19  and  C16_21 
REMARK    8  A    between atoms: C16_21  and  O4_22 
REMARK    9  A    between atoms: C21_27  and  O5_28 
ROOT
HETATM    1  C7  UNL     1      -0.457  51.622 -22.289  1.00  0.00     0.027 C 
HETATM    2  C8  UNL     1       0.086  52.511 -23.415  1.00  0.00     0.009 C 
HETATM    3  C9  UNL     1       0.070  51.800 -24.762  1.00  0.00     0.010 C 
HETATM    4  C10 UNL     1      -1.327  51.274 -25.156  1.00  0.00    -0.037 C 
HETATM    5  C11 UNL     1      -2.270  52.482 -25.383  1.00  0.00     0.015 C 
HETATM    6  C12 UNL     1      -1.178  50.489 -26.479  1.00  0.00     0.011 C 
HETATM    7  C13 UNL     1      -2.469  49.819 -26.923  1.00  0.00     0.026 C 
HETATM    8  C14 UNL     1      -3.071  48.927 -25.833  1.00  0.00     0.088 C 
HETATM    9  C18 UNL     1      -3.213  49.654 -24.464  1.00  0.00     0.012 C 
HETATM   10  C19 UNL     1      -3.771  48.665 -23.426  1.00  0.00     0.012 C 
HETATM   11  C20 UNL     1      -1.846  50.306 -24.044  1.00  0.00     0.028 C 
HETATM   12  C21 UNL     1      -1.835  50.996 -22.648  1.00  0.00     0.128 C 
ENDROOT
BRANCH   1  13
HETATM   13  C5  UNL     1      -0.472  52.327 -20.897  1.00  0.00     0.080 C 
HETATM   14  C6  UNL     1       0.749  53.200 -20.598  1.00  0.00     0.020 C 
BRANCH  13  15
HETATM   15  C4  UNL     1      -0.779  51.343 -19.766  1.00  0.00     0.222 C 
HETATM   16  N1  UNL     1      -1.869  51.637 -18.982  1.00  0.00    -0.359 N 
HETATM   17  H8  UNL     1      -2.336  52.527 -19.089  1.00  0.00     0.162 HD
HETATM   18  O2  UNL     1      -0.065  50.363 -19.562  1.00  0.00    -0.273 OA
BRANCH  16  19
HETATM   19  C3  UNL     1      -2.188  50.858 -17.798  1.00  0.00     0.148 C 
BRANCH  19  20
HETATM   20  C2  UNL     1      -3.409  49.953 -17.963  1.00  0.00     0.186 C 
BRANCH  20  21
HETATM   21  O1  UNL     1      -3.639  49.739 -19.359  1.00  0.00    -0.394 OA
HETATM   22  C1  UNL     1      -5.022  49.566 -19.637  1.00  0.00     0.201 C 
ENDBRANCH  20  21
ENDBRANCH  19  20
ENDBRANCH  16  19
ENDBRANCH  13  15
ENDBRANCH   1  13
BRANCH  12  23
HETATM   23  O5  UNL     1      -2.119  50.021 -21.646  1.00  0.00    -0.395 OA
HETATM   24  H38 UNL     1      -2.515  50.470 -20.880  1.00  0.00     0.210 HD
ENDBRANCH  12  23
BRANCH   8  25
HETATM   25  N2  UNL     1      -4.359  48.425 -26.295  1.00  0.00    -0.354 N 
HETATM   26  C15 UNL     1      -4.621  48.131 -27.616  1.00  0.00     0.241 C 
HETATM   27  O3  UNL     1      -3.778  48.158 -28.508  1.00  0.00    -0.271 OA
HETATM   28  H26 UNL     1      -5.184  48.528 -25.709  1.00  0.00     0.162 HD
BRANCH  26  29
HETATM   29  C16 UNL     1      -6.078  47.739 -27.874  1.00  0.00     0.269 C 
BRANCH  29  30
HETATM   30  O4  UNL     1      -6.822  47.614 -26.659  1.00  0.00    -0.387 OA
HETATM   31  C17 UNL     1      -7.753  46.543 -26.734  1.00  0.00     0.202 C 
ENDBRANCH  29  30
ENDBRANCH  26  29
ENDBRANCH   8  25
TORSDOF 9
ENDMDL
