MODEL 1
REMARK minimizedAffinity -6.86167383
REMARK CNNscore 0.802729785
REMARK CNNaffinity 7.32538605
REMARK  9 active torsions:
REMARK  status: ('A' for Active; 'I' for Inactive)
REMARK    1  A    between atoms: C2_2  and  C3_3 
REMARK    2  A    between atoms: C2_2  and  C9_12 
REMARK    3  A    between atoms: C3_3  and  C4_4 
REMARK    4  A    between atoms: C4_4  and  C5_5 
REMARK    5  A    between atoms: C5_5  and  O1_6 
REMARK    6  A    between atoms: C5_5  and  C6_7 
REMARK    7  A    between atoms: C6_7  and  O2_9 
REMARK    8  A    between atoms: C6_7  and  C8_10 
REMARK    9  A    between atoms: C8_10  and  O3_11 
ROOT
HETATM    1  C9  UNL     1      -1.844  52.346  -9.872  1.00  0.00    -0.002 C 
HETATM    2  C10 UNL     1      -1.161  51.012 -10.284  1.00  0.00     0.007 C 
HETATM    3  C11 UNL     1       0.363  51.222 -10.148  1.00  0.00     0.015 C 
HETATM    4  C12 UNL     1       0.517  52.496  -9.289  1.00  0.00    -0.005 C 
HETATM    5  C13 UNL     1       0.343  52.055  -7.801  1.00  0.00     0.021 C 
HETATM    6  C14 UNL     1       1.815  53.297  -9.278  1.00  0.00    -0.000 C 
HETATM    7  C15 UNL     1       1.818  54.642  -9.067  1.00  0.00    -0.060 C 
HETATM    8  C16 UNL     1       0.502  55.417  -8.939  1.00  0.00     0.036 C 
HETATM    9  C17 UNL     1      -0.809  54.607  -8.986  1.00  0.00     0.015 C 
HETATM   10  C18 UNL     1      -0.663  53.369  -9.882  1.00  0.00    -0.028 C 
HETATM   11  C19 UNL     1      -0.384  53.852 -11.336  1.00  0.00     0.016 C 
HETATM   12  C20 UNL     1       3.132  55.470  -9.011  1.00  0.00    -0.014 C 
HETATM   13  C21 UNL     1       3.414  55.915 -10.462  1.00  0.00     0.020 C 
HETATM   14  C22 UNL     1       2.995  56.729  -8.111  1.00  0.00     0.021 C 
HETATM   15  C23 UNL     1       4.314  57.456  -7.887  1.00  0.00     0.080 C 
HETATM   16  C24 UNL     1       5.265  56.514  -7.204  1.00  0.00     0.135 C 
HETATM   17  O4  UNL     1       5.747  56.800  -6.111  1.00  0.00    -0.297 OA
HETATM   18  C25 UNL     1       5.588  55.206  -7.938  1.00  0.00     0.018 C 
HETATM   19  C26 UNL     1       6.313  54.267  -6.938  1.00  0.00     0.023 C 
HETATM   20  C27 UNL     1       6.581  55.504  -9.067  1.00  0.00     0.023 C 
HETATM   21  C28 UNL     1       4.236  54.541  -8.383  1.00  0.00     0.020 C 
HETATM   22  C29 UNL     1       4.419  53.296  -9.255  1.00  0.00     0.090 C 
HETATM   23  C30 UNL     1       3.115  52.558  -9.452  1.00  0.00     0.157 C 
HETATM   24  O5  UNL     1       3.136  51.372  -9.770  1.00  0.00    -0.293 OA
ENDROOT
BRANCH   1  25
HETATM   25  C2  UNL     1      -3.209  52.593 -10.592  1.00  0.00    -0.014 C 
HETATM   26  C1  UNL     1      -3.774  54.013 -10.518  1.00  0.00     0.010 C 
BRANCH  25  27
HETATM   27  C3  UNL     1      -4.263  51.544 -10.166  1.00  0.00     0.007 C 
BRANCH  27  28
HETATM   28  C4  UNL     1      -4.508  50.394 -11.169  1.00  0.00     0.035 C 
BRANCH  28  29
HETATM   29  C5  UNL     1      -5.746  49.535 -10.867  1.00  0.00     0.154 C 
BRANCH  29  30
HETATM   30  O1  UNL     1      -6.706  50.334 -10.157  1.00  0.00    -0.392 OA
HETATM   31  H10 UNL     1      -7.389  49.692  -9.868  1.00  0.00     0.210 HD
ENDBRANCH  29  30
BRANCH  29  32
HETATM   32  C6  UNL     1      -5.483  48.249 -10.032  1.00  0.00     0.101 C 
HETATM   33  C7  UNL     1      -4.021  47.771 -10.098  1.00  0.00     0.051 C 
BRANCH  32  34
HETATM   34  O2  UNL     1      -5.724  48.621  -8.654  1.00  0.00    -0.385 OA
HETATM   35  H14 UNL     1      -5.654  47.791  -8.133  1.00  0.00     0.210 HD
ENDBRANCH  32  34
BRANCH  32  36
HETATM   36  C8  UNL     1      -6.465  47.118 -10.392  1.00  0.00     0.204 C 
BRANCH  36  37
HETATM   37  O3  UNL     1      -7.585  47.650 -11.108  1.00  0.00    -0.398 OA
HETATM   38  H17 UNL     1      -8.317  47.765 -10.470  1.00  0.00     0.209 HD
ENDBRANCH  36  37
ENDBRANCH  32  36
ENDBRANCH  29  32
ENDBRANCH  28  29
ENDBRANCH  27  28
ENDBRANCH  25  27
ENDBRANCH   1  25
TORSDOF 9
ENDMDL
MODEL 2
REMARK minimizedAffinity -7.08095503
REMARK CNNscore 0.546217263
REMARK CNNaffinity 6.95011377
REMARK  9 active torsions:
REMARK  status: ('A' for Active; 'I' for Inactive)
REMARK    1  A    between atoms: C2_2  and  C3_3 
REMARK    2  A    between atoms: C2_2  and  C9_12 
REMARK    3  A    between atoms: C3_3  and  C4_4 
REMARK    4  A    between atoms: C4_4  and  C5_5 
REMARK    5  A    between atoms: C5_5  and  O1_6 
REMARK    6  A    between atoms: C5_5  and  C6_7 
REMARK    7  A    between atoms: C6_7  and  O2_9 
REMARK    8  A    between atoms: C6_7  and  C8_10 
REMARK    9  A    between atoms: C8_10  and  O3_11 
ROOT
HETATM    1  C9  UNL     1      -0.735  53.498  -9.564  1.00  0.00    -0.002 C 
HETATM    2  C10 UNL     1      -0.314  54.216 -10.876  1.00  0.00     0.007 C 
HETATM    3  C11 UNL     1       0.995  54.979 -10.575  1.00  0.00     0.015 C 
HETATM    4  C12 UNL     1       1.518  54.375  -9.254  1.00  0.00    -0.005 C 
HETATM    5  C13 UNL     1       2.257  53.052  -9.631  1.00  0.00     0.021 C 
HETATM    6  C14 UNL     1       2.526  55.116  -8.382  1.00  0.00    -0.000 C 
HETATM    7  C15 UNL     1       2.550  54.955  -7.030  1.00  0.00    -0.060 C 
HETATM    8  C16 UNL     1       1.490  54.102  -6.325  1.00  0.00     0.036 C 
HETATM    9  C17 UNL     1       0.451  53.383  -7.208  1.00  0.00     0.015 C 
HETATM   10  C18 UNL     1       0.149  54.191  -8.478  1.00  0.00    -0.028 C 
HETATM   11  C19 UNL     1      -0.488  55.547  -8.051  1.00  0.00     0.016 C 
HETATM   12  C20 UNL     1       3.596  55.669  -6.130  1.00  0.00    -0.014 C 
HETATM   13  C21 UNL     1       2.965  57.024  -5.740  1.00  0.00     0.020 C 
HETATM   14  C22 UNL     1       3.905  54.863  -4.837  1.00  0.00     0.021 C 
HETATM   15  C23 UNL     1       5.058  55.441  -4.028  1.00  0.00     0.080 C 
HETATM   16  C24 UNL     1       6.295  55.419  -4.881  1.00  0.00     0.135 C 
HETATM   17  O4  UNL     1       7.292  54.801  -4.516  1.00  0.00    -0.297 OA
HETATM   18  C25 UNL     1       6.236  56.195  -6.204  1.00  0.00     0.018 C 
HETATM   19  C26 UNL     1       7.469  55.783  -7.051  1.00  0.00     0.023 C 
HETATM   20  C27 UNL     1       6.381  57.692  -5.906  1.00  0.00     0.023 C 
HETATM   21  C28 UNL     1       4.925  55.779  -6.963  1.00  0.00     0.020 C 
HETATM   22  C29 UNL     1       4.668  56.589  -8.238  1.00  0.00     0.090 C 
HETATM   23  C30 UNL     1       3.544  55.997  -9.055  1.00  0.00     0.157 C 
HETATM   24  O5  UNL     1       3.467  56.261 -10.253  1.00  0.00    -0.293 OA
ENDROOT
BRANCH   1  25
HETATM   25  C2  UNL     1      -2.280  53.308  -9.428  1.00  0.00    -0.014 C 
HETATM   26  C1  UNL     1      -2.778  51.875  -9.223  1.00  0.00     0.010 C 
BRANCH  25  27
HETATM   27  C3  UNL     1      -3.032  54.006 -10.587  1.00  0.00     0.007 C 
BRANCH  27  28
HETATM   28  C4  UNL     1      -3.829  53.073 -11.527  1.00  0.00     0.035 C 
BRANCH  28  29
HETATM   29  C5  UNL     1      -3.235  52.926 -12.936  1.00  0.00     0.154 C 
BRANCH  29  30
HETATM   30  O1  UNL     1      -4.196  53.390 -13.898  1.00  0.00    -0.392 OA
HETATM   31  H10 UNL     1      -3.818  53.126 -14.764  1.00  0.00     0.210 HD
ENDBRANCH  29  30
BRANCH  29  32
HETATM   32  C6  UNL     1      -2.813  51.484 -13.338  1.00  0.00     0.101 C 
HETATM   33  C7  UNL     1      -3.103  51.155 -14.813  1.00  0.00     0.051 C 
BRANCH  32  34
HETATM   34  O2  UNL     1      -1.373  51.443 -13.191  1.00  0.00    -0.385 OA
HETATM   35  H14 UNL     1      -1.111  50.509 -13.350  1.00  0.00     0.210 HD
ENDBRANCH  32  34
BRANCH  32  36
HETATM   36  C8  UNL     1      -3.412  50.425 -12.393  1.00  0.00     0.204 C 
BRANCH  36  37
HETATM   37  O3  UNL     1      -3.882  49.303 -13.149  1.00  0.00    -0.398 OA
HETATM   38  H17 UNL     1      -4.848  49.408 -13.264  1.00  0.00     0.209 HD
ENDBRANCH  36  37
ENDBRANCH  32  36
ENDBRANCH  29  32
ENDBRANCH  28  29
ENDBRANCH  27  28
ENDBRANCH  25  27
ENDBRANCH   1  25
TORSDOF 9
ENDMDL
MODEL 3
REMARK minimizedAffinity -9.53472996
REMARK CNNscore 0.538151979
REMARK CNNaffinity 7.30554962
REMARK  9 active torsions:
REMARK  status: ('A' for Active; 'I' for Inactive)
REMARK    1  A    between atoms: C2_2  and  C3_3 
REMARK    2  A    between atoms: C2_2  and  C9_12 
REMARK    3  A    between atoms: C3_3  and  C4_4 
REMARK    4  A    between atoms: C4_4  and  C5_5 
REMARK    5  A    between atoms: C5_5  and  O1_6 
REMARK    6  A    between atoms: C5_5  and  C6_7 
REMARK    7  A    between atoms: C6_7  and  O2_9 
REMARK    8  A    between atoms: C6_7  and  C8_10 
REMARK    9  A    between atoms: C8_10  and  O3_11 
ROOT
HETATM    1  C9  UNL     1      -1.316  50.636 -22.984  1.00  0.00    -0.002 C 
HETATM    2  C10 UNL     1      -0.894  52.120 -23.172  1.00  0.00     0.007 C 
HETATM    3  C11 UNL     1      -0.398  52.627 -21.800  1.00  0.00     0.015 C 
HETATM    4  C12 UNL     1      -0.155  51.352 -20.965  1.00  0.00    -0.005 C 
HETATM    5  C13 UNL     1       1.246  50.805 -21.384  1.00  0.00     0.021 C 
HETATM    6  C14 UNL     1      -0.084  51.398 -19.442  1.00  0.00    -0.000 C 
HETATM    7  C15 UNL     1      -0.469  50.338 -18.679  1.00  0.00    -0.060 C 
HETATM    8  C16 UNL     1      -1.092  49.095 -19.326  1.00  0.00     0.036 C 
HETATM    9  C17 UNL     1      -1.194  49.068 -20.864  1.00  0.00     0.015 C 
HETATM   10  C18 UNL     1      -1.392  50.480 -21.431  1.00  0.00    -0.028 C 
HETATM   11  C19 UNL     1      -2.750  51.030 -20.903  1.00  0.00     0.016 C 
HETATM   12  C20 UNL     1      -0.366  50.351 -17.129  1.00  0.00    -0.014 C 
HETATM   13  C21 UNL     1      -1.705  50.926 -16.620  1.00  0.00     0.020 C 
HETATM   14  C22 UNL     1      -0.171  48.924 -16.543  1.00  0.00     0.021 C 
HETATM   15  C23 UNL     1       0.120  48.923 -15.048  1.00  0.00     0.080 C 
HETATM   16  C24 UNL     1       1.392  49.686 -14.811  1.00  0.00     0.135 C 
HETATM   17  O4  UNL     1       2.353  49.144 -14.270  1.00  0.00    -0.297 OA
HETATM   18  C25 UNL     1       1.417  51.149 -15.275  1.00  0.00     0.018 C 
HETATM   19  C26 UNL     1       2.889  51.637 -15.228  1.00  0.00     0.023 C 
HETATM   20  C27 UNL     1       0.633  52.001 -14.270  1.00  0.00     0.023 C 
HETATM   21  C28 UNL     1       0.901  51.206 -16.758  1.00  0.00     0.020 C 
HETATM   22  C29 UNL     1       0.738  52.629 -17.299  1.00  0.00     0.090 C 
HETATM   23  C30 UNL     1       0.480  52.632 -18.788  1.00  0.00     0.157 C 
HETATM   24  O5  UNL     1       0.715  53.647 -19.438  1.00  0.00    -0.293 OA
ENDROOT
BRANCH   1  25
HETATM   25  C2  UNL     1      -2.454  50.186 -23.955  1.00  0.00    -0.014 C 
HETATM   26  C1  UNL     1      -2.949  48.744 -23.808  1.00  0.00     0.010 C 
BRANCH  25  27
HETATM   27  C3  UNL     1      -2.096  50.512 -25.425  1.00  0.00     0.007 C 
BRANCH  27  28
HETATM   28  C4  UNL     1      -2.234  51.995 -25.835  1.00  0.00     0.035 C 
BRANCH  28  29
HETATM   29  C5  UNL     1      -1.826  52.299 -27.285  1.00  0.00     0.154 C 
BRANCH  29  30
HETATM   30  O1  UNL     1      -2.030  51.120 -28.082  1.00  0.00    -0.392 OA
HETATM   31  H10 UNL     1      -1.611  51.336 -28.943  1.00  0.00     0.210 HD
ENDBRANCH  29  30
BRANCH  29  32
HETATM   32  C6  UNL     1      -0.357  52.765 -27.485  1.00  0.00     0.101 C 
HETATM   33  C7  UNL     1       0.631  52.093 -26.514  1.00  0.00     0.051 C 
BRANCH  32  34
HETATM   34  O2  UNL     1       0.017  52.322 -28.812  1.00  0.00    -0.385 OA
HETATM   35  H14 UNL     1       0.910  52.698 -28.981  1.00  0.00     0.210 HD
ENDBRANCH  32  34
BRANCH  32  36
HETATM   36  C8  UNL     1      -0.230  54.300 -27.448  1.00  0.00     0.204 C 
BRANCH  36  37
HETATM   37  O3  UNL     1       0.149  54.730 -26.136  1.00  0.00    -0.398 OA
HETATM   38  H17 UNL     1      -0.663  55.020 -25.674  1.00  0.00     0.209 HD
ENDBRANCH  36  37
ENDBRANCH  32  36
ENDBRANCH  29  32
ENDBRANCH  28  29
ENDBRANCH  27  28
ENDBRANCH  25  27
ENDBRANCH   1  25
TORSDOF 9
ENDMDL
MODEL 4
REMARK minimizedAffinity -7.55028486
REMARK CNNscore 0.524840951
REMARK CNNaffinity 6.56934977
REMARK  9 active torsions:
REMARK  status: ('A' for Active; 'I' for Inactive)
REMARK    1  A    between atoms: C2_2  and  C3_3 
REMARK    2  A    between atoms: C2_2  and  C9_12 
REMARK    3  A    between atoms: C3_3  and  C4_4 
REMARK    4  A    between atoms: C4_4  and  C5_5 
REMARK    5  A    between atoms: C5_5  and  O1_6 
REMARK    6  A    between atoms: C5_5  and  C6_7 
REMARK    7  A    between atoms: C6_7  and  O2_9 
REMARK    8  A    between atoms: C6_7  and  C8_10 
REMARK    9  A    between atoms: C8_10  and  O3_11 
ROOT
HETATM    1  C9  UNL     1       2.285  55.306  -8.974  1.00  0.00    -0.002 C 
HETATM    2  C10 UNL     1       1.277  56.199  -8.199  1.00  0.00     0.007 C 
HETATM    3  C11 UNL     1       2.068  56.907  -7.077  1.00  0.00     0.015 C 
HETATM    4  C12 UNL     1       3.553  56.741  -7.466  1.00  0.00    -0.005 C 
HETATM    5  C13 UNL     1       3.863  57.848  -8.523  1.00  0.00     0.021 C 
HETATM    6  C14 UNL     1       4.669  56.900  -6.439  1.00  0.00    -0.000 C 
HETATM    7  C15 UNL     1       5.839  56.213  -6.550  1.00  0.00    -0.060 C 
HETATM    8  C16 UNL     1       6.034  55.172  -7.658  1.00  0.00     0.036 C 
HETATM    9  C17 UNL     1       4.888  54.990  -8.673  1.00  0.00     0.015 C 
HETATM   10  C18 UNL     1       3.524  55.259  -8.023  1.00  0.00    -0.028 C 
HETATM   11  C19 UNL     1       3.302  54.199  -6.904  1.00  0.00     0.016 C 
HETATM   12  C20 UNL     1       7.004  56.392  -5.537  1.00  0.00    -0.014 C 
HETATM   13  C21 UNL     1       6.754  55.358  -4.418  1.00  0.00     0.020 C 
HETATM   14  C22 UNL     1       8.390  56.116  -6.182  1.00  0.00     0.021 C 
HETATM   15  C23 UNL     1       9.559  56.463  -5.269  1.00  0.00     0.080 C 
HETATM   16  C24 UNL     1       9.493  57.930  -4.950  1.00  0.00     0.135 C 
HETATM   17  O4  UNL     1      10.428  58.673  -5.237  1.00  0.00    -0.297 OA
HETATM   18  C25 UNL     1       8.216  58.430  -4.261  1.00  0.00     0.018 C 
HETATM   19  C26 UNL     1       8.224  59.981  -4.314  1.00  0.00     0.023 C 
HETATM   20  C27 UNL     1       8.267  58.036  -2.780  1.00  0.00     0.023 C 
HETATM   21  C28 UNL     1       6.978  57.892  -5.063  1.00  0.00     0.020 C 
HETATM   22  C29 UNL     1       5.632  58.198  -4.398  1.00  0.00     0.090 C 
HETATM   23  C30 UNL     1       4.474  57.883  -5.316  1.00  0.00     0.157 C 
HETATM   24  O5  UNL     1       3.386  58.417  -5.118  1.00  0.00    -0.293 OA
ENDROOT
BRANCH   1  25
HETATM   25  C2  UNL     1       1.630  54.035  -9.606  1.00  0.00    -0.014 C 
HETATM   26  C1  UNL     1       2.570  52.871  -9.929  1.00  0.00     0.010 C 
BRANCH  25  27
HETATM   27  C3  UNL     1       0.753  54.407 -10.825  1.00  0.00     0.007 C 
BRANCH  27  28
HETATM   28  C4  UNL     1      -0.773  54.282 -10.616  1.00  0.00     0.035 C 
BRANCH  28  29
HETATM   29  C5  UNL     1      -1.372  52.940 -11.067  1.00  0.00     0.154 C 
BRANCH  29  30
HETATM   30  O1  UNL     1      -1.383  52.895 -12.504  1.00  0.00    -0.392 OA
HETATM   31  H10 UNL     1      -1.911  52.095 -12.715  1.00  0.00     0.210 HD
ENDBRANCH  29  30
BRANCH  29  32
HETATM   32  C6  UNL     1      -2.815  52.649 -10.567  1.00  0.00     0.101 C 
HETATM   33  C7  UNL     1      -3.362  51.292 -11.045  1.00  0.00     0.051 C 
BRANCH  32  34
HETATM   34  O2  UNL     1      -2.720  52.560  -9.125  1.00  0.00    -0.385 OA
HETATM   35  H14 UNL     1      -3.642  52.473  -8.798  1.00  0.00     0.210 HD
ENDBRANCH  32  34
BRANCH  32  36
HETATM   36  C8  UNL     1      -3.784  53.799 -10.904  1.00  0.00     0.204 C 
BRANCH  36  37
HETATM   37  O3  UNL     1      -4.095  53.785 -12.302  1.00  0.00    -0.398 OA
HETATM   38  H17 UNL     1      -3.525  54.450 -12.738  1.00  0.00     0.209 HD
ENDBRANCH  36  37
ENDBRANCH  32  36
ENDBRANCH  29  32
ENDBRANCH  28  29
ENDBRANCH  27  28
ENDBRANCH  25  27
ENDBRANCH   1  25
TORSDOF 9
ENDMDL
MODEL 5
REMARK minimizedAffinity -7.95070076
REMARK CNNscore 0.443553507
REMARK CNNaffinity 6.64459419
REMARK  9 active torsions:
REMARK  status: ('A' for Active; 'I' for Inactive)
REMARK    1  A    between atoms: C2_2  and  C3_3 
REMARK    2  A    between atoms: C2_2  and  C9_12 
REMARK    3  A    between atoms: C3_3  and  C4_4 
REMARK    4  A    between atoms: C4_4  and  C5_5 
REMARK    5  A    between atoms: C5_5  and  O1_6 
REMARK    6  A    between atoms: C5_5  and  C6_7 
REMARK    7  A    between atoms: C6_7  and  O2_9 
REMARK    8  A    between atoms: C6_7  and  C8_10 
REMARK    9  A    between atoms: C8_10  and  O3_11 
ROOT
HETATM    1  C9  UNL     1      -1.822  50.134 -22.810  1.00  0.00    -0.002 C 
HETATM    2  C10 UNL     1      -1.858  51.485 -22.044  1.00  0.00     0.007 C 
HETATM    3  C11 UNL     1      -2.220  51.165 -20.577  1.00  0.00     0.015 C 
HETATM    4  C12 UNL     1      -1.986  49.646 -20.428  1.00  0.00    -0.005 C 
HETATM    5  C13 UNL     1      -0.454  49.452 -20.199  1.00  0.00     0.021 C 
HETATM    6  C14 UNL     1      -2.624  48.849 -19.295  1.00  0.00    -0.000 C 
HETATM    7  C15 UNL     1      -2.950  47.535 -19.447  1.00  0.00    -0.060 C 
HETATM    8  C16 UNL     1      -2.785  46.840 -20.803  1.00  0.00     0.036 C 
HETATM    9  C17 UNL     1      -2.172  47.661 -21.954  1.00  0.00     0.015 C 
HETATM   10  C18 UNL     1      -2.533  49.147 -21.828  1.00  0.00    -0.028 C 
HETATM   11  C19 UNL     1      -4.079  49.284 -21.955  1.00  0.00     0.016 C 
HETATM   12  C20 UNL     1      -3.563  46.695 -18.292  1.00  0.00    -0.014 C 
HETATM   13  C21 UNL     1      -5.093  46.865 -18.410  1.00  0.00     0.020 C 
HETATM   14  C22 UNL     1      -3.210  45.187 -18.413  1.00  0.00     0.021 C 
HETATM   15  C23 UNL     1      -3.637  44.370 -17.201  1.00  0.00     0.080 C 
HETATM   16  C24 UNL     1      -2.923  44.905 -15.992  1.00  0.00     0.135 C 
HETATM   17  O4  UNL     1      -2.191  44.177 -15.327  1.00  0.00    -0.297 OA
HETATM   18  C25 UNL     1      -3.160  46.382 -15.648  1.00  0.00     0.018 C 
HETATM   19  C26 UNL     1      -2.107  46.797 -14.587  1.00  0.00     0.023 C 
HETATM   20  C27 UNL     1      -4.536  46.522 -14.988  1.00  0.00     0.023 C 
HETATM   21  C28 UNL     1      -2.944  47.234 -16.950  1.00  0.00     0.020 C 
HETATM   22  C29 UNL     1      -3.291  48.716 -16.781  1.00  0.00     0.090 C 
HETATM   23  C30 UNL     1      -2.839  49.531 -17.971  1.00  0.00     0.157 C 
HETATM   24  O5  UNL     1      -2.675  50.742 -17.844  1.00  0.00    -0.293 OA
ENDROOT
BRANCH   1  25
HETATM   25  C2  UNL     1      -2.194  50.266 -24.322  1.00  0.00    -0.014 C 
HETATM   26  C1  UNL     1      -2.982  49.107 -24.937  1.00  0.00     0.010 C 
BRANCH  25  27
HETATM   27  C3  UNL     1      -0.951  50.618 -25.174  1.00  0.00     0.007 C 
BRANCH  27  28
HETATM   28  C4  UNL     1      -1.203  50.788 -26.689  1.00  0.00     0.035 C 
BRANCH  28  29
HETATM   29  C5  UNL     1      -1.840  52.130 -27.085  1.00  0.00     0.154 C 
BRANCH  29  30
HETATM   30  O1  UNL     1      -2.820  51.896 -28.110  1.00  0.00    -0.392 OA
HETATM   31  H10 UNL     1      -3.068  52.794 -28.416  1.00  0.00     0.210 HD
ENDBRANCH  29  30
BRANCH  29  32
HETATM   32  C6  UNL     1      -0.853  53.213 -27.604  1.00  0.00     0.101 C 
HETATM   33  C7  UNL     1       0.193  52.660 -28.588  1.00  0.00     0.051 C 
BRANCH  32  34
HETATM   34  O2  UNL     1      -1.661  54.149 -28.357  1.00  0.00    -0.385 OA
HETATM   35  H14 UNL     1      -1.060  54.886 -28.605  1.00  0.00     0.210 HD
ENDBRANCH  32  34
BRANCH  32  36
HETATM   36  C8  UNL     1      -0.190  53.988 -26.449  1.00  0.00     0.204 C 
BRANCH  36  37
HETATM   37  O3  UNL     1       1.065  53.387 -26.112  1.00  0.00    -0.398 OA
HETATM   38  H17 UNL     1       0.919  52.814 -25.333  1.00  0.00     0.209 HD
ENDBRANCH  36  37
ENDBRANCH  32  36
ENDBRANCH  29  32
ENDBRANCH  28  29
ENDBRANCH  27  28
ENDBRANCH  25  27
ENDBRANCH   1  25
TORSDOF 9
ENDMDL
MODEL 6
REMARK minimizedAffinity -7.43539095
REMARK CNNscore 0.410195619
REMARK CNNaffinity 6.06060934
REMARK  9 active torsions:
REMARK  status: ('A' for Active; 'I' for Inactive)
REMARK    1  A    between atoms: C2_2  and  C3_3 
REMARK    2  A    between atoms: C2_2  and  C9_12 
REMARK    3  A    between atoms: C3_3  and  C4_4 
REMARK    4  A    between atoms: C4_4  and  C5_5 
REMARK    5  A    between atoms: C5_5  and  O1_6 
REMARK    6  A    between atoms: C5_5  and  C6_7 
REMARK    7  A    between atoms: C6_7  and  O2_9 
REMARK    8  A    between atoms: C6_7  and  C8_10 
REMARK    9  A    between atoms: C8_10  and  O3_11 
ROOT
HETATM    1  C9  UNL     1     -12.754  45.862 -26.864  1.00  0.00    -0.002 C 
HETATM    2  C10 UNL     1     -13.468  44.972 -27.919  1.00  0.00     0.007 C 
HETATM    3  C11 UNL     1     -12.572  44.951 -29.176  1.00  0.00     0.015 C 
HETATM    4  C12 UNL     1     -11.198  45.470 -28.699  1.00  0.00    -0.005 C 
HETATM    5  C13 UNL     1     -10.470  44.259 -28.034  1.00  0.00     0.021 C 
HETATM    6  C14 UNL     1     -10.167  46.017 -29.681  1.00  0.00    -0.000 C 
HETATM    7  C15 UNL     1      -9.279  46.983 -29.315  1.00  0.00    -0.060 C 
HETATM    8  C16 UNL     1      -9.357  47.632 -27.928  1.00  0.00     0.036 C 
HETATM    9  C17 UNL     1     -10.424  47.100 -26.952  1.00  0.00     0.015 C 
HETATM   10  C18 UNL     1     -11.669  46.609 -27.704  1.00  0.00    -0.028 C 
HETATM   11  C19 UNL     1     -12.303  47.827 -28.439  1.00  0.00     0.016 C 
HETATM   12  C20 UNL     1      -8.195  47.523 -30.288  1.00  0.00    -0.014 C 
HETATM   13  C21 UNL     1      -8.847  48.709 -31.032  1.00  0.00     0.020 C 
HETATM   14  C22 UNL     1      -6.932  48.028 -29.536  1.00  0.00     0.021 C 
HETATM   15  C23 UNL     1      -5.782  48.389 -30.467  1.00  0.00     0.080 C 
HETATM   16  C24 UNL     1      -5.389  47.159 -31.235  1.00  0.00     0.135 C 
HETATM   17  O4  UNL     1      -4.245  46.718 -31.162  1.00  0.00    -0.297 OA
HETATM   18  C25 UNL     1      -6.478  46.504 -32.095  1.00  0.00     0.018 C 
HETATM   19  C26 UNL     1      -5.962  45.108 -32.533  1.00  0.00     0.023 C 
HETATM   20  C27 UNL     1      -6.664  47.330 -33.373  1.00  0.00     0.023 C 
HETATM   21  C28 UNL     1      -7.765  46.325 -31.211  1.00  0.00     0.020 C 
HETATM   22  C29 UNL     1      -8.980  45.812 -31.989  1.00  0.00     0.090 C 
HETATM   23  C30 UNL     1     -10.110  45.425 -31.063  1.00  0.00     0.157 C 
HETATM   24  O5  UNL     1     -10.975  44.649 -31.460  1.00  0.00    -0.293 OA
ENDROOT
BRANCH   1  25
HETATM   25  C2  UNL     1     -13.741  46.582 -25.889  1.00  0.00    -0.014 C 
HETATM   26  C1  UNL     1     -13.361  46.578 -24.406  1.00  0.00     0.010 C 
BRANCH  25  27
HETATM   27  C3  UNL     1     -15.193  46.091 -26.101  1.00  0.00     0.007 C 
BRANCH  27  28
HETATM   28  C4  UNL     1     -16.209  46.516 -25.017  1.00  0.00     0.035 C 
BRANCH  28  29
HETATM   29  C5  UNL     1     -17.438  45.602 -24.898  1.00  0.00     0.154 C 
BRANCH  29  30
HETATM   30  O1  UNL     1     -17.769  45.095 -26.201  1.00  0.00    -0.392 OA
HETATM   31  H10 UNL     1     -18.636  44.655 -26.076  1.00  0.00     0.210 HD
ENDBRANCH  29  30
BRANCH  29  32
HETATM   32  C6  UNL     1     -18.712  46.265 -24.304  1.00  0.00     0.101 C 
HETATM   33  C7  UNL     1     -18.661  46.417 -22.773  1.00  0.00     0.051 C 
BRANCH  32  34
HETATM   34  O2  UNL     1     -18.741  47.609 -24.841  1.00  0.00    -0.385 OA
HETATM   35  H14 UNL     1     -19.593  48.000 -24.547  1.00  0.00     0.210 HD
ENDBRANCH  32  34
BRANCH  32  36
HETATM   36  C8  UNL     1     -19.999  45.550 -24.758  1.00  0.00     0.204 C 
BRANCH  36  37
HETATM   37  O3  UNL     1     -19.991  44.192 -24.305  1.00  0.00    -0.398 OA
HETATM   38  H17 UNL     1     -19.696  43.632 -25.051  1.00  0.00     0.209 HD
ENDBRANCH  36  37
ENDBRANCH  32  36
ENDBRANCH  29  32
ENDBRANCH  28  29
ENDBRANCH  27  28
ENDBRANCH  25  27
ENDBRANCH   1  25
TORSDOF 9
ENDMDL
MODEL 7
REMARK minimizedAffinity -7.82685661
REMARK CNNscore 0.350286752
REMARK CNNaffinity 6.17809057
REMARK  9 active torsions:
REMARK  status: ('A' for Active; 'I' for Inactive)
REMARK    1  A    between atoms: C2_2  and  C3_3 
REMARK    2  A    between atoms: C2_2  and  C9_12 
REMARK    3  A    between atoms: C3_3  and  C4_4 
REMARK    4  A    between atoms: C4_4  and  C5_5 
REMARK    5  A    between atoms: C5_5  and  O1_6 
REMARK    6  A    between atoms: C5_5  and  C6_7 
REMARK    7  A    between atoms: C6_7  and  O2_9 
REMARK    8  A    between atoms: C6_7  and  C8_10 
REMARK    9  A    between atoms: C8_10  and  O3_11 
ROOT
HETATM    1  C9  UNL     1      -9.214  47.209 -23.941  1.00  0.00    -0.002 C 
HETATM    2  C10 UNL     1      -9.016  45.771 -23.387  1.00  0.00     0.007 C 
HETATM    3  C11 UNL     1      -7.627  45.732 -22.713  1.00  0.00     0.015 C 
HETATM    4  C12 UNL     1      -7.230  47.212 -22.525  1.00  0.00    -0.005 C 
HETATM    5  C13 UNL     1      -7.955  47.708 -21.235  1.00  0.00     0.021 C 
HETATM    6  C14 UNL     1      -5.778  47.626 -22.306  1.00  0.00    -0.000 C 
HETATM    7  C15 UNL     1      -5.313  48.835 -22.726  1.00  0.00    -0.060 C 
HETATM    8  C16 UNL     1      -6.209  49.781 -23.533  1.00  0.00     0.036 C 
HETATM    9  C17 UNL     1      -7.665  49.342 -23.783  1.00  0.00     0.015 C 
HETATM   10  C18 UNL     1      -7.774  47.814 -23.886  1.00  0.00    -0.028 C 
HETATM   11  C19 UNL     1      -6.949  47.351 -25.123  1.00  0.00     0.016 C 
HETATM   12  C20 UNL     1      -3.849  49.291 -22.476  1.00  0.00    -0.014 C 
HETATM   13  C21 UNL     1      -3.037  48.799 -23.693  1.00  0.00     0.020 C 
HETATM   14  C22 UNL     1      -3.726  50.837 -22.376  1.00  0.00     0.021 C 
HETATM   15  C23 UNL     1      -2.342  51.305 -21.946  1.00  0.00     0.080 C 
HETATM   16  C24 UNL     1      -2.051  50.740 -20.584  1.00  0.00     0.135 C 
HETATM   17  O4  UNL     1      -1.810  51.486 -19.639  1.00  0.00    -0.297 OA
HETATM   18  C25 UNL     1      -2.074  49.211 -20.452  1.00  0.00     0.018 C 
HETATM   19  C26 UNL     1      -2.067  48.865 -18.939  1.00  0.00     0.023 C 
HETATM   20  C27 UNL     1      -0.779  48.643 -21.044  1.00  0.00     0.023 C 
HETATM   21  C28 UNL     1      -3.404  48.678 -21.097  1.00  0.00     0.020 C 
HETATM   22  C29 UNL     1      -3.488  47.150 -21.162  1.00  0.00     0.090 C 
HETATM   23  C30 UNL     1      -4.871  46.687 -21.558  1.00  0.00     0.157 C 
HETATM   24  O5  UNL     1      -5.225  45.543 -21.282  1.00  0.00    -0.293 OA
ENDROOT
BRANCH   1  25
HETATM   25  C2  UNL     1     -10.128  47.267 -25.207  1.00  0.00    -0.014 C 
HETATM   26  C1  UNL     1     -10.583  45.925 -25.784  1.00  0.00     0.010 C 
BRANCH  25  27
HETATM   27  C3  UNL     1      -9.511  48.171 -26.300  1.00  0.00     0.007 C 
BRANCH  27  28
HETATM   28  C4  UNL     1     -10.015  47.922 -27.740  1.00  0.00     0.035 C 
BRANCH  28  29
HETATM   29  C5  UNL     1      -8.910  47.875 -28.806  1.00  0.00     0.154 C 
BRANCH  29  30
HETATM   30  O1  UNL     1      -7.862  48.785 -28.431  1.00  0.00    -0.392 OA
HETATM   31  H10 UNL     1      -7.277  48.817 -29.218  1.00  0.00     0.210 HD
ENDBRANCH  29  30
BRANCH  29  32
HETATM   32  C6  UNL     1      -9.357  48.230 -30.252  1.00  0.00     0.101 C 
HETATM   33  C7  UNL     1      -9.490  46.998 -31.166  1.00  0.00     0.051 C 
BRANCH  32  34
HETATM   34  O2  UNL     1     -10.689  48.783 -30.125  1.00  0.00    -0.385 OA
HETATM   35  H14 UNL     1     -10.939  49.098 -31.022  1.00  0.00     0.210 HD
ENDBRANCH  32  34
BRANCH  32  36
HETATM   36  C8  UNL     1      -8.459  49.310 -30.884  1.00  0.00     0.204 C 
BRANCH  36  37
HETATM   37  O3  UNL     1      -8.914  50.613 -30.504  1.00  0.00    -0.398 OA
HETATM   38  H17 UNL     1      -9.454  50.964 -31.240  1.00  0.00     0.209 HD
ENDBRANCH  36  37
ENDBRANCH  32  36
ENDBRANCH  29  32
ENDBRANCH  28  29
ENDBRANCH  27  28
ENDBRANCH  25  27
ENDBRANCH   1  25
TORSDOF 9
ENDMDL
MODEL 8
REMARK minimizedAffinity -8.70528126
REMARK CNNscore 0.286600113
REMARK CNNaffinity 6.88984299
REMARK  9 active torsions:
REMARK  status: ('A' for Active; 'I' for Inactive)
REMARK    1  A    between atoms: C2_2  and  C3_3 
REMARK    2  A    between atoms: C2_2  and  C9_12 
REMARK    3  A    between atoms: C3_3  and  C4_4 
REMARK    4  A    between atoms: C4_4  and  C5_5 
REMARK    5  A    between atoms: C5_5  and  O1_6 
REMARK    6  A    between atoms: C5_5  and  C6_7 
REMARK    7  A    between atoms: C6_7  and  O2_9 
REMARK    8  A    between atoms: C6_7  and  C8_10 
REMARK    9  A    between atoms: C8_10  and  O3_11 
ROOT
HETATM    1  C9  UNL     1      -0.791  51.058 -23.335  1.00  0.00    -0.002 C 
HETATM    2  C10 UNL     1      -0.360  52.550 -23.386  1.00  0.00     0.007 C 
HETATM    3  C11 UNL     1      -0.002  52.968 -21.943  1.00  0.00     0.015 C 
HETATM    4  C12 UNL     1       0.165  51.642 -21.170  1.00  0.00    -0.005 C 
HETATM    5  C13 UNL     1       1.602  51.120 -21.485  1.00  0.00     0.021 C 
HETATM    6  C14 UNL     1       0.087  51.591 -19.648  1.00  0.00    -0.000 C 
HETATM    7  C15 UNL     1      -0.366  50.485 -18.996  1.00  0.00    -0.060 C 
HETATM    8  C16 UNL     1      -0.918  49.287 -19.778  1.00  0.00     0.036 C 
HETATM    9  C17 UNL     1      -0.869  49.358 -21.317  1.00  0.00     0.015 C 
HETATM   10  C18 UNL     1      -1.018  50.804 -21.810  1.00  0.00    -0.028 C 
HETATM   11  C19 UNL     1      -2.423  51.321 -21.382  1.00  0.00     0.016 C 
HETATM   12  C20 UNL     1      -0.415  50.398 -17.445  1.00  0.00    -0.014 C 
HETATM   13  C21 UNL     1      -1.800  50.943 -17.033  1.00  0.00     0.020 C 
HETATM   14  C22 UNL     1      -0.272  48.937 -16.935  1.00  0.00     0.021 C 
HETATM   15  C23 UNL     1      -0.128  48.840 -15.422  1.00  0.00     0.080 C 
HETATM   16  C24 UNL     1       1.112  49.584 -15.014  1.00  0.00     0.135 C 
HETATM   17  O4  UNL     1       2.018  49.007 -14.418  1.00  0.00    -0.297 OA
HETATM   18  C25 UNL     1       1.175  51.074 -15.379  1.00  0.00     0.018 C 
HETATM   19  C26 UNL     1       2.633  51.556 -15.158  1.00  0.00     0.023 C 
HETATM   20  C27 UNL     1       0.294  51.861 -14.403  1.00  0.00     0.023 C 
HETATM   21  C28 UNL     1       0.806  51.226 -16.899  1.00  0.00     0.020 C 
HETATM   22  C29 UNL     1       0.690  52.681 -17.362  1.00  0.00     0.090 C 
HETATM   23  C30 UNL     1       0.578  52.779 -18.865  1.00  0.00     0.157 C 
HETATM   24  O5  UNL     1       0.870  53.833 -19.424  1.00  0.00    -0.293 OA
ENDROOT
BRANCH   1  25
HETATM   25  C2  UNL     1      -1.828  50.673 -24.439  1.00  0.00    -0.014 C 
HETATM   26  C1  UNL     1      -1.299  50.587 -25.873  1.00  0.00     0.010 C 
BRANCH  25  27
HETATM   27  C3  UNL     1      -3.089  51.564 -24.356  1.00  0.00     0.007 C 
BRANCH  27  28
HETATM   28  C4  UNL     1      -4.431  50.855 -24.650  1.00  0.00     0.035 C 
BRANCH  28  29
HETATM   29  C5  UNL     1      -5.583  51.253 -23.713  1.00  0.00     0.154 C 
BRANCH  29  30
HETATM   30  O1  UNL     1      -5.209  52.439 -22.992  1.00  0.00    -0.392 OA
HETATM   31  H10 UNL     1      -5.912  52.542 -22.316  1.00  0.00     0.210 HD
ENDBRANCH  29  30
BRANCH  29  32
HETATM   32  C6  UNL     1      -6.007  50.175 -22.676  1.00  0.00     0.101 C 
HETATM   33  C7  UNL     1      -5.021  48.996 -22.589  1.00  0.00     0.051 C 
BRANCH  32  34
HETATM   34  O2  UNL     1      -5.964  50.833 -21.388  1.00  0.00    -0.385 OA
HETATM   35  H14 UNL     1      -6.323  50.186 -20.741  1.00  0.00     0.210 HD
ENDBRANCH  32  34
BRANCH  32  36
HETATM   36  C8  UNL     1      -7.450  49.689 -22.908  1.00  0.00     0.204 C 
BRANCH  36  37
HETATM   37  O3  UNL     1      -7.832  49.917 -24.269  1.00  0.00    -0.398 OA
HETATM   38  H17 UNL     1      -8.354  50.743 -24.296  1.00  0.00     0.209 HD
ENDBRANCH  36  37
ENDBRANCH  32  36
ENDBRANCH  29  32
ENDBRANCH  28  29
ENDBRANCH  27  28
ENDBRANCH  25  27
ENDBRANCH   1  25
TORSDOF 9
ENDMDL
MODEL 9
REMARK minimizedAffinity -9.80670547
REMARK CNNscore 0.268926084
REMARK CNNaffinity 6.54373598
REMARK  9 active torsions:
REMARK  status: ('A' for Active; 'I' for Inactive)
REMARK    1  A    between atoms: C2_2  and  C3_3 
REMARK    2  A    between atoms: C2_2  and  C9_12 
REMARK    3  A    between atoms: C3_3  and  C4_4 
REMARK    4  A    between atoms: C4_4  and  C5_5 
REMARK    5  A    between atoms: C5_5  and  O1_6 
REMARK    6  A    between atoms: C5_5  and  C6_7 
REMARK    7  A    between atoms: C6_7  and  O2_9 
REMARK    8  A    between atoms: C6_7  and  C8_10 
REMARK    9  A    between atoms: C8_10  and  O3_11 
ROOT
HETATM    1  C9  UNL     1      -0.850  50.351 -21.800  1.00  0.00    -0.002 C 
HETATM    2  C10 UNL     1      -1.020  49.965 -20.305  1.00  0.00     0.007 C 
HETATM    3  C11 UNL     1      -2.368  49.223 -20.178  1.00  0.00     0.015 C 
HETATM    4  C12 UNL     1      -2.751  48.835 -21.623  1.00  0.00    -0.005 C 
HETATM    5  C13 UNL     1      -1.952  47.537 -21.963  1.00  0.00     0.021 C 
HETATM    6  C14 UNL     1      -4.187  48.486 -22.001  1.00  0.00    -0.000 C 
HETATM    7  C15 UNL     1      -4.672  48.729 -23.249  1.00  0.00    -0.060 C 
HETATM    8  C16 UNL     1      -3.821  49.465 -24.290  1.00  0.00     0.036 C 
HETATM    9  C17 UNL     1      -2.382  49.848 -23.891  1.00  0.00     0.015 C 
HETATM   10  C18 UNL     1      -2.283  50.141 -22.388  1.00  0.00    -0.028 C 
HETATM   11  C19 UNL     1      -3.178  51.377 -22.074  1.00  0.00     0.016 C 
HETATM   12  C20 UNL     1      -6.119  48.343 -23.666  1.00  0.00    -0.014 C 
HETATM   13  C21 UNL     1      -6.999  49.564 -23.321  1.00  0.00     0.020 C 
HETATM   14  C22 UNL     1      -6.232  48.050 -25.188  1.00  0.00     0.021 C 
HETATM   15  C23 UNL     1      -7.589  47.490 -25.593  1.00  0.00     0.080 C 
HETATM   16  C24 UNL     1      -7.803  46.192 -24.867  1.00  0.00     0.135 C 
HETATM   17  O4  UNL     1      -7.989  45.151 -25.492  1.00  0.00    -0.297 OA
HETATM   18  C25 UNL     1      -7.776  46.247 -23.333  1.00  0.00     0.018 C 
HETATM   19  C26 UNL     1      -7.699  44.790 -22.807  1.00  0.00     0.023 C 
HETATM   20  C27 UNL     1      -9.104  46.829 -22.835  1.00  0.00     0.023 C 
HETATM   21  C28 UNL     1      -6.487  47.026 -22.889  1.00  0.00     0.020 C 
HETATM   22  C29 UNL     1      -6.409  47.280 -21.380  1.00  0.00     0.090 C 
HETATM   23  C30 UNL     1      -5.053  47.807 -20.974  1.00  0.00     0.157 C 
HETATM   24  O5  UNL     1      -4.687  47.691 -19.807  1.00  0.00    -0.293 OA
ENDROOT
BRANCH   1  25
HETATM   25  C2  UNL     1      -0.009  51.650 -22.015  1.00  0.00    -0.014 C 
HETATM   26  C1  UNL     1       0.076  52.614 -20.830  1.00  0.00     0.010 C 
BRANCH  25  27
HETATM   27  C3  UNL     1      -0.435  52.383 -23.309  1.00  0.00     0.007 C 
BRANCH  27  28
HETATM   28  C4  UNL     1       0.469  52.151 -24.541  1.00  0.00     0.035 C 
BRANCH  28  29
HETATM   29  C5  UNL     1       0.284  53.174 -25.672  1.00  0.00     0.154 C 
BRANCH  29  30
HETATM   30  O1  UNL     1      -0.195  54.407 -25.112  1.00  0.00    -0.392 OA
HETATM   31  H10 UNL     1      -0.433  54.951 -25.893  1.00  0.00     0.210 HD
ENDBRANCH  29  30
BRANCH  29  32
HETATM   32  C6  UNL     1      -0.693  52.751 -26.805  1.00  0.00     0.101 C 
HETATM   33  C7  UNL     1      -0.569  51.266 -27.192  1.00  0.00     0.051 C 
BRANCH  32  34
HETATM   34  O2  UNL     1      -2.023  52.915 -26.257  1.00  0.00    -0.385 OA
HETATM   35  H14 UNL     1      -2.645  52.742 -26.998  1.00  0.00     0.210 HD
ENDBRANCH  32  34
BRANCH  32  36
HETATM   36  C8  UNL     1      -0.576  53.667 -28.038  1.00  0.00     0.204 C 
BRANCH  36  37
HETATM   37  O3  UNL     1      -1.873  54.131 -28.430  1.00  0.00    -0.398 OA
HETATM   38  H17 UNL     1      -2.178  53.568 -29.169  1.00  0.00     0.209 HD
ENDBRANCH  36  37
ENDBRANCH  32  36
ENDBRANCH  29  32
ENDBRANCH  28  29
ENDBRANCH  27  28
ENDBRANCH  25  27
ENDBRANCH   1  25
TORSDOF 9
ENDMDL
