MODEL 1
REMARK minimizedAffinity -7.18348074
REMARK CNNscore 0.364465207
REMARK CNNaffinity 5.92679548
REMARK  4 active torsions:
REMARK  status: ('A' for Active; 'I' for Inactive)
REMARK    1  A    between atoms: C4_4  and  C5_5 
REMARK    2  A    between atoms: C5_5  and  C6_6 
REMARK    3  A    between atoms: C6_6  and  C7_7 
REMARK    4  A    between atoms: C7_7  and  C9_9 
ROOT
HETATM    1  C9  UNL     1       4.684   8.340  12.218  1.00  0.00    -0.001 C 
HETATM    2  C10 UNL     1       4.033   9.743  12.311  1.00  0.00     0.007 C 
HETATM    3  C11 UNL     1       4.968  10.613  13.181  1.00  0.00     0.024 C 
HETATM    4  C12 UNL     1       6.174   9.737  13.451  1.00  0.00     0.092 C 
HETATM    5  C13 UNL     1       7.259   9.885  12.349  1.00  0.00     0.272 C 
HETATM    6  O1  UNL     1       7.107  10.244  11.194  1.00  0.00    -0.264 OA
HETATM    7  O2  UNL     1       8.483   9.533  12.889  1.00  0.00    -0.305 OA
HETATM    8  C14 UNL     1       8.296   9.191  14.283  1.00  0.00     0.113 C 
HETATM    9  C15 UNL     1       7.950   7.663  14.321  1.00  0.00     0.043 C 
HETATM   10  C16 UNL     1       6.784   7.272  13.370  1.00  0.00     0.014 C 
HETATM   11  C17 UNL     1       5.609   8.274  13.469  1.00  0.00    -0.020 C 
HETATM   12  C18 UNL     1       4.826   7.969  14.766  1.00  0.00     0.017 C 
HETATM   13  C19 UNL     1       7.061   9.982  14.607  1.00  0.00     0.137 A 
HETATM   14  O3  UNL     1       6.573  10.094  15.931  1.00  0.00    -0.364 OA
HETATM   15  C20 UNL     1       7.116  11.298  15.356  1.00  0.00     0.162 A 
HETATM   16  C21 UNL     1       8.411  11.760  15.956  1.00  0.00     0.042 C 
HETATM   17  C22 UNL     1       9.599  11.207  15.141  1.00  0.00     0.014 C 
HETATM   18  C23 UNL     1      10.988  11.862  15.450  1.00  0.00     0.018 C 
HETATM   19  C24 UNL     1      10.927  13.385  15.194  1.00  0.00     0.023 C 
HETATM   20  C25 UNL     1      11.506  11.639  16.876  1.00  0.00     0.023 C 
HETATM   21  C26 UNL     1      12.032  11.286  14.479  1.00  0.00     0.135 C 
HETATM   22  O4  UNL     1      13.172  11.746  14.403  1.00  0.00    -0.297 OA
HETATM   23  C27 UNL     1      11.612  10.132  13.599  1.00  0.00     0.080 C 
HETATM   24  C28 UNL     1      10.882   9.097  14.441  1.00  0.00     0.020 C 
HETATM   25  C29 UNL     1       9.571   9.624  15.108  1.00  0.00    -0.004 C 
HETATM   26  C30 UNL     1       9.495   8.983  16.520  1.00  0.00     0.019 C 
ENDROOT
BRANCH   1  27
HETATM   27  C7  UNL     1       3.788   7.147  11.786  1.00  0.00    -0.014 C 
HETATM   28  C8  UNL     1       4.583   6.228  10.835  1.00  0.00     0.010 C 
BRANCH  27  29
HETATM   29  C6  UNL     1       2.369   7.358  11.214  1.00  0.00     0.008 C 
BRANCH  29  30
HETATM   30  C5  UNL     1       1.772   6.234  10.366  1.00  0.00     0.028 C 
BRANCH  30  31
HETATM   31  C4  UNL     1       2.052   6.462   8.903  1.00  0.00    -0.025 C 
HETATM   32  C2  UNL     1       1.466   7.341   8.069  1.00  0.00    -0.091 C 
HETATM   33  C1  UNL     1       1.903   7.435   6.629  1.00  0.00     0.042 C 
HETATM   34  C3  UNL     1       0.367   8.298   8.439  1.00  0.00     0.042 C 
ENDBRANCH  30  31
ENDBRANCH  29  30
ENDBRANCH  27  29
ENDBRANCH   1  27
TORSDOF 4
ENDMDL
MODEL 2
REMARK minimizedAffinity -7.72720909
REMARK CNNscore 0.344595701
REMARK CNNaffinity 6.38289785
REMARK  4 active torsions:
REMARK  status: ('A' for Active; 'I' for Inactive)
REMARK    1  A    between atoms: C4_4  and  C5_5 
REMARK    2  A    between atoms: C5_5  and  C6_6 
REMARK    3  A    between atoms: C6_6  and  C7_7 
REMARK    4  A    between atoms: C7_7  and  C9_9 
ROOT
HETATM    1  C9  UNL     1      -2.006  12.182  17.635  1.00  0.00    -0.001 C 
HETATM    2  C10 UNL     1      -0.744  11.700  18.394  1.00  0.00     0.007 C 
HETATM    3  C11 UNL     1      -0.269  10.405  17.696  1.00  0.00     0.024 C 
HETATM    4  C12 UNL     1      -1.181  10.254  16.496  1.00  0.00     0.092 C 
HETATM    5  C13 UNL     1      -0.624  10.992  15.246  1.00  0.00     0.272 C 
HETATM    6  O1  UNL     1       0.147  11.935  15.217  1.00  0.00    -0.264 OA
HETATM    7  O2  UNL     1      -1.154  10.396  14.115  1.00  0.00    -0.305 OA
HETATM    8  C14 UNL     1      -2.000   9.295  14.521  1.00  0.00     0.113 C 
HETATM    9  C15 UNL     1      -3.428   9.896  14.754  1.00  0.00     0.043 C 
HETATM   10  C16 UNL     1      -3.429  11.129  15.700  1.00  0.00     0.014 C 
HETATM   11  C17 UNL     1      -2.541  10.893  16.945  1.00  0.00    -0.020 C 
HETATM   12  C18 UNL     1      -3.318   9.980  17.922  1.00  0.00     0.017 C 
HETATM   13  C19 UNL     1      -1.393   8.943  15.850  1.00  0.00     0.137 A 
HETATM   14  O3  UNL     1      -1.792   7.794  16.572  1.00  0.00    -0.364 OA
HETATM   15  C20 UNL     1      -0.459   7.763  16.025  1.00  0.00     0.162 A 
HETATM   16  C21 UNL     1      -0.258   6.796  14.896  1.00  0.00     0.042 C 
HETATM   17  C22 UNL     1      -0.459   7.513  13.544  1.00  0.00     0.014 C 
HETATM   18  C23 UNL     1       0.031   6.721  12.285  1.00  0.00     0.018 C 
HETATM   19  C24 UNL     1       1.536   6.398  12.412  1.00  0.00     0.023 C 
HETATM   20  C25 UNL     1      -0.718   5.410  12.014  1.00  0.00     0.023 C 
HETATM   21  C26 UNL     1      -0.133   7.616  11.045  1.00  0.00     0.135 C 
HETATM   22  O4  UNL     1       0.323   7.293   9.947  1.00  0.00    -0.297 OA
HETATM   23  C27 UNL     1      -0.866   8.925  11.215  1.00  0.00     0.080 C 
HETATM   24  C28 UNL     1      -2.144   8.687  12.005  1.00  0.00     0.020 C 
HETATM   25  C29 UNL     1      -1.912   8.139  13.448  1.00  0.00    -0.004 C 
HETATM   26  C30 UNL     1      -3.041   7.110  13.727  1.00  0.00     0.019 C 
ENDROOT
BRANCH   1  27
HETATM   27  C7  UNL     1      -2.947  13.191  18.349  1.00  0.00    -0.014 C 
HETATM   28  C8  UNL     1      -2.099  14.230  19.111  1.00  0.00     0.010 C 
BRANCH  27  29
HETATM   29  C6  UNL     1      -4.106  12.723  19.256  1.00  0.00     0.008 C 
BRANCH  29  30
HETATM   30  C5  UNL     1      -5.173  13.753  19.632  1.00  0.00     0.028 C 
BRANCH  30  31
HETATM   31  C4  UNL     1      -5.609  13.571  21.063  1.00  0.00    -0.025 C 
HETATM   32  C2  UNL     1      -6.854  13.380  21.538  1.00  0.00    -0.091 C 
HETATM   33  C1  UNL     1      -7.088  13.197  23.015  1.00  0.00     0.042 C 
HETATM   34  C3  UNL     1      -8.106  13.320  20.708  1.00  0.00     0.042 C 
ENDBRANCH  30  31
ENDBRANCH  29  30
ENDBRANCH  27  29
ENDBRANCH   1  27
TORSDOF 4
ENDMDL
MODEL 3
REMARK minimizedAffinity -9.36481857
REMARK CNNscore 0.313445091
REMARK CNNaffinity 6.90572405
REMARK  4 active torsions:
REMARK  status: ('A' for Active; 'I' for Inactive)
REMARK    1  A    between atoms: C4_4  and  C5_5 
REMARK    2  A    between atoms: C5_5  and  C6_6 
REMARK    3  A    between atoms: C6_6  and  C7_7 
REMARK    4  A    between atoms: C7_7  and  C9_9 
ROOT
HETATM    1  C9  UNL     1      -5.759   6.421  14.851  1.00  0.00    -0.001 C 
HETATM    2  C10 UNL     1      -6.381   7.296  13.734  1.00  0.00     0.007 C 
HETATM    3  C11 UNL     1      -5.208   7.860  12.901  1.00  0.00     0.024 C 
HETATM    4  C12 UNL     1      -3.971   7.199  13.475  1.00  0.00     0.092 C 
HETATM    5  C13 UNL     1      -3.660   5.845  12.779  1.00  0.00     0.272 C 
HETATM    6  O1  UNL     1      -4.435   5.110  12.192  1.00  0.00    -0.264 OA
HETATM    7  O2  UNL     1      -2.310   5.577  12.928  1.00  0.00    -0.305 OA
HETATM    8  C14 UNL     1      -1.694   6.671  13.647  1.00  0.00     0.113 C 
HETATM    9  C15 UNL     1      -1.830   6.332  15.171  1.00  0.00     0.043 C 
HETATM   10  C16 UNL     1      -3.284   5.981  15.596  1.00  0.00     0.014 C 
HETATM   11  C17 UNL     1      -4.309   6.969  14.990  1.00  0.00    -0.020 C 
HETATM   12  C18 UNL     1      -4.249   8.282  15.805  1.00  0.00     0.017 C 
HETATM   13  C19 UNL     1      -2.631   7.797  13.310  1.00  0.00     0.137 A 
HETATM   14  O3  UNL     1      -2.346   9.137  13.666  1.00  0.00    -0.364 OA
HETATM   15  C20 UNL     1      -2.302   8.836  12.257  1.00  0.00     0.162 A 
HETATM   16  C21 UNL     1      -0.934   8.867  11.644  1.00  0.00     0.042 C 
HETATM   17  C22 UNL     1      -0.319   7.452  11.647  1.00  0.00     0.014 C 
HETATM   18  C23 UNL     1       0.956   7.271  10.756  1.00  0.00     0.018 C 
HETATM   19  C24 UNL     1       0.634   7.626   9.287  1.00  0.00     0.023 C 
HETATM   20  C25 UNL     1       2.172   8.099  11.191  1.00  0.00     0.023 C 
HETATM   21  C26 UNL     1       1.369   5.790  10.779  1.00  0.00     0.135 C 
HETATM   22  O4  UNL     1       2.247   5.348  10.036  1.00  0.00    -0.297 OA
HETATM   23  C27 UNL     1       0.648   4.875  11.741  1.00  0.00     0.080 C 
HETATM   24  C28 UNL     1       0.574   5.539  13.107  1.00  0.00     0.020 C 
HETATM   25  C29 UNL     1      -0.220   6.884  13.123  1.00  0.00    -0.004 C 
HETATM   26  C30 UNL     1       0.525   7.836  14.097  1.00  0.00     0.019 C 
ENDROOT
BRANCH   1  27
HETATM   27  C7  UNL     1      -6.637   6.080  16.086  1.00  0.00    -0.014 C 
HETATM   28  C8  UNL     1      -7.426   4.783  15.811  1.00  0.00     0.010 C 
BRANCH  27  29
HETATM   29  C6  UNL     1      -7.585   7.119  16.725  1.00  0.00     0.008 C 
BRANCH  29  30
HETATM   30  C5  UNL     1      -8.433   7.978  15.786  1.00  0.00     0.028 C 
BRANCH  30  31
HETATM   31  C4  UNL     1      -9.688   7.248  15.382  1.00  0.00    -0.025 C 
HETATM   32  C2  UNL     1     -10.746   7.723  14.698  1.00  0.00    -0.091 C 
HETATM   33  C1  UNL     1     -11.909   6.823  14.371  1.00  0.00     0.042 C 
HETATM   34  C3  UNL     1     -10.899   9.131  14.192  1.00  0.00     0.042 C 
ENDBRANCH  30  31
ENDBRANCH  29  30
ENDBRANCH  27  29
ENDBRANCH   1  27
TORSDOF 4
ENDMDL
MODEL 4
REMARK minimizedAffinity -6.63920021
REMARK CNNscore 0.288820356
REMARK CNNaffinity 6.16448593
REMARK  4 active torsions:
REMARK  status: ('A' for Active; 'I' for Inactive)
REMARK    1  A    between atoms: C4_4  and  C5_5 
REMARK    2  A    between atoms: C5_5  and  C6_6 
REMARK    3  A    between atoms: C6_6  and  C7_7 
REMARK    4  A    between atoms: C7_7  and  C9_9 
ROOT
HETATM    1  C9  UNL     1     -13.271   9.210  21.423  1.00  0.00    -0.001 C 
HETATM    2  C10 UNL     1     -13.469  10.084  22.686  1.00  0.00     0.007 C 
HETATM    3  C11 UNL     1     -13.923   9.137  23.820  1.00  0.00     0.024 C 
HETATM    4  C12 UNL     1     -13.848   7.748  23.218  1.00  0.00     0.092 C 
HETATM    5  C13 UNL     1     -12.445   7.108  23.405  1.00  0.00     0.272 C 
HETATM    6  O1  UNL     1     -11.380   7.677  23.571  1.00  0.00    -0.264 OA
HETATM    7  O2  UNL     1     -12.582   5.732  23.355  1.00  0.00    -0.305 OA
HETATM    8  C14 UNL     1     -13.981   5.409  23.179  1.00  0.00     0.113 C 
HETATM    9  C15 UNL     1     -14.241   5.393  21.633  1.00  0.00     0.043 C 
HETATM   10  C16 UNL     1     -13.752   6.682  20.915  1.00  0.00     0.014 C 
HETATM   11  C17 UNL     1     -14.155   7.957  21.695  1.00  0.00    -0.020 C 
HETATM   12  C18 UNL     1     -15.655   8.224  21.434  1.00  0.00     0.017 C 
HETATM   13  C19 UNL     1     -14.632   6.626  23.773  1.00  0.00     0.137 A 
HETATM   14  O3  UNL     1     -16.030   6.700  23.976  1.00  0.00    -0.364 OA
HETATM   15  C20 UNL     1     -15.223   6.627  25.168  1.00  0.00     0.162 A 
HETATM   16  C21 UNL     1     -15.334   5.341  25.932  1.00  0.00     0.042 C 
HETATM   17  C22 UNL     1     -14.220   4.367  25.494  1.00  0.00     0.014 C 
HETATM   18  C23 UNL     1     -14.012   3.123  26.422  1.00  0.00     0.018 C 
HETATM   19  C24 UNL     1     -13.680   3.582  27.860  1.00  0.00     0.023 C 
HETATM   20  C25 UNL     1     -15.204   2.161  26.492  1.00  0.00     0.023 C 
HETATM   21  C26 UNL     1     -12.799   2.326  25.915  1.00  0.00     0.135 C 
HETATM   22  O4  UNL     1     -12.323   1.388  26.556  1.00  0.00    -0.297 OA
HETATM   23  C27 UNL     1     -12.190   2.738  24.595  1.00  0.00     0.080 C 
HETATM   24  C28 UNL     1     -13.296   2.940  23.571  1.00  0.00     0.020 C 
HETATM   25  C29 UNL     1     -14.312   4.066  23.941  1.00  0.00    -0.004 C 
HETATM   26  C30 UNL     1     -15.715   3.571  23.496  1.00  0.00     0.019 C 
ENDROOT
BRANCH   1  27
HETATM   27  C7  UNL     1     -13.243   9.918  20.041  1.00  0.00    -0.014 C 
HETATM   28  C8  UNL     1     -14.027   9.074  19.015  1.00  0.00     0.010 C 
BRANCH  27  29
HETATM   29  C6  UNL     1     -11.922  10.395  19.396  1.00  0.00     0.008 C 
BRANCH  29  30
HETATM   30  C5  UNL     1     -11.777  10.244  17.881  1.00  0.00     0.028 C 
BRANCH  30  31
HETATM   31  C4  UNL     1     -10.675   9.273  17.545  1.00  0.00    -0.025 C 
HETATM   32  C2  UNL     1     -10.210   8.927  16.329  1.00  0.00    -0.091 C 
HETATM   33  C1  UNL     1      -9.076   7.944  16.197  1.00  0.00     0.042 C 
HETATM   34  C3  UNL     1     -10.726   9.447  15.016  1.00  0.00     0.042 C 
ENDBRANCH  30  31
ENDBRANCH  29  30
ENDBRANCH  27  29
ENDBRANCH   1  27
TORSDOF 4
ENDMDL
MODEL 5
REMARK minimizedAffinity -7.15010881
REMARK CNNscore 0.207294583
REMARK CNNaffinity 5.76741409
REMARK  4 active torsions:
REMARK  status: ('A' for Active; 'I' for Inactive)
REMARK    1  A    between atoms: C4_4  and  C5_5 
REMARK    2  A    between atoms: C5_5  and  C6_6 
REMARK    3  A    between atoms: C6_6  and  C7_7 
REMARK    4  A    between atoms: C7_7  and  C9_9 
ROOT
HETATM    1  C9  UNL     1      -0.322   9.742  15.609  1.00  0.00    -0.001 C 
HETATM    2  C10 UNL     1       0.768  10.155  14.588  1.00  0.00     0.007 C 
HETATM    3  C11 UNL     1       1.815  10.988  15.362  1.00  0.00     0.024 C 
HETATM    4  C12 UNL     1       1.371  10.921  16.809  1.00  0.00     0.092 C 
HETATM    5  C13 UNL     1       1.976   9.694  17.546  1.00  0.00     0.272 C 
HETATM    6  O1  UNL     1       2.370   8.649  17.059  1.00  0.00    -0.264 OA
HETATM    7  O2  UNL     1       2.004   9.970  18.902  1.00  0.00    -0.305 OA
HETATM    8  C14 UNL     1       1.491  11.305  19.118  1.00  0.00     0.113 C 
HETATM    9  C15 UNL     1      -0.062  11.162  19.279  1.00  0.00     0.043 C 
HETATM   10  C16 UNL     1      -0.729  10.362  18.124  1.00  0.00     0.014 C 
HETATM   11  C17 UNL     1      -0.191  10.803  16.742  1.00  0.00    -0.020 C 
HETATM   12  C18 UNL     1      -0.861  12.146  16.373  1.00  0.00     0.017 C 
HETATM   13  C19 UNL     1       1.789  11.943  17.790  1.00  0.00     0.137 A 
HETATM   14  O3  UNL     1       1.607  13.329  17.570  1.00  0.00    -0.364 OA
HETATM   15  C20 UNL     1       2.972  12.867  17.584  1.00  0.00     0.162 A 
HETATM   16  C21 UNL     1       3.782  13.315  18.764  1.00  0.00     0.042 C 
HETATM   17  C22 UNL     1       3.737  12.244  19.874  1.00  0.00     0.014 C 
HETATM   18  C23 UNL     1       4.787  12.423  21.023  1.00  0.00     0.018 C 
HETATM   19  C24 UNL     1       6.218  12.419  20.441  1.00  0.00     0.023 C 
HETATM   20  C25 UNL     1       4.617  13.695  21.863  1.00  0.00     0.023 C 
HETATM   21  C26 UNL     1       4.687  11.220  21.975  1.00  0.00     0.135 C 
HETATM   22  O4  UNL     1       5.507  11.033  22.875  1.00  0.00    -0.297 OA
HETATM   23  C27 UNL     1       3.546  10.251  21.765  1.00  0.00     0.080 C 
HETATM   24  C28 UNL     1       2.253  11.029  21.579  1.00  0.00     0.020 C 
HETATM   25  C29 UNL     1       2.246  11.971  20.334  1.00  0.00    -0.004 C 
HETATM   26  C30 UNL     1       1.487  13.261  20.749  1.00  0.00     0.019 C 
ENDROOT
BRANCH   1  27
HETATM   27  C7  UNL     1      -1.700   9.281  15.061  1.00  0.00    -0.014 C 
HETATM   28  C8  UNL     1      -2.519   8.645  16.203  1.00  0.00     0.010 C 
BRANCH  27  29
HETATM   29  C6  UNL     1      -1.821   8.396  13.801  1.00  0.00     0.008 C 
BRANCH  29  30
HETATM   30  C5  UNL     1      -2.883   8.775  12.767  1.00  0.00     0.028 C 
BRANCH  30  31
HETATM   31  C4  UNL     1      -4.258   8.389  13.248  1.00  0.00    -0.025 C 
HETATM   32  C2  UNL     1      -4.794   7.157  13.340  1.00  0.00    -0.091 C 
HETATM   33  C1  UNL     1      -6.193   6.971  13.870  1.00  0.00     0.042 C 
HETATM   34  C3  UNL     1      -4.110   5.875  12.955  1.00  0.00     0.042 C 
ENDBRANCH  30  31
ENDBRANCH  29  30
ENDBRANCH  27  29
ENDBRANCH   1  27
TORSDOF 4
ENDMDL
MODEL 6
REMARK minimizedAffinity -7.22964048
REMARK CNNscore 0.206748158
REMARK CNNaffinity 5.65016127
REMARK  4 active torsions:
REMARK  status: ('A' for Active; 'I' for Inactive)
REMARK    1  A    between atoms: C4_4  and  C5_5 
REMARK    2  A    between atoms: C5_5  and  C6_6 
REMARK    3  A    between atoms: C6_6  and  C7_7 
REMARK    4  A    between atoms: C7_7  and  C9_9 
ROOT
HETATM    1  C9  UNL     1       0.350   9.564  14.734  1.00  0.00    -0.001 C 
HETATM    2  C10 UNL     1       1.577  10.062  13.930  1.00  0.00     0.007 C 
HETATM    3  C11 UNL     1       2.457  10.870  14.910  1.00  0.00     0.024 C 
HETATM    4  C12 UNL     1       1.787  10.705  16.259  1.00  0.00     0.092 C 
HETATM    5  C13 UNL     1       2.303   9.450  17.016  1.00  0.00     0.272 C 
HETATM    6  O1  UNL     1       2.804   8.445  16.541  1.00  0.00    -0.264 OA
HETATM    7  O2  UNL     1       2.103   9.643  18.371  1.00  0.00    -0.305 OA
HETATM    8  C14 UNL     1       1.519  10.951  18.574  1.00  0.00     0.113 C 
HETATM    9  C15 UNL     1      -0.034  10.763  18.471  1.00  0.00     0.043 C 
HETATM   10  C16 UNL     1      -0.479  10.021  17.180  1.00  0.00     0.014 C 
HETATM   11  C17 UNL     1       0.261  10.557  15.931  1.00  0.00    -0.020 C 
HETATM   12  C18 UNL     1      -0.383  11.905  15.533  1.00  0.00     0.017 C 
HETATM   13  C19 UNL     1       2.008  11.675  17.352  1.00  0.00     0.137 A 
HETATM   14  O3  UNL     1       1.820  13.067  17.184  1.00  0.00    -0.364 OA
HETATM   15  C20 UNL     1       3.179  12.635  17.395  1.00  0.00     0.162 A 
HETATM   16  C21 UNL     1       3.772  13.029  18.715  1.00  0.00     0.042 C 
HETATM   17  C22 UNL     1       3.582  11.891  19.741  1.00  0.00     0.014 C 
HETATM   18  C23 UNL     1       4.425  12.023  21.053  1.00  0.00     0.018 C 
HETATM   19  C24 UNL     1       5.931  12.086  20.715  1.00  0.00     0.023 C 
HETATM   20  C25 UNL     1       4.081  13.238  21.925  1.00  0.00     0.023 C 
HETATM   21  C26 UNL     1       4.210  10.762  21.907  1.00  0.00     0.135 C 
HETATM   22  O4  UNL     1       4.879  10.540  22.918  1.00  0.00    -0.297 OA
HETATM   23  C27 UNL     1       3.150   9.783  21.459  1.00  0.00     0.080 C 
HETATM   24  C28 UNL     1       1.880  10.542  21.108  1.00  0.00     0.020 C 
HETATM   25  C29 UNL     1       2.045  11.558  19.934  1.00  0.00    -0.004 C 
HETATM   26  C30 UNL     1       1.189  12.803  20.291  1.00  0.00     0.019 C 
ENDROOT
BRANCH   1  27
HETATM   27  C7  UNL     1      -0.906   9.107  13.943  1.00  0.00    -0.014 C 
HETATM   28  C8  UNL     1      -1.339   7.709  14.432  1.00  0.00     0.010 C 
BRANCH  27  29
HETATM   29  C6  UNL     1      -0.952   9.137  12.399  1.00  0.00     0.008 C 
BRANCH  29  30
HETATM   30  C5  UNL     1      -0.943   7.796  11.663  1.00  0.00     0.028 C 
BRANCH  30  31
HETATM   31  C4  UNL     1       0.397   7.551  11.017  1.00  0.00    -0.025 C 
HETATM   32  C2  UNL     1       0.790   7.863   9.768  1.00  0.00    -0.091 C 
HETATM   33  C1  UNL     1       2.191   7.551   9.309  1.00  0.00     0.042 C 
HETATM   34  C3  UNL     1      -0.062   8.530   8.725  1.00  0.00     0.042 C 
ENDBRANCH  30  31
ENDBRANCH  29  30
ENDBRANCH  27  29
ENDBRANCH   1  27
TORSDOF 4
ENDMDL
MODEL 7
REMARK minimizedAffinity -9.16115379
REMARK CNNscore 0.20581995
REMARK CNNaffinity 6.60605669
REMARK  4 active torsions:
REMARK  status: ('A' for Active; 'I' for Inactive)
REMARK    1  A    between atoms: C4_4  and  C5_5 
REMARK    2  A    between atoms: C5_5  and  C6_6 
REMARK    3  A    between atoms: C6_6  and  C7_7 
REMARK    4  A    between atoms: C7_7  and  C9_9 
ROOT
HETATM    1  C9  UNL     1       1.081   7.938  11.914  1.00  0.00    -0.001 C 
HETATM    2  C10 UNL     1       0.623   7.188  10.638  1.00  0.00     0.007 C 
HETATM    3  C11 UNL     1      -0.759   6.572  10.954  1.00  0.00     0.024 C 
HETATM    4  C12 UNL     1      -1.107   7.086  12.336  1.00  0.00     0.092 C 
HETATM    5  C13 UNL     1      -1.858   8.445  12.278  1.00  0.00     0.272 C 
HETATM    6  O1  UNL     1      -1.829   9.278  11.389  1.00  0.00    -0.264 OA
HETATM    7  O2  UNL     1      -2.602   8.583  13.437  1.00  0.00    -0.305 OA
HETATM    8  C14 UNL     1      -2.425   7.398  14.249  1.00  0.00     0.113 C 
HETATM    9  C15 UNL     1      -1.165   7.659  15.143  1.00  0.00     0.043 C 
HETATM   10  C16 UNL     1       0.082   8.112  14.332  1.00  0.00     0.014 C 
HETATM   11  C17 UNL     1       0.274   7.256  13.058  1.00  0.00    -0.020 C 
HETATM   12  C18 UNL     1       0.881   5.898  13.480  1.00  0.00     0.017 C 
HETATM   13  C19 UNL     1      -2.079   6.382  13.198  1.00  0.00     0.137 A 
HETATM   14  O3  UNL     1      -1.970   5.004  13.500  1.00  0.00    -0.364 OA
HETATM   15  C20 UNL     1      -3.090   5.381  12.675  1.00  0.00     0.162 A 
HETATM   16  C21 UNL     1      -4.432   5.264  13.335  1.00  0.00     0.042 C 
HETATM   17  C22 UNL     1      -4.835   6.617  13.959  1.00  0.00     0.014 C 
HETATM   18  C23 UNL     1      -6.334   6.736  14.394  1.00  0.00     0.018 C 
HETATM   19  C24 UNL     1      -7.261   6.497  13.181  1.00  0.00     0.023 C 
HETATM   20  C25 UNL     1      -6.760   5.780  15.516  1.00  0.00     0.023 C 
HETATM   21  C26 UNL     1      -6.595   8.171  14.882  1.00  0.00     0.135 C 
HETATM   22  O4  UNL     1      -7.731   8.575  15.133  1.00  0.00    -0.297 OA
HETATM   23  C27 UNL     1      -5.404   9.088  15.033  1.00  0.00     0.080 C 
HETATM   24  C28 UNL     1      -4.294   8.355  15.769  1.00  0.00     0.020 C 
HETATM   25  C29 UNL     1      -3.763   7.087  15.027  1.00  0.00    -0.004 C 
HETATM   26  C30 UNL     1      -3.473   6.017  16.114  1.00  0.00     0.019 C 
ENDROOT
BRANCH   1  27
HETATM   27  C7  UNL     1       2.589   8.283  12.056  1.00  0.00    -0.014 C 
HETATM   28  C8  UNL     1       2.740   9.621  12.809  1.00  0.00     0.010 C 
BRANCH  27  29
HETATM   29  C6  UNL     1       3.545   8.277  10.842  1.00  0.00     0.008 C 
BRANCH  29  30
HETATM   30  C5  UNL     1       4.072   6.925  10.360  1.00  0.00     0.028 C 
BRANCH  30  31
HETATM   31  C4  UNL     1       3.310   6.456   9.148  1.00  0.00    -0.025 C 
HETATM   32  C2  UNL     1       2.864   7.187   8.109  1.00  0.00    -0.091 C 
HETATM   33  C1  UNL     1       2.131   6.527   6.970  1.00  0.00     0.042 C 
HETATM   34  C3  UNL     1       3.032   8.673   7.950  1.00  0.00     0.042 C 
ENDBRANCH  30  31
ENDBRANCH  29  30
ENDBRANCH  27  29
ENDBRANCH   1  27
TORSDOF 4
ENDMDL
MODEL 8
REMARK minimizedAffinity -7.03130007
REMARK CNNscore 0.190398037
REMARK CNNaffinity 5.78496981
REMARK  4 active torsions:
REMARK  status: ('A' for Active; 'I' for Inactive)
REMARK    1  A    between atoms: C4_4  and  C5_5 
REMARK    2  A    between atoms: C5_5  and  C6_6 
REMARK    3  A    between atoms: C6_6  and  C7_7 
REMARK    4  A    between atoms: C7_7  and  C9_9 
ROOT
HETATM    1  C9  UNL     1       3.787   8.226  10.681  1.00  0.00    -0.001 C 
HETATM    2  C10 UNL     1       2.855   7.640  11.771  1.00  0.00     0.007 C 
HETATM    3  C11 UNL     1       3.614   7.747  13.113  1.00  0.00     0.024 C 
HETATM    4  C12 UNL     1       4.886   8.499  12.781  1.00  0.00     0.092 C 
HETATM    5  C13 UNL     1       4.701  10.037  12.898  1.00  0.00     0.272 C 
HETATM    6  O1  UNL     1       3.665  10.674  12.810  1.00  0.00    -0.264 OA
HETATM    7  O2  UNL     1       5.939  10.611  13.128  1.00  0.00    -0.305 OA
HETATM    8  C14 UNL     1       6.932   9.562  13.203  1.00  0.00     0.113 C 
HETATM    9  C15 UNL     1       7.427   9.315  11.736  1.00  0.00     0.043 C 
HETATM   10  C16 UNL     1       6.268   9.074  10.728  1.00  0.00     0.014 C 
HETATM   11  C17 UNL     1       5.210   8.099  11.300  1.00  0.00    -0.020 C 
HETATM   12  C18 UNL     1       5.774   6.664  11.194  1.00  0.00     0.017 C 
HETATM   13  C19 UNL     1       6.086   8.398  13.637  1.00  0.00     0.137 A 
HETATM   14  O3  UNL     1       6.656   7.157  14.005  1.00  0.00    -0.364 OA
HETATM   15  C20 UNL     1       6.052   7.914  15.072  1.00  0.00     0.162 A 
HETATM   16  C21 UNL     1       7.014   8.481  16.073  1.00  0.00     0.042 C 
HETATM   17  C22 UNL     1       7.393   9.925  15.684  1.00  0.00     0.014 C 
HETATM   18  C23 UNL     1       8.127  10.749  16.795  1.00  0.00     0.018 C 
HETATM   19  C24 UNL     1       7.248  10.834  18.063  1.00  0.00     0.023 C 
HETATM   20  C25 UNL     1       9.502  10.206  17.203  1.00  0.00     0.023 C 
HETATM   21  C26 UNL     1       8.326  12.189  16.292  1.00  0.00     0.135 C 
HETATM   22  O4  UNL     1       8.737  13.085  17.030  1.00  0.00    -0.297 OA
HETATM   23  C27 UNL     1       7.986  12.482  14.849  1.00  0.00     0.080 C 
HETATM   24  C28 UNL     1       8.590  11.404  13.961  1.00  0.00     0.020 C 
HETATM   25  C29 UNL     1       8.050   9.967  14.242  1.00  0.00    -0.004 C 
HETATM   26  C30 UNL     1       9.252   8.996  14.089  1.00  0.00     0.019 C 
ENDROOT
BRANCH   1  27
HETATM   27  C7  UNL     1       3.494   7.867   9.198  1.00  0.00    -0.014 C 
HETATM   28  C8  UNL     1       3.609   9.138   8.331  1.00  0.00     0.010 C 
BRANCH  27  29
HETATM   29  C6  UNL     1       2.226   7.088   8.784  1.00  0.00     0.008 C 
BRANCH  29  30
HETATM   30  C5  UNL     1       2.387   5.964   7.760  1.00  0.00     0.028 C 
BRANCH  30  31
HETATM   31  C4  UNL     1       3.384   4.943   8.241  1.00  0.00    -0.025 C 
HETATM   32  C2  UNL     1       3.950   3.937   7.547  1.00  0.00    -0.091 C 
HETATM   33  C1  UNL     1       4.951   3.024   8.206  1.00  0.00     0.042 C 
HETATM   34  C3  UNL     1       3.680   3.611   6.105  1.00  0.00     0.042 C 
ENDBRANCH  30  31
ENDBRANCH  29  30
ENDBRANCH  27  29
ENDBRANCH   1  27
TORSDOF 4
ENDMDL
MODEL 9
REMARK minimizedAffinity -6.98329163
REMARK CNNscore 0.188725203
REMARK CNNaffinity 5.54975653
REMARK  4 active torsions:
REMARK  status: ('A' for Active; 'I' for Inactive)
REMARK    1  A    between atoms: C4_4  and  C5_5 
REMARK    2  A    between atoms: C5_5  and  C6_6 
REMARK    3  A    between atoms: C6_6  and  C7_7 
REMARK    4  A    between atoms: C7_7  and  C9_9 
ROOT
HETATM    1  C9  UNL     1      -3.217 -12.009   4.021  1.00  0.00    -0.001 C 
HETATM    2  C10 UNL     1      -2.259 -12.685   5.033  1.00  0.00     0.007 C 
HETATM    3  C11 UNL     1      -2.749 -12.291   6.445  1.00  0.00     0.024 C 
HETATM    4  C12 UNL     1      -4.030 -11.517   6.210  1.00  0.00     0.092 C 
HETATM    5  C13 UNL     1      -5.272 -12.450   6.169  1.00  0.00     0.272 C 
HETATM    6  O1  UNL     1      -5.307 -13.637   5.898  1.00  0.00    -0.264 OA
HETATM    7  O2  UNL     1      -6.390 -11.704   6.500  1.00  0.00    -0.305 OA
HETATM    8  C14 UNL     1      -5.976 -10.347   6.789  1.00  0.00     0.113 C 
HETATM    9  C15 UNL     1      -5.989  -9.580   5.423  1.00  0.00     0.043 C 
HETATM   10  C16 UNL     1      -5.189 -10.303   4.303  1.00  0.00     0.014 C 
HETATM   11  C17 UNL     1      -3.825 -10.819   4.821  1.00  0.00    -0.020 C 
HETATM   12  C18 UNL     1      -2.860  -9.615   4.911  1.00  0.00     0.017 C 
HETATM   13  C19 UNL     1      -4.552 -10.568   7.214  1.00  0.00     0.137 A 
HETATM   14  O3  UNL     1      -3.765  -9.525   7.757  1.00  0.00    -0.364 OA
HETATM   15  C20 UNL     1      -4.135 -10.577   8.671  1.00  0.00     0.162 A 
HETATM   16  C21 UNL     1      -5.119 -10.181   9.731  1.00  0.00     0.042 C 
HETATM   17  C22 UNL     1      -6.555 -10.506   9.267  1.00  0.00     0.014 C 
HETATM   18  C23 UNL     1      -7.650 -10.449  10.385  1.00  0.00     0.018 C 
HETATM   19  C24 UNL     1      -7.302 -11.436  11.522  1.00  0.00     0.023 C 
HETATM   20  C25 UNL     1      -7.870  -9.064  11.007  1.00  0.00     0.023 C 
HETATM   21  C26 UNL     1      -8.991 -10.908   9.787  1.00  0.00     0.135 C 
HETATM   22  O4  UNL     1      -9.982 -11.107  10.490  1.00  0.00    -0.297 OA
HETATM   23  C27 UNL     1      -9.055 -11.126   8.293  1.00  0.00     0.080 C 
HETATM   24  C28 UNL     1      -8.410  -9.945   7.585  1.00  0.00     0.020 C 
HETATM   25  C29 UNL     1      -6.898  -9.745   7.920  1.00  0.00    -0.004 C 
HETATM   26  C30 UNL     1      -6.654  -8.214   8.003  1.00  0.00     0.019 C 
ENDROOT
BRANCH   1  27
HETATM   27  C7  UNL     1      -2.740 -11.860   2.550  1.00  0.00    -0.014 C 
HETATM   28  C8  UNL     1      -1.853 -10.604   2.424  1.00  0.00     0.010 C 
BRANCH  27  29
HETATM   29  C6  UNL     1      -3.728 -11.899   1.364  1.00  0.00     0.008 C 
BRANCH  29  30
HETATM   30  C5  UNL     1      -4.403 -10.588   0.959  1.00  0.00     0.028 C 
BRANCH  30  31
HETATM   31  C4  UNL     1      -4.762 -10.603  -0.504  1.00  0.00    -0.025 C 
HETATM   32  C2  UNL     1      -5.932 -10.265  -1.080  1.00  0.00    -0.091 C 
HETATM   33  C1  UNL     1      -6.092 -10.328  -2.577  1.00  0.00     0.042 C 
HETATM   34  C3  UNL     1      -7.162  -9.800  -0.351  1.00  0.00     0.042 C 
ENDBRANCH  30  31
ENDBRANCH  29  30
ENDBRANCH  27  29
ENDBRANCH   1  27
TORSDOF 4
ENDMDL
