MODEL 1
REMARK minimizedAffinity -8.89275742
REMARK  10 active torsions:
REMARK  status: ('A' for Active; 'I' for Inactive)
REMARK    1  A    between atoms: C2_2  and  C3_3 
REMARK    2  A    between atoms: C3_3  and  N1_4 
REMARK    3  A    between atoms: N1_4  and  C4_5 
REMARK    4  A    between atoms: C9_12  and  C11_14 
REMARK    5  A    between atoms: C11_14  and  O1_15 
REMARK    6  A    between atoms: C12_16  and  O2_17 
REMARK    7  A    between atoms: C17_22  and  C18_23 
REMARK    8  A    between atoms: C18_23  and  C19_24 
REMARK       I    between atoms: C19_24  and  N3_26 
REMARK    9  A    between atoms: N3_26  and  C20_27 
REMARK   10  A    between atoms: C20_27  and  C22_29 
ROOT
HETATM    1  C4  UNL     1       1.492   6.638  10.448  1.00  0.00     0.145 A 
HETATM    2  N2  UNL     1       1.002   5.683  11.210  1.00  0.00    -0.339 N 
ATOM      3  H2  UNL     1       1.109   4.685  11.030  1.00  0.00     0.168 HD
HETATM    4  C5  UNL     1       0.323   6.217  12.286  1.00  0.00     0.030 A 
HETATM    5  C6  UNL     1       0.322   7.585  12.346  1.00  0.00     0.009 A 
HETATM    6  C7  UNL     1      -0.407   8.416  13.331  1.00  0.00     0.054 C 
HETATM    7  C8  UNL     1      -1.359   7.618  14.305  1.00  0.00     0.012 C 
HETATM    8  C9  UNL     1      -2.610   8.540  14.681  1.00  0.00     0.008 C 
HETATM    9  C10 UNL     1      -2.166  10.015  14.941  1.00  0.00     0.020 C 
HETATM   10  C12 UNL     1      -3.599   8.539  13.475  1.00  0.00     0.128 C 
HETATM   11  C13 UNL     1      -3.988   7.139  13.006  1.00  0.00     0.033 C 
HETATM   12  C14 UNL     1      -2.777   6.271  12.635  1.00  0.00     0.013 C 
HETATM   13  C15 UNL     1      -1.730   6.139  13.777  1.00  0.00    -0.030 C 
HETATM   14  C16 UNL     1      -2.353   5.253  14.886  1.00  0.00     0.016 C 
HETATM   15  C17 UNL     1      -0.387   5.386  13.310  1.00  0.00     0.054 C 
HETATM   16  S1  UNL     1       1.209   8.233  11.048  1.00  0.00    -0.057 SA
ENDROOT
BRANCH  15  17
HETATM   17  C18 UNL     1      -0.546   3.914  12.854  1.00  0.00     0.114 C 
BRANCH  17  18
HETATM   18  C19 UNL     1      -1.504   3.753  11.683  1.00  0.00     0.218 C 
HETATM   19  O3  UNL     1      -1.285   4.177  10.552  1.00  0.00    -0.274 OA
HETATM   20  N3  UNL     1      -2.653   3.070  12.015  1.00  0.00    -0.353 N 
HETATM   21  H28 UNL     1      -2.838   2.861  12.988  1.00  0.00     0.163 HD
BRANCH  20  22
HETATM   22  C20 UNL     1      -3.720   2.847  11.053  1.00  0.00     0.113 C 
HETATM   23  C21 UNL     1      -3.614   3.819   9.873  1.00  0.00     0.037 C 
BRANCH  22  24
HETATM   24  C22 UNL     1      -5.055   2.894  11.777  1.00  0.00    -0.036 A 
HETATM   25  C23 UNL     1      -5.987   1.864  11.563  1.00  0.00     0.009 A 
HETATM   26  C24 UNL     1      -7.208   1.855  12.237  1.00  0.00     0.001 A 
HETATM   27  C25 UNL     1      -7.513   2.869  13.138  1.00  0.00     0.000 A 
HETATM   28  C26 UNL     1      -6.598   3.894  13.365  1.00  0.00     0.001 A 
HETATM   29  C27 UNL     1      -5.373   3.904  12.695  1.00  0.00     0.009 A 
ENDBRANCH  22  24
ENDBRANCH  20  22
ENDBRANCH  17  18
ENDBRANCH  15  17
BRANCH   1  30
HETATM   30  N1  UNL     1       2.123   6.343   9.291  1.00  0.00    -0.367 N 
HETATM   31  H6  UNL     1       2.341   5.358   9.171  1.00  0.00     0.161 HD
BRANCH  30  32
HETATM   32  C3  UNL     1       3.001   7.255   8.609  1.00  0.00     0.148 C 
BRANCH  32  33
HETATM   33  C2  UNL     1       2.218   7.816   7.461  1.00  0.00    -0.018 C 
HETATM   34  C1  UNL     1       1.777   7.115   6.406  1.00  0.00     0.008 C 
ENDBRANCH  32  33
ENDBRANCH  30  32
ENDBRANCH   1  30
BRANCH   8  35
HETATM   35  C11 UNL     1      -3.271   8.107  16.023  1.00  0.00     0.176 C 
BRANCH  35  36
HETATM   36  O1  UNL     1      -2.290   7.905  17.047  1.00  0.00    -0.400 OA
HETATM   37  H15 UNL     1      -2.768   7.614  17.848  1.00  0.00     0.209 HD
ENDBRANCH  35  36
ENDBRANCH   8  35
BRANCH  10  38
HETATM   38  O2  UNL     1      -4.786   9.289  13.736  1.00  0.00    -0.395 OA
HETATM   39  H17 UNL     1      -5.028   9.113  14.669  1.00  0.00     0.210 HD
ENDBRANCH  10  38
TORSDOF 10
ENDMDL
MODEL 2
REMARK minimizedAffinity -8.6453352
REMARK  10 active torsions:
REMARK  status: ('A' for Active; 'I' for Inactive)
REMARK    1  A    between atoms: C2_2  and  C3_3 
REMARK    2  A    between atoms: C3_3  and  N1_4 
REMARK    3  A    between atoms: N1_4  and  C4_5 
REMARK    4  A    between atoms: C9_12  and  C11_14 
REMARK    5  A    between atoms: C11_14  and  O1_15 
REMARK    6  A    between atoms: C12_16  and  O2_17 
REMARK    7  A    between atoms: C17_22  and  C18_23 
REMARK    8  A    between atoms: C18_23  and  C19_24 
REMARK       I    between atoms: C19_24  and  N3_26 
REMARK    9  A    between atoms: N3_26  and  C20_27 
REMARK   10  A    between atoms: C20_27  and  C22_29 
ROOT
HETATM    1  C4  UNL     1       1.035   8.954  15.525  1.00  0.00     0.145 A 
HETATM    2  N2  UNL     1       0.258   9.178  14.486  1.00  0.00    -0.339 N 
ATOM      3  H2  UNL     1      -0.664   9.611  14.536  1.00  0.00     0.168 HD
HETATM    4  C5  UNL     1       0.861   8.748  13.322  1.00  0.00     0.030 A 
HETATM    5  C6  UNL     1       2.112   8.216  13.484  1.00  0.00     0.009 A 
HETATM    6  C7  UNL     1       2.940   7.593  12.426  1.00  0.00     0.054 C 
HETATM    7  C8  UNL     1       2.227   7.434  11.027  1.00  0.00     0.012 C 
HETATM    8  C9  UNL     1       2.790   6.124  10.302  1.00  0.00     0.008 C 
HETATM    9  C10 UNL     1       4.336   5.994  10.492  1.00  0.00     0.020 C 
HETATM   10  C12 UNL     1       2.118   4.876  10.953  1.00  0.00     0.128 C 
HETATM   11  C13 UNL     1       0.593   4.952  10.984  1.00  0.00     0.033 C 
HETATM   12  C14 UNL     1       0.068   6.207  11.696  1.00  0.00     0.013 C 
HETATM   13  C15 UNL     1       0.619   7.536  11.105  1.00  0.00    -0.030 C 
HETATM   14  C16 UNL     1      -0.031   7.737   9.712  1.00  0.00     0.016 C 
HETATM   15  C17 UNL     1       0.208   8.825  11.976  1.00  0.00     0.054 C 
HETATM   16  S1  UNL     1       2.571   8.273  15.120  1.00  0.00    -0.057 SA
ENDROOT
BRANCH  15  17
HETATM   17  C18 UNL     1      -1.307   9.129  12.083  1.00  0.00     0.114 C 
BRANCH  17  18
HETATM   18  C19 UNL     1      -1.998   8.339  13.185  1.00  0.00     0.218 C 
HETATM   19  O3  UNL     1      -2.276   8.798  14.289  1.00  0.00    -0.274 OA
HETATM   20  N3  UNL     1      -2.293   7.045  12.818  1.00  0.00    -0.353 N 
HETATM   21  H28 UNL     1      -1.923   6.683  11.947  1.00  0.00     0.163 HD
BRANCH  20  22
HETATM   22  C20 UNL     1      -2.912   6.107  13.739  1.00  0.00     0.113 C 
HETATM   23  C21 UNL     1      -1.874   5.489  14.682  1.00  0.00     0.037 C 
BRANCH  22  24
HETATM   24  C22 UNL     1      -3.711   5.088  12.944  1.00  0.00    -0.036 A 
HETATM   25  C23 UNL     1      -5.068   4.890  13.253  1.00  0.00     0.009 A 
HETATM   26  C24 UNL     1      -5.842   3.989  12.521  1.00  0.00     0.001 A 
HETATM   27  C25 UNL     1      -5.275   3.279  11.468  1.00  0.00     0.000 A 
HETATM   28  C26 UNL     1      -3.933   3.469  11.147  1.00  0.00     0.001 A 
HETATM   29  C27 UNL     1      -3.157   4.373  11.874  1.00  0.00     0.009 A 
ENDBRANCH  22  24
ENDBRANCH  20  22
ENDBRANCH  17  18
ENDBRANCH  15  17
BRANCH   1  30
HETATM   30  N1  UNL     1       0.608   9.220  16.778  1.00  0.00    -0.367 N 
HETATM   31  H6  UNL     1      -0.353   8.947  16.960  1.00  0.00     0.161 HD
BRANCH  30  32
HETATM   32  C3  UNL     1       1.099  10.316  17.570  1.00  0.00     0.148 C 
BRANCH  32  33
HETATM   33  C2  UNL     1      -0.058  10.791  18.394  1.00  0.00    -0.018 C 
HETATM   34  C1  UNL     1       0.008  11.172  19.679  1.00  0.00     0.008 C 
ENDBRANCH  32  33
ENDBRANCH  30  32
ENDBRANCH   1  30
BRANCH   8  35
HETATM   35  C11 UNL     1       2.609   6.189   8.757  1.00  0.00     0.176 C 
BRANCH  35  36
HETATM   36  O1  UNL     1       3.282   5.105   8.106  1.00  0.00    -0.400 OA
HETATM   37  H15 UNL     1       3.150   5.220   7.145  1.00  0.00     0.209 HD
ENDBRANCH  35  36
ENDBRANCH   8  35
BRANCH  10  38
HETATM   38  O2  UNL     1       2.511   3.652  10.332  1.00  0.00    -0.395 OA
HETATM   39  H17 UNL     1       2.563   3.832   9.369  1.00  0.00     0.210 HD
ENDBRANCH  10  38
TORSDOF 10
ENDMDL
MODEL 3
REMARK minimizedAffinity -8.57209682
REMARK  10 active torsions:
REMARK  status: ('A' for Active; 'I' for Inactive)
REMARK    1  A    between atoms: C2_2  and  C3_3 
REMARK    2  A    between atoms: C3_3  and  N1_4 
REMARK    3  A    between atoms: N1_4  and  C4_5 
REMARK    4  A    between atoms: C9_12  and  C11_14 
REMARK    5  A    between atoms: C11_14  and  O1_15 
REMARK    6  A    between atoms: C12_16  and  O2_17 
REMARK    7  A    between atoms: C17_22  and  C18_23 
REMARK    8  A    between atoms: C18_23  and  C19_24 
REMARK       I    between atoms: C19_24  and  N3_26 
REMARK    9  A    between atoms: N3_26  and  C20_27 
REMARK   10  A    between atoms: C20_27  and  C22_29 
ROOT
HETATM    1  C4  UNL     1      -3.658   4.721  12.618  1.00  0.00     0.145 A 
HETATM    2  N2  UNL     1      -2.391   4.984  12.379  1.00  0.00    -0.339 N 
ATOM      3  H2  UNL     1      -1.717   4.309  12.018  1.00  0.00     0.168 HD
HETATM    4  C5  UNL     1      -2.099   6.297  12.683  1.00  0.00     0.030 A 
HETATM    5  C6  UNL     1      -3.161   7.036  13.134  1.00  0.00     0.009 A 
HETATM    6  C7  UNL     1      -3.110   8.432  13.621  1.00  0.00     0.054 C 
HETATM    7  C8  UNL     1      -1.661   9.048  13.735  1.00  0.00     0.012 C 
HETATM    8  C9  UNL     1      -1.633  10.090  14.947  1.00  0.00     0.008 C 
HETATM    9  C10 UNL     1      -2.933  10.956  14.978  1.00  0.00     0.020 C 
HETATM   10  C12 UNL     1      -1.556   9.287  16.282  1.00  0.00     0.128 C 
HETATM   11  C13 UNL     1      -0.416   8.273  16.319  1.00  0.00     0.033 C 
HETATM   12  C14 UNL     1      -0.466   7.270  15.157  1.00  0.00     0.013 C 
HETATM   13  C15 UNL     1      -0.488   7.941  13.755  1.00  0.00    -0.030 C 
HETATM   14  C16 UNL     1       0.913   8.557  13.505  1.00  0.00     0.016 C 
HETATM   15  C17 UNL     1      -0.727   6.888  12.562  1.00  0.00     0.054 C 
HETATM   16  S1  UNL     1      -4.571   6.086  13.156  1.00  0.00    -0.057 SA
ENDROOT
BRANCH  15  17
HETATM   17  C18 UNL     1       0.359   5.800  12.376  1.00  0.00     0.114 C 
BRANCH  17  18
HETATM   18  C19 UNL     1       1.352   6.131  11.271  1.00  0.00     0.218 C 
HETATM   19  O3  UNL     1       1.032   6.415  10.121  1.00  0.00    -0.274 OA
HETATM   20  N3  UNL     1       2.662   6.089  11.693  1.00  0.00    -0.353 N 
HETATM   21  H28 UNL     1       2.873   5.722  12.613  1.00  0.00     0.163 HD
BRANCH  20  22
HETATM   22  C20 UNL     1       3.770   6.329  10.784  1.00  0.00     0.113 C 
HETATM   23  C21 UNL     1       4.782   7.308  11.389  1.00  0.00     0.037 C 
BRANCH  22  24
HETATM   24  C22 UNL     1       3.218   6.763   9.436  1.00  0.00    -0.036 A 
HETATM   25  C23 UNL     1       2.932   5.785   8.467  1.00  0.00     0.009 A 
HETATM   26  C24 UNL     1       2.392   6.143   7.231  1.00  0.00     0.001 A 
HETATM   27  C25 UNL     1       2.123   7.477   6.950  1.00  0.00     0.000 A 
HETATM   28  C26 UNL     1       2.396   8.457   7.901  1.00  0.00     0.001 A 
HETATM   29  C27 UNL     1       2.933   8.103   9.140  1.00  0.00     0.009 A 
ENDBRANCH  22  24
ENDBRANCH  20  22
ENDBRANCH  17  18
ENDBRANCH  15  17
BRANCH   1  30
HETATM   30  N1  UNL     1      -4.145   3.470  12.470  1.00  0.00    -0.367 N 
HETATM   31  H6  UNL     1      -3.434   2.744  12.448  1.00  0.00     0.161 HD
BRANCH  30  32
HETATM   32  C3  UNL     1      -5.358   3.167  11.759  1.00  0.00     0.148 C 
BRANCH  32  33
HETATM   33  C2  UNL     1      -6.447   3.115  12.787  1.00  0.00    -0.018 C 
HETATM   34  C1  UNL     1      -7.588   2.418  12.675  1.00  0.00     0.008 C 
ENDBRANCH  32  33
ENDBRANCH  30  32
ENDBRANCH   1  30
BRANCH   8  35
HETATM   35  C11 UNL     1      -0.491  11.138  14.790  1.00  0.00     0.176 C 
BRANCH  35  36
HETATM   36  O1  UNL     1      -0.895  12.231  13.957  1.00  0.00    -0.400 OA
HETATM   37  H15 UNL     1      -0.130  12.832  13.881  1.00  0.00     0.209 HD
ENDBRANCH  35  36
ENDBRANCH   8  35
BRANCH  10  38
HETATM   38  O2  UNL     1      -1.465  10.133  17.429  1.00  0.00    -0.395 OA
HETATM   39  H17 UNL     1      -0.878  10.878  17.180  1.00  0.00     0.210 HD
ENDBRANCH  10  38
TORSDOF 10
ENDMDL
MODEL 4
REMARK minimizedAffinity -8.4703722
REMARK  10 active torsions:
REMARK  status: ('A' for Active; 'I' for Inactive)
REMARK    1  A    between atoms: C2_2  and  C3_3 
REMARK    2  A    between atoms: C3_3  and  N1_4 
REMARK    3  A    between atoms: N1_4  and  C4_5 
REMARK    4  A    between atoms: C9_12  and  C11_14 
REMARK    5  A    between atoms: C11_14  and  O1_15 
REMARK    6  A    between atoms: C12_16  and  O2_17 
REMARK    7  A    between atoms: C17_22  and  C18_23 
REMARK    8  A    between atoms: C18_23  and  C19_24 
REMARK       I    between atoms: C19_24  and  N3_26 
REMARK    9  A    between atoms: N3_26  and  C20_27 
REMARK   10  A    between atoms: C20_27  and  C22_29 
ROOT
HETATM    1  C4  UNL     1      -3.723   3.990  12.206  1.00  0.00     0.145 A 
HETATM    2  N2  UNL     1      -3.195   4.652  13.213  1.00  0.00    -0.339 N 
ATOM      3  H2  UNL     1      -3.705   4.941  14.048  1.00  0.00     0.168 HD
HETATM    4  C5  UNL     1      -1.857   4.901  12.986  1.00  0.00     0.030 A 
HETATM    5  C6  UNL     1      -1.369   4.403  11.808  1.00  0.00     0.009 A 
HETATM    6  C7  UNL     1      -0.005   4.608  11.271  1.00  0.00     0.054 C 
HETATM    7  C8  UNL     1       0.897   5.602  12.101  1.00  0.00     0.012 C 
HETATM    8  C9  UNL     1       1.892   6.358  11.103  1.00  0.00     0.008 C 
HETATM    9  C10 UNL     1       2.466   5.379  10.029  1.00  0.00     0.020 C 
HETATM   10  C12 UNL     1       1.091   7.471  10.362  1.00  0.00     0.128 C 
HETATM   11  C13 UNL     1       0.337   8.409  11.301  1.00  0.00     0.033 C 
HETATM   12  C14 UNL     1      -0.625   7.669  12.243  1.00  0.00     0.013 C 
HETATM   13  C15 UNL     1       0.061   6.561  13.091  1.00  0.00    -0.030 C 
HETATM   14  C16 UNL     1       0.962   7.262  14.141  1.00  0.00     0.016 C 
HETATM   15  C17 UNL     1      -0.989   5.676  13.930  1.00  0.00     0.054 C 
HETATM   16  S1  UNL     1      -2.593   3.577  10.965  1.00  0.00    -0.057 SA
ENDROOT
BRANCH  15  17
HETATM   17  C18 UNL     1      -1.822   6.426  15.000  1.00  0.00     0.114 C 
BRANCH  17  18
HETATM   18  C19 UNL     1      -2.955   7.250  14.405  1.00  0.00     0.218 C 
HETATM   19  O3  UNL     1      -3.102   7.449  13.204  1.00  0.00    -0.274 OA
HETATM   20  N3  UNL     1      -3.816   7.749  15.357  1.00  0.00    -0.353 N 
HETATM   21  H28 UNL     1      -3.572   7.665  16.336  1.00  0.00     0.163 HD
BRANCH  20  22
HETATM   22  C20 UNL     1      -4.940   8.601  15.004  1.00  0.00     0.113 C 
HETATM   23  C21 UNL     1      -4.806   9.988  15.641  1.00  0.00     0.037 C 
BRANCH  22  24
HETATM   24  C22 UNL     1      -6.232   7.881  15.352  1.00  0.00    -0.036 A 
HETATM   25  C23 UNL     1      -7.459   8.535  15.138  1.00  0.00     0.009 A 
HETATM   26  C24 UNL     1      -8.666   7.892  15.412  1.00  0.00     0.001 A 
HETATM   27  C25 UNL     1      -8.667   6.589  15.897  1.00  0.00     0.000 A 
HETATM   28  C26 UNL     1      -7.461   5.927  16.109  1.00  0.00     0.001 A 
HETATM   29  C27 UNL     1      -6.250   6.565  15.832  1.00  0.00     0.009 A 
ENDBRANCH  22  24
ENDBRANCH  20  22
ENDBRANCH  17  18
ENDBRANCH  15  17
BRANCH   1  30
HETATM   30  N1  UNL     1      -5.044   3.712  12.178  1.00  0.00    -0.367 N 
HETATM   31  H6  UNL     1      -5.369   3.305  11.305  1.00  0.00     0.161 HD
BRANCH  30  32
HETATM   32  C3  UNL     1      -6.030   4.457  12.914  1.00  0.00     0.148 C 
BRANCH  32  33
HETATM   33  C2  UNL     1      -7.281   3.633  12.896  1.00  0.00    -0.018 C 
HETATM   34  C1  UNL     1      -7.334   2.305  12.713  1.00  0.00     0.008 C 
ENDBRANCH  32  33
ENDBRANCH  30  32
ENDBRANCH   1  30
BRANCH   8  35
HETATM   35  C11 UNL     1       3.160   6.891  11.835  1.00  0.00     0.176 C 
BRANCH  35  36
HETATM   36  O1  UNL     1       4.320   6.122  11.499  1.00  0.00    -0.400 OA
HETATM   37  H15 UNL     1       5.067   6.492  12.008  1.00  0.00     0.209 HD
ENDBRANCH  35  36
ENDBRANCH   8  35
BRANCH  10  38
HETATM   38  O2  UNL     1       1.909   8.248   9.486  1.00  0.00    -0.395 OA
HETATM   39  H17 UNL     1       2.766   8.376   9.945  1.00  0.00     0.210 HD
ENDBRANCH  10  38
TORSDOF 10
ENDMDL
MODEL 5
REMARK minimizedAffinity -8.3484869
REMARK  10 active torsions:
REMARK  status: ('A' for Active; 'I' for Inactive)
REMARK    1  A    between atoms: C2_2  and  C3_3 
REMARK    2  A    between atoms: C3_3  and  N1_4 
REMARK    3  A    between atoms: N1_4  and  C4_5 
REMARK    4  A    between atoms: C9_12  and  C11_14 
REMARK    5  A    between atoms: C11_14  and  O1_15 
REMARK    6  A    between atoms: C12_16  and  O2_17 
REMARK    7  A    between atoms: C17_22  and  C18_23 
REMARK    8  A    between atoms: C18_23  and  C19_24 
REMARK       I    between atoms: C19_24  and  N3_26 
REMARK    9  A    between atoms: N3_26  and  C20_27 
REMARK   10  A    between atoms: C20_27  and  C22_29 
ROOT
HETATM    1  C4  UNL     1      -2.786  10.718  15.915  1.00  0.00     0.145 A 
HETATM    2  N2  UNL     1      -3.226   9.483  15.800  1.00  0.00    -0.339 N 
ATOM      3  H2  UNL     1      -3.872   9.035  16.450  1.00  0.00     0.168 HD
HETATM    4  C5  UNL     1      -2.694   8.877  14.681  1.00  0.00     0.030 A 
HETATM    5  C6  UNL     1      -1.865   9.670  13.934  1.00  0.00     0.009 A 
HETATM    6  C7  UNL     1      -1.088   9.249  12.747  1.00  0.00     0.054 C 
HETATM    7  C8  UNL     1      -1.150   7.706  12.421  1.00  0.00     0.012 C 
HETATM    8  C9  UNL     1       0.237   7.257  11.763  1.00  0.00     0.008 C 
HETATM    9  C10 UNL     1       0.750   8.324  10.744  1.00  0.00     0.020 C 
HETATM   10  C12 UNL     1       1.298   7.125  12.898  1.00  0.00     0.128 C 
HETATM   11  C13 UNL     1       0.849   6.231  14.051  1.00  0.00     0.033 C 
HETATM   12  C14 UNL     1      -0.476   6.683  14.682  1.00  0.00     0.013 C 
HETATM   13  C15 UNL     1      -1.644   6.802  13.662  1.00  0.00    -0.030 C 
HETATM   14  C16 UNL     1      -2.040   5.366  13.230  1.00  0.00     0.016 C 
HETATM   15  C17 UNL     1      -2.968   7.453  14.302  1.00  0.00     0.054 C 
HETATM   16  S1  UNL     1      -1.759  11.222  14.620  1.00  0.00    -0.057 SA
ENDROOT
BRANCH  15  17
HETATM   17  C18 UNL     1      -3.634   6.664  15.457  1.00  0.00     0.114 C 
BRANCH  17  18
HETATM   18  C19 UNL     1      -5.069   6.257  15.152  1.00  0.00     0.218 C 
HETATM   19  O3  UNL     1      -5.883   5.917  16.004  1.00  0.00    -0.274 OA
HETATM   20  N3  UNL     1      -5.372   6.317  13.810  1.00  0.00    -0.353 N 
HETATM   21  H28 UNL     1      -4.628   6.476  13.142  1.00  0.00     0.163 HD
BRANCH  20  22
HETATM   22  C20 UNL     1      -6.676   5.926  13.299  1.00  0.00     0.113 C 
HETATM   23  C21 UNL     1      -7.783   6.229  14.314  1.00  0.00     0.037 C 
BRANCH  22  24
HETATM   24  C22 UNL     1      -6.618   4.472  12.860  1.00  0.00    -0.036 A 
HETATM   25  C23 UNL     1      -7.690   3.619  13.175  1.00  0.00     0.009 A 
HETATM   26  C24 UNL     1      -7.688   2.288  12.758  1.00  0.00     0.001 A 
HETATM   27  C25 UNL     1      -6.621   1.793  12.016  1.00  0.00     0.000 A 
HETATM   28  C26 UNL     1      -5.554   2.627  11.693  1.00  0.00     0.001 A 
HETATM   29  C27 UNL     1      -5.554   3.961  12.105  1.00  0.00     0.009 A 
ENDBRANCH  22  24
ENDBRANCH  20  22
ENDBRANCH  17  18
ENDBRANCH  15  17
BRANCH   1  30
HETATM   30  N1  UNL     1      -3.113  11.471  16.987  1.00  0.00    -0.367 N 
HETATM   31  H6  UNL     1      -4.003  11.953  16.904  1.00  0.00     0.161 HD
BRANCH  30  32
HETATM   32  C3  UNL     1      -2.143  12.108  17.837  1.00  0.00     0.148 C 
BRANCH  32  33
HETATM   33  C2  UNL     1      -1.486  11.013  18.620  1.00  0.00    -0.018 C 
HETATM   34  C1  UNL     1      -0.400  11.157  19.396  1.00  0.00     0.008 C 
ENDBRANCH  32  33
ENDBRANCH  30  32
ENDBRANCH   1  30
BRANCH   8  35
HETATM   35  C11 UNL     1       0.085   5.966  10.905  1.00  0.00     0.176 C 
BRANCH  35  36
HETATM   36  O1  UNL     1       0.851   4.884  11.447  1.00  0.00    -0.400 OA
HETATM   37  H15 UNL     1       0.731   4.120  10.851  1.00  0.00     0.209 HD
ENDBRANCH  35  36
ENDBRANCH   8  35
BRANCH  10  38
HETATM   38  O2  UNL     1       2.563   6.667  12.419  1.00  0.00    -0.395 OA
HETATM   39  H17 UNL     1       2.374   5.988  11.736  1.00  0.00     0.210 HD
ENDBRANCH  10  38
TORSDOF 10
ENDMDL
MODEL 6
REMARK minimizedAffinity -8.19428444
REMARK  10 active torsions:
REMARK  status: ('A' for Active; 'I' for Inactive)
REMARK    1  A    between atoms: C2_2  and  C3_3 
REMARK    2  A    between atoms: C3_3  and  N1_4 
REMARK    3  A    between atoms: N1_4  and  C4_5 
REMARK    4  A    between atoms: C9_12  and  C11_14 
REMARK    5  A    between atoms: C11_14  and  O1_15 
REMARK    6  A    between atoms: C12_16  and  O2_17 
REMARK    7  A    between atoms: C17_22  and  C18_23 
REMARK    8  A    between atoms: C18_23  and  C19_24 
REMARK       I    between atoms: C19_24  and  N3_26 
REMARK    9  A    between atoms: N3_26  and  C20_27 
REMARK   10  A    between atoms: C20_27  and  C22_29 
ROOT
HETATM    1  C4  UNL     1      -2.028   4.001  12.286  1.00  0.00     0.145 A 
HETATM    2  N2  UNL     1      -2.186   5.283  12.538  1.00  0.00    -0.339 N 
ATOM      3  H2  UNL     1      -1.424   5.952  12.639  1.00  0.00     0.168 HD
HETATM    4  C5  UNL     1      -3.525   5.598  12.646  1.00  0.00     0.030 A 
HETATM    5  C6  UNL     1      -4.382   4.547  12.452  1.00  0.00     0.009 A 
HETATM    6  C7  UNL     1      -5.854   4.581  12.605  1.00  0.00     0.054 C 
HETATM    7  C8  UNL     1      -6.437   5.935  13.168  1.00  0.00     0.012 C 
HETATM    8  C9  UNL     1      -7.745   5.620  14.031  1.00  0.00     0.008 C 
HETATM    9  C10 UNL     1      -8.629   4.533  13.340  1.00  0.00     0.020 C 
HETATM   10  C12 UNL     1      -7.296   5.065  15.418  1.00  0.00     0.128 C 
HETATM   11  C13 UNL     1      -6.290   5.961  16.136  1.00  0.00     0.033 C 
HETATM   12  C14 UNL     1      -5.032   6.242  15.300  1.00  0.00     0.013 C 
HETATM   13  C15 UNL     1      -5.336   6.856  13.904  1.00  0.00    -0.030 C 
HETATM   14  C16 UNL     1      -5.830   8.309  14.126  1.00  0.00     0.016 C 
HETATM   15  C17 UNL     1      -4.028   6.970  12.974  1.00  0.00     0.054 C 
HETATM   16  S1  UNL     1      -3.509   3.132  12.097  1.00  0.00    -0.057 SA
ENDROOT
BRANCH  15  17
HETATM   17  C18 UNL     1      -2.896   7.895  13.488  1.00  0.00     0.114 C 
BRANCH  17  18
HETATM   18  C19 UNL     1      -1.711   7.127  14.057  1.00  0.00     0.218 C 
HETATM   19  O3  UNL     1      -1.778   6.379  15.027  1.00  0.00    -0.274 OA
HETATM   20  N3  UNL     1      -0.542   7.348  13.363  1.00  0.00    -0.353 N 
HETATM   21  H28 UNL     1      -0.517   8.073  12.657  1.00  0.00     0.163 HD
BRANCH  20  22
HETATM   22  C20 UNL     1       0.718   6.747  13.769  1.00  0.00     0.113 C 
HETATM   23  C21 UNL     1       1.333   7.496  14.956  1.00  0.00     0.037 C 
BRANCH  22  24
HETATM   24  C22 UNL     1       1.630   6.648  12.558  1.00  0.00    -0.036 A 
HETATM   25  C23 UNL     1       2.970   7.056  12.675  1.00  0.00     0.009 A 
HETATM   26  C24 UNL     1       3.846   6.947  11.595  1.00  0.00     0.001 A 
HETATM   27  C25 UNL     1       3.400   6.422  10.388  1.00  0.00     0.000 A 
HETATM   28  C26 UNL     1       2.077   6.008  10.257  1.00  0.00     0.001 A 
HETATM   29  C27 UNL     1       1.198   6.113  11.337  1.00  0.00     0.009 A 
ENDBRANCH  22  24
ENDBRANCH  20  22
ENDBRANCH  17  18
ENDBRANCH  15  17
BRANCH   1  30
HETATM   30  N1  UNL     1      -0.794   3.456  12.224  1.00  0.00    -0.367 N 
HETATM   31  H6  UNL     1      -0.097   3.930  12.792  1.00  0.00     0.161 HD
BRANCH  30  32
HETATM   32  C3  UNL     1      -0.283   2.772  11.065  1.00  0.00     0.148 C 
BRANCH  32  33
HETATM   33  C2  UNL     1      -0.914   1.413  11.066  1.00  0.00    -0.018 C 
HETATM   34  C1  UNL     1      -0.514   0.371  10.323  1.00  0.00     0.008 C 
ENDBRANCH  32  33
ENDBRANCH  30  32
ENDBRANCH   1  30
BRANCH   8  35
HETATM   35  C11 UNL     1      -8.688   6.855  14.135  1.00  0.00     0.176 C 
BRANCH  35  36
HETATM   36  O1  UNL     1     -10.014   6.471  14.516  1.00  0.00    -0.400 OA
HETATM   37  H15 UNL     1     -10.554   7.284  14.538  1.00  0.00     0.209 HD
ENDBRANCH  35  36
ENDBRANCH   8  35
BRANCH  10  38
HETATM   38  O2  UNL     1      -8.396   4.808  16.291  1.00  0.00    -0.395 OA
HETATM   39  H17 UNL     1      -9.040   5.535  16.152  1.00  0.00     0.210 HD
ENDBRANCH  10  38
TORSDOF 10
ENDMDL
MODEL 7
REMARK minimizedAffinity -8.15929699
REMARK  10 active torsions:
REMARK  status: ('A' for Active; 'I' for Inactive)
REMARK    1  A    between atoms: C2_2  and  C3_3 
REMARK    2  A    between atoms: C3_3  and  N1_4 
REMARK    3  A    between atoms: N1_4  and  C4_5 
REMARK    4  A    between atoms: C9_12  and  C11_14 
REMARK    5  A    between atoms: C11_14  and  O1_15 
REMARK    6  A    between atoms: C12_16  and  O2_17 
REMARK    7  A    between atoms: C17_22  and  C18_23 
REMARK    8  A    between atoms: C18_23  and  C19_24 
REMARK       I    between atoms: C19_24  and  N3_26 
REMARK    9  A    between atoms: N3_26  and  C20_27 
REMARK   10  A    between atoms: C20_27  and  C22_29 
ROOT
HETATM    1  C4  UNL     1      -3.039   3.785  11.434  1.00  0.00     0.145 A 
HETATM    2  N2  UNL     1      -3.658   4.732  12.106  1.00  0.00    -0.339 N 
ATOM      3  H2  UNL     1      -4.659   4.918  12.058  1.00  0.00     0.168 HD
HETATM    4  C5  UNL     1      -2.766   5.441  12.885  1.00  0.00     0.030 A 
HETATM    5  C6  UNL     1      -1.468   5.008  12.815  1.00  0.00     0.009 A 
HETATM    6  C7  UNL     1      -0.300   5.642  13.465  1.00  0.00     0.054 C 
HETATM    7  C8  UNL     1      -0.600   7.012  14.190  1.00  0.00     0.012 C 
HETATM    8  C9  UNL     1       0.697   7.943  14.100  1.00  0.00     0.008 C 
HETATM    9  C10 UNL     1       2.002   7.119  14.340  1.00  0.00     0.020 C 
HETATM   10  C12 UNL     1       0.766   8.549  12.665  1.00  0.00     0.128 C 
HETATM   11  C13 UNL     1      -0.521   9.248  12.235  1.00  0.00     0.033 C 
HETATM   12  C14 UNL     1      -1.754   8.336  12.313  1.00  0.00     0.013 C 
HETATM   13  C15 UNL     1      -1.977   7.706  13.717  1.00  0.00    -0.030 C 
HETATM   14  C16 UNL     1      -2.431   8.838  14.674  1.00  0.00     0.016 C 
HETATM   15  C17 UNL     1      -3.158   6.613  13.731  1.00  0.00     0.054 C 
HETATM   16  S1  UNL     1      -1.350   3.667  11.777  1.00  0.00    -0.057 SA
ENDROOT
BRANCH  15  17
HETATM   17  C18 UNL     1      -4.577   7.129  13.386  1.00  0.00     0.114 C 
BRANCH  17  18
HETATM   18  C19 UNL     1      -5.675   6.419  14.166  1.00  0.00     0.218 C 
HETATM   19  O3  UNL     1      -5.586   6.107  15.349  1.00  0.00    -0.274 OA
HETATM   20  N3  UNL     1      -6.796   6.165  13.408  1.00  0.00    -0.353 N 
HETATM   21  H28 UNL     1      -6.763   6.325  12.408  1.00  0.00     0.163 HD
BRANCH  20  22
HETATM   22  C20 UNL     1      -7.944   5.455  13.948  1.00  0.00     0.113 C 
HETATM   23  C21 UNL     1      -8.341   4.278  13.049  1.00  0.00     0.037 C 
BRANCH  22  24
HETATM   24  C22 UNL     1      -9.066   6.447  14.200  1.00  0.00    -0.036 A 
HETATM   25  C23 UNL     1      -9.055   7.206  15.383  1.00  0.00     0.009 A 
HETATM   26  C24 UNL     1     -10.050   8.153  15.632  1.00  0.00     0.001 A 
HETATM   27  C25 UNL     1     -11.062   8.359  14.702  1.00  0.00     0.000 A 
HETATM   28  C26 UNL     1     -11.084   7.619  13.523  1.00  0.00     0.001 A 
HETATM   29  C27 UNL     1     -10.088   6.674  13.269  1.00  0.00     0.009 A 
ENDBRANCH  22  24
ENDBRANCH  20  22
ENDBRANCH  17  18
ENDBRANCH  15  17
BRANCH   1  30
HETATM   30  N1  UNL     1      -3.706   3.021  10.542  1.00  0.00    -0.367 N 
HETATM   31  H6  UNL     1      -3.116   2.583   9.841  1.00  0.00     0.161 HD
BRANCH  30  32
HETATM   32  C3  UNL     1      -5.063   3.275  10.135  1.00  0.00     0.148 C 
BRANCH  32  33
HETATM   33  C2  UNL     1      -5.929   2.400  10.988  1.00  0.00    -0.018 C 
HETATM   34  C1  UNL     1      -5.684   1.114  11.282  1.00  0.00     0.008 C 
ENDBRANCH  32  33
ENDBRANCH  30  32
ENDBRANCH   1  30
BRANCH   8  35
HETATM   35  C11 UNL     1       0.723   9.018  15.227  1.00  0.00     0.176 C 
BRANCH  35  36
HETATM   36  O1  UNL     1       0.585   8.422  16.522  1.00  0.00    -0.400 OA
HETATM   37  H15 UNL     1       0.584   9.148  17.174  1.00  0.00     0.209 HD
ENDBRANCH  35  36
ENDBRANCH   8  35
BRANCH  10  38
HETATM   38  O2  UNL     1       1.862   9.450  12.500  1.00  0.00    -0.395 OA
HETATM   39  H17 UNL     1       1.934   9.959  13.335  1.00  0.00     0.210 HD
ENDBRANCH  10  38
TORSDOF 10
ENDMDL
MODEL 8
REMARK minimizedAffinity -8.14361858
REMARK  10 active torsions:
REMARK  status: ('A' for Active; 'I' for Inactive)
REMARK    1  A    between atoms: C2_2  and  C3_3 
REMARK    2  A    between atoms: C3_3  and  N1_4 
REMARK    3  A    between atoms: N1_4  and  C4_5 
REMARK    4  A    between atoms: C9_12  and  C11_14 
REMARK    5  A    between atoms: C11_14  and  O1_15 
REMARK    6  A    between atoms: C12_16  and  O2_17 
REMARK    7  A    between atoms: C17_22  and  C18_23 
REMARK    8  A    between atoms: C18_23  and  C19_24 
REMARK       I    between atoms: C19_24  and  N3_26 
REMARK    9  A    between atoms: N3_26  and  C20_27 
REMARK   10  A    between atoms: C20_27  and  C22_29 
ROOT
HETATM    1  C4  UNL     1      -2.416   4.022  12.100  1.00  0.00     0.145 A 
HETATM    2  N2  UNL     1      -2.235   5.275  12.459  1.00  0.00    -0.339 N 
ATOM      3  H2  UNL     1      -2.956   5.870  12.866  1.00  0.00     0.168 HD
HETATM    4  C5  UNL     1      -0.938   5.672  12.210  1.00  0.00     0.030 A 
HETATM    5  C6  UNL     1      -0.129   4.703  11.680  1.00  0.00     0.009 A 
HETATM    6  C7  UNL     1       1.269   4.882  11.228  1.00  0.00     0.054 C 
HETATM    7  C8  UNL     1       1.796   6.370  11.260  1.00  0.00     0.012 C 
HETATM    8  C9  UNL     1       2.853   6.573  10.077  1.00  0.00     0.008 C 
HETATM    9  C10 UNL     1       3.798   5.336   9.945  1.00  0.00     0.020 C 
HETATM   10  C12 UNL     1       2.067   6.724   8.739  1.00  0.00     0.128 C 
HETATM   11  C13 UNL     1       0.985   7.800   8.785  1.00  0.00     0.033 C 
HETATM   12  C14 UNL     1      -0.030   7.583   9.917  1.00  0.00     0.013 C 
HETATM   13  C15 UNL     1       0.620   7.471  11.325  1.00  0.00    -0.030 C 
HETATM   14  C16 UNL     1       1.144   8.878  11.714  1.00  0.00     0.016 C 
HETATM   15  C17 UNL     1      -0.434   7.059  12.469  1.00  0.00     0.054 C 
HETATM   16  S1  UNL     1      -0.989   3.247  11.508  1.00  0.00    -0.057 SA
ENDROOT
BRANCH  15  17
HETATM   17  C18 UNL     1      -1.590   8.057  12.732  1.00  0.00     0.114 C 
BRANCH  17  18
HETATM   18  C19 UNL     1      -2.221   7.890  14.107  1.00  0.00     0.218 C 
HETATM   19  O3  UNL     1      -1.647   8.144  15.161  1.00  0.00    -0.274 OA
HETATM   20  N3  UNL     1      -3.518   7.429  14.053  1.00  0.00    -0.353 N 
HETATM   21  H28 UNL     1      -3.892   7.112  13.168  1.00  0.00     0.163 HD
BRANCH  20  22
HETATM   22  C20 UNL     1      -4.287   7.158  15.257  1.00  0.00     0.113 C 
HETATM   23  C21 UNL     1      -3.655   6.027  16.075  1.00  0.00     0.037 C 
BRANCH  22  24
HETATM   24  C22 UNL     1      -5.735   6.910  14.871  1.00  0.00    -0.036 A 
HETATM   25  C23 UNL     1      -6.025   6.365  13.609  1.00  0.00     0.009 A 
HETATM   26  C24 UNL     1      -7.340   6.091  13.234  1.00  0.00     0.001 A 
HETATM   27  C25 UNL     1      -8.383   6.350  14.117  1.00  0.00     0.000 A 
HETATM   28  C26 UNL     1      -8.112   6.885  15.373  1.00  0.00     0.001 A 
HETATM   29  C27 UNL     1      -6.797   7.157  15.753  1.00  0.00     0.009 A 
ENDBRANCH  22  24
ENDBRANCH  20  22
ENDBRANCH  17  18
ENDBRANCH  15  17
BRANCH   1  30
HETATM   30  N1  UNL     1      -3.637   3.450  12.177  1.00  0.00    -0.367 N 
HETATM   31  H6  UNL     1      -4.183   3.734  12.985  1.00  0.00     0.161 HD
BRANCH  30  32
HETATM   32  C3  UNL     1      -3.936   2.141  11.660  1.00  0.00     0.148 C 
BRANCH  32  33
HETATM   33  C2  UNL     1      -5.390   2.152  11.300  1.00  0.00    -0.018 C 
HETATM   34  C1  UNL     1      -6.180   1.071  11.225  1.00  0.00     0.008 C 
ENDBRANCH  32  33
ENDBRANCH  30  32
ENDBRANCH   1  30
BRANCH   8  35
HETATM   35  C11 UNL     1       3.826   7.756  10.360  1.00  0.00     0.176 C 
BRANCH  35  36
HETATM   36  O1  UNL     1       4.045   8.545   9.185  1.00  0.00    -0.400 OA
HETATM   37  H15 UNL     1       4.679   9.248   9.426  1.00  0.00     0.209 HD
ENDBRANCH  35  36
ENDBRANCH   8  35
BRANCH  10  38
HETATM   38  O2  UNL     1       2.922   6.972   7.623  1.00  0.00    -0.395 OA
HETATM   39  H17 UNL     1       3.626   7.577   7.939  1.00  0.00     0.210 HD
ENDBRANCH  10  38
TORSDOF 10
ENDMDL
MODEL 9
REMARK minimizedAffinity -8.10640335
REMARK  10 active torsions:
REMARK  status: ('A' for Active; 'I' for Inactive)
REMARK    1  A    between atoms: C2_2  and  C3_3 
REMARK    2  A    between atoms: C3_3  and  N1_4 
REMARK    3  A    between atoms: N1_4  and  C4_5 
REMARK    4  A    between atoms: C9_12  and  C11_14 
REMARK    5  A    between atoms: C11_14  and  O1_15 
REMARK    6  A    between atoms: C12_16  and  O2_17 
REMARK    7  A    between atoms: C17_22  and  C18_23 
REMARK    8  A    between atoms: C18_23  and  C19_24 
REMARK       I    between atoms: C19_24  and  N3_26 
REMARK    9  A    between atoms: N3_26  and  C20_27 
REMARK   10  A    between atoms: C20_27  and  C22_29 
ROOT
HETATM    1  C4  UNL     1      -3.989   4.613  12.621  1.00  0.00     0.145 A 
HETATM    2  N2  UNL     1      -2.810   5.063  12.248  1.00  0.00    -0.339 N 
ATOM      3  H2  UNL     1      -2.118   4.518  11.735  1.00  0.00     0.168 HD
HETATM    4  C5  UNL     1      -2.639   6.373  12.646  1.00  0.00     0.030 A 
HETATM    5  C6  UNL     1      -3.707   6.921  13.304  1.00  0.00     0.009 A 
HETATM    6  C7  UNL     1      -3.757   8.265  13.922  1.00  0.00     0.054 C 
HETATM    7  C8  UNL     1      -2.392   9.057  13.911  1.00  0.00     0.012 C 
HETATM    8  C9  UNL     1      -2.318   9.986  15.210  1.00  0.00     0.008 C 
HETATM    9  C10 UNL     1      -3.696  10.664  15.499  1.00  0.00     0.020 C 
HETATM   10  C12 UNL     1      -1.956   9.088  16.434  1.00  0.00     0.128 C 
HETATM   11  C13 UNL     1      -0.708   8.236  16.218  1.00  0.00     0.033 C 
HETATM   12  C14 UNL     1      -0.801   7.340  14.974  1.00  0.00     0.013 C 
HETATM   13  C15 UNL     1      -1.103   8.120  13.663  1.00  0.00    -0.030 C 
HETATM   14  C16 UNL     1       0.164   8.937  13.299  1.00  0.00     0.016 C 
HETATM   15  C17 UNL     1      -1.380   7.151  12.409  1.00  0.00     0.054 C 
HETATM   16  S1  UNL     1      -4.974   5.792  13.412  1.00  0.00    -0.057 SA
ENDROOT
BRANCH  15  17
HETATM   17  C18 UNL     1      -0.208   6.238  11.972  1.00  0.00     0.114 C 
BRANCH  17  18
HETATM   18  C19 UNL     1       0.538   6.765  10.755  1.00  0.00     0.218 C 
HETATM   19  O3  UNL     1       0.013   7.415   9.856  1.00  0.00    -0.274 OA
HETATM   20  N3  UNL     1       1.878   6.449  10.763  1.00  0.00    -0.353 N 
HETATM   21  H28 UNL     1       2.227   5.802  11.460  1.00  0.00     0.163 HD
BRANCH  20  22
HETATM   22  C20 UNL     1       2.762   6.818   9.670  1.00  0.00     0.113 C 
HETATM   23  C21 UNL     1       2.890   5.680   8.652  1.00  0.00     0.037 C 
BRANCH  22  24
HETATM   24  C22 UNL     1       4.088   7.288  10.245  1.00  0.00    -0.036 A 
HETATM   25  C23 UNL     1       4.885   6.379  10.960  1.00  0.00     0.009 A 
HETATM   26  C24 UNL     1       6.124   6.765  11.471  1.00  0.00     0.001 A 
HETATM   27  C25 UNL     1       6.587   8.060  11.270  1.00  0.00     0.000 A 
HETATM   28  C26 UNL     1       5.811   8.972  10.559  1.00  0.00     0.001 A 
HETATM   29  C27 UNL     1       4.572   8.588  10.042  1.00  0.00     0.009 A 
ENDBRANCH  22  24
ENDBRANCH  20  22
ENDBRANCH  17  18
ENDBRANCH  15  17
BRANCH   1  30
HETATM   30  N1  UNL     1      -4.337   3.326  12.409  1.00  0.00    -0.367 N 
HETATM   31  H6  UNL     1      -3.657   2.648  12.742  1.00  0.00     0.161 HD
BRANCH  30  32
HETATM   32  C3  UNL     1      -5.149   2.892  11.303  1.00  0.00     0.148 C 
BRANCH  32  33
HETATM   33  C2  UNL     1      -6.310   2.154  11.897  1.00  0.00    -0.018 C 
HETATM   34  C1  UNL     1      -7.261   2.698  12.671  1.00  0.00     0.008 C 
ENDBRANCH  32  33
ENDBRANCH  30  32
ENDBRANCH   1  30
BRANCH   8  35
HETATM   35  C11 UNL     1      -1.346  11.186  15.015  1.00  0.00     0.176 C 
BRANCH  35  36
HETATM   36  O1  UNL     1      -1.534  11.810  13.740  1.00  0.00    -0.400 OA
HETATM   37  H15 UNL     1      -0.881  12.532  13.674  1.00  0.00     0.209 HD
ENDBRANCH  35  36
ENDBRANCH   8  35
BRANCH  10  38
HETATM   38  O2  UNL     1      -1.806   9.837  17.640  1.00  0.00    -0.395 OA
HETATM   39  H17 UNL     1      -1.355  10.673  17.396  1.00  0.00     0.210 HD
ENDBRANCH  10  38
TORSDOF 10
ENDMDL
