MODEL 1
REMARK minimizedAffinity -7.90049314
REMARK CNNscore 0.589665353
REMARK CNNaffinity 7.31130219
REMARK  6 active torsions:
REMARK  status: ('A' for Active; 'I' for Inactive)
REMARK    1  A    between atoms: C2_2  and  C30_31 
REMARK    2  A    between atoms: C3_3  and  C4_4 
REMARK    3  A    between atoms: C4_4  and  C5_5 
REMARK    4  A    between atoms: C5_5  and  C6_6 
REMARK    5  A    between atoms: C6_6  and  C8_8 
REMARK    6  A    between atoms: C30_31  and  O3_33 
ROOT
HETATM    1  C8  UNL     1      -8.900   6.537  15.149  1.00  0.00    -0.002 C 
HETATM    2  C9  UNL     1      -8.243   7.094  16.439  1.00  0.00     0.007 C 
HETATM    3  C10 UNL     1      -6.732   6.781  16.337  1.00  0.00     0.015 C 
HETATM    4  C11 UNL     1      -6.601   5.801  15.149  1.00  0.00    -0.013 C 
HETATM    5  C12 UNL     1      -6.895   4.379  15.732  1.00  0.00     0.021 C 
HETATM    6  C13 UNL     1      -5.260   5.682  14.436  1.00  0.00    -0.070 C 
HETATM    7  C14 UNL     1      -4.087   5.830  15.079  1.00  0.00    -0.022 C 
HETATM    8  C15 UNL     1      -2.739   5.586  14.460  1.00  0.00     0.034 C 
HETATM    9  C16 UNL     1      -2.777   5.366  12.932  1.00  0.00     0.013 C 
HETATM   10  C17 UNL     1      -1.402   4.973  12.267  1.00  0.00     0.018 C 
HETATM   11  C18 UNL     1      -0.925   6.129  11.356  1.00  0.00     0.023 C 
HETATM   12  C19 UNL     1      -0.277   4.708  13.290  1.00  0.00     0.023 C 
HETATM   13  C20 UNL     1      -1.518   3.741  11.356  1.00  0.00     0.135 C 
HETATM   14  O1  UNL     1      -0.604   2.916  11.261  1.00  0.00    -0.297 OA
HETATM   15  C21 UNL     1      -2.737   3.589  10.478  1.00  0.00     0.080 C 
HETATM   16  C22 UNL     1      -3.968   4.323  10.986  1.00  0.00     0.017 C 
HETATM   17  C23 UNL     1      -4.010   4.482  12.523  1.00  0.00    -0.031 C 
HETATM   18  C24 UNL     1      -3.989   3.086  13.198  1.00  0.00     0.016 C 
HETATM   19  C25 UNL     1      -5.301   5.286  12.952  1.00  0.00     0.024 C 
HETATM   20  C26 UNL     1      -6.647   4.648  12.522  1.00  0.00     0.010 C 
HETATM   21  C27 UNL     1      -7.929   5.356  13.028  1.00  0.00     0.011 C 
HETATM   22  C28 UNL     1      -7.692   6.361  14.173  1.00  0.00    -0.029 C 
HETATM   23  C29 UNL     1      -7.326   7.737  13.545  1.00  0.00     0.016 C 
ENDROOT
BRANCH   1  24
HETATM   24  C6  UNL     1     -10.183   7.267  14.646  1.00  0.00    -0.014 C 
HETATM   25  C7  UNL     1     -10.045   8.764  14.989  1.00  0.00     0.010 C 
BRANCH  24  26
HETATM   26  C5  UNL     1     -10.491   7.112  13.135  1.00  0.00     0.008 C 
BRANCH  26  27
HETATM   27  C4  UNL     1     -11.961   7.355  12.752  1.00  0.00     0.028 C 
BRANCH  27  28
HETATM   28  C3  UNL     1     -12.971   6.669  13.630  1.00  0.00    -0.013 C 
HETATM   29  C2  UNL     1     -14.316   6.669  13.516  1.00  0.00     0.008 C 
HETATM   30  C1  UNL     1     -15.175   5.891  14.472  1.00  0.00     0.055 C 
BRANCH  29  31
HETATM   31  C30 UNL     1     -15.017   7.461  12.473  1.00  0.00     0.171 C 
HETATM   32  O2  UNL     1     -15.486   7.058  11.424  1.00  0.00    -0.646 OA
BRANCH  31  33
HETATM   33  O3  UNL     1     -15.088   8.765  12.796  1.00  0.00    -0.773 OA
HETATM   34  H46 UNL     1     -15.563   9.158  12.034  1.00  0.00     0.167 HD
ENDBRANCH  31  33
ENDBRANCH  29  31
ENDBRANCH  27  28
ENDBRANCH  26  27
ENDBRANCH  24  26
ENDBRANCH   1  24
TORSDOF 6
ENDMDL
MODEL 2
REMARK minimizedAffinity -7.74214411
REMARK CNNscore 0.589327812
REMARK CNNaffinity 6.63946867
REMARK  6 active torsions:
REMARK  status: ('A' for Active; 'I' for Inactive)
REMARK    1  A    between atoms: C2_2  and  C30_31 
REMARK    2  A    between atoms: C3_3  and  C4_4 
REMARK    3  A    between atoms: C4_4  and  C5_5 
REMARK    4  A    between atoms: C5_5  and  C6_6 
REMARK    5  A    between atoms: C6_6  and  C8_8 
REMARK    6  A    between atoms: C30_31  and  O3_33 
ROOT
HETATM    1  C8  UNL     1      -2.454   9.091  15.728  1.00  0.00    -0.002 C 
HETATM    2  C9  UNL     1      -1.509   8.439  16.772  1.00  0.00     0.007 C 
HETATM    3  C10 UNL     1      -0.385   7.738  15.973  1.00  0.00     0.015 C 
HETATM    4  C11 UNL     1      -0.867   7.746  14.504  1.00  0.00    -0.013 C 
HETATM    5  C12 UNL     1      -1.804   6.503  14.353  1.00  0.00     0.021 C 
HETATM    6  C13 UNL     1       0.164   7.621  13.390  1.00  0.00    -0.070 C 
HETATM    7  C14 UNL     1       1.292   6.900  13.530  1.00  0.00    -0.022 C 
HETATM    8  C15 UNL     1       2.272   6.626  12.424  1.00  0.00     0.034 C 
HETATM    9  C16 UNL     1       2.011   7.435  11.135  1.00  0.00     0.013 C 
HETATM   10  C17 UNL     1       2.934   7.077   9.908  1.00  0.00     0.018 C 
HETATM   11  C18 UNL     1       3.865   8.273   9.602  1.00  0.00     0.023 C 
HETATM   12  C19 UNL     1       3.837   5.851  10.154  1.00  0.00     0.023 C 
HETATM   13  C20 UNL     1       2.133   6.828   8.621  1.00  0.00     0.135 C 
HETATM   14  O1  UNL     1       2.483   5.982   7.791  1.00  0.00    -0.297 OA
HETATM   15  C21 UNL     1       0.946   7.708   8.311  1.00  0.00     0.080 C 
HETATM   16  C22 UNL     1       0.309   8.350   9.535  1.00  0.00     0.017 C 
HETATM   17  C23 UNL     1       0.472   7.521  10.829  1.00  0.00    -0.031 C 
HETATM   18  C24 UNL     1      -0.175   6.124  10.645  1.00  0.00     0.016 C 
HETATM   19  C25 UNL     1      -0.187   8.282  12.049  1.00  0.00     0.024 C 
HETATM   20  C26 UNL     1      -1.698   8.592  11.892  1.00  0.00     0.010 C 
HETATM   21  C27 UNL     1      -2.392   9.235  13.119  1.00  0.00     0.011 C 
HETATM   22  C28 UNL     1      -1.587   9.137  14.430  1.00  0.00    -0.029 C 
HETATM   23  C29 UNL     1      -0.615  10.351  14.496  1.00  0.00     0.016 C 
ENDROOT
BRANCH   1  24
HETATM   24  C6  UNL     1      -3.215  10.375  16.180  1.00  0.00    -0.014 C 
HETATM   25  C7  UNL     1      -4.695  10.219  15.778  1.00  0.00     0.010 C 
BRANCH  24  26
HETATM   26  C5  UNL     1      -3.124  10.711  17.690  1.00  0.00     0.008 C 
BRANCH  26  27
HETATM   27  C4  UNL     1      -3.506  12.156  18.050  1.00  0.00     0.028 C 
BRANCH  27  28
HETATM   28  C3  UNL     1      -4.319  12.308  19.306  1.00  0.00    -0.013 C 
HETATM   29  C2  UNL     1      -5.015  13.385  19.727  1.00  0.00     0.008 C 
HETATM   30  C1  UNL     1      -5.807  13.345  21.004  1.00  0.00     0.055 C 
BRANCH  29  31
HETATM   31  C30 UNL     1      -5.006  14.669  18.980  1.00  0.00     0.171 C 
HETATM   32  O2  UNL     1      -5.903  15.490  18.902  1.00  0.00    -0.646 OA
BRANCH  31  33
HETATM   33  O3  UNL     1      -3.843  14.865  18.333  1.00  0.00    -0.773 OA
HETATM   34  H46 UNL     1      -3.976  15.729  17.891  1.00  0.00     0.167 HD
ENDBRANCH  31  33
ENDBRANCH  29  31
ENDBRANCH  27  28
ENDBRANCH  26  27
ENDBRANCH  24  26
ENDBRANCH   1  24
TORSDOF 6
ENDMDL
MODEL 3
REMARK minimizedAffinity -7.07571316
REMARK CNNscore 0.414211899
REMARK CNNaffinity 5.78138351
REMARK  6 active torsions:
REMARK  status: ('A' for Active; 'I' for Inactive)
REMARK    1  A    between atoms: C2_2  and  C30_31 
REMARK    2  A    between atoms: C3_3  and  C4_4 
REMARK    3  A    between atoms: C4_4  and  C5_5 
REMARK    4  A    between atoms: C5_5  and  C6_6 
REMARK    5  A    between atoms: C6_6  and  C8_8 
REMARK    6  A    between atoms: C30_31  and  O3_33 
ROOT
HETATM    1  C8  UNL     1      -9.831  -7.870  -4.341  1.00  0.00    -0.002 C 
HETATM    2  C9  UNL     1     -11.020  -7.557  -3.396  1.00  0.00     0.007 C 
HETATM    3  C10 UNL     1     -10.654  -8.148  -2.014  1.00  0.00     0.015 C 
HETATM    4  C11 UNL     1      -9.414  -9.036  -2.269  1.00  0.00    -0.013 C 
HETATM    5  C12 UNL     1      -9.969 -10.416  -2.755  1.00  0.00     0.021 C 
HETATM    6  C13 UNL     1      -8.484  -9.355  -1.106  1.00  0.00    -0.070 C 
HETATM    7  C14 UNL     1      -8.930  -9.489   0.157  1.00  0.00    -0.022 C 
HETATM    8  C15 UNL     1      -8.086  -9.940   1.316  1.00  0.00     0.034 C 
HETATM    9  C16 UNL     1      -6.576 -10.024   1.002  1.00  0.00     0.013 C 
HETATM   10  C17 UNL     1      -5.674 -10.621   2.149  1.00  0.00     0.018 C 
HETATM   11  C18 UNL     1      -4.755  -9.510   2.707  1.00  0.00     0.023 C 
HETATM   12  C19 UNL     1      -6.482 -11.181   3.339  1.00  0.00     0.023 C 
HETATM   13  C20 UNL     1      -4.737 -11.729   1.646  1.00  0.00     0.135 C 
HETATM   14  O1  UNL     1      -4.451 -12.706   2.346  1.00  0.00    -0.297 OA
HETATM   15  C21 UNL     1      -4.066 -11.571   0.302  1.00  0.00     0.080 C 
HETATM   16  C22 UNL     1      -4.806 -10.655  -0.660  1.00  0.00     0.017 C 
HETATM   17  C23 UNL     1      -6.334 -10.616  -0.434  1.00  0.00    -0.031 C 
HETATM   18  C24 UNL     1      -6.928 -12.039  -0.596  1.00  0.00     0.016 C 
HETATM   19  C25 UNL     1      -7.010  -9.613  -1.453  1.00  0.00     0.024 C 
HETATM   20  C26 UNL     1      -6.779  -9.942  -2.950  1.00  0.00     0.010 C 
HETATM   21  C27 UNL     1      -7.524  -9.042  -3.967  1.00  0.00     0.011 C 
HETATM   22  C28 UNL     1      -8.661  -8.197  -3.359  1.00  0.00    -0.029 C 
HETATM   23  C29 UNL     1      -8.048  -6.872  -2.819  1.00  0.00     0.016 C 
ENDROOT
BRANCH   1  24
HETATM   24  C6  UNL     1      -9.583  -6.867  -5.509  1.00  0.00    -0.014 C 
HETATM   25  C7  UNL     1     -10.017  -7.549  -6.823  1.00  0.00     0.010 C 
BRANCH  24  26
HETATM   26  C5  UNL     1     -10.299  -5.499  -5.379  1.00  0.00     0.008 C 
BRANCH  26  27
HETATM   27  C4  UNL     1      -9.364  -4.310  -5.102  1.00  0.00     0.028 C 
BRANCH  27  28
HETATM   28  C3  UNL     1     -10.055  -2.992  -4.883  1.00  0.00    -0.013 C 
HETATM   29  C2  UNL     1      -9.532  -1.750  -4.959  1.00  0.00     0.008 C 
HETATM   30  C1  UNL     1     -10.387  -0.533  -4.743  1.00  0.00     0.055 C 
BRANCH  29  31
HETATM   31  C30 UNL     1      -8.087  -1.520  -5.220  1.00  0.00     0.171 C 
HETATM   32  O2  UNL     1      -7.590  -0.746  -6.020  1.00  0.00    -0.646 OA
BRANCH  31  33
HETATM   33  O3  UNL     1      -7.307  -2.304  -4.454  1.00  0.00    -0.773 OA
HETATM   34  H46 UNL     1      -6.400  -2.052  -4.728  1.00  0.00     0.167 HD
ENDBRANCH  31  33
ENDBRANCH  29  31
ENDBRANCH  27  28
ENDBRANCH  26  27
ENDBRANCH  24  26
ENDBRANCH   1  24
TORSDOF 6
ENDMDL
MODEL 4
REMARK minimizedAffinity -8.11722946
REMARK CNNscore 0.372074872
REMARK CNNaffinity 6.65079927
REMARK  6 active torsions:
REMARK  status: ('A' for Active; 'I' for Inactive)
REMARK    1  A    between atoms: C2_2  and  C30_31 
REMARK    2  A    between atoms: C3_3  and  C4_4 
REMARK    3  A    between atoms: C4_4  and  C5_5 
REMARK    4  A    between atoms: C5_5  and  C6_6 
REMARK    5  A    between atoms: C6_6  and  C8_8 
REMARK    6  A    between atoms: C30_31  and  O3_33 
ROOT
HETATM    1  C8  UNL     1      -0.786  10.852  16.961  1.00  0.00    -0.002 C 
HETATM    2  C9  UNL     1      -1.820  11.931  17.378  1.00  0.00     0.007 C 
HETATM    3  C10 UNL     1      -3.196  11.444  16.868  1.00  0.00     0.015 C 
HETATM    4  C11 UNL     1      -2.883  10.262  15.923  1.00  0.00    -0.013 C 
HETATM    5  C12 UNL     1      -2.552  10.900  14.534  1.00  0.00     0.021 C 
HETATM    6  C13 UNL     1      -3.968   9.228  15.650  1.00  0.00    -0.070 C 
HETATM    7  C14 UNL     1      -5.275   9.548  15.616  1.00  0.00    -0.022 C 
HETATM    8  C15 UNL     1      -6.373   8.604  15.215  1.00  0.00     0.034 C 
HETATM    9  C16 UNL     1      -5.918   7.136  15.058  1.00  0.00     0.013 C 
HETATM   10  C17 UNL     1      -7.009   6.140  14.508  1.00  0.00     0.018 C 
HETATM   11  C18 UNL     1      -7.395   5.138  15.620  1.00  0.00     0.023 C 
HETATM   12  C19 UNL     1      -8.310   6.839  14.057  1.00  0.00     0.023 C 
HETATM   13  C20 UNL     1      -6.496   5.290  13.336  1.00  0.00     0.135 C 
HETATM   14  O1  UNL     1      -7.231   4.962  12.399  1.00  0.00    -0.297 OA
HETATM   15  C21 UNL     1      -5.084   4.755  13.380  1.00  0.00     0.080 C 
HETATM   16  C22 UNL     1      -4.138   5.562  14.255  1.00  0.00     0.017 C 
HETATM   17  C23 UNL     1      -4.511   7.057  14.362  1.00  0.00    -0.031 C 
HETATM   18  C24 UNL     1      -4.509   7.704  12.954  1.00  0.00     0.016 C 
HETATM   19  C25 UNL     1      -3.496   7.805  15.318  1.00  0.00     0.024 C 
HETATM   20  C26 UNL     1      -2.010   7.735  14.882  1.00  0.00     0.010 C 
HETATM   21  C27 UNL     1      -1.010   8.553  15.737  1.00  0.00     0.011 C 
HETATM   22  C28 UNL     1      -1.668   9.599  16.660  1.00  0.00    -0.029 C 
HETATM   23  C29 UNL     1      -2.050   8.898  17.996  1.00  0.00     0.016 C 
ENDROOT
BRANCH   1  24
HETATM   24  C6  UNL     1       0.469  10.696  17.874  1.00  0.00    -0.014 C 
HETATM   25  C7  UNL     1       1.660  11.376  17.170  1.00  0.00     0.010 C 
BRANCH  24  26
HETATM   26  C5  UNL     1       0.327  11.265  19.309  1.00  0.00     0.008 C 
BRANCH  26  27
HETATM   27  C4  UNL     1       1.610  11.201  20.154  1.00  0.00     0.028 C 
BRANCH  27  28
HETATM   28  C3  UNL     1       1.663  10.077  21.151  1.00  0.00    -0.013 C 
HETATM   29  C2  UNL     1       2.725   9.633  21.856  1.00  0.00     0.008 C 
HETATM   30  C1  UNL     1       2.586   8.509  22.844  1.00  0.00     0.055 C 
BRANCH  29  31
HETATM   31  C30 UNL     1       4.086  10.199  21.669  1.00  0.00     0.171 C 
HETATM   32  O2  UNL     1       4.668  10.405  20.618  1.00  0.00    -0.646 OA
BRANCH  31  33
HETATM   33  O3  UNL     1       4.680  10.478  22.843  1.00  0.00    -0.773 OA
HETATM   34  H46 UNL     1       5.551  10.835  22.574  1.00  0.00     0.167 HD
ENDBRANCH  31  33
ENDBRANCH  29  31
ENDBRANCH  27  28
ENDBRANCH  26  27
ENDBRANCH  24  26
ENDBRANCH   1  24
TORSDOF 6
ENDMDL
MODEL 5
REMARK minimizedAffinity -7.48865175
REMARK CNNscore 0.366517633
REMARK CNNaffinity 6.53788996
REMARK  6 active torsions:
REMARK  status: ('A' for Active; 'I' for Inactive)
REMARK    1  A    between atoms: C2_2  and  C30_31 
REMARK    2  A    between atoms: C3_3  and  C4_4 
REMARK    3  A    between atoms: C4_4  and  C5_5 
REMARK    4  A    between atoms: C5_5  and  C6_6 
REMARK    5  A    between atoms: C6_6  and  C8_8 
REMARK    6  A    between atoms: C30_31  and  O3_33 
ROOT
HETATM    1  C8  UNL     1      -0.487   6.701  13.504  1.00  0.00    -0.002 C 
HETATM    2  C9  UNL     1      -1.753   6.702  12.608  1.00  0.00     0.007 C 
HETATM    3  C10 UNL     1      -2.699   7.784  13.181  1.00  0.00     0.015 C 
HETATM    4  C11 UNL     1      -2.093   8.167  14.551  1.00  0.00    -0.013 C 
HETATM    5  C12 UNL     1      -2.629   7.106  15.568  1.00  0.00     0.021 C 
HETATM    6  C13 UNL     1      -2.435   9.523  15.155  1.00  0.00    -0.070 C 
HETATM    7  C14 UNL     1      -3.629  10.115  14.966  1.00  0.00    -0.022 C 
HETATM    8  C15 UNL     1      -4.072  11.379  15.648  1.00  0.00     0.034 C 
HETATM    9  C16 UNL     1      -2.951  12.098  16.431  1.00  0.00     0.013 C 
HETATM   10  C17 UNL     1      -3.406  13.353  17.271  1.00  0.00     0.018 C 
HETATM   11  C18 UNL     1      -2.796  14.632  16.652  1.00  0.00     0.023 C 
HETATM   12  C19 UNL     1      -4.937  13.551  17.302  1.00  0.00     0.023 C 
HETATM   13  C20 UNL     1      -2.902  13.306  18.721  1.00  0.00     0.135 C 
HETATM   14  O1  UNL     1      -3.577  13.745  19.658  1.00  0.00    -0.297 OA
HETATM   15  C21 UNL     1      -1.504  12.805  18.998  1.00  0.00     0.080 C 
HETATM   16  C22 UNL     1      -0.955  11.870  17.932  1.00  0.00     0.017 C 
HETATM   17  C23 UNL     1      -2.043  11.064  17.188  1.00  0.00    -0.031 C 
HETATM   18  C24 UNL     1      -2.842  10.201  18.198  1.00  0.00     0.016 C 
HETATM   19  C25 UNL     1      -1.382  10.151  16.079  1.00  0.00     0.024 C 
HETATM   20  C26 UNL     1      -0.336   9.133  16.603  1.00  0.00     0.010 C 
HETATM   21  C27 UNL     1       0.242   8.151  15.554  1.00  0.00     0.011 C 
HETATM   22  C28 UNL     1      -0.559   8.078  14.239  1.00  0.00    -0.029 C 
HETATM   23  C29 UNL     1      -0.045   9.201  13.292  1.00  0.00     0.016 C 
ENDROOT
BRANCH   1  24
HETATM   24  C6  UNL     1       0.850   6.273  12.824  1.00  0.00    -0.014 C 
HETATM   25  C7  UNL     1       0.591   4.970  12.041  1.00  0.00     0.010 C 
BRANCH  24  26
HETATM   26  C5  UNL     1       1.486   7.324  11.878  1.00  0.00     0.008 C 
BRANCH  26  27
HETATM   27  C4  UNL     1       0.796   7.456  10.510  1.00  0.00     0.028 C 
BRANCH  27  28
HETATM   28  C3  UNL     1       1.339   6.560   9.432  1.00  0.00    -0.013 C 
HETATM   29  C2  UNL     1       2.398   6.771   8.622  1.00  0.00     0.008 C 
HETATM   30  C1  UNL     1       2.824   5.740   7.616  1.00  0.00     0.055 C 
BRANCH  29  31
HETATM   31  C30 UNL     1       3.172   8.039   8.655  1.00  0.00     0.171 C 
HETATM   32  O2  UNL     1       3.973   8.400   9.499  1.00  0.00    -0.646 OA
BRANCH  31  33
HETATM   33  O3  UNL     1       2.888   8.828   7.603  1.00  0.00    -0.773 OA
HETATM   34  H46 UNL     1       3.456   9.613   7.752  1.00  0.00     0.167 HD
ENDBRANCH  31  33
ENDBRANCH  29  31
ENDBRANCH  27  28
ENDBRANCH  26  27
ENDBRANCH  24  26
ENDBRANCH   1  24
TORSDOF 6
ENDMDL
MODEL 6
REMARK minimizedAffinity -8.7934494
REMARK CNNscore 0.347383082
REMARK CNNaffinity 6.97749329
REMARK  6 active torsions:
REMARK  status: ('A' for Active; 'I' for Inactive)
REMARK    1  A    between atoms: C2_2  and  C30_31 
REMARK    2  A    between atoms: C3_3  and  C4_4 
REMARK    3  A    between atoms: C4_4  and  C5_5 
REMARK    4  A    between atoms: C5_5  and  C6_6 
REMARK    5  A    between atoms: C6_6  and  C8_8 
REMARK    6  A    between atoms: C30_31  and  O3_33 
ROOT
HETATM    1  C8  UNL     1      -3.123   6.793  14.279  1.00  0.00    -0.002 C 
HETATM    2  C9  UNL     1      -3.369   5.467  13.513  1.00  0.00     0.007 C 
HETATM    3  C10 UNL     1      -4.902   5.271  13.449  1.00  0.00     0.015 C 
HETATM    4  C11 UNL     1      -5.484   6.318  14.426  1.00  0.00    -0.013 C 
HETATM    5  C12 UNL     1      -5.421   5.662  15.845  1.00  0.00     0.021 C 
HETATM    6  C13 UNL     1      -6.929   6.769  14.247  1.00  0.00    -0.070 C 
HETATM    7  C14 UNL     1      -7.888   5.946  13.782  1.00  0.00    -0.022 C 
HETATM    8  C15 UNL     1      -9.349   6.292  13.718  1.00  0.00     0.034 C 
HETATM    9  C16 UNL     1      -9.661   7.775  14.016  1.00  0.00     0.013 C 
HETATM   10  C17 UNL     1     -11.191   8.146  14.091  1.00  0.00     0.018 C 
HETATM   11  C18 UNL     1     -11.554   9.065  12.901  1.00  0.00     0.023 C 
HETATM   12  C19 UNL     1     -12.127   6.921  14.019  1.00  0.00     0.023 C 
HETATM   13  C20 UNL     1     -11.544   8.941  15.358  1.00  0.00     0.135 C 
HETATM   14  O1  UNL     1     -12.625   8.795  15.937  1.00  0.00    -0.297 OA
HETATM   15  C21 UNL     1     -10.588  10.001  15.850  1.00  0.00     0.080 C 
HETATM   16  C22 UNL     1      -9.145   9.791  15.417  1.00  0.00     0.017 C 
HETATM   17  C23 UNL     1      -8.770   8.308  15.196  1.00  0.00    -0.031 C 
HETATM   18  C24 UNL     1      -8.984   7.509  16.508  1.00  0.00     0.016 C 
HETATM   19  C25 UNL     1      -7.269   8.192  14.714  1.00  0.00     0.024 C 
HETATM   20  C26 UNL     1      -6.218   8.789  15.685  1.00  0.00     0.010 C 
HETATM   21  C27 UNL     1      -4.734   8.587  15.290  1.00  0.00     0.011 C 
HETATM   22  C28 UNL     1      -4.504   7.520  14.201  1.00  0.00    -0.029 C 
HETATM   23  C29 UNL     1      -4.655   8.203  12.811  1.00  0.00     0.016 C 
ENDROOT
BRANCH   1  24
HETATM   24  C6  UNL     1      -1.828   7.582  13.914  1.00  0.00    -0.014 C 
HETATM   25  C7  UNL     1      -0.654   6.961  14.698  1.00  0.00     0.010 C 
BRANCH  24  26
HETATM   26  C5  UNL     1      -1.474   7.625  12.406  1.00  0.00     0.008 C 
BRANCH  26  27
HETATM   27  C4  UNL     1      -0.282   6.743  12.001  1.00  0.00     0.028 C 
BRANCH  27  28
HETATM   28  C3  UNL     1       0.344   7.083  10.677  1.00  0.00    -0.013 C 
HETATM   29  C2  UNL     1       1.395   6.491  10.071  1.00  0.00     0.008 C 
HETATM   30  C1  UNL     1       1.867   6.944   8.718  1.00  0.00     0.055 C 
BRANCH  29  31
HETATM   31  C30 UNL     1       2.162   5.395  10.719  1.00  0.00     0.171 C 
HETATM   32  O2  UNL     1       1.931   4.200  10.675  1.00  0.00    -0.646 OA
BRANCH  31  33
HETATM   33  O3  UNL     1       3.206   5.863  11.427  1.00  0.00    -0.773 OA
HETATM   34  H46 UNL     1       3.611   5.049  11.792  1.00  0.00     0.167 HD
ENDBRANCH  31  33
ENDBRANCH  29  31
ENDBRANCH  27  28
ENDBRANCH  26  27
ENDBRANCH  24  26
ENDBRANCH   1  24
TORSDOF 6
ENDMDL
MODEL 7
REMARK minimizedAffinity -7.36249495
REMARK CNNscore 0.325939715
REMARK CNNaffinity 5.35224104
REMARK  6 active torsions:
REMARK  status: ('A' for Active; 'I' for Inactive)
REMARK    1  A    between atoms: C2_2  and  C30_31 
REMARK    2  A    between atoms: C3_3  and  C4_4 
REMARK    3  A    between atoms: C4_4  and  C5_5 
REMARK    4  A    between atoms: C5_5  and  C6_6 
REMARK    5  A    between atoms: C6_6  and  C8_8 
REMARK    6  A    between atoms: C30_31  and  O3_33 
ROOT
HETATM    1  C8  UNL     1     -17.372   2.379  14.896  1.00  0.00    -0.002 C 
HETATM    2  C9  UNL     1     -17.613   1.997  16.380  1.00  0.00     0.007 C 
HETATM    3  C10 UNL     1     -17.157   0.527  16.538  1.00  0.00     0.015 C 
HETATM    4  C11 UNL     1     -16.948   0.011  15.096  1.00  0.00    -0.013 C 
HETATM    5  C12 UNL     1     -18.359  -0.440  14.594  1.00  0.00     0.021 C 
HETATM    6  C13 UNL     1     -16.030  -1.182  14.866  1.00  0.00    -0.070 C 
HETATM    7  C14 UNL     1     -15.903  -2.177  15.765  1.00  0.00    -0.022 C 
HETATM    8  C15 UNL     1     -15.125  -3.441  15.532  1.00  0.00     0.034 C 
HETATM    9  C16 UNL     1     -14.269  -3.428  14.246  1.00  0.00     0.013 C 
HETATM   10  C17 UNL     1     -13.545  -4.785  13.897  1.00  0.00     0.018 C 
HETATM   11  C18 UNL     1     -12.017  -4.602  14.045  1.00  0.00     0.023 C 
HETATM   12  C19 UNL     1     -13.953  -5.955  14.817  1.00  0.00     0.023 C 
HETATM   13  C20 UNL     1     -13.777  -5.220  12.442  1.00  0.00     0.135 C 
HETATM   14  O1  UNL     1     -13.887  -6.410  12.129  1.00  0.00    -0.297 OA
HETATM   15  C21 UNL     1     -13.770  -4.174  11.352  1.00  0.00     0.080 C 
HETATM   16  C22 UNL     1     -14.115  -2.773  11.830  1.00  0.00     0.017 C 
HETATM   17  C23 UNL     1     -15.046  -2.745  13.063  1.00  0.00    -0.031 C 
HETATM   18  C24 UNL     1     -16.378  -3.466  12.734  1.00  0.00     0.016 C 
HETATM   19  C25 UNL     1     -15.318  -1.253  13.507  1.00  0.00     0.024 C 
HETATM   20  C26 UNL     1     -15.967  -0.352  12.425  1.00  0.00     0.010 C 
HETATM   21  C27 UNL     1     -16.348   1.082  12.870  1.00  0.00     0.011 C 
HETATM   22  C28 UNL     1     -16.368   1.290  14.398  1.00  0.00    -0.029 C 
HETATM   23  C29 UNL     1     -14.929   1.659  14.859  1.00  0.00     0.016 C 
ENDROOT
BRANCH   1  24
HETATM   24  C6  UNL     1     -17.072   3.880  14.600  1.00  0.00    -0.014 C 
HETATM   25  C7  UNL     1     -17.807   4.731  15.655  1.00  0.00     0.010 C 
BRANCH  24  26
HETATM   26  C5  UNL     1     -15.572   4.271  14.579  1.00  0.00     0.008 C 
BRANCH  26  27
HETATM   27  C4  UNL     1     -15.291   5.752  14.885  1.00  0.00     0.028 C 
BRANCH  27  28
HETATM   28  C3  UNL     1     -13.981   6.274  14.362  1.00  0.00    -0.013 C 
HETATM   29  C2  UNL     1     -13.758   7.032  13.268  1.00  0.00     0.008 C 
HETATM   30  C1  UNL     1     -12.373   7.496  12.914  1.00  0.00     0.055 C 
BRANCH  29  31
HETATM   31  C30 UNL     1     -14.854   7.415  12.341  1.00  0.00     0.171 C 
HETATM   32  O2  UNL     1     -15.646   6.678  11.781  1.00  0.00    -0.646 OA
BRANCH  31  33
HETATM   33  O3  UNL     1     -14.900   8.745  12.140  1.00  0.00    -0.773 OA
HETATM   34  H46 UNL     1     -15.652   8.851  11.521  1.00  0.00     0.167 HD
ENDBRANCH  31  33
ENDBRANCH  29  31
ENDBRANCH  27  28
ENDBRANCH  26  27
ENDBRANCH  24  26
ENDBRANCH   1  24
TORSDOF 6
ENDMDL
MODEL 8
REMARK minimizedAffinity -8.92404175
REMARK CNNscore 0.305258751
REMARK CNNaffinity 6.87463999
REMARK  6 active torsions:
REMARK  status: ('A' for Active; 'I' for Inactive)
REMARK    1  A    between atoms: C2_2  and  C30_31 
REMARK    2  A    between atoms: C3_3  and  C4_4 
REMARK    3  A    between atoms: C4_4  and  C5_5 
REMARK    4  A    between atoms: C5_5  and  C6_6 
REMARK    5  A    between atoms: C6_6  and  C8_8 
REMARK    6  A    between atoms: C30_31  and  O3_33 
ROOT
HETATM    1  C8  UNL     1       0.857   7.361  12.279  1.00  0.00    -0.002 C 
HETATM    2  C9  UNL     1       1.096   5.894  11.834  1.00  0.00     0.007 C 
HETATM    3  C10 UNL     1      -0.203   5.118  12.152  1.00  0.00     0.015 C 
HETATM    4  C11 UNL     1      -1.039   6.073  13.034  1.00  0.00    -0.013 C 
HETATM    5  C12 UNL     1      -0.517   5.873  14.495  1.00  0.00     0.021 C 
HETATM    6  C13 UNL     1      -2.549   5.877  13.107  1.00  0.00    -0.070 C 
HETATM    7  C14 UNL     1      -3.122   4.661  13.022  1.00  0.00    -0.022 C 
HETATM    8  C15 UNL     1      -4.586   4.394  13.228  1.00  0.00     0.034 C 
HETATM    9  C16 UNL     1      -5.453   5.668  13.324  1.00  0.00     0.013 C 
HETATM   10  C17 UNL     1      -6.972   5.433  13.674  1.00  0.00     0.018 C 
HETATM   11  C18 UNL     1      -7.844   5.809  12.454  1.00  0.00     0.023 C 
HETATM   12  C19 UNL     1      -7.302   3.968  14.031  1.00  0.00     0.023 C 
HETATM   13  C20 UNL     1      -7.457   6.325  14.827  1.00  0.00     0.135 C 
HETATM   14  O1  UNL     1      -8.287   5.928  15.651  1.00  0.00    -0.297 OA
HETATM   15  C21 UNL     1      -6.983   7.757  14.898  1.00  0.00     0.080 C 
HETATM   16  C22 UNL     1      -5.659   8.011  14.195  1.00  0.00     0.017 C 
HETATM   17  C23 UNL     1      -4.725   6.781  14.161  1.00  0.00    -0.031 C 
HETATM   18  C24 UNL     1      -4.404   6.321  15.606  1.00  0.00     0.016 C 
HETATM   19  C25 UNL     1      -3.394   7.129  13.381  1.00  0.00     0.024 C 
HETATM   20  C26 UNL     1      -2.576   8.307  13.970  1.00  0.00     0.010 C 
HETATM   21  C27 UNL     1      -1.212   8.595  13.294  1.00  0.00     0.011 C 
HETATM   22  C28 UNL     1      -0.699   7.460  12.387  1.00  0.00    -0.029 C 
HETATM   23  C29 UNL     1      -1.307   7.657  10.968  1.00  0.00     0.016 C 
ENDROOT
BRANCH   1  24
HETATM   24  C6  UNL     1       1.635   8.464  11.499  1.00  0.00    -0.014 C 
HETATM   25  C7  UNL     1       2.730   9.024  12.430  1.00  0.00     0.010 C 
BRANCH  24  26
HETATM   26  C5  UNL     1       2.278   8.012  10.163  1.00  0.00     0.008 C 
BRANCH  26  27
HETATM   27  C4  UNL     1       3.736   7.539  10.281  1.00  0.00     0.028 C 
BRANCH  27  28
HETATM   28  C3  UNL     1       4.305   7.564  11.673  1.00  0.00    -0.013 C 
HETATM   29  C2  UNL     1       5.513   7.131  12.092  1.00  0.00     0.008 C 
HETATM   30  C1  UNL     1       5.931   7.269  13.529  1.00  0.00     0.055 C 
BRANCH  29  31
HETATM   31  C30 UNL     1       6.471   6.465  11.173  1.00  0.00     0.171 C 
HETATM   32  O2  UNL     1       7.286   6.994  10.438  1.00  0.00    -0.646 OA
BRANCH  31  33
HETATM   33  O3  UNL     1       6.352   5.125  11.207  1.00  0.00    -0.773 OA
HETATM   34  H46 UNL     1       7.029   4.824  10.566  1.00  0.00     0.167 HD
ENDBRANCH  31  33
ENDBRANCH  29  31
ENDBRANCH  27  28
ENDBRANCH  26  27
ENDBRANCH  24  26
ENDBRANCH   1  24
TORSDOF 6
ENDMDL
MODEL 9
REMARK minimizedAffinity -7.45786762
REMARK CNNscore 0.293378621
REMARK CNNaffinity 6.20332003
REMARK  6 active torsions:
REMARK  status: ('A' for Active; 'I' for Inactive)
REMARK    1  A    between atoms: C2_2  and  C30_31 
REMARK    2  A    between atoms: C3_3  and  C4_4 
REMARK    3  A    between atoms: C4_4  and  C5_5 
REMARK    4  A    between atoms: C5_5  and  C6_6 
REMARK    5  A    between atoms: C6_6  and  C8_8 
REMARK    6  A    between atoms: C30_31  and  O3_33 
ROOT
HETATM    1  C8  UNL     1     -13.463   7.886  23.373  1.00  0.00    -0.002 C 
HETATM    2  C9  UNL     1     -13.436   7.586  21.852  1.00  0.00     0.007 C 
HETATM    3  C10 UNL     1     -12.582   8.697  21.197  1.00  0.00     0.015 C 
HETATM    4  C11 UNL     1     -12.389   9.763  22.301  1.00  0.00    -0.013 C 
HETATM    5  C12 UNL     1     -13.667  10.664  22.253  1.00  0.00     0.021 C 
HETATM    6  C13 UNL     1     -11.208  10.720  22.203  1.00  0.00    -0.070 C 
HETATM    7  C14 UNL     1     -10.722  11.146  21.022  1.00  0.00    -0.022 C 
HETATM    8  C15 UNL     1      -9.657  12.194  20.867  1.00  0.00     0.034 C 
HETATM    9  C16 UNL     1      -8.974  12.601  22.191  1.00  0.00     0.013 C 
HETATM   10  C17 UNL     1      -7.947  13.793  22.090  1.00  0.00     0.018 C 
HETATM   11  C18 UNL     1      -6.520  13.263  22.363  1.00  0.00     0.023 C 
HETATM   12  C19 UNL     1      -7.922  14.467  20.702  1.00  0.00     0.023 C 
HETATM   13  C20 UNL     1      -8.200  14.881  23.144  1.00  0.00     0.135 C 
HETATM   14  O1  UNL     1      -8.011  16.078  22.901  1.00  0.00    -0.297 OA
HETATM   15  C21 UNL     1      -8.591  14.472  24.544  1.00  0.00     0.080 C 
HETATM   16  C22 UNL     1      -9.255  13.107  24.632  1.00  0.00     0.017 C 
HETATM   17  C23 UNL     1     -10.026  12.704  23.355  1.00  0.00    -0.031 C 
HETATM   18  C24 UNL     1     -11.136  13.744  23.060  1.00  0.00     0.016 C 
HETATM   19  C25 UNL     1     -10.648  11.261  23.527  1.00  0.00     0.024 C 
HETATM   20  C26 UNL     1     -11.627  11.104  24.719  1.00  0.00     0.010 C 
HETATM   21  C27 UNL     1     -12.337   9.733  24.841  1.00  0.00     0.011 C 
HETATM   22  C28 UNL     1     -12.257   8.858  23.575  1.00  0.00    -0.029 C 
HETATM   23  C29 UNL     1     -10.933   8.041  23.630  1.00  0.00     0.016 C 
ENDROOT
BRANCH   1  24
HETATM   24  C6  UNL     1     -13.616   6.660  24.325  1.00  0.00    -0.014 C 
HETATM   25  C7  UNL     1     -14.888   6.871  25.172  1.00  0.00     0.010 C 
BRANCH  24  26
HETATM   26  C5  UNL     1     -13.685   5.277  23.629  1.00  0.00     0.008 C 
BRANCH  26  27
HETATM   27  C4  UNL     1     -13.775   4.080  24.589  1.00  0.00     0.028 C 
BRANCH  27  28
HETATM   28  C3  UNL     1     -12.749   3.003  24.365  1.00  0.00    -0.013 C 
HETATM   29  C2  UNL     1     -12.341   2.045  25.223  1.00  0.00     0.008 C 
HETATM   30  C1  UNL     1     -11.322   1.019  24.813  1.00  0.00     0.055 C 
BRANCH  29  31
HETATM   31  C30 UNL     1     -12.842   1.974  26.620  1.00  0.00     0.171 C 
HETATM   32  O2  UNL     1     -13.975   2.187  27.015  1.00  0.00    -0.646 OA
BRANCH  31  33
HETATM   33  O3  UNL     1     -11.868   1.642  27.487  1.00  0.00    -0.773 OA
HETATM   34  H46 UNL     1     -12.331   1.634  28.351  1.00  0.00     0.167 HD
ENDBRANCH  31  33
ENDBRANCH  29  31
ENDBRANCH  27  28
ENDBRANCH  26  27
ENDBRANCH  24  26
ENDBRANCH   1  24
TORSDOF 6
ENDMDL
