MODEL 1
REMARK minimizedAffinity -9.25071335
REMARK  6 active torsions:
REMARK  status: ('A' for Active; 'I' for Inactive)
REMARK    1  A    between atoms: C2_2  and  C9_11 
REMARK    2  A    between atoms: C3_3  and  C4_4 
REMARK    3  A    between atoms: C4_4  and  O1_5 
REMARK    4  A    between atoms: C4_4  and  C5_6 
REMARK    5  A    between atoms: C16_18  and  O3_19 
REMARK    6  A    between atoms: C18_21  and  C19_22 
ROOT
HETATM    1  C9  UNL     1      -2.832   4.390  12.832  1.00  0.00     0.019 C 
HETATM    2  C10 UNL     1      -2.757   3.834  11.379  1.00  0.00     0.010 C 
HETATM    3  C11 UNL     1      -1.565   4.540  10.700  1.00  0.00     0.011 C 
HETATM    4  C12 UNL     1      -0.641   4.959  11.864  1.00  0.00    -0.032 C 
HETATM    5  C13 UNL     1       0.068   3.655  12.356  1.00  0.00     0.016 C 
HETATM    6  C14 UNL     1      -1.714   5.458  12.864  1.00  0.00     0.005 C 
HETATM    7  C15 UNL     1      -1.097   5.814  14.207  1.00  0.00     0.038 C 
HETATM    8  C16 UNL     1       0.011   6.875  14.051  1.00  0.00     0.124 C 
HETATM    9  C17 UNL     1       1.092   6.514  12.982  1.00  0.00     0.039 C 
HETATM   10  C18 UNL     1       2.350   7.492  12.899  1.00  0.00     0.025 C 
HETATM   11  C20 UNL     1       3.151   7.457  14.249  1.00  0.00     0.025 C 
HETATM   12  C21 UNL     1       4.647   7.740  14.165  1.00  0.00     0.080 C 
HETATM   13  C22 UNL     1       5.007   8.517  12.930  1.00  0.00     0.135 C 
HETATM   14  O5  UNL     1       5.628   9.575  13.018  1.00  0.00    -0.297 OA
HETATM   15  C23 UNL     1       4.651   7.864  11.594  1.00  0.00     0.018 C 
HETATM   16  C24 UNL     1       4.612   8.937  10.491  1.00  0.00     0.023 C 
HETATM   17  C25 UNL     1       5.823   6.917  11.244  1.00  0.00     0.023 C 
HETATM   18  C26 UNL     1       3.327   7.021  11.763  1.00  0.00     0.016 C 
HETATM   19  C27 UNL     1       2.633   6.711  10.427  1.00  0.00     0.008 C 
HETATM   20  C28 UNL     1       1.501   5.694  10.594  1.00  0.00     0.011 C 
HETATM   21  C29 UNL     1       0.408   6.139  11.594  1.00  0.00    -0.029 C 
HETATM   22  C30 UNL     1      -0.312   7.367  10.960  1.00  0.00     0.016 C 
ENDROOT
BRANCH   1  23
HETATM   23  C2  UNL     1      -4.175   4.935  13.320  1.00  0.00    -0.081 C 
HETATM   24  C1  UNL     1      -5.391   4.279  12.711  1.00  0.00     0.043 C 
HETATM   25  C3  UNL     1      -4.294   5.934  14.223  1.00  0.00     0.010 C 
BRANCH  25  26
HETATM   26  C4  UNL     1      -5.565   6.494  14.811  1.00  0.00     0.173 C 
BRANCH  26  27
HETATM   27  O1  UNL     1      -5.525   6.197  16.207  1.00  0.00    -0.389 OA
HETATM   28  H6  UNL     1      -4.816   6.751  16.578  1.00  0.00     0.210 HD
ENDBRANCH  26  27
BRANCH  26  29
HETATM   29  C5  UNL     1      -6.812   5.882  14.237  1.00  0.00     0.188 A 
HETATM   30  O2  UNL     1      -7.795   5.465  15.201  1.00  0.00    -0.367 OA
HETATM   31  C6  UNL     1      -8.186   6.537  14.328  1.00  0.00     0.083 A 
HETATM   32  C7  UNL     1      -9.231   6.150  13.331  1.00  0.00     0.048 C 
HETATM   33  C8  UNL     1      -8.379   7.844  15.032  1.00  0.00     0.048 C 
ENDBRANCH  26  29
ENDBRANCH  25  26
ENDBRANCH   1  23
BRANCH   8  34
HETATM   34  O3  UNL     1       0.597   7.072  15.333  1.00  0.00    -0.395 OA
HETATM   35  H26 UNL     1       0.811   6.193  15.699  1.00  0.00     0.210 HD
ENDBRANCH   8  34
BRANCH  10  36
HETATM   36  C19 UNL     1       1.834   8.930  12.766  1.00  0.00     0.241 C 
HETATM   37  O4  UNL     1       2.068   9.837  13.555  1.00  0.00    -0.306 OA
ENDBRANCH  10  36
TORSDOF 6
ENDMDL
MODEL 2
REMARK minimizedAffinity -9.2147131
REMARK  6 active torsions:
REMARK  status: ('A' for Active; 'I' for Inactive)
REMARK    1  A    between atoms: C2_2  and  C9_11 
REMARK    2  A    between atoms: C3_3  and  C4_4 
REMARK    3  A    between atoms: C4_4  and  O1_5 
REMARK    4  A    between atoms: C4_4  and  C5_6 
REMARK    5  A    between atoms: C16_18  and  O3_19 
REMARK    6  A    between atoms: C18_21  and  C19_22 
ROOT
HETATM    1  C9  UNL     1      -3.045   4.459  12.687  1.00  0.00     0.019 C 
HETATM    2  C10 UNL     1      -2.782   4.054  11.207  1.00  0.00     0.010 C 
HETATM    3  C11 UNL     1      -1.520   4.821  10.760  1.00  0.00     0.011 C 
HETATM    4  C12 UNL     1      -0.754   5.115  12.068  1.00  0.00    -0.032 C 
HETATM    5  C13 UNL     1      -0.102   3.764  12.511  1.00  0.00     0.016 C 
HETATM    6  C14 UNL     1      -1.950   5.513  12.970  1.00  0.00     0.005 C 
HETATM    7  C15 UNL     1      -1.510   5.727  14.410  1.00  0.00     0.038 C 
HETATM    8  C16 UNL     1      -0.400   6.794  14.504  1.00  0.00     0.124 C 
HETATM    9  C17 UNL     1       0.810   6.539  13.550  1.00  0.00     0.039 C 
HETATM   10  C18 UNL     1       2.060   7.515  13.727  1.00  0.00     0.025 C 
HETATM   11  C20 UNL     1       2.684   7.338  15.158  1.00  0.00     0.025 C 
HETATM   12  C21 UNL     1       4.176   7.622  15.293  1.00  0.00     0.080 C 
HETATM   13  C22 UNL     1       4.683   8.520  14.199  1.00  0.00     0.135 C 
HETATM   14  O5  UNL     1       5.278   9.560  14.473  1.00  0.00    -0.297 OA
HETATM   15  C23 UNL     1       4.504   8.009  12.770  1.00  0.00     0.018 C 
HETATM   16  C24 UNL     1       4.595   9.189  11.785  1.00  0.00     0.023 C 
HETATM   17  C25 UNL     1       5.719   7.097  12.476  1.00  0.00     0.023 C 
HETATM   18  C26 UNL     1       3.177   7.158  12.682  1.00  0.00     0.016 C 
HETATM   19  C27 UNL     1       2.660   6.991  11.244  1.00  0.00     0.008 C 
HETATM   20  C28 UNL     1       1.525   5.966  11.161  1.00  0.00     0.011 C 
HETATM   21  C29 UNL     1       0.310   6.312  12.056  1.00  0.00    -0.029 C 
HETATM   22  C30 UNL     1      -0.334   7.602  11.464  1.00  0.00     0.016 C 
ENDROOT
BRANCH   1  23
HETATM   23  C2  UNL     1      -4.444   4.957  13.054  1.00  0.00    -0.081 C 
HETATM   24  C1  UNL     1      -4.557   6.449  13.263  1.00  0.00     0.043 C 
HETATM   25  C3  UNL     1      -5.515   4.145  13.195  1.00  0.00     0.010 C 
BRANCH  25  26
HETATM   26  C4  UNL     1      -6.939   4.546  13.490  1.00  0.00     0.173 C 
BRANCH  26  27
HETATM   27  O1  UNL     1      -7.724   4.067  12.398  1.00  0.00    -0.389 OA
HETATM   28  H6  UNL     1      -7.720   3.097  12.471  1.00  0.00     0.210 HD
ENDBRANCH  26  27
BRANCH  26  29
HETATM   29  C5  UNL     1      -7.135   6.032  13.593  1.00  0.00     0.188 A 
HETATM   30  O2  UNL     1      -8.492   6.463  13.795  1.00  0.00    -0.367 OA
HETATM   31  C6  UNL     1      -7.580   6.733  14.871  1.00  0.00     0.083 A 
HETATM   32  C7  UNL     1      -7.261   8.185  15.040  1.00  0.00     0.048 C 
HETATM   33  C8  UNL     1      -7.879   5.961  16.118  1.00  0.00     0.048 C 
ENDBRANCH  26  29
ENDBRANCH  25  26
ENDBRANCH   1  23
BRANCH   8  34
HETATM   34  O3  UNL     1       0.017   6.856  15.864  1.00  0.00    -0.395 OA
HETATM   35  H26 UNL     1       0.190   5.942  16.163  1.00  0.00     0.210 HD
ENDBRANCH   8  34
BRANCH  10  36
HETATM   36  C19 UNL     1       1.553   8.962  13.678  1.00  0.00     0.241 C 
HETATM   37  O4  UNL     1       2.249   9.945  13.461  1.00  0.00    -0.306 OA
ENDBRANCH  10  36
TORSDOF 6
ENDMDL
MODEL 3
REMARK minimizedAffinity -9.18407249
REMARK  6 active torsions:
REMARK  status: ('A' for Active; 'I' for Inactive)
REMARK    1  A    between atoms: C2_2  and  C9_11 
REMARK    2  A    between atoms: C3_3  and  C4_4 
REMARK    3  A    between atoms: C4_4  and  O1_5 
REMARK    4  A    between atoms: C4_4  and  C5_6 
REMARK    5  A    between atoms: C16_18  and  O3_19 
REMARK    6  A    between atoms: C18_21  and  C19_22 
ROOT
HETATM    1  C9  UNL     1      -1.616   4.579  12.332  1.00  0.00     0.019 C 
HETATM    2  C10 UNL     1      -0.681   5.187  11.246  1.00  0.00     0.010 C 
HETATM    3  C11 UNL     1      -0.640   6.708  11.504  1.00  0.00     0.011 C 
HETATM    4  C12 UNL     1      -0.984   6.862  13.001  1.00  0.00    -0.032 C 
HETATM    5  C13 UNL     1       0.291   6.423  13.794  1.00  0.00     0.016 C 
HETATM    6  C14 UNL     1      -2.126   5.819  13.101  1.00  0.00     0.005 C 
HETATM    7  C15 UNL     1      -2.585   5.636  14.539  1.00  0.00     0.038 C 
HETATM    8  C16 UNL     1      -3.038   6.975  15.157  1.00  0.00     0.124 C 
HETATM    9  C17 UNL     1      -1.994   8.129  15.013  1.00  0.00     0.039 C 
HETATM   10  C18 UNL     1      -2.338   9.485  15.780  1.00  0.00     0.025 C 
HETATM   11  C20 UNL     1      -2.385   9.231  17.330  1.00  0.00     0.025 C 
HETATM   12  C21 UNL     1      -2.028  10.411  18.227  1.00  0.00     0.080 C 
HETATM   13  C22 UNL     1      -2.211  11.729  17.530  1.00  0.00     0.135 C 
HETATM   14  O5  UNL     1      -2.921  12.602  18.024  1.00  0.00    -0.297 OA
HETATM   15  C23 UNL     1      -1.393  11.937  16.255  1.00  0.00     0.018 C 
HETATM   16  C24 UNL     1      -2.029  13.058  15.412  1.00  0.00     0.023 C 
HETATM   17  C25 UNL     1      -0.008  12.459  16.705  1.00  0.00     0.023 C 
HETATM   18  C26 UNL     1      -1.217  10.554  15.516  1.00  0.00     0.016 C 
HETATM   19  C27 UNL     1      -0.831  10.704  14.035  1.00  0.00     0.008 C 
HETATM   20  C28 UNL     1      -0.428   9.365  13.412  1.00  0.00     0.011 C 
HETATM   21  C29 UNL     1      -1.531   8.283  13.498  1.00  0.00    -0.029 C 
HETATM   22  C30 UNL     1      -2.703   8.759  12.587  1.00  0.00     0.016 C 
ENDROOT
BRANCH   1  23
HETATM   23  C2  UNL     1      -2.755   3.671  11.867  1.00  0.00    -0.081 C 
HETATM   24  C1  UNL     1      -2.321   2.348  11.282  1.00  0.00     0.043 C 
HETATM   25  C3  UNL     1      -4.062   4.005  11.955  1.00  0.00     0.010 C 
BRANCH  25  26
HETATM   26  C4  UNL     1      -5.254   3.157  11.585  1.00  0.00     0.173 C 
BRANCH  26  27
HETATM   27  O1  UNL     1      -5.146   2.905  10.184  1.00  0.00    -0.389 OA
HETATM   28  H6  UNL     1      -4.380   2.316  10.075  1.00  0.00     0.210 HD
ENDBRANCH  26  27
BRANCH  26  29
HETATM   29  C5  UNL     1      -6.573   3.830  11.842  1.00  0.00     0.188 A 
HETATM   30  O2  UNL     1      -7.254   3.417  13.039  1.00  0.00    -0.367 OA
HETATM   31  C6  UNL     1      -6.815   4.784  13.005  1.00  0.00     0.083 A 
HETATM   32  C7  UNL     1      -7.933   5.772  12.899  1.00  0.00     0.048 C 
HETATM   33  C8  UNL     1      -5.736   5.093  13.996  1.00  0.00     0.048 C 
ENDBRANCH  26  29
ENDBRANCH  25  26
ENDBRANCH   1  23
BRANCH   8  34
HETATM   34  O3  UNL     1      -3.353   6.730  16.523  1.00  0.00    -0.395 OA
HETATM   35  H26 UNL     1      -2.606   6.238  16.916  1.00  0.00     0.210 HD
ENDBRANCH   8  34
BRANCH  10  36
HETATM   36  C19 UNL     1      -3.758   9.911  15.392  1.00  0.00     0.241 C 
HETATM   37  O4  UNL     1      -4.779   9.576  15.978  1.00  0.00    -0.306 OA
ENDBRANCH  10  36
TORSDOF 6
ENDMDL
MODEL 4
REMARK minimizedAffinity -8.86746216
REMARK  6 active torsions:
REMARK  status: ('A' for Active; 'I' for Inactive)
REMARK    1  A    between atoms: C2_2  and  C9_11 
REMARK    2  A    between atoms: C3_3  and  C4_4 
REMARK    3  A    between atoms: C4_4  and  O1_5 
REMARK    4  A    between atoms: C4_4  and  C5_6 
REMARK    5  A    between atoms: C16_18  and  O3_19 
REMARK    6  A    between atoms: C18_21  and  C19_22 
ROOT
HETATM    1  C9  UNL     1       4.164   7.013  11.090  1.00  0.00     0.019 C 
HETATM    2  C10 UNL     1       3.624   5.791  10.290  1.00  0.00     0.010 C 
HETATM    3  C11 UNL     1       2.212   5.498  10.836  1.00  0.00     0.011 C 
HETATM    4  C12 UNL     1       1.731   6.841  11.426  1.00  0.00    -0.032 C 
HETATM    5  C13 UNL     1       1.362   7.751  10.209  1.00  0.00     0.016 C 
HETATM    6  C14 UNL     1       3.043   7.291  12.118  1.00  0.00     0.005 C 
HETATM    7  C15 UNL     1       2.917   8.696  12.684  1.00  0.00     0.038 C 
HETATM    8  C16 UNL     1       1.738   8.798  13.674  1.00  0.00     0.124 C 
HETATM    9  C17 UNL     1       0.382   8.268  13.105  1.00  0.00     0.039 C 
HETATM   10  C18 UNL     1      -0.902   8.504  14.021  1.00  0.00     0.025 C 
HETATM   11  C20 UNL     1      -1.162  10.043  14.199  1.00  0.00     0.025 C 
HETATM   12  C21 UNL     1      -2.608  10.471  14.423  1.00  0.00     0.080 C 
HETATM   13  C22 UNL     1      -3.452   9.352  14.966  1.00  0.00     0.135 C 
HETATM   14  O5  UNL     1      -4.090   9.500  16.006  1.00  0.00    -0.297 OA
HETATM   15  C23 UNL     1      -3.540   8.094  14.101  1.00  0.00     0.018 C 
HETATM   16  C24 UNL     1      -3.992   6.904  14.968  1.00  0.00     0.023 C 
HETATM   17  C25 UNL     1      -4.673   8.345  13.077  1.00  0.00     0.023 C 
HETATM   18  C26 UNL     1      -2.176   7.891  13.334  1.00  0.00     0.016 C 
HETATM   19  C27 UNL     1      -1.979   6.457  12.817  1.00  0.00     0.008 C 
HETATM   20  C28 UNL     1      -0.778   6.349  11.874  1.00  0.00     0.011 C 
HETATM   21  C29 UNL     1       0.556   6.800  12.514  1.00  0.00    -0.029 C 
HETATM   22  C30 UNL     1       0.892   5.768  13.633  1.00  0.00     0.016 C 
ENDROOT
BRANCH   1  23
HETATM   23  C2  UNL     1       5.540   6.886  11.747  1.00  0.00    -0.081 C 
HETATM   24  C1  UNL     1       6.466   5.884  11.102  1.00  0.00     0.043 C 
HETATM   25  C3  UNL     1       5.922   7.601  12.829  1.00  0.00     0.010 C 
BRANCH  25  26
HETATM   26  C4  UNL     1       7.270   7.594  13.505  1.00  0.00     0.173 C 
BRANCH  26  27
HETATM   27  O1  UNL     1       7.045   7.144  14.841  1.00  0.00    -0.389 OA
HETATM   28  H6  UNL     1       6.799   6.206  14.770  1.00  0.00     0.210 HD
ENDBRANCH  26  27
BRANCH  26  29
HETATM   29  C5  UNL     1       7.918   8.948  13.568  1.00  0.00     0.188 A 
HETATM   30  O2  UNL     1       8.471   9.309  14.845  1.00  0.00    -0.367 OA
HETATM   31  C6  UNL     1       9.414   9.153  13.774  1.00  0.00     0.083 A 
HETATM   32  C7  UNL     1      10.030  10.439  13.323  1.00  0.00     0.048 C 
HETATM   33  C8  UNL     1      10.341   7.991  13.955  1.00  0.00     0.048 C 
ENDBRANCH  26  29
ENDBRANCH  25  26
ENDBRANCH   1  23
BRANCH   8  34
HETATM   34  O3  UNL     1       1.633  10.160  14.074  1.00  0.00    -0.395 OA
HETATM   35  H26 UNL     1       1.642  10.708  13.265  1.00  0.00     0.210 HD
ENDBRANCH   8  34
BRANCH  10  36
HETATM   36  C19 UNL     1      -0.596   7.976  15.427  1.00  0.00     0.241 C 
HETATM   37  O4  UNL     1      -0.053   8.618  16.318  1.00  0.00    -0.306 OA
ENDBRANCH  10  36
TORSDOF 6
ENDMDL
MODEL 5
REMARK minimizedAffinity -8.66869545
REMARK  6 active torsions:
REMARK  status: ('A' for Active; 'I' for Inactive)
REMARK    1  A    between atoms: C2_2  and  C9_11 
REMARK    2  A    between atoms: C3_3  and  C4_4 
REMARK    3  A    between atoms: C4_4  and  O1_5 
REMARK    4  A    between atoms: C4_4  and  C5_6 
REMARK    5  A    between atoms: C16_18  and  O3_19 
REMARK    6  A    between atoms: C18_21  and  C19_22 
ROOT
HETATM    1  C9  UNL     1       3.403   7.229  10.555  1.00  0.00     0.019 C 
HETATM    2  C10 UNL     1       3.127   5.803   9.993  1.00  0.00     0.010 C 
HETATM    3  C11 UNL     1       1.881   5.274  10.733  1.00  0.00     0.011 C 
HETATM    4  C12 UNL     1       1.126   6.542  11.189  1.00  0.00    -0.032 C 
HETATM    5  C13 UNL     1       0.445   7.133   9.911  1.00  0.00     0.016 C 
HETATM    6  C14 UNL     1       2.333   7.393  11.658  1.00  0.00     0.005 C 
HETATM    7  C15 UNL     1       1.903   8.800  12.041  1.00  0.00     0.038 C 
HETATM    8  C16 UNL     1       0.817   8.776  13.136  1.00  0.00     0.124 C 
HETATM    9  C17 UNL     1      -0.402   7.856  12.804  1.00  0.00     0.039 C 
HETATM   10  C18 UNL     1      -1.629   7.925  13.821  1.00  0.00     0.025 C 
HETATM   11  C20 UNL     1      -2.253   9.366  13.819  1.00  0.00     0.025 C 
HETATM   12  C21 UNL     1      -3.738   9.470  14.149  1.00  0.00     0.080 C 
HETATM   13  C22 UNL     1      -4.228   8.283  14.931  1.00  0.00     0.135 C 
HETATM   14  O5  UNL     1      -4.799   8.439  16.008  1.00  0.00    -0.297 OA
HETATM   15  C23 UNL     1      -4.065   6.919  14.259  1.00  0.00     0.018 C 
HETATM   16  C24 UNL     1      -4.133   5.810  15.324  1.00  0.00     0.023 C 
HETATM   17  C25 UNL     1      -5.301   6.730  13.348  1.00  0.00     0.023 C 
HETATM   18  C26 UNL     1      -2.757   6.926  13.375  1.00  0.00     0.016 C 
HETATM   19  C27 UNL     1      -2.248   5.516  13.036  1.00  0.00     0.008 C 
HETATM   20  C28 UNL     1      -1.136   5.548  11.984  1.00  0.00     0.011 C 
HETATM   21  C29 UNL     1       0.088   6.397  12.400  1.00  0.00    -0.029 C 
HETATM   22  C30 UNL     1       0.759   5.665  13.601  1.00  0.00     0.016 C 
ENDROOT
BRANCH   1  23
HETATM   23  C2  UNL     1       4.814   7.538  11.060  1.00  0.00    -0.081 C 
HETATM   24  C1  UNL     1       5.754   6.356  11.093  1.00  0.00     0.043 C 
HETATM   25  C3  UNL     1       5.214   8.765  11.460  1.00  0.00     0.010 C 
BRANCH  25  26
HETATM   26  C4  UNL     1       6.593   9.180  11.910  1.00  0.00     0.173 C 
BRANCH  26  27
HETATM   27  O1  UNL     1       7.410   9.191  10.739  1.00  0.00    -0.389 OA
HETATM   28  H6  UNL     1       7.093   9.934  10.198  1.00  0.00     0.210 HD
ENDBRANCH  26  27
BRANCH  26  29
HETATM   29  C5  UNL     1       7.210   8.236  12.903  1.00  0.00     0.188 A 
HETATM   30  O2  UNL     1       8.635   8.078  12.802  1.00  0.00    -0.367 OA
HETATM   31  C6  UNL     1       8.155   8.686  14.011  1.00  0.00     0.083 A 
HETATM   32  C7  UNL     1       8.304   7.818  15.221  1.00  0.00     0.048 C 
HETATM   33  C8  UNL     1       8.552  10.121  14.161  1.00  0.00     0.048 C 
ENDBRANCH  26  29
ENDBRANCH  25  26
ENDBRANCH   1  23
BRANCH   8  34
HETATM   34  O3  UNL     1       0.405  10.120  13.359  1.00  0.00    -0.395 OA
HETATM   35  H26 UNL     1       0.213  10.519  12.488  1.00  0.00     0.210 HD
ENDBRANCH   8  34
BRANCH  10  36
HETATM   36  C19 UNL     1      -1.090   7.714  15.241  1.00  0.00     0.241 C 
HETATM   37  O4  UNL     1      -0.974   8.592  16.087  1.00  0.00    -0.306 OA
ENDBRANCH  10  36
TORSDOF 6
ENDMDL
MODEL 6
REMARK minimizedAffinity -8.59684849
REMARK  6 active torsions:
REMARK  status: ('A' for Active; 'I' for Inactive)
REMARK    1  A    between atoms: C2_2  and  C9_11 
REMARK    2  A    between atoms: C3_3  and  C4_4 
REMARK    3  A    between atoms: C4_4  and  O1_5 
REMARK    4  A    between atoms: C4_4  and  C5_6 
REMARK    5  A    between atoms: C16_18  and  O3_19 
REMARK    6  A    between atoms: C18_21  and  C19_22 
ROOT
HETATM    1  C9  UNL     1      -8.046   7.131  15.020  1.00  0.00     0.019 C 
HETATM    2  C10 UNL     1      -8.111   6.086  13.868  1.00  0.00     0.010 C 
HETATM    3  C11 UNL     1      -6.740   6.125  13.162  1.00  0.00     0.011 C 
HETATM    4  C12 UNL     1      -5.762   6.659  14.231  1.00  0.00    -0.032 C 
HETATM    5  C13 UNL     1      -5.514   5.482  15.230  1.00  0.00     0.016 C 
HETATM    6  C14 UNL     1      -6.650   7.772  14.844  1.00  0.00     0.005 C 
HETATM    7  C15 UNL     1      -5.988   8.402  16.058  1.00  0.00     0.038 C 
HETATM    8  C16 UNL     1      -4.598   8.971  15.707  1.00  0.00     0.124 C 
HETATM    9  C17 UNL     1      -3.658   7.954  14.985  1.00  0.00     0.039 C 
HETATM   10  C18 UNL     1      -2.155   8.433  14.750  1.00  0.00     0.025 C 
HETATM   11  C20 UNL     1      -1.442   8.668  16.130  1.00  0.00     0.025 C 
HETATM   12  C21 UNL     1       0.069   8.463  16.163  1.00  0.00     0.080 C 
HETATM   13  C22 UNL     1       0.689   8.598  14.801  1.00  0.00     0.135 C 
HETATM   14  O5  UNL     1       1.608   9.391  14.610  1.00  0.00    -0.297 OA
HETATM   15  C23 UNL     1       0.180   7.632  13.730  1.00  0.00     0.018 C 
HETATM   16  C24 UNL     1       0.511   8.191  12.334  1.00  0.00     0.023 C 
HETATM   17  C25 UNL     1       1.003   6.332  13.888  1.00  0.00     0.023 C 
HETATM   18  C26 UNL     1      -1.345   7.322  13.989  1.00  0.00     0.016 C 
HETATM   19  C27 UNL     1      -2.066   6.757  12.754  1.00  0.00     0.008 C 
HETATM   20  C28 UNL     1      -3.465   6.238  13.097  1.00  0.00     0.011 C 
HETATM   21  C29 UNL     1      -4.388   7.309  13.725  1.00  0.00    -0.029 C 
HETATM   22  C30 UNL     1      -4.667   8.370  12.619  1.00  0.00     0.016 C 
ENDROOT
BRANCH   1  23
HETATM   23  C2  UNL     1      -9.162   8.174  15.103  1.00  0.00    -0.081 C 
HETATM   24  C1  UNL     1      -8.692   9.606  15.203  1.00  0.00     0.043 C 
HETATM   25  C3  UNL     1     -10.478   7.865  15.097  1.00  0.00     0.010 C 
BRANCH  25  26
HETATM   26  C4  UNL     1     -11.645   8.821  15.110  1.00  0.00     0.173 C 
BRANCH  26  27
HETATM   27  O1  UNL     1     -12.409   8.503  16.274  1.00  0.00    -0.389 OA
HETATM   28  H6  UNL     1     -11.863   8.769  17.033  1.00  0.00     0.210 HD
ENDBRANCH  26  27
BRANCH  26  29
HETATM   29  C5  UNL     1     -12.541   8.691  13.910  1.00  0.00     0.188 A 
HETATM   30  O2  UNL     1     -12.040   7.855  12.854  1.00  0.00    -0.367 OA
HETATM   31  C6  UNL     1     -13.228   7.390  13.514  1.00  0.00     0.083 A 
HETATM   32  C7  UNL     1     -14.456   7.460  12.662  1.00  0.00     0.048 C 
HETATM   33  C8  UNL     1     -13.025   6.132  14.299  1.00  0.00     0.048 C 
ENDBRANCH  26  29
ENDBRANCH  25  26
ENDBRANCH   1  23
BRANCH   8  34
HETATM   34  O3  UNL     1      -4.015   9.448  16.915  1.00  0.00    -0.395 OA
HETATM   35  H26 UNL     1      -4.099   8.741  17.583  1.00  0.00     0.210 HD
ENDBRANCH   8  34
BRANCH  10  36
HETATM   36  C19 UNL     1      -2.187   9.806  14.068  1.00  0.00     0.241 C 
HETATM   37  O4  UNL     1      -1.801  10.035  12.929  1.00  0.00    -0.306 OA
ENDBRANCH  10  36
TORSDOF 6
ENDMDL
MODEL 7
REMARK minimizedAffinity -8.42016697
REMARK  6 active torsions:
REMARK  status: ('A' for Active; 'I' for Inactive)
REMARK    1  A    between atoms: C2_2  and  C9_11 
REMARK    2  A    between atoms: C3_3  and  C4_4 
REMARK    3  A    between atoms: C4_4  and  O1_5 
REMARK    4  A    between atoms: C4_4  and  C5_6 
REMARK    5  A    between atoms: C16_18  and  O3_19 
REMARK    6  A    between atoms: C18_21  and  C19_22 
ROOT
HETATM    1  C9  UNL     1      -2.280   8.442  13.881  1.00  0.00     0.019 C 
HETATM    2  C10 UNL     1      -1.967   8.494  15.406  1.00  0.00     0.010 C 
HETATM    3  C11 UNL     1      -0.467   8.167  15.558  1.00  0.00     0.011 C 
HETATM    4  C12 UNL     1       0.159   8.552  14.200  1.00  0.00    -0.032 C 
HETATM    5  C13 UNL     1       0.228  10.114  14.173  1.00  0.00     0.016 C 
HETATM    6  C14 UNL     1      -0.938   7.997  13.256  1.00  0.00     0.005 C 
HETATM    7  C15 UNL     1      -0.661   8.367  11.807  1.00  0.00     0.038 C 
HETATM    8  C16 UNL     1       0.727   7.865  11.356  1.00  0.00     0.124 C 
HETATM    9  C17 UNL     1       1.895   8.284  12.306  1.00  0.00     0.039 C 
HETATM   10  C18 UNL     1       3.367   7.937  11.800  1.00  0.00     0.025 C 
HETATM   11  C20 UNL     1       3.680   8.720  10.474  1.00  0.00     0.025 C 
HETATM   12  C21 UNL     1       5.142   9.066  10.213  1.00  0.00     0.080 C 
HETATM   13  C22 UNL     1       6.081   8.162  10.963  1.00  0.00     0.135 C 
HETATM   14  O5  UNL     1       6.956   7.540  10.366  1.00  0.00    -0.297 OA
HETATM   15  C23 UNL     1       5.939   8.157  12.485  1.00  0.00     0.018 C 
HETATM   16  C24 UNL     1       6.576   6.877  13.057  1.00  0.00     0.023 C 
HETATM   17  C25 UNL     1       6.789   9.340  13.007  1.00  0.00     0.023 C 
HETATM   18  C26 UNL     1       4.426   8.387  12.870  1.00  0.00     0.016 C 
HETATM   19  C27 UNL     1       4.093   7.948  14.305  1.00  0.00     0.008 C 
HETATM   20  C28 UNL     1       2.696   8.406  14.732  1.00  0.00     0.011 C 
HETATM   21  C29 UNL     1       1.565   7.889  13.812  1.00  0.00    -0.029 C 
HETATM   22  C30 UNL     1       1.502   6.343  13.999  1.00  0.00     0.016 C 
ENDROOT
BRANCH   1  23
HETATM   23  C2  UNL     1      -3.454   7.575  13.422  1.00  0.00    -0.081 C 
HETATM   24  C1  UNL     1      -4.698   8.338  13.034  1.00  0.00     0.043 C 
HETATM   25  C3  UNL     1      -3.410   6.226  13.364  1.00  0.00     0.010 C 
BRANCH  25  26
HETATM   26  C4  UNL     1      -4.487   5.293  12.866  1.00  0.00     0.173 C 
BRANCH  26  27
HETATM   27  O1  UNL     1      -5.579   5.421  13.777  1.00  0.00    -0.389 OA
HETATM   28  H6  UNL     1      -5.941   6.313  13.638  1.00  0.00     0.210 HD
ENDBRANCH  26  27
BRANCH  26  29
HETATM   29  C5  UNL     1      -4.066   3.851  12.837  1.00  0.00     0.188 A 
HETATM   30  O2  UNL     1      -4.955   2.962  12.140  1.00  0.00    -0.367 OA
HETATM   31  C6  UNL     1      -3.650   3.124  11.564  1.00  0.00     0.083 A 
HETATM   32  C7  UNL     1      -2.784   1.910  11.682  1.00  0.00     0.048 C 
HETATM   33  C8  UNL     1      -3.661   3.814  10.235  1.00  0.00     0.048 C 
ENDBRANCH  26  29
ENDBRANCH  25  26
ENDBRANCH   1  23
BRANCH   8  34
HETATM   34  O3  UNL     1       0.941   8.339  10.031  1.00  0.00    -0.395 OA
HETATM   35  H26 UNL     1       0.740   9.294  10.022  1.00  0.00     0.210 HD
ENDBRANCH   8  34
BRANCH  10  36
HETATM   36  C19 UNL     1       3.409   6.453  11.418  1.00  0.00     0.241 C 
HETATM   37  O4  UNL     1       2.903   5.970  10.413  1.00  0.00    -0.306 OA
ENDBRANCH  10  36
TORSDOF 6
ENDMDL
MODEL 8
REMARK minimizedAffinity -8.3311739
REMARK  6 active torsions:
REMARK  status: ('A' for Active; 'I' for Inactive)
REMARK    1  A    between atoms: C2_2  and  C9_11 
REMARK    2  A    between atoms: C3_3  and  C4_4 
REMARK    3  A    between atoms: C4_4  and  O1_5 
REMARK    4  A    between atoms: C4_4  and  C5_6 
REMARK    5  A    between atoms: C16_18  and  O3_19 
REMARK    6  A    between atoms: C18_21  and  C19_22 
ROOT
HETATM    1  C9  UNL     1      -3.195   7.112  12.848  1.00  0.00     0.019 C 
HETATM    2  C10 UNL     1      -3.912   8.473  13.093  1.00  0.00     0.010 C 
HETATM    3  C11 UNL     1      -2.922   9.354  13.883  1.00  0.00     0.011 C 
HETATM    4  C12 UNL     1      -1.528   8.788  13.537  1.00  0.00    -0.032 C 
HETATM    5  C13 UNL     1      -1.207   9.266  12.082  1.00  0.00     0.016 C 
HETATM    6  C14 UNL     1      -1.853   7.274  13.599  1.00  0.00     0.005 C 
HETATM    7  C15 UNL     1      -0.669   6.434  13.148  1.00  0.00     0.038 C 
HETATM    8  C16 UNL     1       0.587   6.739  13.990  1.00  0.00     0.124 C 
HETATM    9  C17 UNL     1       0.941   8.258  14.078  1.00  0.00     0.039 C 
HETATM   10  C18 UNL     1       2.322   8.615  14.793  1.00  0.00     0.025 C 
HETATM   11  C20 UNL     1       3.523   8.011  13.980  1.00  0.00     0.025 C 
HETATM   12  C21 UNL     1       4.852   8.752  14.070  1.00  0.00     0.080 C 
HETATM   13  C22 UNL     1       4.945   9.599  15.308  1.00  0.00     0.135 C 
HETATM   14  O5  UNL     1       5.886   9.463  16.087  1.00  0.00    -0.297 OA
HETATM   15  C23 UNL     1       3.876  10.680  15.467  1.00  0.00     0.018 C 
HETATM   16  C24 UNL     1       3.792  11.108  16.944  1.00  0.00     0.023 C 
HETATM   17  C25 UNL     1       4.381  11.914  14.682  1.00  0.00     0.023 C 
HETATM   18  C26 UNL     1       2.522  10.173  14.834  1.00  0.00     0.016 C 
HETATM   19  C27 UNL     1       1.293  10.950  15.331  1.00  0.00     0.008 C 
HETATM   20  C28 UNL     1       0.037  10.609  14.524  1.00  0.00     0.011 C 
HETATM   21  C29 UNL     1      -0.324   9.105  14.545  1.00  0.00    -0.029 C 
HETATM   22  C30 UNL     1      -0.738   8.758  16.006  1.00  0.00     0.016 C 
ENDROOT
BRANCH   1  23
HETATM   23  C2  UNL     1      -3.934   5.833  13.243  1.00  0.00    -0.081 C 
HETATM   24  C1  UNL     1      -4.391   5.777  14.681  1.00  0.00     0.043 C 
HETATM   25  C3  UNL     1      -4.169   4.811  12.391  1.00  0.00     0.010 C 
BRANCH  25  26
HETATM   26  C4  UNL     1      -4.941   3.544  12.667  1.00  0.00     0.173 C 
BRANCH  26  27
HETATM   27  O1  UNL     1      -4.274   2.505  11.950  1.00  0.00    -0.389 OA
HETATM   28  H6  UNL     1      -3.420   2.376  12.396  1.00  0.00     0.210 HD
ENDBRANCH  26  27
BRANCH  26  29
HETATM   29  C5  UNL     1      -6.368   3.596  12.199  1.00  0.00     0.188 A 
HETATM   30  O2  UNL     1      -7.201   2.509  12.638  1.00  0.00    -0.367 OA
HETATM   31  C6  UNL     1      -7.550   3.809  13.137  1.00  0.00     0.083 A 
HETATM   32  C7  UNL     1      -8.825   4.349  12.571  1.00  0.00     0.048 C 
HETATM   33  C8  UNL     1      -7.355   3.957  14.614  1.00  0.00     0.048 C 
ENDBRANCH  26  29
ENDBRANCH  25  26
ENDBRANCH   1  23
BRANCH   8  34
HETATM   34  O3  UNL     1       1.663   5.988  13.438  1.00  0.00    -0.395 OA
HETATM   35  H26 UNL     1       1.670   6.146  12.474  1.00  0.00     0.210 HD
ENDBRANCH   8  34
BRANCH  10  36
HETATM   36  C19 UNL     1       2.356   7.913  16.155  1.00  0.00     0.241 C 
HETATM   37  O4  UNL     1       2.189   8.464  17.236  1.00  0.00    -0.306 OA
ENDBRANCH  10  36
TORSDOF 6
ENDMDL
MODEL 9
REMARK minimizedAffinity -8.29542255
REMARK  6 active torsions:
REMARK  status: ('A' for Active; 'I' for Inactive)
REMARK    1  A    between atoms: C2_2  and  C9_11 
REMARK    2  A    between atoms: C3_3  and  C4_4 
REMARK    3  A    between atoms: C4_4  and  O1_5 
REMARK    4  A    between atoms: C4_4  and  C5_6 
REMARK    5  A    between atoms: C16_18  and  O3_19 
REMARK    6  A    between atoms: C18_21  and  C19_22 
ROOT
HETATM    1  C9  UNL     1      -3.619   5.899  12.667  1.00  0.00     0.019 C 
HETATM    2  C10 UNL     1      -4.622   5.353  13.725  1.00  0.00     0.010 C 
HETATM    3  C11 UNL     1      -4.483   6.256  14.968  1.00  0.00     0.011 C 
HETATM    4  C12 UNL     1      -3.937   7.594  14.424  1.00  0.00    -0.032 C 
HETATM    5  C13 UNL     1      -5.136   8.303  13.712  1.00  0.00     0.016 C 
HETATM    6  C14 UNL     1      -2.897   7.044  13.415  1.00  0.00     0.005 C 
HETATM    7  C15 UNL     1      -2.277   8.162  12.593  1.00  0.00     0.038 C 
HETATM    8  C16 UNL     1      -1.622   9.226  13.498  1.00  0.00     0.124 C 
HETATM    9  C17 UNL     1      -2.560   9.770  14.623  1.00  0.00     0.039 C 
HETATM   10  C18 UNL     1      -1.993  10.990  15.479  1.00  0.00     0.025 C 
HETATM   11  C20 UNL     1      -1.771  12.241  14.556  1.00  0.00     0.025 C 
HETATM   12  C21 UNL     1      -1.896  13.610  15.217  1.00  0.00     0.080 C 
HETATM   13  C22 UNL     1      -1.677  13.544  16.702  1.00  0.00     0.135 C 
HETATM   14  O5  UNL     1      -0.830  14.253  17.239  1.00  0.00    -0.297 OA
HETATM   15  C23 UNL     1      -2.629  12.637  17.484  1.00  0.00     0.018 C 
HETATM   16  C24 UNL     1      -2.001  12.284  18.845  1.00  0.00     0.023 C 
HETATM   17  C25 UNL     1      -3.888  13.483  17.787  1.00  0.00     0.023 C 
HETATM   18  C26 UNL     1      -3.030  11.403  16.586  1.00  0.00     0.016 C 
HETATM   19  C27 UNL     1      -3.586  10.221  17.395  1.00  0.00     0.008 C 
HETATM   20  C28 UNL     1      -4.192   9.144  16.490  1.00  0.00     0.011 C 
HETATM   21  C29 UNL     1      -3.196   8.571  15.455  1.00  0.00    -0.029 C 
HETATM   22  C30 UNL     1      -2.111   7.790  16.255  1.00  0.00     0.016 C 
ENDROOT
BRANCH   1  23
HETATM   23  C2  UNL     1      -2.640   4.909  12.032  1.00  0.00    -0.081 C 
HETATM   24  C1  UNL     1      -3.283   3.779  11.264  1.00  0.00     0.043 C 
HETATM   25  C3  UNL     1      -1.297   5.010  12.142  1.00  0.00     0.010 C 
BRANCH  25  26
HETATM   26  C4  UNL     1      -0.255   4.126  11.503  1.00  0.00     0.173 C 
BRANCH  26  27
HETATM   27  O1  UNL     1      -0.347   2.860  12.158  1.00  0.00    -0.389 OA
HETATM   28  H6  UNL     1      -1.198   2.478  11.883  1.00  0.00     0.210 HD
ENDBRANCH  26  27
BRANCH  26  29
HETATM   29  C5  UNL     1       1.149   4.637  11.665  1.00  0.00     0.188 A 
HETATM   30  O2  UNL     1       1.999   4.483  10.516  1.00  0.00    -0.367 OA
HETATM   31  C6  UNL     1       1.699   5.834  10.898  1.00  0.00     0.083 A 
HETATM   32  C7  UNL     1       2.869   6.573  11.466  1.00  0.00     0.048 C 
HETATM   33  C8  UNL     1       0.862   6.568   9.897  1.00  0.00     0.048 C 
ENDBRANCH  26  29
ENDBRANCH  25  26
ENDBRANCH   1  23
BRANCH   8  34
HETATM   34  O3  UNL     1      -1.160  10.276  12.656  1.00  0.00    -0.395 OA
HETATM   35  H26 UNL     1      -1.894  10.525  12.063  1.00  0.00     0.210 HD
ENDBRANCH   8  34
BRANCH  10  36
HETATM   36  C19 UNL     1      -0.599  10.611  15.994  1.00  0.00     0.241 C 
HETATM   37  O4  UNL     1      -0.358  10.161  17.108  1.00  0.00    -0.306 OA
ENDBRANCH  10  36
TORSDOF 6
ENDMDL
