MODEL 1
REMARK minimizedAffinity -9.75020027
REMARK  5 active torsions:
REMARK  status: ('A' for Active; 'I' for Inactive)
REMARK    1  A    between atoms: C4_4  and  C5_5 
REMARK    2  A    between atoms: C5_5  and  C6_6 
REMARK    3  A    between atoms: C6_6  and  C7_7 
REMARK    4  A    between atoms: C7_7  and  C9_9 
REMARK    5  A    between atoms: C24_24  and  O1_25 
ROOT
HETATM    1  C9  UNL     1      -1.015  50.016 -19.386  1.00  0.00    -0.002 C 
HETATM    2  C10 UNL     1      -2.096  49.139 -18.716  1.00  0.00     0.007 C 
HETATM    3  C11 UNL     1      -2.954  48.533 -19.853  1.00  0.00     0.015 C 
HETATM    4  C12 UNL     1      -2.212  48.886 -21.158  1.00  0.00    -0.013 C 
HETATM    5  C13 UNL     1      -1.150  47.763 -21.392  1.00  0.00     0.021 C 
HETATM    6  C14 UNL     1      -2.982  48.965 -22.473  1.00  0.00    -0.068 C 
HETATM    7  C15 UNL     1      -2.532  49.776 -23.469  1.00  0.00    -0.068 C 
HETATM    8  C16 UNL     1      -1.326  50.703 -23.274  1.00  0.00     0.036 C 
HETATM    9  C17 UNL     1      -0.653  50.716 -21.884  1.00  0.00     0.015 C 
HETATM   10  C18 UNL     1      -1.636  50.301 -20.786  1.00  0.00    -0.029 C 
HETATM   11  C19 UNL     1      -2.726  51.410 -20.667  1.00  0.00     0.016 C 
HETATM   12  C20 UNL     1      -3.255  49.848 -24.833  1.00  0.00    -0.017 C 
HETATM   13  C21 UNL     1      -4.215  51.062 -24.762  1.00  0.00     0.020 C 
HETATM   14  C22 UNL     1      -2.275  50.043 -26.026  1.00  0.00     0.016 C 
HETATM   15  C23 UNL     1      -2.964  49.989 -27.392  1.00  0.00     0.033 C 
HETATM   16  C24 UNL     1      -3.777  48.713 -27.583  1.00  0.00     0.118 C 
HETATM   17  C25 UNL     1      -4.742  48.459 -26.425  1.00  0.00     0.037 C 
HETATM   18  C26 UNL     1      -4.010  48.501 -25.078  1.00  0.00     0.001 C 
HETATM   19  C27 UNL     1      -4.954  48.175 -23.923  1.00  0.00     0.010 C 
HETATM   20  C28 UNL     1      -4.182  48.052 -22.610  1.00  0.00     0.036 C 
ENDROOT
BRANCH   1  21
HETATM   21  C7  UNL     1      -0.439  51.218 -18.583  1.00  0.00    -0.014 C 
HETATM   22  C8  UNL     1       0.379  52.122 -19.519  1.00  0.00     0.010 C 
BRANCH  21  23
HETATM   23  C6  UNL     1       0.290  50.937 -17.243  1.00  0.00     0.008 C 
BRANCH  23  24
HETATM   24  C5  UNL     1       0.831  52.119 -16.408  1.00  0.00     0.028 C 
BRANCH  24  25
HETATM   25  C4  UNL     1       2.297  52.398 -16.582  1.00  0.00    -0.025 C 
HETATM   26  C2  UNL     1       3.328  52.037 -15.794  1.00  0.00    -0.091 C 
HETATM   27  C1  UNL     1       3.219  51.255 -14.513  1.00  0.00     0.042 C 
HETATM   28  C3  UNL     1       4.738  52.419 -16.162  1.00  0.00     0.042 C 
ENDBRANCH  24  25
ENDBRANCH  23  24
ENDBRANCH  21  23
ENDBRANCH   1  21
BRANCH  16  29
HETATM   29  O1  UNL     1      -4.506  48.790 -28.804  1.00  0.00    -0.396 OA
HETATM   30  H39 UNL     1      -5.146  49.519 -28.724  1.00  0.00     0.210 HD
ENDBRANCH  16  29
TORSDOF 5
ENDMDL
MODEL 2
REMARK minimizedAffinity -9.51259136
REMARK  5 active torsions:
REMARK  status: ('A' for Active; 'I' for Inactive)
REMARK    1  A    between atoms: C4_4  and  C5_5 
REMARK    2  A    between atoms: C5_5  and  C6_6 
REMARK    3  A    between atoms: C6_6  and  C7_7 
REMARK    4  A    between atoms: C7_7  and  C9_9 
REMARK    5  A    between atoms: C24_24  and  O1_25 
ROOT
HETATM    1  C9  UNL     1      -1.683  49.305 -18.704  1.00  0.00    -0.002 C 
HETATM    2  C10 UNL     1      -2.933  48.425 -18.932  1.00  0.00     0.007 C 
HETATM    3  C11 UNL     1      -3.168  48.363 -20.461  1.00  0.00     0.015 C 
HETATM    4  C12 UNL     1      -1.921  49.014 -21.093  1.00  0.00    -0.013 C 
HETATM    5  C13 UNL     1      -0.846  47.887 -21.235  1.00  0.00     0.021 C 
HETATM    6  C14 UNL     1      -2.010  49.636 -22.483  1.00  0.00    -0.068 C 
HETATM    7  C15 UNL     1      -1.173  50.654 -22.821  1.00  0.00    -0.068 C 
HETATM    8  C16 UNL     1      -0.206  51.276 -21.804  1.00  0.00     0.036 C 
HETATM    9  C17 UNL     1      -0.239  50.729 -20.361  1.00  0.00     0.015 C 
HETATM   10  C18 UNL     1      -1.605  50.125 -20.025  1.00  0.00    -0.029 C 
HETATM   11  C19 UNL     1      -2.652  51.281 -19.996  1.00  0.00     0.016 C 
HETATM   12  C20 UNL     1      -1.198  51.280 -24.233  1.00  0.00    -0.017 C 
HETATM   13  C21 UNL     1      -2.109  52.530 -24.149  1.00  0.00     0.020 C 
HETATM   14  C22 UNL     1       0.213  51.711 -24.727  1.00  0.00     0.016 C 
HETATM   15  C23 UNL     1       0.222  52.213 -26.173  1.00  0.00     0.033 C 
HETATM   16  C24 UNL     1      -0.389  51.207 -27.143  1.00  0.00     0.118 C 
HETATM   17  C25 UNL     1      -1.771  50.731 -26.692  1.00  0.00     0.037 C 
HETATM   18  C26 UNL     1      -1.732  50.217 -25.248  1.00  0.00     0.001 C 
HETATM   19  C27 UNL     1      -3.091  49.670 -24.817  1.00  0.00     0.010 C 
HETATM   20  C28 UNL     1      -2.998  49.007 -23.443  1.00  0.00     0.036 C 
ENDROOT
BRANCH   1  21
HETATM   21  C7  UNL     1      -1.560  50.075 -17.357  1.00  0.00    -0.014 C 
HETATM   22  C8  UNL     1      -2.947  50.571 -16.916  1.00  0.00     0.010 C 
BRANCH  21  23
HETATM   23  C6  UNL     1      -0.468  51.168 -17.222  1.00  0.00     0.008 C 
BRANCH  23  24
HETATM   24  C5  UNL     1       0.705  50.955 -16.240  1.00  0.00     0.028 C 
BRANCH  24  25
HETATM   25  C4  UNL     1       1.890  51.851 -16.464  1.00  0.00    -0.025 C 
HETATM   26  C2  UNL     1       2.986  52.014 -15.698  1.00  0.00    -0.091 C 
HETATM   27  C1  UNL     1       3.257  51.310 -14.395  1.00  0.00     0.042 C 
HETATM   28  C3  UNL     1       4.073  52.970 -16.117  1.00  0.00     0.042 C 
ENDBRANCH  24  25
ENDBRANCH  23  24
ENDBRANCH  21  23
ENDBRANCH   1  21
BRANCH  16  29
HETATM   29  O1  UNL     1      -0.485  51.791 -28.439  1.00  0.00    -0.396 OA
HETATM   30  H39 UNL     1      -1.106  52.538 -28.385  1.00  0.00     0.210 HD
ENDBRANCH  16  29
TORSDOF 5
ENDMDL
MODEL 3
REMARK minimizedAffinity -9.17032528
REMARK  5 active torsions:
REMARK  status: ('A' for Active; 'I' for Inactive)
REMARK    1  A    between atoms: C4_4  and  C5_5 
REMARK    2  A    between atoms: C5_5  and  C6_6 
REMARK    3  A    between atoms: C6_6  and  C7_7 
REMARK    4  A    between atoms: C7_7  and  C9_9 
REMARK    5  A    between atoms: C24_24  and  O1_25 
ROOT
HETATM    1  C9  UNL     1      -1.369  49.182 -19.190  1.00  0.00    -0.002 C 
HETATM    2  C10 UNL     1      -2.606  48.535 -18.528  1.00  0.00     0.007 C 
HETATM    3  C11 UNL     1      -3.565  48.120 -19.670  1.00  0.00     0.015 C 
HETATM    4  C12 UNL     1      -2.763  48.326 -20.972  1.00  0.00    -0.013 C 
HETATM    5  C13 UNL     1      -1.947  47.015 -21.212  1.00  0.00     0.021 C 
HETATM    6  C14 UNL     1      -3.497  48.567 -22.287  1.00  0.00    -0.068 C 
HETATM    7  C15 UNL     1      -2.890  49.277 -23.277  1.00  0.00    -0.068 C 
HETATM    8  C16 UNL     1      -1.523  49.943 -23.073  1.00  0.00     0.036 C 
HETATM    9  C17 UNL     1      -0.866  49.811 -21.682  1.00  0.00     0.015 C 
HETATM   10  C18 UNL     1      -1.915  49.595 -20.588  1.00  0.00    -0.029 C 
HETATM   11  C19 UNL     1      -2.761  50.899 -20.464  1.00  0.00     0.016 C 
HETATM   12  C20 UNL     1      -3.580  49.503 -24.641  1.00  0.00    -0.017 C 
HETATM   13  C21 UNL     1      -4.277  50.884 -24.563  1.00  0.00     0.020 C 
HETATM   14  C22 UNL     1      -2.577  49.505 -25.831  1.00  0.00     0.016 C 
HETATM   15  C23 UNL     1      -3.258  49.599 -27.199  1.00  0.00     0.033 C 
HETATM   16  C24 UNL     1      -4.310  48.513 -27.400  1.00  0.00     0.118 C 
HETATM   17  C25 UNL     1      -5.310  48.451 -26.246  1.00  0.00     0.037 C 
HETATM   18  C26 UNL     1      -4.589  48.336 -24.898  1.00  0.00     0.001 C 
HETATM   19  C27 UNL     1      -5.583  48.198 -23.747  1.00  0.00     0.010 C 
HETATM   20  C28 UNL     1      -4.855  47.914 -22.433  1.00  0.00     0.036 C 
ENDROOT
BRANCH   1  21
HETATM   21  C7  UNL     1      -0.566  50.238 -18.377  1.00  0.00    -0.014 C 
HETATM   22  C8  UNL     1      -0.670  49.924 -16.875  1.00  0.00     0.010 C 
BRANCH  21  23
HETATM   23  C6  UNL     1      -0.792  51.742 -18.684  1.00  0.00     0.008 C 
BRANCH  23  24
HETATM   24  C5  UNL     1       0.316  52.546 -19.401  1.00  0.00     0.028 C 
BRANCH  24  25
HETATM   25  C4  UNL     1       0.258  52.505 -20.901  1.00  0.00    -0.025 C 
HETATM   26  C2  UNL     1       0.878  53.300 -21.795  1.00  0.00    -0.091 C 
HETATM   27  C1  UNL     1       1.786  54.453 -21.461  1.00  0.00     0.042 C 
HETATM   28  C3  UNL     1       0.687  53.078 -23.273  1.00  0.00     0.042 C 
ENDBRANCH  24  25
ENDBRANCH  23  24
ENDBRANCH  21  23
ENDBRANCH   1  21
BRANCH  16  29
HETATM   29  O1  UNL     1      -5.005  48.744 -28.623  1.00  0.00    -0.396 OA
HETATM   30  H39 UNL     1      -5.486  49.586 -28.538  1.00  0.00     0.210 HD
ENDBRANCH  16  29
TORSDOF 5
ENDMDL
MODEL 4
REMARK minimizedAffinity -9.16623688
REMARK  5 active torsions:
REMARK  status: ('A' for Active; 'I' for Inactive)
REMARK    1  A    between atoms: C4_4  and  C5_5 
REMARK    2  A    between atoms: C5_5  and  C6_6 
REMARK    3  A    between atoms: C6_6  and  C7_7 
REMARK    4  A    between atoms: C7_7  and  C9_9 
REMARK    5  A    between atoms: C24_24  and  O1_25 
ROOT
HETATM    1  C9  UNL     1      -0.669  50.288 -21.322  1.00  0.00    -0.002 C 
HETATM    2  C10 UNL     1      -1.000  49.885 -19.868  1.00  0.00     0.007 C 
HETATM    3  C11 UNL     1      -2.295  49.038 -19.917  1.00  0.00     0.015 C 
HETATM    4  C12 UNL     1      -2.556  48.776 -21.414  1.00  0.00    -0.013 C 
HETATM    5  C13 UNL     1      -1.735  47.503 -21.800  1.00  0.00     0.021 C 
HETATM    6  C14 UNL     1      -3.972  48.481 -21.899  1.00  0.00    -0.068 C 
HETATM    7  C15 UNL     1      -4.327  48.796 -23.175  1.00  0.00    -0.068 C 
HETATM    8  C16 UNL     1      -3.374  49.543 -24.117  1.00  0.00     0.036 C 
HETATM    9  C17 UNL     1      -1.999  49.964 -23.556  1.00  0.00     0.015 C 
HETATM   10  C18 UNL     1      -2.045  50.129 -22.034  1.00  0.00    -0.029 C 
HETATM   11  C19 UNL     1      -2.957  51.351 -21.707  1.00  0.00     0.016 C 
HETATM   12  C20 UNL     1      -5.735  48.471 -23.719  1.00  0.00    -0.017 C 
HETATM   13  C21 UNL     1      -6.586  49.753 -23.544  1.00  0.00     0.020 C 
HETATM   14  C22 UNL     1      -5.723  48.070 -25.223  1.00  0.00     0.016 C 
HETATM   15  C23 UNL     1      -7.091  47.621 -25.743  1.00  0.00     0.033 C 
HETATM   16  C24 UNL     1      -7.692  46.497 -24.905  1.00  0.00     0.118 C 
HETATM   17  C25 UNL     1      -7.707  46.830 -23.412  1.00  0.00     0.037 C 
HETATM   18  C26 UNL     1      -6.316  47.253 -22.928  1.00  0.00     0.001 C 
HETATM   19  C27 UNL     1      -6.308  47.514 -21.423  1.00  0.00     0.010 C 
HETATM   20  C28 UNL     1      -4.885  47.768 -20.925  1.00  0.00     0.036 C 
ENDROOT
BRANCH   1  21
HETATM   21  C7  UNL     1       0.130  51.601 -21.560  1.00  0.00    -0.014 C 
HETATM   22  C8  UNL     1       0.148  52.437 -20.269  1.00  0.00     0.010 C 
BRANCH  21  23
HETATM   23  C6  UNL     1      -0.197  52.455 -22.814  1.00  0.00     0.008 C 
BRANCH  23  24
HETATM   24  C5  UNL     1       0.848  52.574 -23.945  1.00  0.00     0.028 C 
BRANCH  24  25
HETATM   25  C4  UNL     1       0.333  52.251 -25.319  1.00  0.00    -0.025 C 
HETATM   26  C2  UNL     1       0.990  51.716 -26.366  1.00  0.00    -0.091 C 
HETATM   27  C1  UNL     1       2.444  51.327 -26.382  1.00  0.00     0.042 C 
HETATM   28  C3  UNL     1       0.274  51.463 -27.667  1.00  0.00     0.042 C 
ENDBRANCH  24  25
ENDBRANCH  23  24
ENDBRANCH  21  23
ENDBRANCH   1  21
BRANCH  16  29
HETATM   29  O1  UNL     1      -9.019  46.229 -25.348  1.00  0.00    -0.396 OA
HETATM   30  H39 UNL     1      -9.557  47.022 -25.178  1.00  0.00     0.210 HD
ENDBRANCH  16  29
TORSDOF 5
ENDMDL
MODEL 5
REMARK minimizedAffinity -9.04516602
REMARK  5 active torsions:
REMARK  status: ('A' for Active; 'I' for Inactive)
REMARK    1  A    between atoms: C4_4  and  C5_5 
REMARK    2  A    between atoms: C5_5  and  C6_6 
REMARK    3  A    between atoms: C6_6  and  C7_7 
REMARK    4  A    between atoms: C7_7  and  C9_9 
REMARK    5  A    between atoms: C24_24  and  O1_25 
ROOT
HETATM    1  C9  UNL     1      -1.439  51.323 -24.986  1.00  0.00    -0.002 C 
HETATM    2  C10 UNL     1      -1.005  52.787 -25.219  1.00  0.00     0.007 C 
HETATM    3  C11 UNL     1      -0.385  53.292 -23.894  1.00  0.00     0.015 C 
HETATM    4  C12 UNL     1      -0.264  52.042 -22.997  1.00  0.00    -0.013 C 
HETATM    5  C13 UNL     1       1.099  51.363 -23.350  1.00  0.00     0.021 C 
HETATM    6  C14 UNL     1      -0.235  52.195 -21.480  1.00  0.00    -0.068 C 
HETATM    7  C15 UNL     1      -0.683  51.180 -20.691  1.00  0.00    -0.068 C 
HETATM    8  C16 UNL     1      -1.323  49.918 -21.285  1.00  0.00     0.036 C 
HETATM    9  C17 UNL     1      -1.478  49.851 -22.820  1.00  0.00     0.015 C 
HETATM   10  C18 UNL     1      -1.552  51.251 -23.434  1.00  0.00    -0.029 C 
HETATM   11  C19 UNL     1      -2.884  51.916 -22.967  1.00  0.00     0.016 C 
HETATM   12  C20 UNL     1      -0.626  51.275 -19.151  1.00  0.00    -0.017 C 
HETATM   13  C21 UNL     1      -2.017  51.775 -18.685  1.00  0.00     0.020 C 
HETATM   14  C22 UNL     1      -0.324  49.908 -18.472  1.00  0.00     0.016 C 
HETATM   15  C23 UNL     1      -0.138  50.010 -16.956  1.00  0.00     0.033 C 
HETATM   16  C24 UNL     1       0.923  51.034 -16.569  1.00  0.00     0.118 C 
HETATM   17  C25 UNL     1       0.687  52.394 -17.228  1.00  0.00     0.037 C 
HETATM   18  C26 UNL     1       0.528  52.250 -18.745  1.00  0.00     0.001 C 
HETATM   19  C27 UNL     1       0.367  53.611 -19.418  1.00  0.00     0.010 C 
HETATM   20  C28 UNL     1       0.380  53.469 -20.940  1.00  0.00     0.036 C 
ENDROOT
BRANCH   1  21
HETATM   21  C7  UNL     1      -2.618  50.761 -25.831  1.00  0.00    -0.014 C 
HETATM   22  C8  UNL     1      -3.955  51.220 -25.226  1.00  0.00     0.010 C 
BRANCH  21  23
HETATM   23  C6  UNL     1      -2.619  49.253 -26.196  1.00  0.00     0.008 C 
BRANCH  23  24
HETATM   24  C5  UNL     1      -3.964  48.506 -26.342  1.00  0.00     0.028 C 
BRANCH  24  25
HETATM   25  C4  UNL     1      -4.406  48.271 -27.758  1.00  0.00    -0.025 C 
HETATM   26  C2  UNL     1      -5.605  47.858 -28.214  1.00  0.00    -0.091 C 
HETATM   27  C1  UNL     1      -6.797  47.519 -27.361  1.00  0.00     0.042 C 
HETATM   28  C3  UNL     1      -5.842  47.694 -29.693  1.00  0.00     0.042 C 
ENDBRANCH  24  25
ENDBRANCH  23  24
ENDBRANCH  21  23
ENDBRANCH   1  21
BRANCH  16  29
HETATM   29  O1  UNL     1       0.943  51.187 -15.152  1.00  0.00    -0.396 OA
HETATM   30  H39 UNL     1       0.086  51.558 -14.879  1.00  0.00     0.210 HD
ENDBRANCH  16  29
TORSDOF 5
ENDMDL
MODEL 6
REMARK minimizedAffinity -9.0322752
REMARK  5 active torsions:
REMARK  status: ('A' for Active; 'I' for Inactive)
REMARK    1  A    between atoms: C4_4  and  C5_5 
REMARK    2  A    between atoms: C5_5  and  C6_6 
REMARK    3  A    between atoms: C6_6  and  C7_7 
REMARK    4  A    between atoms: C7_7  and  C9_9 
REMARK    5  A    between atoms: C24_24  and  O1_25 
ROOT
HETATM    1  C9  UNL     1      -0.852  52.358 -21.500  1.00  0.00    -0.002 C 
HETATM    2  C10 UNL     1       0.048  52.013 -22.708  1.00  0.00     0.007 C 
HETATM    3  C11 UNL     1      -0.816  51.189 -23.693  1.00  0.00     0.015 C 
HETATM    4  C12 UNL     1      -2.255  51.273 -23.144  1.00  0.00    -0.013 C 
HETATM    5  C13 UNL     1      -2.884  52.582 -23.722  1.00  0.00     0.021 C 
HETATM    6  C14 UNL     1      -3.264  50.181 -23.485  1.00  0.00    -0.068 C 
HETATM    7  C15 UNL     1      -4.287  49.916 -22.626  1.00  0.00    -0.068 C 
HETATM    8  C16 UNL     1      -4.398  50.612 -21.264  1.00  0.00     0.036 C 
HETATM    9  C17 UNL     1      -3.282  51.606 -20.876  1.00  0.00     0.015 C 
HETATM   10  C18 UNL     1      -1.971  51.279 -21.597  1.00  0.00    -0.029 C 
HETATM   11  C19 UNL     1      -1.444  49.917 -21.051  1.00  0.00     0.016 C 
HETATM   12  C20 UNL     1      -5.356  48.851 -22.956  1.00  0.00    -0.017 C 
HETATM   13  C21 UNL     1      -4.906  47.541 -22.263  1.00  0.00     0.020 C 
HETATM   14  C22 UNL     1      -6.773  49.239 -22.441  1.00  0.00     0.016 C 
HETATM   15  C23 UNL     1      -7.865  48.257 -22.871  1.00  0.00     0.033 C 
HETATM   16  C24 UNL     1      -7.895  48.045 -24.381  1.00  0.00     0.118 C 
HETATM   17  C25 UNL     1      -6.520  47.683 -24.945  1.00  0.00     0.037 C 
HETATM   18  C26 UNL     1      -5.461  48.702 -24.509  1.00  0.00     0.001 C 
HETATM   19  C27 UNL     1      -4.101  48.389 -25.130  1.00  0.00     0.010 C 
HETATM   20  C28 UNL     1      -3.098  49.502 -24.828  1.00  0.00     0.036 C 
ENDROOT
BRANCH   1  21
HETATM   21  C7  UNL     1      -0.174  52.586 -20.118  1.00  0.00    -0.014 C 
HETATM   22  C8  UNL     1       1.103  53.424 -20.300  1.00  0.00     0.010 C 
BRANCH  21  23
HETATM   23  C6  UNL     1       0.046  51.365 -19.186  1.00  0.00     0.008 C 
BRANCH  23  24
HETATM   24  C5  UNL     1       0.232  51.590 -17.669  1.00  0.00     0.028 C 
BRANCH  24  25
HETATM   25  C4  UNL     1       1.564  52.162 -17.273  1.00  0.00    -0.025 C 
HETATM   26  C2  UNL     1       2.287  51.933 -16.160  1.00  0.00    -0.091 C 
HETATM   27  C1  UNL     1       1.887  51.027 -15.026  1.00  0.00     0.042 C 
HETATM   28  C3  UNL     1       3.617  52.612 -15.962  1.00  0.00     0.042 C 
ENDBRANCH  24  25
ENDBRANCH  23  24
ENDBRANCH  21  23
ENDBRANCH   1  21
BRANCH  16  29
HETATM   29  O1  UNL     1      -8.828  47.016 -24.700  1.00  0.00    -0.396 OA
HETATM   30  H39 UNL     1      -8.502  46.186 -24.309  1.00  0.00     0.210 HD
ENDBRANCH  16  29
TORSDOF 5
ENDMDL
MODEL 7
REMARK minimizedAffinity -9.02250195
REMARK  5 active torsions:
REMARK  status: ('A' for Active; 'I' for Inactive)
REMARK    1  A    between atoms: C4_4  and  C5_5 
REMARK    2  A    between atoms: C5_5  and  C6_6 
REMARK    3  A    between atoms: C6_6  and  C7_7 
REMARK    4  A    between atoms: C7_7  and  C9_9 
REMARK    5  A    between atoms: C24_24  and  O1_25 
ROOT
HETATM    1  C9  UNL     1      -4.852  49.358 -25.109  1.00  0.00    -0.002 C 
HETATM    2  C10 UNL     1      -5.993  49.172 -24.084  1.00  0.00     0.007 C 
HETATM    3  C11 UNL     1      -5.511  49.798 -22.753  1.00  0.00     0.015 C 
HETATM    4  C12 UNL     1      -4.201  50.534 -23.099  1.00  0.00    -0.013 C 
HETATM    5  C13 UNL     1      -4.602  51.960 -23.598  1.00  0.00     0.021 C 
HETATM    6  C14 UNL     1      -3.161  50.788 -22.011  1.00  0.00    -0.068 C 
HETATM    7  C15 UNL     1      -1.847  50.899 -22.348  1.00  0.00    -0.068 C 
HETATM    8  C16 UNL     1      -1.359  50.670 -23.784  1.00  0.00     0.036 C 
HETATM    9  C17 UNL     1      -2.411  50.267 -24.840  1.00  0.00     0.015 C 
HETATM   10  C18 UNL     1      -3.611  49.571 -24.193  1.00  0.00    -0.029 C 
HETATM   11  C19 UNL     1      -3.128  48.200 -23.626  1.00  0.00     0.016 C 
HETATM   12  C20 UNL     1      -0.769  51.203 -21.284  1.00  0.00    -0.017 C 
HETATM   13  C21 UNL     1      -0.175  49.839 -20.852  1.00  0.00     0.020 C 
HETATM   14  C22 UNL     1       0.376  52.107 -21.826  1.00  0.00     0.016 C 
HETATM   15  C23 UNL     1       1.383  52.521 -20.750  1.00  0.00     0.033 C 
HETATM   16  C24 UNL     1       0.713  53.184 -19.551  1.00  0.00     0.118 C 
HETATM   17  C25 UNL     1      -0.437  52.346 -18.991  1.00  0.00     0.037 C 
HETATM   18  C26 UNL     1      -1.433  51.971 -20.095  1.00  0.00     0.001 C 
HETATM   19  C27 UNL     1      -2.623  51.199 -19.529  1.00  0.00     0.010 C 
HETATM   20  C28 UNL     1      -3.687  50.980 -20.604  1.00  0.00     0.036 C 
ENDROOT
BRANCH   1  21
HETATM   21  C7  UNL     1      -4.735  48.334 -26.274  1.00  0.00    -0.014 C 
HETATM   22  C8  UNL     1      -3.793  48.886 -27.356  1.00  0.00     0.010 C 
BRANCH  21  23
HETATM   23  C6  UNL     1      -6.035  47.732 -26.871  1.00  0.00     0.008 C 
BRANCH  23  24
HETATM   24  C5  UNL     1      -6.085  47.367 -28.371  1.00  0.00     0.028 C 
BRANCH  24  25
HETATM   25  C4  UNL     1      -7.064  48.166 -29.184  1.00  0.00    -0.025 C 
HETATM   26  C2  UNL     1      -7.271  48.152 -30.515  1.00  0.00    -0.091 C 
HETATM   27  C1  UNL     1      -6.523  47.305 -31.509  1.00  0.00     0.042 C 
HETATM   28  C3  UNL     1      -8.322  49.038 -31.132  1.00  0.00     0.042 C 
ENDBRANCH  24  25
ENDBRANCH  23  24
ENDBRANCH  21  23
ENDBRANCH   1  21
BRANCH  16  29
HETATM   29  O1  UNL     1       1.681  53.410 -18.529  1.00  0.00    -0.396 OA
HETATM   30  H39 UNL     1       2.002  52.543 -18.225  1.00  0.00     0.210 HD
ENDBRANCH  16  29
TORSDOF 5
ENDMDL
MODEL 8
REMARK minimizedAffinity -8.99547195
REMARK  5 active torsions:
REMARK  status: ('A' for Active; 'I' for Inactive)
REMARK    1  A    between atoms: C4_4  and  C5_5 
REMARK    2  A    between atoms: C5_5  and  C6_6 
REMARK    3  A    between atoms: C6_6  and  C7_7 
REMARK    4  A    between atoms: C7_7  and  C9_9 
REMARK    5  A    between atoms: C24_24  and  O1_25 
ROOT
HETATM    1  C9  UNL     1      -3.837  50.350 -24.853  1.00  0.00    -0.002 C 
HETATM    2  C10 UNL     1      -5.296  50.007 -24.480  1.00  0.00     0.007 C 
HETATM    3  C11 UNL     1      -5.381  50.017 -22.934  1.00  0.00     0.015 C 
HETATM    4  C12 UNL     1      -4.031  50.590 -22.454  1.00  0.00    -0.013 C 
HETATM    5  C13 UNL     1      -4.177  52.146 -22.450  1.00  0.00     0.021 C 
HETATM    6  C14 UNL     1      -3.513  50.250 -21.060  1.00  0.00    -0.068 C 
HETATM    7  C15 UNL     1      -2.173  50.246 -20.822  1.00  0.00    -0.068 C 
HETATM    8  C16 UNL     1      -1.152  50.470 -21.944  1.00  0.00     0.036 C 
HETATM    9  C17 UNL     1      -1.697  50.664 -23.376  1.00  0.00     0.015 C 
HETATM   10  C18 UNL     1      -3.065  50.000 -23.546  1.00  0.00    -0.029 C 
HETATM   11  C19 UNL     1      -2.871  48.456 -23.442  1.00  0.00     0.016 C 
HETATM   12  C20 UNL     1      -1.610  49.954 -19.413  1.00  0.00    -0.017 C 
HETATM   13  C21 UNL     1      -1.260  48.445 -19.380  1.00  0.00     0.020 C 
HETATM   14  C22 UNL     1      -0.331  50.781 -19.092  1.00  0.00     0.016 C 
HETATM   15  C23 UNL     1       0.165  50.598 -17.655  1.00  0.00     0.033 C 
HETATM   16  C24 UNL     1      -0.921  50.888 -16.624  1.00  0.00     0.118 C 
HETATM   17  C25 UNL     1      -2.211  50.117 -16.906  1.00  0.00     0.037 C 
HETATM   18  C26 UNL     1      -2.684  50.344 -18.346  1.00  0.00     0.001 C 
HETATM   19  C27 UNL     1      -4.012  49.638 -18.612  1.00  0.00     0.010 C 
HETATM   20  C28 UNL     1      -4.558  50.009 -19.991  1.00  0.00     0.036 C 
ENDROOT
BRANCH   1  21
HETATM   21  C7  UNL     1      -3.275  49.812 -26.201  1.00  0.00    -0.014 C 
HETATM   22  C8  UNL     1      -3.790  48.383 -26.442  1.00  0.00     0.010 C 
BRANCH  21  23
HETATM   23  C6  UNL     1      -1.755  49.950 -26.482  1.00  0.00     0.008 C 
BRANCH  23  24
HETATM   24  C5  UNL     1      -1.222  51.227 -27.167  1.00  0.00     0.028 C 
BRANCH  24  25
HETATM   25  C4  UNL     1       0.263  51.251 -27.394  1.00  0.00    -0.025 C 
HETATM   26  C2  UNL     1       1.239  51.680 -26.570  1.00  0.00    -0.091 C 
HETATM   27  C1  UNL     1       1.034  52.262 -25.198  1.00  0.00     0.042 C 
HETATM   28  C3  UNL     1       2.682  51.606 -26.996  1.00  0.00     0.042 C 
ENDBRANCH  24  25
ENDBRANCH  23  24
ENDBRANCH  21  23
ENDBRANCH   1  21
BRANCH  16  29
HETATM   29  O1  UNL     1      -0.443  50.558 -15.323  1.00  0.00    -0.396 OA
HETATM   30  H39 UNL     1      -0.284  49.599 -15.297  1.00  0.00     0.210 HD
ENDBRANCH  16  29
TORSDOF 5
ENDMDL
MODEL 9
REMARK minimizedAffinity -8.93906498
REMARK  5 active torsions:
REMARK  status: ('A' for Active; 'I' for Inactive)
REMARK    1  A    between atoms: C4_4  and  C5_5 
REMARK    2  A    between atoms: C5_5  and  C6_6 
REMARK    3  A    between atoms: C6_6  and  C7_7 
REMARK    4  A    between atoms: C7_7  and  C9_9 
REMARK    5  A    between atoms: C24_24  and  O1_25 
ROOT
HETATM    1  C9  UNL     1      -0.573  52.585 -23.670  1.00  0.00    -0.002 C 
HETATM    2  C10 UNL     1       0.241  51.907 -24.795  1.00  0.00     0.007 C 
HETATM    3  C11 UNL     1      -0.719  50.938 -25.527  1.00  0.00     0.015 C 
HETATM    4  C12 UNL     1      -2.120  51.246 -24.960  1.00  0.00    -0.013 C 
HETATM    5  C13 UNL     1      -2.700  52.425 -25.807  1.00  0.00     0.021 C 
HETATM    6  C14 UNL     1      -3.207  50.177 -24.997  1.00  0.00    -0.068 C 
HETATM    7  C15 UNL     1      -4.198  50.190 -24.064  1.00  0.00    -0.068 C 
HETATM    8  C16 UNL     1      -4.198  51.190 -22.901  1.00  0.00     0.036 C 
HETATM    9  C17 UNL     1      -3.008  52.168 -22.799  1.00  0.00     0.015 C 
HETATM   10  C18 UNL     1      -1.757  51.593 -23.470  1.00  0.00    -0.029 C 
HETATM   11  C19 UNL     1      -1.283  50.362 -22.638  1.00  0.00     0.016 C 
HETATM   12  C20 UNL     1      -5.343  49.154 -24.095  1.00  0.00    -0.017 C 
HETATM   13  C21 UNL     1      -4.936  48.013 -23.129  1.00  0.00     0.020 C 
HETATM   14  C22 UNL     1      -6.706  49.747 -23.635  1.00  0.00     0.016 C 
HETATM   15  C23 UNL     1      -7.875  48.769 -23.782  1.00  0.00     0.033 C 
HETATM   16  C24 UNL     1      -7.995  48.215 -25.197  1.00  0.00     0.118 C 
HETATM   17  C25 UNL     1      -6.674  47.638 -25.709  1.00  0.00     0.037 C 
HETATM   18  C26 UNL     1      -5.536  48.655 -25.564  1.00  0.00     0.001 C 
HETATM   19  C27 UNL     1      -4.231  48.113 -26.143  1.00  0.00     0.010 C 
HETATM   20  C28 UNL     1      -3.150  49.194 -26.148  1.00  0.00     0.036 C 
ENDROOT
BRANCH   1  21
HETATM   21  C7  UNL     1       0.187  53.081 -22.407  1.00  0.00    -0.014 C 
HETATM   22  C8  UNL     1       1.349  53.997 -22.828  1.00  0.00     0.010 C 
BRANCH  21  23
HETATM   23  C6  UNL     1       0.610  52.041 -21.336  1.00  0.00     0.008 C 
BRANCH  23  24
HETATM   24  C5  UNL     1       0.214  52.265 -19.860  1.00  0.00     0.028 C 
BRANCH  24  25
HETATM   25  C4  UNL     1      -0.195  51.024 -19.119  1.00  0.00    -0.025 C 
HETATM   26  C2  UNL     1       0.059  50.677 -17.842  1.00  0.00    -0.091 C 
HETATM   27  C1  UNL     1       0.852  51.490 -16.854  1.00  0.00     0.042 C 
HETATM   28  C3  UNL     1      -0.458  49.374 -17.290  1.00  0.00     0.042 C 
ENDBRANCH  24  25
ENDBRANCH  23  24
ENDBRANCH  21  23
ENDBRANCH   1  21
BRANCH  16  29
HETATM   29  O1  UNL     1      -9.001  47.206 -25.231  1.00  0.00    -0.396 OA
HETATM   30  H39 UNL     1      -8.705  46.470 -24.667  1.00  0.00     0.210 HD
ENDBRANCH  16  29
TORSDOF 5
ENDMDL
