MODEL 1
REMARK minimizedAffinity -9.72555447
REMARK CNNscore 0.816770017
REMARK CNNaffinity 7.39115524
REMARK  10 active torsions:
REMARK  status: ('A' for Active; 'I' for Inactive)
REMARK    1  A    between atoms: C2_2  and  C3_3 
REMARK    2  A    between atoms: C3_3  and  C4_4 
REMARK    3  A    between atoms: C4_4  and  O1_5 
REMARK    4  A    between atoms: C4_4  and  C5_6 
REMARK    5  A    between atoms: C4_4  and  C26_30 
REMARK    6  A    between atoms: C17_18  and  O2_19 
REMARK    7  A    between atoms: C22_24  and  O3_25 
REMARK    8  A    between atoms: C27_32  and  C28_33 
REMARK    9  A    between atoms: C28_33  and  O6_35 
REMARK   10  A    between atoms: C28_33  and  C30_36 
ROOT
HETATM    1  C5  UNL     1      -1.755   6.490  13.657  1.00  0.00     0.034 C 
HETATM    2  C6  UNL     1      -1.853   5.115  12.860  1.00  0.00     0.016 C 
HETATM    3  C7  UNL     1      -3.260   4.569  13.133  1.00  0.00     0.026 C 
HETATM    4  C8  UNL     1      -3.978   3.732  12.091  1.00  0.00     0.013 C 
HETATM    5  C9  UNL     1      -5.398   3.401  12.618  1.00  0.00     0.043 C 
HETATM    6  C10 UNL     1      -6.087   4.517  13.395  1.00  0.00    -0.006 C 
HETATM    7  C11 UNL     1      -5.469   5.649  13.786  1.00  0.00    -0.030 C 
HETATM    8  C12 UNL     1      -6.151   6.855  14.405  1.00  0.00     0.027 C 
HETATM    9  C13 UNL     1      -5.206   7.787  15.232  1.00  0.00     0.011 C 
HETATM   10  C14 UNL     1      -3.759   7.927  14.701  1.00  0.00     0.014 C 
HETATM   11  C15 UNL     1      -3.127   6.539  14.457  1.00  0.00    -0.002 C 
HETATM   12  C16 UNL     1      -3.049   5.774  15.807  1.00  0.00     0.019 C 
HETATM   13  C17 UNL     1      -4.040   5.844  13.419  1.00  0.00     0.094 C 
HETATM   14  C18 UNL     1      -7.469   6.463  15.165  1.00  0.00    -0.026 C 
HETATM   15  C19 UNL     1      -7.167   5.747  16.508  1.00  0.00     0.016 C 
HETATM   16  C20 UNL     1      -8.278   7.766  15.465  1.00  0.00     0.013 C 
HETATM   17  C21 UNL     1      -9.786   7.553  15.393  1.00  0.00     0.032 C 
HETATM   18  C22 UNL     1     -10.215   7.128  13.985  1.00  0.00     0.119 C 
HETATM   19  C23 UNL     1      -9.196   6.222  13.284  1.00  0.00     0.045 C 
HETATM   20  C24 UNL     1      -8.330   5.480  14.309  1.00  0.00     0.071 C 
HETATM   21  C25 UNL     1      -7.548   4.366  13.629  1.00  0.00     0.161 C 
HETATM   22  O4  UNL     1      -8.124   3.348  13.243  1.00  0.00    -0.292 OA
ENDROOT
BRANCH   1  23
HETATM   23  C4  UNL     1      -0.390   6.717  14.403  1.00  0.00     0.091 C 
BRANCH  23  24
HETATM   24  C3  UNL     1      -0.222   8.211  14.799  1.00  0.00     0.040 C 
BRANCH  24  25
HETATM   25  C2  UNL     1      -1.055   9.257  14.037  1.00  0.00    -0.002 C 
HETATM   26  C1  UNL     1      -0.818   9.290  12.536  1.00  0.00     0.005 C 
ENDBRANCH  24  25
ENDBRANCH  23  24
BRANCH  23  27
HETATM   27  O1  UNL     1      -0.388   5.944  15.604  1.00  0.00    -0.387 OA
HETATM   28  H8  UNL     1      -0.265   5.012  15.355  1.00  0.00     0.210 HD
ENDBRANCH  23  27
BRANCH  23  29
HETATM   29  C26 UNL     1       0.835   6.292  13.598  1.00  0.00     0.188 A 
HETATM   30  O5  UNL     1       0.715   5.138  12.761  1.00  0.00    -0.369 OA
HETATM   31  C27 UNL     1       0.889   6.392  12.082  1.00  0.00     0.188 A 
BRANCH  31  32
HETATM   32  C28 UNL     1       2.194   6.566  11.317  1.00  0.00     0.086 C 
HETATM   33  C29 UNL     1       2.572   5.302  10.519  1.00  0.00     0.049 C 
BRANCH  32  34
HETATM   34  O6  UNL     1       3.234   6.791  12.278  1.00  0.00    -0.387 OA
HETATM   35  H43 UNL     1       3.427   5.944  12.713  1.00  0.00     0.210 HD
ENDBRANCH  32  34
BRANCH  32  36
HETATM   36  C30 UNL     1       2.114   7.825  10.386  1.00  0.00     0.014 C 
HETATM   37  C31 UNL     1       0.849   7.856   9.515  1.00  0.00     0.012 C 
HETATM   38  C32 UNL     1       3.324   7.954   9.439  1.00  0.00     0.012 C 
ENDBRANCH  32  36
ENDBRANCH  31  32
ENDBRANCH  23  29
ENDBRANCH   1  23
BRANCH  13  39
HETATM   39  O2  UNL     1      -4.084   6.655  12.224  1.00  0.00    -0.384 OA
HETATM   40  H25 UNL     1      -4.745   6.276  11.621  1.00  0.00     0.211 HD
ENDBRANCH  13  39
BRANCH  18  41
HETATM   41  O3  UNL     1     -11.477   6.469  14.072  1.00  0.00    -0.396 OA
HETATM   42  H34 UNL     1     -11.342   5.601  14.491  1.00  0.00     0.210 HD
ENDBRANCH  18  41
TORSDOF 10
ENDMDL
MODEL 2
REMARK minimizedAffinity -9.84893513
REMARK CNNscore 0.710926652
REMARK CNNaffinity 7.64328194
REMARK  10 active torsions:
REMARK  status: ('A' for Active; 'I' for Inactive)
REMARK    1  A    between atoms: C2_2  and  C3_3 
REMARK    2  A    between atoms: C3_3  and  C4_4 
REMARK    3  A    between atoms: C4_4  and  O1_5 
REMARK    4  A    between atoms: C4_4  and  C5_6 
REMARK    5  A    between atoms: C4_4  and  C26_30 
REMARK    6  A    between atoms: C17_18  and  O2_19 
REMARK    7  A    between atoms: C22_24  and  O3_25 
REMARK    8  A    between atoms: C27_32  and  C28_33 
REMARK    9  A    between atoms: C28_33  and  O6_35 
REMARK   10  A    between atoms: C28_33  and  C30_36 
ROOT
HETATM    1  C5  UNL     1      -1.431   5.506  12.413  1.00  0.00     0.034 C 
HETATM    2  C6  UNL     1      -1.688   4.002  11.959  1.00  0.00     0.016 C 
HETATM    3  C7  UNL     1      -3.068   3.625  12.512  1.00  0.00     0.026 C 
HETATM    4  C8  UNL     1      -3.949   2.634  11.776  1.00  0.00     0.013 C 
HETATM    5  C9  UNL     1      -5.300   2.522  12.529  1.00  0.00     0.043 C 
HETATM    6  C10 UNL     1      -5.835   3.824  13.115  1.00  0.00    -0.006 C 
HETATM    7  C11 UNL     1      -5.126   4.969  13.167  1.00  0.00    -0.030 C 
HETATM    8  C12 UNL     1      -5.672   6.323  13.579  1.00  0.00     0.027 C 
HETATM    9  C13 UNL     1      -4.589   7.345  14.060  1.00  0.00     0.011 C 
HETATM   10  C14 UNL     1      -3.220   7.268  13.342  1.00  0.00     0.014 C 
HETATM   11  C15 UNL     1      -2.683   5.820  13.339  1.00  0.00    -0.002 C 
HETATM   12  C16 UNL     1      -2.459   5.360  14.807  1.00  0.00     0.019 C 
HETATM   13  C17 UNL     1      -3.751   4.982  12.599  1.00  0.00     0.094 C 
HETATM   14  C18 UNL     1      -6.893   6.196  14.559  1.00  0.00    -0.026 C 
HETATM   15  C19 UNL     1      -6.447   5.767  15.982  1.00  0.00     0.016 C 
HETATM   16  C20 UNL     1      -7.602   7.585  14.656  1.00  0.00     0.013 C 
HETATM   17  C21 UNL     1      -9.114   7.465  14.813  1.00  0.00     0.032 C 
HETATM   18  C22 UNL     1      -9.742   6.777  13.596  1.00  0.00     0.119 C 
HETATM   19  C23 UNL     1      -8.860   5.674  12.998  1.00  0.00     0.045 C 
HETATM   20  C24 UNL     1      -7.899   5.113  14.052  1.00  0.00     0.071 C 
HETATM   21  C25 UNL     1      -7.258   3.827  13.549  1.00  0.00     0.161 C 
HETATM   22  O4  UNL     1      -7.920   2.792  13.470  1.00  0.00    -0.292 OA
ENDROOT
BRANCH   1  23
HETATM   23  C4  UNL     1       0.029   5.795  12.921  1.00  0.00     0.091 C 
BRANCH  23  24
HETATM   24  C3  UNL     1       0.103   7.182  13.620  1.00  0.00     0.040 C 
BRANCH  24  25
HETATM   25  C2  UNL     1       0.641   7.236  15.060  1.00  0.00    -0.002 C 
HETATM   26  C1  UNL     1      -0.203   8.052  16.026  1.00  0.00     0.005 C 
ENDBRANCH  24  25
ENDBRANCH  23  24
BRANCH  23  27
HETATM   27  O1  UNL     1       0.386   4.801  13.884  1.00  0.00    -0.387 OA
HETATM   28  H8  UNL     1       0.560   3.974  13.404  1.00  0.00     0.210 HD
ENDBRANCH  23  27
BRANCH  23  29
HETATM   29  C26 UNL     1       1.088   5.752  11.825  1.00  0.00     0.188 A 
HETATM   30  O5  UNL     1       0.763   5.068  10.611  1.00  0.00    -0.369 OA
HETATM   31  C27 UNL     1       0.926   6.491  10.505  1.00  0.00     0.188 A 
BRANCH  31  32
HETATM   32  C28 UNL     1       2.114   6.973   9.683  1.00  0.00     0.086 C 
HETATM   33  C29 UNL     1       2.937   5.801   9.112  1.00  0.00     0.049 C 
BRANCH  32  34
HETATM   34  O6  UNL     1       2.976   7.712  10.557  1.00  0.00    -0.387 OA
HETATM   35  H43 UNL     1       3.438   7.077  11.130  1.00  0.00     0.210 HD
ENDBRANCH  32  34
BRANCH  32  36
HETATM   36  C30 UNL     1       1.633   7.939   8.546  1.00  0.00     0.014 C 
HETATM   37  C31 UNL     1       0.148   8.318   8.661  1.00  0.00     0.012 C 
HETATM   38  C32 UNL     1       1.850   7.365   7.132  1.00  0.00     0.012 C 
ENDBRANCH  32  36
ENDBRANCH  31  32
ENDBRANCH  23  29
ENDBRANCH   1  23
BRANCH  13  39
HETATM   39  O2  UNL     1      -3.919   5.517  11.267  1.00  0.00    -0.384 OA
HETATM   40  H25 UNL     1      -4.668   5.064  10.847  1.00  0.00     0.211 HD
ENDBRANCH  13  39
BRANCH  18  41
HETATM   41  O3  UNL     1     -11.006   6.240  13.977  1.00  0.00    -0.396 OA
HETATM   42  H34 UNL     1     -10.853   5.476  14.560  1.00  0.00     0.210 HD
ENDBRANCH  18  41
TORSDOF 10
ENDMDL
MODEL 3
REMARK minimizedAffinity -7.67902136
REMARK CNNscore 0.548202395
REMARK CNNaffinity 6.53187418
REMARK  10 active torsions:
REMARK  status: ('A' for Active; 'I' for Inactive)
REMARK    1  A    between atoms: C2_2  and  C3_3 
REMARK    2  A    between atoms: C3_3  and  C4_4 
REMARK    3  A    between atoms: C4_4  and  O1_5 
REMARK    4  A    between atoms: C4_4  and  C5_6 
REMARK    5  A    between atoms: C4_4  and  C26_30 
REMARK    6  A    between atoms: C17_18  and  O2_19 
REMARK    7  A    between atoms: C22_24  and  O3_25 
REMARK    8  A    between atoms: C27_32  and  C28_33 
REMARK    9  A    between atoms: C28_33  and  O6_35 
REMARK   10  A    between atoms: C28_33  and  C30_36 
ROOT
HETATM    1  C5  UNL     1      -0.318   9.867  17.021  1.00  0.00     0.034 C 
HETATM    2  C6  UNL     1      -1.641  10.028  16.151  1.00  0.00     0.016 C 
HETATM    3  C7  UNL     1      -1.203   9.885  14.688  1.00  0.00     0.026 C 
HETATM    4  C8  UNL     1      -2.146   9.296  13.655  1.00  0.00     0.013 C 
HETATM    5  C9  UNL     1      -1.397   9.207  12.300  1.00  0.00     0.043 C 
HETATM    6  C10 UNL     1       0.075   8.819  12.388  1.00  0.00    -0.006 C 
HETATM    7  C11 UNL     1       0.762   8.744  13.544  1.00  0.00    -0.030 C 
HETATM    8  C12 UNL     1       2.170   8.200  13.698  1.00  0.00     0.027 C 
HETATM    9  C13 UNL     1       2.924   8.689  14.978  1.00  0.00     0.011 C 
HETATM   10  C14 UNL     1       2.052   8.894  16.240  1.00  0.00     0.014 C 
HETATM   11  C15 UNL     1       0.826   9.779  15.922  1.00  0.00    -0.002 C 
HETATM   12  C16 UNL     1       1.318  11.182  15.470  1.00  0.00     0.019 C 
HETATM   13  C17 UNL     1       0.046   9.026  14.818  1.00  0.00     0.094 C 
HETATM   14  C18 UNL     1       3.010   8.352  12.379  1.00  0.00    -0.026 C 
HETATM   15  C19 UNL     1       3.436   9.824  12.135  1.00  0.00     0.016 C 
HETATM   16  C20 UNL     1       4.296   7.474  12.502  1.00  0.00     0.013 C 
HETATM   17  C21 UNL     1       4.720   6.860  11.172  1.00  0.00     0.032 C 
HETATM   18  C22 UNL     1       3.639   5.917  10.632  1.00  0.00     0.119 C 
HETATM   19  C23 UNL     1       2.212   6.391  10.931  1.00  0.00     0.045 C 
HETATM   20  C24 UNL     1       2.173   7.910  11.136  1.00  0.00     0.071 C 
HETATM   21  C25 UNL     1       0.735   8.406  11.120  1.00  0.00     0.161 C 
HETATM   22  O4  UNL     1       0.099   8.440  10.065  1.00  0.00    -0.292 OA
ENDROOT
BRANCH   1  23
HETATM   23  C4  UNL     1      -0.196  10.880  18.218  1.00  0.00     0.091 C 
BRANCH  23  24
HETATM   24  C3  UNL     1      -0.691  12.292  17.795  1.00  0.00     0.040 C 
BRANCH  24  25
HETATM   25  C2  UNL     1      -1.763  12.970  18.664  1.00  0.00    -0.002 C 
HETATM   26  C1  UNL     1      -3.190  12.534  18.373  1.00  0.00     0.005 C 
ENDBRANCH  24  25
ENDBRANCH  23  24
BRANCH  23  27
HETATM   27  O1  UNL     1      -1.026  10.428  19.290  1.00  0.00    -0.387 OA
HETATM   28  H8  UNL     1      -0.587   9.664  19.700  1.00  0.00     0.210 HD
ENDBRANCH  23  27
BRANCH  23  29
HETATM   29  C26 UNL     1       1.218  11.013  18.776  1.00  0.00     0.188 A 
HETATM   30  O5  UNL     1       1.598  12.276  19.332  1.00  0.00    -0.369 OA
HETATM   31  C27 UNL     1       1.495  11.185  20.261  1.00  0.00     0.188 A 
BRANCH  31  32
HETATM   32  C28 UNL     1       2.796  10.731  20.911  1.00  0.00     0.086 C 
HETATM   33  C29 UNL     1       4.030  11.381  20.254  1.00  0.00     0.049 C 
BRANCH  32  34
HETATM   34  O6  UNL     1       2.906   9.315  20.718  1.00  0.00    -0.387 OA
HETATM   35  H43 UNL     1       3.140   9.157  19.789  1.00  0.00     0.210 HD
ENDBRANCH  32  34
BRANCH  32  36
HETATM   36  C30 UNL     1       2.758  11.009  22.454  1.00  0.00     0.014 C 
HETATM   37  C31 UNL     1       3.592  12.231  22.871  1.00  0.00     0.012 C 
HETATM   38  C32 UNL     1       3.248   9.813  23.295  1.00  0.00     0.012 C 
ENDBRANCH  32  36
ENDBRANCH  31  32
ENDBRANCH  23  29
ENDBRANCH   1  23
BRANCH  13  39
HETATM   39  O2  UNL     1      -0.323   7.722  15.319  1.00  0.00    -0.384 OA
HETATM   40  H25 UNL     1      -0.709   7.211  14.588  1.00  0.00     0.211 HD
ENDBRANCH  13  39
BRANCH  18  41
HETATM   41  O3  UNL     1       3.821   5.773   9.225  1.00  0.00    -0.396 OA
HETATM   42  H34 UNL     1       3.567   6.608   8.794  1.00  0.00     0.210 HD
ENDBRANCH  18  41
TORSDOF 10
ENDMDL
MODEL 4
REMARK minimizedAffinity -9.0494833
REMARK CNNscore 0.53900516
REMARK CNNaffinity 6.9433322
REMARK  10 active torsions:
REMARK  status: ('A' for Active; 'I' for Inactive)
REMARK    1  A    between atoms: C2_2  and  C3_3 
REMARK    2  A    between atoms: C3_3  and  C4_4 
REMARK    3  A    between atoms: C4_4  and  O1_5 
REMARK    4  A    between atoms: C4_4  and  C5_6 
REMARK    5  A    between atoms: C4_4  and  C26_30 
REMARK    6  A    between atoms: C17_18  and  O2_19 
REMARK    7  A    between atoms: C22_24  and  O3_25 
REMARK    8  A    between atoms: C27_32  and  C28_33 
REMARK    9  A    between atoms: C28_33  and  O6_35 
REMARK   10  A    between atoms: C28_33  and  C30_36 
ROOT
HETATM    1  C5  UNL     1      -0.174   6.030  12.774  1.00  0.00     0.034 C 
HETATM    2  C6  UNL     1       1.198   6.042  13.581  1.00  0.00     0.016 C 
HETATM    3  C7  UNL     1       1.183   7.329  14.417  1.00  0.00     0.026 C 
HETATM    4  C8  UNL     1       1.888   7.384  15.759  1.00  0.00     0.013 C 
HETATM    5  C9  UNL     1       1.628   8.775  16.394  1.00  0.00     0.043 C 
HETATM    6  C10 UNL     1       0.233   9.348  16.171  1.00  0.00    -0.006 C 
HETATM    7  C11 UNL     1      -0.671   8.812  15.328  1.00  0.00    -0.030 C 
HETATM    8  C12 UNL     1      -2.121   9.242  15.204  1.00  0.00     0.027 C 
HETATM    9  C13 UNL     1      -2.801   8.861  13.848  1.00  0.00     0.011 C 
HETATM   10  C14 UNL     1      -2.355   7.519  13.220  1.00  0.00     0.014 C 
HETATM   11  C15 UNL     1      -0.815   7.439  13.133  1.00  0.00    -0.002 C 
HETATM   12  C16 UNL     1      -0.300   8.573  12.204  1.00  0.00     0.019 C 
HETATM   13  C17 UNL     1      -0.309   7.573  14.589  1.00  0.00     0.094 C 
HETATM   14  C18 UNL     1      -2.328  10.746  15.609  1.00  0.00    -0.026 C 
HETATM   15  C19 UNL     1      -1.783  11.714  14.525  1.00  0.00     0.016 C 
HETATM   16  C20 UNL     1      -3.858  11.008  15.787  1.00  0.00     0.013 C 
HETATM   17  C21 UNL     1      -4.159  12.008  16.899  1.00  0.00     0.032 C 
HETATM   18  C22 UNL     1      -3.679  11.483  18.256  1.00  0.00     0.119 C 
HETATM   19  C23 UNL     1      -2.380  10.673  18.172  1.00  0.00     0.045 C 
HETATM   20  C24 UNL     1      -1.568  11.072  16.934  1.00  0.00     0.071 C 
HETATM   21  C25 UNL     1      -0.159  10.503  17.023  1.00  0.00     0.161 C 
HETATM   22  O4  UNL     1       0.653  10.975  17.820  1.00  0.00    -0.292 OA
ENDROOT
BRANCH   1  23
HETATM   23  C4  UNL     1      -0.045   5.573  11.274  1.00  0.00     0.091 C 
BRANCH  23  24
HETATM   24  C3  UNL     1       0.081   6.804  10.334  1.00  0.00     0.040 C 
BRANCH  24  25
HETATM   25  C2  UNL     1       1.359   6.939   9.489  1.00  0.00    -0.002 C 
HETATM   26  C1  UNL     1       1.293   7.994   8.396  1.00  0.00     0.005 C 
ENDBRANCH  24  25
ENDBRANCH  23  24
BRANCH  23  27
HETATM   27  O1  UNL     1       1.143   4.791  11.132  1.00  0.00    -0.387 OA
HETATM   28  H8  UNL     1       0.974   3.923  11.535  1.00  0.00     0.210 HD
ENDBRANCH  23  27
BRANCH  23  29
HETATM   29  C26 UNL     1      -1.206   4.712  10.786  1.00  0.00     0.188 A 
HETATM   30  O5  UNL     1      -0.986   3.303  10.669  1.00  0.00    -0.369 OA
HETATM   31  C27 UNL     1      -1.913   3.711  11.687  1.00  0.00     0.188 A 
BRANCH  31  32
HETATM   32  C28 UNL     1      -3.365   3.302  11.477  1.00  0.00     0.086 C 
HETATM   33  C29 UNL     1      -3.604   1.816  11.811  1.00  0.00     0.049 C 
BRANCH  32  34
HETATM   34  O6  UNL     1      -3.671   3.482  10.088  1.00  0.00    -0.387 OA
HETATM   35  H43 UNL     1      -3.240   2.766   9.592  1.00  0.00     0.210 HD
ENDBRANCH  32  34
BRANCH  32  36
HETATM   36  C30 UNL     1      -4.317   4.233  12.307  1.00  0.00     0.014 C 
HETATM   37  C31 UNL     1      -3.756   4.595  13.691  1.00  0.00     0.012 C 
HETATM   38  C32 UNL     1      -5.717   3.624  12.525  1.00  0.00     0.012 C 
ENDBRANCH  32  36
ENDBRANCH  31  32
ENDBRANCH  23  29
ENDBRANCH   1  23
BRANCH  13  39
HETATM   39  O2  UNL     1      -0.878   6.504  15.378  1.00  0.00    -0.384 OA
HETATM   40  H25 UNL     1      -0.653   6.658  16.310  1.00  0.00     0.211 HD
ENDBRANCH  13  39
BRANCH  18  41
HETATM   41  O3  UNL     1      -3.509  12.590  19.139  1.00  0.00    -0.396 OA
HETATM   42  H34 UNL     1      -2.728  13.096  18.852  1.00  0.00     0.210 HD
ENDBRANCH  18  41
TORSDOF 10
ENDMDL
MODEL 5
REMARK minimizedAffinity -7.75679445
REMARK CNNscore 0.477154344
REMARK CNNaffinity 6.39852142
REMARK  10 active torsions:
REMARK  status: ('A' for Active; 'I' for Inactive)
REMARK    1  A    between atoms: C2_2  and  C3_3 
REMARK    2  A    between atoms: C3_3  and  C4_4 
REMARK    3  A    between atoms: C4_4  and  O1_5 
REMARK    4  A    between atoms: C4_4  and  C5_6 
REMARK    5  A    between atoms: C4_4  and  C26_30 
REMARK    6  A    between atoms: C17_18  and  O2_19 
REMARK    7  A    between atoms: C22_24  and  O3_25 
REMARK    8  A    between atoms: C27_32  and  C28_33 
REMARK    9  A    between atoms: C28_33  and  O6_35 
REMARK   10  A    between atoms: C28_33  and  C30_36 
ROOT
HETATM    1  C5  UNL     1       2.530   8.169  13.990  1.00  0.00     0.034 C 
HETATM    2  C6  UNL     1       3.253   7.272  12.891  1.00  0.00     0.016 C 
HETATM    3  C7  UNL     1       4.685   7.812  12.782  1.00  0.00     0.026 C 
HETATM    4  C8  UNL     1       5.833   6.887  12.425  1.00  0.00     0.013 C 
HETATM    5  C9  UNL     1       7.153   7.699  12.472  1.00  0.00     0.043 C 
HETATM    6  C10 UNL     1       7.246   8.736  13.586  1.00  0.00    -0.006 C 
HETATM    7  C11 UNL     1       6.208   9.090  14.369  1.00  0.00    -0.030 C 
HETATM    8  C12 UNL     1       6.293   9.982  15.593  1.00  0.00     0.027 C 
HETATM    9  C13 UNL     1       4.943  10.657  16.005  1.00  0.00     0.011 C 
HETATM   10  C14 UNL     1       3.666   9.814  15.772  1.00  0.00     0.014 C 
HETATM   11  C15 UNL     1       3.621   9.274  14.325  1.00  0.00    -0.002 C 
HETATM   12  C16 UNL     1       3.566  10.474  13.339  1.00  0.00     0.019 C 
HETATM   13  C17 UNL     1       4.897   8.416  14.162  1.00  0.00     0.094 C 
HETATM   14  C18 UNL     1       7.497  10.988  15.509  1.00  0.00    -0.026 C 
HETATM   15  C19 UNL     1       7.221  12.133  14.498  1.00  0.00     0.016 C 
HETATM   16  C20 UNL     1       7.724  11.615  16.922  1.00  0.00     0.013 C 
HETATM   17  C21 UNL     1       9.195  11.883  17.219  1.00  0.00     0.032 C 
HETATM   18  C22 UNL     1      10.002  10.580  17.221  1.00  0.00     0.119 C 
HETATM   19  C23 UNL     1       9.518   9.560  16.183  1.00  0.00     0.045 C 
HETATM   20  C24 UNL     1       8.793  10.261  15.028  1.00  0.00     0.071 C 
HETATM   21  C25 UNL     1       8.595   9.295  13.869  1.00  0.00     0.161 C 
HETATM   22  O4  UNL     1       9.554   8.948  13.177  1.00  0.00    -0.292 OA
ENDROOT
BRANCH   1  23
HETATM   23  C4  UNL     1       1.058   8.587  13.627  1.00  0.00     0.091 C 
BRANCH  23  24
HETATM   24  C3  UNL     1       0.079   8.196  14.770  1.00  0.00     0.040 C 
BRANCH  24  25
HETATM   25  C2  UNL     1      -0.243   6.704  14.965  1.00  0.00    -0.002 C 
HETATM   26  C1  UNL     1      -1.713   6.345  14.819  1.00  0.00     0.005 C 
ENDBRANCH  24  25
ENDBRANCH  23  24
BRANCH  23  27
HETATM   27  O1  UNL     1       1.008  10.007  13.475  1.00  0.00    -0.387 OA
HETATM   28  H8  UNL     1       1.434  10.228  12.630  1.00  0.00     0.210 HD
ENDBRANCH  23  27
BRANCH  23  29
HETATM   29  C26 UNL     1       0.544   7.981  12.325  1.00  0.00     0.188 A 
HETATM   30  O5  UNL     1      -0.513   8.663  11.645  1.00  0.00    -0.369 OA
HETATM   31  C27 UNL     1       0.757   8.648  10.975  1.00  0.00     0.188 A 
BRANCH  31  32
HETATM   32  C28 UNL     1       0.821   7.862   9.672  1.00  0.00     0.086 C 
HETATM   33  C29 UNL     1      -0.075   8.477   8.579  1.00  0.00     0.049 C 
BRANCH  32  34
HETATM   34  O6  UNL     1       0.328   6.543   9.937  1.00  0.00    -0.387 OA
HETATM   35  H43 UNL     1      -0.638   6.598  10.031  1.00  0.00     0.210 HD
ENDBRANCH  32  34
BRANCH  32  36
HETATM   36  C30 UNL     1       2.308   7.735   9.187  1.00  0.00     0.014 C 
HETATM   37  C31 UNL     1       2.531   8.283   7.768  1.00  0.00     0.012 C 
HETATM   38  C32 UNL     1       2.826   6.284   9.204  1.00  0.00     0.012 C 
ENDBRANCH  32  36
ENDBRANCH  31  32
ENDBRANCH  23  29
ENDBRANCH   1  23
BRANCH  13  39
HETATM   39  O2  UNL     1       4.876   7.362  15.151  1.00  0.00    -0.384 OA
HETATM   40  H25 UNL     1       5.729   6.897  15.122  1.00  0.00     0.211 HD
ENDBRANCH  13  39
BRANCH  18  41
HETATM   41  O3  UNL     1      11.375  10.893  16.995  1.00  0.00    -0.396 OA
HETATM   42  H34 UNL     1      11.479  11.170  16.068  1.00  0.00     0.210 HD
ENDBRANCH  18  41
TORSDOF 10
ENDMDL
MODEL 6
REMARK minimizedAffinity -7.98494339
REMARK CNNscore 0.38527602
REMARK CNNaffinity 5.98420095
REMARK  10 active torsions:
REMARK  status: ('A' for Active; 'I' for Inactive)
REMARK    1  A    between atoms: C2_2  and  C3_3 
REMARK    2  A    between atoms: C3_3  and  C4_4 
REMARK    3  A    between atoms: C4_4  and  O1_5 
REMARK    4  A    between atoms: C4_4  and  C5_6 
REMARK    5  A    between atoms: C4_4  and  C26_30 
REMARK    6  A    between atoms: C17_18  and  O2_19 
REMARK    7  A    between atoms: C22_24  and  O3_25 
REMARK    8  A    between atoms: C27_32  and  C28_33 
REMARK    9  A    between atoms: C28_33  and  O6_35 
REMARK   10  A    between atoms: C28_33  and  C30_36 
ROOT
HETATM    1  C5  UNL     1       4.097   8.111  13.895  1.00  0.00     0.034 C 
HETATM    2  C6  UNL     1       3.962   8.943  15.245  1.00  0.00     0.016 C 
HETATM    3  C7  UNL     1       2.461   9.194  15.437  1.00  0.00     0.026 C 
HETATM    4  C8  UNL     1       1.869   9.304  16.829  1.00  0.00     0.013 C 
HETATM    5  C9  UNL     1       0.334   9.474  16.700  1.00  0.00     0.043 C 
HETATM    6  C10 UNL     1      -0.325   8.668  15.586  1.00  0.00    -0.006 C 
HETATM    7  C11 UNL     1       0.362   7.999  14.638  1.00  0.00    -0.030 C 
HETATM    8  C12 UNL     1      -0.240   7.049  13.621  1.00  0.00     0.027 C 
HETATM    9  C13 UNL     1       0.633   6.821  12.343  1.00  0.00     0.011 C 
HETATM   10  C14 UNL     1       2.165   6.821  12.562  1.00  0.00     0.014 C 
HETATM   11  C15 UNL     1       2.607   8.078  13.343  1.00  0.00    -0.002 C 
HETATM   12  C16 UNL     1       2.262   9.342  12.506  1.00  0.00     0.019 C 
HETATM   13  C17 UNL     1       1.849   8.018  14.690  1.00  0.00     0.094 C 
HETATM   14  C18 UNL     1      -1.739   7.397  13.302  1.00  0.00    -0.026 C 
HETATM   15  C19 UNL     1      -1.860   8.669  12.421  1.00  0.00     0.016 C 
HETATM   16  C20 UNL     1      -2.378   6.196  12.534  1.00  0.00     0.013 C 
HETATM   17  C21 UNL     1      -3.847   5.985  12.885  1.00  0.00     0.032 C 
HETATM   18  C22 UNL     1      -4.014   5.648  14.371  1.00  0.00     0.119 C 
HETATM   19  C23 UNL     1      -3.022   6.384  15.279  1.00  0.00     0.045 C 
HETATM   20  C24 UNL     1      -2.534   7.678  14.617  1.00  0.00     0.071 C 
HETATM   21  C25 UNL     1      -1.807   8.546  15.634  1.00  0.00     0.161 C 
HETATM   22  O4  UNL     1      -2.436   9.128  16.519  1.00  0.00    -0.292 OA
ENDROOT
BRANCH   1  23
HETATM   23  C4  UNL     1       5.281   8.563  12.964  1.00  0.00     0.091 C 
BRANCH  23  24
HETATM   24  C3  UNL     1       5.249   7.786  11.618  1.00  0.00     0.040 C 
BRANCH  24  25
HETATM   25  C2  UNL     1       5.698   6.315  11.624  1.00  0.00    -0.002 C 
HETATM   26  C1  UNL     1       7.017   6.047  10.916  1.00  0.00     0.005 C 
ENDBRANCH  24  25
ENDBRANCH  23  24
BRANCH  23  27
HETATM   27  O1  UNL     1       5.130   9.953  12.670  1.00  0.00    -0.387 OA
HETATM   28  H8  UNL     1       5.373  10.451  13.468  1.00  0.00     0.210 HD
ENDBRANCH  23  27
BRANCH  23  29
HETATM   29  C26 UNL     1       6.662   8.388  13.588  1.00  0.00     0.188 A 
HETATM   30  O5  UNL     1       7.678   9.331  13.233  1.00  0.00    -0.369 OA
HETATM   31  C27 UNL     1       7.232   9.372  14.598  1.00  0.00     0.188 A 
BRANCH  31  32
HETATM   32  C28 UNL     1       8.254   8.967  15.652  1.00  0.00     0.086 C 
HETATM   33  C29 UNL     1       9.372   8.083  15.065  1.00  0.00     0.049 C 
BRANCH  32  34
HETATM   34  O6  UNL     1       7.570   8.189  16.643  1.00  0.00    -0.387 OA
HETATM   35  H43 UNL     1       7.391   7.312  16.264  1.00  0.00     0.210 HD
ENDBRANCH  32  34
BRANCH  32  36
HETATM   36  C30 UNL     1       8.842  10.239  16.356  1.00  0.00     0.014 C 
HETATM   37  C31 UNL     1       9.667   9.911  17.610  1.00  0.00     0.012 C 
HETATM   38  C32 UNL     1       7.760  11.254  16.772  1.00  0.00     0.012 C 
ENDBRANCH  32  36
ENDBRANCH  31  32
ENDBRANCH  23  29
ENDBRANCH   1  23
BRANCH  13  39
HETATM   39  O2  UNL     1       2.201   6.790  15.365  1.00  0.00    -0.384 OA
HETATM   40  H25 UNL     1       1.638   6.701  16.152  1.00  0.00     0.211 HD
ENDBRANCH  13  39
BRANCH  18  41
HETATM   41  O3  UNL     1      -5.352   5.954  14.760  1.00  0.00    -0.396 OA
HETATM   42  H34 UNL     1      -5.453   6.921  14.779  1.00  0.00     0.210 HD
ENDBRANCH  18  41
TORSDOF 10
ENDMDL
MODEL 7
REMARK minimizedAffinity -8.95872784
REMARK CNNscore 0.368243396
REMARK CNNaffinity 6.56311941
REMARK  10 active torsions:
REMARK  status: ('A' for Active; 'I' for Inactive)
REMARK    1  A    between atoms: C2_2  and  C3_3 
REMARK    2  A    between atoms: C3_3  and  C4_4 
REMARK    3  A    between atoms: C4_4  and  O1_5 
REMARK    4  A    between atoms: C4_4  and  C5_6 
REMARK    5  A    between atoms: C4_4  and  C26_30 
REMARK    6  A    between atoms: C17_18  and  O2_19 
REMARK    7  A    between atoms: C22_24  and  O3_25 
REMARK    8  A    between atoms: C27_32  and  C28_33 
REMARK    9  A    between atoms: C28_33  and  O6_35 
REMARK   10  A    between atoms: C28_33  and  C30_36 
ROOT
HETATM    1  C5  UNL     1       3.414   7.628  13.535  1.00  0.00     0.034 C 
HETATM    2  C6  UNL     1       3.584   8.517  14.844  1.00  0.00     0.016 C 
HETATM    3  C7  UNL     1       2.171   8.969  15.233  1.00  0.00     0.026 C 
HETATM    4  C8  UNL     1       1.810   9.204  16.688  1.00  0.00     0.013 C 
HETATM    5  C9  UNL     1       0.305   9.570  16.768  1.00  0.00     0.043 C 
HETATM    6  C10 UNL     1      -0.606   8.818  15.804  1.00  0.00    -0.006 C 
HETATM    7  C11 UNL     1      -0.155   8.032  14.806  1.00  0.00    -0.030 C 
HETATM    8  C12 UNL     1      -1.014   7.134  13.936  1.00  0.00     0.027 C 
HETATM    9  C13 UNL     1      -0.374   6.749  12.562  1.00  0.00     0.011 C 
HETATM   10  C14 UNL     1       1.161   6.557  12.561  1.00  0.00     0.014 C 
HETATM   11  C15 UNL     1       1.867   7.771  13.203  1.00  0.00    -0.002 C 
HETATM   12  C16 UNL     1       1.562   9.039  12.357  1.00  0.00     0.019 C 
HETATM   13  C17 UNL     1       1.314   7.858  14.645  1.00  0.00     0.094 C 
HETATM   14  C18 UNL     1      -2.488   7.664  13.815  1.00  0.00    -0.026 C 
HETATM   15  C19 UNL     1      -2.579   8.909  12.893  1.00  0.00     0.016 C 
HETATM   16  C20 UNL     1      -3.378   6.530  13.211  1.00  0.00     0.013 C 
HETATM   17  C21 UNL     1      -4.794   6.526  13.778  1.00  0.00     0.032 C 
HETATM   18  C22 UNL     1      -4.781   6.266  15.288  1.00  0.00     0.119 C 
HETATM   19  C23 UNL     1      -3.581   6.897  16.005  1.00  0.00     0.045 C 
HETATM   20  C24 UNL     1      -3.039   8.092  15.213  1.00  0.00     0.071 C 
HETATM   21  C25 UNL     1      -2.068   8.893  16.068  1.00  0.00     0.161 C 
HETATM   22  O4  UNL     1      -2.482   9.583  17.001  1.00  0.00    -0.292 OA
ENDROOT
BRANCH   1  23
HETATM   23  C4  UNL     1       4.495   7.888  12.423  1.00  0.00     0.091 C 
BRANCH  23  24
HETATM   24  C3  UNL     1       5.561   8.905  12.921  1.00  0.00     0.040 C 
BRANCH  24  25
HETATM   25  C2  UNL     1       7.011   8.413  13.074  1.00  0.00    -0.002 C 
HETATM   26  C1  UNL     1       7.390   7.973  14.479  1.00  0.00     0.005 C 
ENDBRANCH  24  25
ENDBRANCH  23  24
BRANCH  23  27
HETATM   27  O1  UNL     1       5.164   6.659  12.135  1.00  0.00    -0.387 OA
HETATM   28  H8  UNL     1       4.555   6.105  11.619  1.00  0.00     0.210 HD
ENDBRANCH  23  27
BRANCH  23  29
HETATM   29  C26 UNL     1       3.920   8.401  11.107  1.00  0.00     0.188 A 
HETATM   30  O5  UNL     1       4.799   8.476   9.980  1.00  0.00    -0.369 OA
HETATM   31  C27 UNL     1       3.744   7.505   9.890  1.00  0.00     0.188 A 
BRANCH  31  32
HETATM   32  C28 UNL     1       2.682   7.762   8.829  1.00  0.00     0.086 C 
HETATM   33  C29 UNL     1       3.133   8.821   7.803  1.00  0.00     0.049 C 
BRANCH  32  34
HETATM   34  O6  UNL     1       1.521   8.277   9.492  1.00  0.00    -0.387 OA
HETATM   35  H43 UNL     1       1.705   9.197   9.746  1.00  0.00     0.210 HD
ENDBRANCH  32  34
BRANCH  32  36
HETATM   36  C30 UNL     1       2.282   6.419   8.124  1.00  0.00     0.014 C 
HETATM   37  C31 UNL     1       3.263   5.271   8.406  1.00  0.00     0.012 C 
HETATM   38  C32 UNL     1       2.163   6.553   6.593  1.00  0.00     0.012 C 
ENDBRANCH  32  36
ENDBRANCH  31  32
ENDBRANCH  23  29
ENDBRANCH   1  23
BRANCH  13  39
HETATM   39  O2  UNL     1       1.606   6.619  15.328  1.00  0.00    -0.384 OA
HETATM   40  H25 UNL     1       1.159   6.632  16.191  1.00  0.00     0.211 HD
ENDBRANCH  13  39
BRANCH  18  41
HETATM   41  O3  UNL     1      -5.998   6.758  15.846  1.00  0.00    -0.396 OA
HETATM   42  H34 UNL     1      -5.974   7.731  15.828  1.00  0.00     0.210 HD
ENDBRANCH  18  41
TORSDOF 10
ENDMDL
MODEL 8
REMARK minimizedAffinity -7.36602449
REMARK CNNscore 0.359775841
REMARK CNNaffinity 6.15267515
REMARK  10 active torsions:
REMARK  status: ('A' for Active; 'I' for Inactive)
REMARK    1  A    between atoms: C2_2  and  C3_3 
REMARK    2  A    between atoms: C3_3  and  C4_4 
REMARK    3  A    between atoms: C4_4  and  O1_5 
REMARK    4  A    between atoms: C4_4  and  C5_6 
REMARK    5  A    between atoms: C4_4  and  C26_30 
REMARK    6  A    between atoms: C17_18  and  O2_19 
REMARK    7  A    between atoms: C22_24  and  O3_25 
REMARK    8  A    between atoms: C27_32  and  C28_33 
REMARK    9  A    between atoms: C28_33  and  O6_35 
REMARK   10  A    between atoms: C28_33  and  C30_36 
ROOT
HETATM    1  C5  UNL     1       0.216   8.830  14.476  1.00  0.00     0.034 C 
HETATM    2  C6  UNL     1       1.666   8.736  13.825  1.00  0.00     0.016 C 
HETATM    3  C7  UNL     1       2.564   9.656  14.662  1.00  0.00     0.026 C 
HETATM    4  C8  UNL     1       4.038   9.342  14.839  1.00  0.00     0.013 C 
HETATM    5  C9  UNL     1       4.654  10.397  15.793  1.00  0.00     0.043 C 
HETATM    6  C10 UNL     1       3.762  10.840  16.947  1.00  0.00    -0.006 C 
HETATM    7  C11 UNL     1       2.459  10.513  17.055  1.00  0.00    -0.030 C 
HETATM    8  C12 UNL     1       1.581  10.782  18.263  1.00  0.00     0.027 C 
HETATM    9  C13 UNL     1       0.046  10.799  17.964  1.00  0.00     0.011 C 
HETATM   10  C14 UNL     1      -0.443   9.809  16.880  1.00  0.00     0.014 C 
HETATM   11  C15 UNL     1       0.395   9.949  15.590  1.00  0.00    -0.002 C 
HETATM   12  C16 UNL     1       0.210  11.382  15.019  1.00  0.00     0.019 C 
HETATM   13  C17 UNL     1       1.853   9.647  16.008  1.00  0.00     0.094 C 
HETATM   14  C18 UNL     1       2.074  12.026  19.086  1.00  0.00    -0.026 C 
HETATM   15  C19 UNL     1       1.755  13.360  18.360  1.00  0.00     0.016 C 
HETATM   16  C20 UNL     1       1.349  12.027  20.470  1.00  0.00     0.013 C 
HETATM   17  C21 UNL     1       2.232  12.552  21.598  1.00  0.00     0.032 C 
HETATM   18  C22 UNL     1       3.467  11.664  21.789  1.00  0.00     0.119 C 
HETATM   19  C23 UNL     1       4.016  11.092  20.477  1.00  0.00     0.045 C 
HETATM   20  C24 UNL     1       3.622  11.978  19.289  1.00  0.00     0.071 C 
HETATM   21  C25 UNL     1       4.420  11.586  18.054  1.00  0.00     0.161 C 
HETATM   22  O4  UNL     1       5.619  11.857  17.976  1.00  0.00    -0.292 OA
ENDROOT
BRANCH   1  23
HETATM   23  C4  UNL     1      -0.961   8.921  13.437  1.00  0.00     0.091 C 
BRANCH  23  24
HETATM   24  C3  UNL     1      -2.276   8.361  14.048  1.00  0.00     0.040 C 
BRANCH  24  25
HETATM   25  C2  UNL     1      -3.364   7.860  13.082  1.00  0.00    -0.002 C 
HETATM   26  C1  UNL     1      -3.797   6.419  13.301  1.00  0.00     0.005 C 
ENDBRANCH  24  25
ENDBRANCH  23  24
BRANCH  23  27
HETATM   27  O1  UNL     1      -1.181  10.295  13.110  1.00  0.00    -0.387 OA
HETATM   28  H8  UNL     1      -0.454  10.580  12.532  1.00  0.00     0.210 HD
ENDBRANCH  23  27
BRANCH  23  29
HETATM   29  C26 UNL     1      -0.690   8.190  12.126  1.00  0.00     0.188 A 
HETATM   30  O5  UNL     1      -1.055   8.847  10.909  1.00  0.00    -0.369 OA
HETATM   31  C27 UNL     1       0.353   8.667  11.127  1.00  0.00     0.188 A 
BRANCH  31  32
HETATM   32  C28 UNL     1       1.065   7.721  10.170  1.00  0.00     0.086 C 
HETATM   33  C29 UNL     1       0.782   8.065   8.694  1.00  0.00     0.049 C 
BRANCH  32  34
HETATM   34  O6  UNL     1       0.557   6.401  10.405  1.00  0.00    -0.387 OA
HETATM   35  H43 UNL     1      -0.337   6.353  10.026  1.00  0.00     0.210 HD
ENDBRANCH  32  34
BRANCH  32  36
HETATM   36  C30 UNL     1       2.605   7.706  10.466  1.00  0.00     0.014 C 
HETATM   37  C31 UNL     1       3.465   7.989   9.224  1.00  0.00     0.012 C 
HETATM   38  C32 UNL     1       3.092   6.372  11.065  1.00  0.00     0.012 C 
ENDBRANCH  32  36
ENDBRANCH  31  32
ENDBRANCH  23  29
ENDBRANCH   1  23
BRANCH  13  39
HETATM   39  O2  UNL     1       1.909   8.315  16.566  1.00  0.00    -0.384 OA
HETATM   40  H25 UNL     1       2.798   8.173  16.932  1.00  0.00     0.211 HD
ENDBRANCH  13  39
BRANCH  18  41
HETATM   41  O3  UNL     1       4.476  12.423  22.452  1.00  0.00    -0.396 OA
HETATM   42  H34 UNL     1       4.822  13.085  21.830  1.00  0.00     0.210 HD
ENDBRANCH  18  41
TORSDOF 10
ENDMDL
MODEL 9
REMARK minimizedAffinity -7.31391668
REMARK CNNscore 0.358672023
REMARK CNNaffinity 6.46262598
REMARK  10 active torsions:
REMARK  status: ('A' for Active; 'I' for Inactive)
REMARK    1  A    between atoms: C2_2  and  C3_3 
REMARK    2  A    between atoms: C3_3  and  C4_4 
REMARK    3  A    between atoms: C4_4  and  O1_5 
REMARK    4  A    between atoms: C4_4  and  C5_6 
REMARK    5  A    between atoms: C4_4  and  C26_30 
REMARK    6  A    between atoms: C17_18  and  O2_19 
REMARK    7  A    between atoms: C22_24  and  O3_25 
REMARK    8  A    between atoms: C27_32  and  C28_33 
REMARK    9  A    between atoms: C28_33  and  O6_35 
REMARK   10  A    between atoms: C28_33  and  C30_36 
ROOT
HETATM    1  C5  UNL     1       3.099   9.697  13.517  1.00  0.00     0.034 C 
HETATM    2  C6  UNL     1       3.006  10.997  14.430  1.00  0.00     0.016 C 
HETATM    3  C7  UNL     1       4.347  11.090  15.170  1.00  0.00     0.026 C 
HETATM    4  C8  UNL     1       4.924  12.440  15.553  1.00  0.00     0.013 C 
HETATM    5  C9  UNL     1       6.312  12.213  16.207  1.00  0.00     0.043 C 
HETATM    6  C10 UNL     1       7.154  11.101  15.593  1.00  0.00    -0.006 C 
HETATM    7  C11 UNL     1       6.689  10.227  14.678  1.00  0.00    -0.030 C 
HETATM    8  C12 UNL     1       7.530   9.221  13.916  1.00  0.00     0.027 C 
HETATM    9  C13 UNL     1       6.731   8.008  13.335  1.00  0.00     0.011 C 
HETATM   10  C14 UNL     1       5.294   8.314  12.849  1.00  0.00     0.014 C 
HETATM   11  C15 UNL     1       4.493   9.061  13.939  1.00  0.00    -0.002 C 
HETATM   12  C16 UNL     1       4.370   8.150  15.191  1.00  0.00     0.019 C 
HETATM   13  C17 UNL     1       5.282  10.363  14.214  1.00  0.00     0.094 C 
HETATM   14  C18 UNL     1       8.816   8.800  14.713  1.00  0.00    -0.026 C 
HETATM   15  C19 UNL     1       8.477   7.856  15.898  1.00  0.00     0.016 C 
HETATM   16  C20 UNL     1       9.784   8.052  13.741  1.00  0.00     0.013 C 
HETATM   17  C21 UNL     1      11.253   8.327  14.044  1.00  0.00     0.032 C 
HETATM   18  C22 UNL     1      11.581   9.814  13.873  1.00  0.00     0.119 C 
HETATM   19  C23 UNL     1      10.439  10.744  14.300  1.00  0.00     0.045 C 
HETATM   20  C24 UNL     1       9.526  10.053  15.320  1.00  0.00     0.071 C 
HETATM   21  C25 UNL     1       8.595  11.069  15.965  1.00  0.00     0.161 C 
HETATM   22  O4  UNL     1       9.032  11.889  16.774  1.00  0.00    -0.292 OA
ENDROOT
BRANCH   1  23
HETATM   23  C4  UNL     1       1.796   8.817  13.499  1.00  0.00     0.091 C 
BRANCH  23  24
HETATM   24  C3  UNL     1       1.665   8.003  14.817  1.00  0.00     0.040 C 
BRANCH  24  25
HETATM   25  C2  UNL     1       0.534   8.382  15.789  1.00  0.00    -0.002 C 
HETATM   26  C1  UNL     1      -0.692   7.485  15.721  1.00  0.00     0.005 C 
ENDBRANCH  24  25
ENDBRANCH  23  24
BRANCH  23  27
HETATM   27  O1  UNL     1       0.660   9.678  13.402  1.00  0.00    -0.387 OA
HETATM   28  H8  UNL     1       0.622  10.014  12.491  1.00  0.00     0.210 HD
ENDBRANCH  23  27
BRANCH  23  29
HETATM   29  C26 UNL     1       1.720   7.846  12.325  1.00  0.00     0.188 A 
HETATM   30  O5  UNL     1       0.486   7.768  11.604  1.00  0.00    -0.369 OA
HETATM   31  C27 UNL     1       1.601   8.317  10.884  1.00  0.00     0.188 A 
BRANCH  31  32
HETATM   32  C28 UNL     1       2.111   7.495   9.707  1.00  0.00     0.086 C 
HETATM   33  C29 UNL     1       1.745   6.004   9.840  1.00  0.00     0.049 C 
BRANCH  32  34
HETATM   34  O6  UNL     1       3.541   7.585   9.703  1.00  0.00    -0.387 OA
HETATM   35  H43 UNL     1       3.878   7.033  10.428  1.00  0.00     0.210 HD
ENDBRANCH  32  34
BRANCH  32  36
HETATM   36  C30 UNL     1       1.584   8.094   8.357  1.00  0.00     0.014 C 
HETATM   37  C31 UNL     1       0.066   8.335   8.352  1.00  0.00     0.012 C 
HETATM   38  C32 UNL     1       1.911   7.212   7.136  1.00  0.00     0.012 C 
ENDBRANCH  32  36
ENDBRANCH  31  32
ENDBRANCH  23  29
ENDBRANCH   1  23
BRANCH  13  39
HETATM   39  O2  UNL     1       5.382  11.114  12.983  1.00  0.00    -0.384 OA
HETATM   40  H25 UNL     1       5.973  11.870  13.132  1.00  0.00     0.211 HD
ENDBRANCH  13  39
BRANCH  18  41
HETATM   41  O3  UNL     1      12.758  10.111  14.623  1.00  0.00    -0.396 OA
HETATM   42  H34 UNL     1      12.535  10.080  15.570  1.00  0.00     0.210 HD
ENDBRANCH  18  41
TORSDOF 10
ENDMDL
