MODEL 1
REMARK minimizedAffinity -8.46842098
REMARK CNNscore 0.391494602
REMARK CNNaffinity 7.55362844
REMARK  19 active torsions:
REMARK  status: ('A' for Active; 'I' for Inactive)
REMARK    1  A    between atoms: C2_2  and  C3_3 
REMARK    2  A    between atoms: C3_3  and  C4_4 
REMARK    3  A    between atoms: C4_4  and  S1_5 
REMARK    4  A    between atoms: C4_4  and  C15_25 
REMARK    5  A    between atoms: S1_5  and  C5_6 
REMARK    6  A    between atoms: C5_6  and  C6_7 
REMARK    7  A    between atoms: C6_7  and  N1_8 
REMARK    8  A    between atoms: C6_7  and  C12_18 
REMARK       I    between atoms: N1_8  and  C7_9 
REMARK    9  A    between atoms: C7_9  and  C8_11 
REMARK   10  A    between atoms: C8_11  and  C9_12 
REMARK   11  A    between atoms: C9_12  and  C10_13 
REMARK   12  A    between atoms: C10_13  and  N2_14 
REMARK   13  A    between atoms: C10_13  and  C11_15 
REMARK   14  A    between atoms: C11_15  and  O3_17 
REMARK       I    between atoms: C12_18  and  N3_20 
REMARK   15  A    between atoms: N3_20  and  C13_21 
REMARK   16  A    between atoms: C13_21  and  C14_22 
REMARK   17  A    between atoms: C14_22  and  O6_24 
REMARK   18  A    between atoms: C19_29  and  C20_30 
REMARK   19  A    between atoms: C20_30  and  C21_31 
ROOT
HETATM    1  S1  UNL     1      -2.913   5.906  15.036  1.00  0.00    -0.154 SA
ENDROOT
BRANCH   1   2
HETATM    2  C4  UNL     1      -2.034   7.487  15.449  1.00  0.00     0.113 C 
BRANCH   2   3
HETATM    3  C3  UNL     1      -2.630   8.873  14.958  1.00  0.00    -0.022 C 
HETATM    4  C30 UNL     1      -1.829  10.121  15.426  1.00  0.00     0.011 C 
HETATM    5  C31 UNL     1      -2.839  11.081  16.042  1.00  0.00     0.001 C 
HETATM    6  C32 UNL     1      -3.870  10.161  16.658  1.00  0.00     0.001 C 
HETATM    7  C33 UNL     1      -4.042   9.074  15.606  1.00  0.00     0.011 C 
BRANCH   3   8
HETATM    8  C2  UNL     1      -2.757   8.844  13.401  1.00  0.00     0.006 C 
HETATM    9  C1  UNL     1      -4.146   8.592  12.814  1.00  0.00     0.006 C 
ENDBRANCH   3   8
ENDBRANCH   2   3
BRANCH   2  10
HETATM   10  C15 UNL     1      -0.543   7.263  15.268  1.00  0.00     0.075 C 
HETATM   11  C16 UNL     1       0.096   6.758  14.213  1.00  0.00    -0.031 C 
HETATM   12  C17 UNL     1      -0.363   6.341  12.858  1.00  0.00     0.042 C 
HETATM   13  C28 UNL     1       1.561   6.805  14.436  1.00  0.00     0.140 C 
HETATM   14  C18 UNL     1       0.271   7.262  11.799  1.00  0.00     0.038 C 
HETATM   15  C19 UNL     1       1.703   7.694  12.094  1.00  0.00    -0.078 C 
HETATM   16  C27 UNL     1       2.276   7.474  13.297  1.00  0.00    -0.005 C 
HETATM   17  C29 UNL     1       1.586   7.570  15.753  1.00  0.00     0.275 C 
HETATM   18  O7  UNL     1       2.592   7.979  16.322  1.00  0.00    -0.264 OA
HETATM   19  O8  UNL     1       0.319   7.706  16.280  1.00  0.00    -0.281 OA
BRANCH  15  20
HETATM   20  C20 UNL     1       2.448   8.389  10.972  1.00  0.00     0.072 C 
BRANCH  20  21
HETATM   21  C21 UNL     1       2.430   7.621   9.670  1.00  0.00    -0.054 A 
HETATM   22  C22 UNL     1       1.875   8.190   8.514  1.00  0.00     0.007 A 
HETATM   23  C23 UNL     1       1.889   7.494   7.304  1.00  0.00     0.001 A 
HETATM   24  C24 UNL     1       2.455   6.224   7.239  1.00  0.00     0.000 A 
HETATM   25  C25 UNL     1       3.008   5.645   8.381  1.00  0.00     0.001 A 
HETATM   26  C26 UNL     1       2.993   6.339   9.591  1.00  0.00     0.007 A 
ENDBRANCH  20  21
ENDBRANCH  15  20
ENDBRANCH   2  10
ENDBRANCH   1   2
BRANCH   1  27
HETATM   27  C5  UNL     1      -4.670   6.321  15.318  1.00  0.00     0.109 C 
BRANCH  27  28
HETATM   28  C6  UNL     1      -5.636   5.431  14.509  1.00  0.00     0.185 C 
BRANCH  28  29
HETATM   29  N1  UNL     1      -4.936   4.899  13.323  1.00  0.00    -0.347 N 
HETATM   30  C7  UNL     1      -5.413   3.808  12.629  1.00  0.00     0.218 C 
HETATM   31  O1  UNL     1      -6.409   3.176  12.952  1.00  0.00    -0.274 OA
HETATM   32  H10 UNL     1      -4.212   5.473  12.902  1.00  0.00     0.163 HD
BRANCH  30  33
HETATM   33  C8  UNL     1      -4.585   3.444  11.413  1.00  0.00     0.105 C 
BRANCH  33  34
HETATM   34  C9  UNL     1      -3.082   3.448  11.712  1.00  0.00     0.056 C 
BRANCH  34  35
HETATM   35  C10 UNL     1      -2.300   2.323  11.020  1.00  0.00     0.315 C 
BRANCH  35  36
HETATM   36  N2  UNL     1      -2.839   1.003  11.403  1.00  0.00     0.093 N 
HETATM   37  H16 UNL     1      -3.861   1.035  11.383  1.00  0.00     0.314 HD
HETATM   38  H17 UNL     1      -2.571   0.813  12.372  1.00  0.00     0.314 HD
ENDBRANCH  35  36
BRANCH  35  39
HETATM   39  C11 UNL     1      -0.808   2.409  11.359  1.00  0.00     0.173 C 
HETATM   40  O2  UNL     1      -0.301   3.237  12.106  1.00  0.00    -0.648 OA
BRANCH  39  41
HETATM   41  O3  UNL     1      -0.069   1.414  10.826  1.00  0.00    -0.775 OA
HETATM   42  H18 UNL     1       0.855   1.613  11.087  1.00  0.00     0.167 HD
ENDBRANCH  39  41
ENDBRANCH  35  39
ENDBRANCH  34  35
ENDBRANCH  33  34
ENDBRANCH  30  33
ENDBRANCH  28  29
BRANCH  28  43
HETATM   43  C12 UNL     1      -6.897   6.237  14.108  1.00  0.00     0.241 C 
HETATM   44  O4  UNL     1      -6.965   6.898  13.072  1.00  0.00    -0.271 OA
HETATM   45  N3  UNL     1      -7.931   6.232  15.022  1.00  0.00    -0.349 N 
HETATM   46  H19 UNL     1      -7.968   5.491  15.711  1.00  0.00     0.163 HD
BRANCH  45  47
HETATM   47  C13 UNL     1      -9.192   6.879  14.700  1.00  0.00     0.232 C 
BRANCH  47  48
HETATM   48  C14 UNL     1      -9.728   7.771  15.816  1.00  0.00     0.158 C 
HETATM   49  O5  UNL     1     -10.603   8.616  15.689  1.00  0.00    -0.649 OA
BRANCH  48  50
HETATM   50  O6  UNL     1      -9.143   7.594  17.021  1.00  0.00    -0.775 OA
HETATM   51  H22 UNL     1      -9.669   8.181  17.606  1.00  0.00     0.167 HD
ENDBRANCH  48  50
ENDBRANCH  47  48
ENDBRANCH  45  47
ENDBRANCH  28  43
ENDBRANCH  27  28
ENDBRANCH   1  27
TORSDOF 19
ENDMDL
MODEL 2
REMARK minimizedAffinity -8.72147369
REMARK CNNscore 0.301072955
REMARK CNNaffinity 7.28023529
REMARK  19 active torsions:
REMARK  status: ('A' for Active; 'I' for Inactive)
REMARK    1  A    between atoms: C2_2  and  C3_3 
REMARK    2  A    between atoms: C3_3  and  C4_4 
REMARK    3  A    between atoms: C4_4  and  S1_5 
REMARK    4  A    between atoms: C4_4  and  C15_25 
REMARK    5  A    between atoms: S1_5  and  C5_6 
REMARK    6  A    between atoms: C5_6  and  C6_7 
REMARK    7  A    between atoms: C6_7  and  N1_8 
REMARK    8  A    between atoms: C6_7  and  C12_18 
REMARK       I    between atoms: N1_8  and  C7_9 
REMARK    9  A    between atoms: C7_9  and  C8_11 
REMARK   10  A    between atoms: C8_11  and  C9_12 
REMARK   11  A    between atoms: C9_12  and  C10_13 
REMARK   12  A    between atoms: C10_13  and  N2_14 
REMARK   13  A    between atoms: C10_13  and  C11_15 
REMARK   14  A    between atoms: C11_15  and  O3_17 
REMARK       I    between atoms: C12_18  and  N3_20 
REMARK   15  A    between atoms: N3_20  and  C13_21 
REMARK   16  A    between atoms: C13_21  and  C14_22 
REMARK   17  A    between atoms: C14_22  and  O6_24 
REMARK   18  A    between atoms: C19_29  and  C20_30 
REMARK   19  A    between atoms: C20_30  and  C21_31 
ROOT
HETATM    1  S1  UNL     1       1.398   6.875  13.638  1.00  0.00    -0.154 SA
ENDROOT
BRANCH   1   2
HETATM    2  C4  UNL     1       1.180   6.190  11.928  1.00  0.00     0.113 C 
BRANCH   2   3
HETATM    3  C3  UNL     1       1.402   7.128  10.668  1.00  0.00    -0.022 C 
HETATM    4  C30 UNL     1       1.930   6.394   9.404  1.00  0.00     0.011 C 
HETATM    5  C31 UNL     1       3.136   7.186   8.911  1.00  0.00     0.001 C 
HETATM    6  C32 UNL     1       3.746   7.726  10.186  1.00  0.00     0.001 C 
HETATM    7  C33 UNL     1       2.534   8.159  10.999  1.00  0.00     0.011 C 
BRANCH   3   8
HETATM    8  C2  UNL     1       0.068   7.882  10.359  1.00  0.00     0.006 C 
HETATM    9  C1  UNL     1      -0.083   8.504   8.972  1.00  0.00     0.006 C 
ENDBRANCH   3   8
ENDBRANCH   2   3
BRANCH   2  10
HETATM   10  C15 UNL     1      -0.048   5.297  11.927  1.00  0.00     0.075 C 
HETATM   11  C16 UNL     1      -0.983   5.175  12.869  1.00  0.00    -0.031 C 
HETATM   12  C17 UNL     1      -1.224   5.891  14.153  1.00  0.00     0.042 C 
HETATM   13  C28 UNL     1      -2.049   4.252  12.409  1.00  0.00     0.140 C 
HETATM   14  C18 UNL     1      -2.549   6.671  14.061  1.00  0.00     0.038 C 
HETATM   15  C19 UNL     1      -3.657   5.971  13.280  1.00  0.00    -0.078 C 
HETATM   16  C27 UNL     1      -3.412   4.870  12.538  1.00  0.00    -0.005 C 
HETATM   17  C29 UNL     1      -1.577   4.022  10.979  1.00  0.00     0.275 C 
HETATM   18  O7  UNL     1      -2.191   3.405  10.116  1.00  0.00    -0.264 OA
HETATM   19  O8  UNL     1      -0.320   4.549  10.774  1.00  0.00    -0.281 OA
BRANCH  15  20
HETATM   20  C20 UNL     1      -5.042   6.579  13.373  1.00  0.00     0.072 C 
BRANCH  20  21
HETATM   21  C21 UNL     1      -6.155   5.565  13.240  1.00  0.00    -0.054 A 
HETATM   22  C22 UNL     1      -7.467   5.979  12.965  1.00  0.00     0.007 A 
HETATM   23  C23 UNL     1      -8.489   5.041  12.808  1.00  0.00     0.001 A 
HETATM   24  C24 UNL     1      -8.209   3.682  12.927  1.00  0.00     0.000 A 
HETATM   25  C25 UNL     1      -6.910   3.257  13.203  1.00  0.00     0.001 A 
HETATM   26  C26 UNL     1      -5.889   4.193  13.361  1.00  0.00     0.007 A 
ENDBRANCH  20  21
ENDBRANCH  15  20
ENDBRANCH   2  10
ENDBRANCH   1   2
BRANCH   1  27
HETATM   27  C5  UNL     1       0.524   8.478  13.561  1.00  0.00     0.109 C 
BRANCH  27  28
HETATM   28  C6  UNL     1       1.214   9.581  14.389  1.00  0.00     0.185 C 
BRANCH  28  29
HETATM   29  N1  UNL     1       2.677   9.397  14.330  1.00  0.00    -0.347 N 
HETATM   30  C7  UNL     1       3.376   8.803  15.358  1.00  0.00     0.218 C 
HETATM   31  O1  UNL     1       2.862   8.423  16.402  1.00  0.00    -0.274 OA
HETATM   32  H10 UNL     1       3.135   9.528  13.433  1.00  0.00     0.163 HD
BRANCH  30  33
HETATM   33  C8  UNL     1       4.861   8.660  15.090  1.00  0.00     0.105 C 
BRANCH  33  34
HETATM   34  C9  UNL     1       5.175   8.594  13.591  1.00  0.00     0.056 C 
BRANCH  34  35
HETATM   35  C10 UNL     1       6.049   7.399  13.184  1.00  0.00     0.315 C 
BRANCH  35  36
HETATM   36  N2  UNL     1       6.369   6.566  14.360  1.00  0.00     0.093 N 
HETATM   37  H16 UNL     1       5.528   6.443  14.929  1.00  0.00     0.314 HD
HETATM   38  H17 UNL     1       7.045   7.069  14.940  1.00  0.00     0.314 HD
ENDBRANCH  35  36
BRANCH  35  39
HETATM   39  C11 UNL     1       7.336   7.875  12.501  1.00  0.00     0.173 C 
HETATM   40  O2  UNL     1       8.471   7.682  12.920  1.00  0.00    -0.648 OA
BRANCH  39  41
HETATM   41  O3  UNL     1       7.131   8.469  11.307  1.00  0.00    -0.775 OA
HETATM   42  H18 UNL     1       8.021   8.752  11.006  1.00  0.00     0.167 HD
ENDBRANCH  39  41
ENDBRANCH  35  39
ENDBRANCH  34  35
ENDBRANCH  33  34
ENDBRANCH  30  33
ENDBRANCH  28  29
BRANCH  28  43
HETATM   43  C12 UNL     1       0.700   9.553  15.851  1.00  0.00     0.241 C 
HETATM   44  O4  UNL     1      -0.038   8.666  16.281  1.00  0.00    -0.271 OA
HETATM   45  N3  UNL     1       1.059  10.627  16.638  1.00  0.00    -0.349 N 
HETATM   46  H19 UNL     1       1.860  11.184  16.364  1.00  0.00     0.163 HD
BRANCH  45  47
HETATM   47  C13 UNL     1       0.707  10.650  18.048  1.00  0.00     0.232 C 
BRANCH  47  48
HETATM   48  C14 UNL     1       1.911  10.728  18.981  1.00  0.00     0.158 C 
HETATM   49  O5  UNL     1       2.504   9.768  19.454  1.00  0.00    -0.649 OA
BRANCH  48  50
HETATM   50  O6  UNL     1       2.305  11.979  19.305  1.00  0.00    -0.775 OA
HETATM   51  H22 UNL     1       3.120  11.821  19.828  1.00  0.00     0.167 HD
ENDBRANCH  48  50
ENDBRANCH  47  48
ENDBRANCH  45  47
ENDBRANCH  28  43
ENDBRANCH  27  28
ENDBRANCH   1  27
TORSDOF 19
ENDMDL
MODEL 3
REMARK minimizedAffinity -8.25598621
REMARK CNNscore 0.23659192
REMARK CNNaffinity 7.06243324
REMARK  19 active torsions:
REMARK  status: ('A' for Active; 'I' for Inactive)
REMARK    1  A    between atoms: C2_2  and  C3_3 
REMARK    2  A    between atoms: C3_3  and  C4_4 
REMARK    3  A    between atoms: C4_4  and  S1_5 
REMARK    4  A    between atoms: C4_4  and  C15_25 
REMARK    5  A    between atoms: S1_5  and  C5_6 
REMARK    6  A    between atoms: C5_6  and  C6_7 
REMARK    7  A    between atoms: C6_7  and  N1_8 
REMARK    8  A    between atoms: C6_7  and  C12_18 
REMARK       I    between atoms: N1_8  and  C7_9 
REMARK    9  A    between atoms: C7_9  and  C8_11 
REMARK   10  A    between atoms: C8_11  and  C9_12 
REMARK   11  A    between atoms: C9_12  and  C10_13 
REMARK   12  A    between atoms: C10_13  and  N2_14 
REMARK   13  A    between atoms: C10_13  and  C11_15 
REMARK   14  A    between atoms: C11_15  and  O3_17 
REMARK       I    between atoms: C12_18  and  N3_20 
REMARK   15  A    between atoms: N3_20  and  C13_21 
REMARK   16  A    between atoms: C13_21  and  C14_22 
REMARK   17  A    between atoms: C14_22  and  O6_24 
REMARK   18  A    between atoms: C19_29  and  C20_30 
REMARK   19  A    between atoms: C20_30  and  C21_31 
ROOT
HETATM    1  S1  UNL     1       1.213   7.248  13.552  1.00  0.00    -0.154 SA
ENDROOT
BRANCH   1   2
HETATM    2  C4  UNL     1       1.112   6.395  11.908  1.00  0.00     0.113 C 
BRANCH   2   3
HETATM    3  C3  UNL     1       1.368   7.216  10.575  1.00  0.00    -0.022 C 
HETATM    4  C30 UNL     1       1.831   6.356   9.367  1.00  0.00     0.011 C 
HETATM    5  C31 UNL     1       3.073   7.033   8.799  1.00  0.00     0.001 C 
HETATM    6  C32 UNL     1       3.735   7.633  10.020  1.00  0.00     0.001 C 
HETATM    7  C33 UNL     1       2.564   8.200  10.811  1.00  0.00     0.011 C 
BRANCH   3   8
HETATM    8  C2  UNL     1       0.077   8.023  10.224  1.00  0.00     0.006 C 
HETATM    9  C1  UNL     1      -0.054   8.557   8.798  1.00  0.00     0.006 C 
ENDBRANCH   3   8
ENDBRANCH   2   3
BRANCH   2  10
HETATM   10  C15 UNL     1      -0.081   5.456  11.933  1.00  0.00     0.075 C 
HETATM   11  C16 UNL     1      -1.019   5.334  12.872  1.00  0.00    -0.031 C 
HETATM   12  C17 UNL     1      -1.297   6.088  14.126  1.00  0.00     0.042 C 
HETATM   13  C28 UNL     1      -2.045   4.354  12.440  1.00  0.00     0.140 C 
HETATM   14  C18 UNL     1      -2.650   6.812  13.996  1.00  0.00     0.038 C 
HETATM   15  C19 UNL     1      -3.724   6.043  13.235  1.00  0.00    -0.078 C 
HETATM   16  C27 UNL     1      -3.432   4.925  12.536  1.00  0.00    -0.005 C 
HETATM   17  C29 UNL     1      -1.553   4.089  11.023  1.00  0.00     0.275 C 
HETATM   18  O7  UNL     1      -2.136   3.417  10.179  1.00  0.00    -0.264 OA
HETATM   19  O8  UNL     1      -0.315   4.656  10.807  1.00  0.00    -0.281 OA
BRANCH  15  20
HETATM   20  C20 UNL     1      -5.131   6.601  13.295  1.00  0.00     0.072 C 
BRANCH  20  21
HETATM   21  C21 UNL     1      -6.204   5.542  13.175  1.00  0.00    -0.054 A 
HETATM   22  C22 UNL     1      -7.544   5.906  12.971  1.00  0.00     0.007 A 
HETATM   23  C23 UNL     1      -8.530   4.928  12.826  1.00  0.00     0.001 A 
HETATM   24  C24 UNL     1      -8.187   3.580  12.886  1.00  0.00     0.000 A 
HETATM   25  C25 UNL     1      -6.859   3.205  13.091  1.00  0.00     0.001 A 
HETATM   26  C26 UNL     1      -5.873   4.181  13.237  1.00  0.00     0.007 A 
ENDBRANCH  20  21
ENDBRANCH  15  20
ENDBRANCH   2  10
ENDBRANCH   1   2
BRANCH   1  27
HETATM   27  C5  UNL     1       2.966   7.756  13.651  1.00  0.00     0.109 C 
BRANCH  27  28
HETATM   28  C6  UNL     1       3.413   8.098  15.088  1.00  0.00     0.185 C 
BRANCH  28  29
HETATM   29  N1  UNL     1       2.414   8.985  15.715  1.00  0.00    -0.347 N 
HETATM   30  C7  UNL     1       2.211  10.275  15.273  1.00  0.00     0.218 C 
HETATM   31  O1  UNL     1       2.854  10.796  14.372  1.00  0.00    -0.274 OA
HETATM   32  H10 UNL     1       1.735   8.566  16.343  1.00  0.00     0.163 HD
BRANCH  30  33
HETATM   33  C8  UNL     1       1.110  11.010  16.010  1.00  0.00     0.105 C 
BRANCH  33  34
HETATM   34  C9  UNL     1       0.725  10.314  17.321  1.00  0.00     0.056 C 
BRANCH  34  35
HETATM   35  C10 UNL     1       1.221  11.032  18.584  1.00  0.00     0.315 C 
BRANCH  35  36
HETATM   36  N2  UNL     1       1.265  12.492  18.367  1.00  0.00     0.093 N 
HETATM   37  H16 UNL     1       0.416  12.790  17.882  1.00  0.00     0.314 HD
HETATM   38  H17 UNL     1       2.049  12.703  17.744  1.00  0.00     0.314 HD
ENDBRANCH  35  36
BRANCH  35  39
HETATM   39  C11 UNL     1       2.601  10.511  18.999  1.00  0.00     0.173 C 
HETATM   40  O2  UNL     1       3.669  10.902  18.544  1.00  0.00    -0.648 OA
BRANCH  39  41
HETATM   41  O3  UNL     1       2.565   9.616  20.008  1.00  0.00    -0.775 OA
HETATM   42  H18 UNL     1       3.497   9.343  20.141  1.00  0.00     0.167 HD
ENDBRANCH  39  41
ENDBRANCH  35  39
ENDBRANCH  34  35
ENDBRANCH  33  34
ENDBRANCH  30  33
ENDBRANCH  28  29
BRANCH  28  43
HETATM   43  C12 UNL     1       4.818   8.751  15.069  1.00  0.00     0.241 C 
HETATM   44  O4  UNL     1       5.400   9.111  16.093  1.00  0.00    -0.271 OA
HETATM   45  N3  UNL     1       5.362   8.977  13.822  1.00  0.00    -0.349 N 
HETATM   46  H19 UNL     1       5.010   8.446  13.034  1.00  0.00     0.163 HD
BRANCH  45  47
HETATM   47  C13 UNL     1       6.713   9.499  13.698  1.00  0.00     0.232 C 
BRANCH  47  48
HETATM   48  C14 UNL     1       7.381   9.167  12.367  1.00  0.00     0.158 C 
HETATM   49  O5  UNL     1       7.696   9.980  11.510  1.00  0.00    -0.649 OA
BRANCH  48  50
HETATM   50  O6  UNL     1       7.601   7.851  12.148  1.00  0.00    -0.775 OA
HETATM   51  H22 UNL     1       8.099   7.852  11.304  1.00  0.00     0.167 HD
ENDBRANCH  48  50
ENDBRANCH  47  48
ENDBRANCH  45  47
ENDBRANCH  28  43
ENDBRANCH  27  28
ENDBRANCH   1  27
TORSDOF 19
ENDMDL
MODEL 4
REMARK minimizedAffinity -8.78149986
REMARK CNNscore 0.162075609
REMARK CNNaffinity 6.91798401
REMARK  19 active torsions:
REMARK  status: ('A' for Active; 'I' for Inactive)
REMARK    1  A    between atoms: C2_2  and  C3_3 
REMARK    2  A    between atoms: C3_3  and  C4_4 
REMARK    3  A    between atoms: C4_4  and  S1_5 
REMARK    4  A    between atoms: C4_4  and  C15_25 
REMARK    5  A    between atoms: S1_5  and  C5_6 
REMARK    6  A    between atoms: C5_6  and  C6_7 
REMARK    7  A    between atoms: C6_7  and  N1_8 
REMARK    8  A    between atoms: C6_7  and  C12_18 
REMARK       I    between atoms: N1_8  and  C7_9 
REMARK    9  A    between atoms: C7_9  and  C8_11 
REMARK   10  A    between atoms: C8_11  and  C9_12 
REMARK   11  A    between atoms: C9_12  and  C10_13 
REMARK   12  A    between atoms: C10_13  and  N2_14 
REMARK   13  A    between atoms: C10_13  and  C11_15 
REMARK   14  A    between atoms: C11_15  and  O3_17 
REMARK       I    between atoms: C12_18  and  N3_20 
REMARK   15  A    between atoms: N3_20  and  C13_21 
REMARK   16  A    between atoms: C13_21  and  C14_22 
REMARK   17  A    between atoms: C14_22  and  O6_24 
REMARK   18  A    between atoms: C19_29  and  C20_30 
REMARK   19  A    between atoms: C20_30  and  C21_31 
ROOT
HETATM    1  S1  UNL     1       0.228   7.814  10.507  1.00  0.00    -0.154 SA
ENDROOT
BRANCH   1   2
HETATM    2  C4  UNL     1      -0.436   7.471  12.205  1.00  0.00     0.113 C 
BRANCH   2   3
HETATM    3  C3  UNL     1       0.285   8.090  13.475  1.00  0.00    -0.022 C 
HETATM    4  C30 UNL     1       0.860   7.040  14.466  1.00  0.00     0.011 C 
HETATM    5  C31 UNL     1       0.353   7.424  15.851  1.00  0.00     0.001 C 
HETATM    6  C32 UNL     1      -1.009   8.023  15.574  1.00  0.00     0.001 C 
HETATM    7  C33 UNL     1      -0.773   8.867  14.329  1.00  0.00     0.011 C 
BRANCH   3   8
HETATM    8  C2  UNL     1       1.402   9.070  12.992  1.00  0.00     0.006 C 
HETATM    9  C1  UNL     1       1.946  10.074  14.008  1.00  0.00     0.006 C 
ENDBRANCH   3   8
ENDBRANCH   2   3
BRANCH   2  10
HETATM   10  C15 UNL     1      -0.837   6.008  12.272  1.00  0.00     0.075 C 
HETATM   11  C16 UNL     1      -1.808   5.447  12.992  1.00  0.00    -0.031 C 
HETATM   12  C17 UNL     1      -2.869   6.013  13.872  1.00  0.00     0.042 C 
HETATM   13  C28 UNL     1      -1.900   4.000  12.680  1.00  0.00     0.140 C 
HETATM   14  C18 UNL     1      -4.250   5.726  13.255  1.00  0.00     0.038 C 
HETATM   15  C19 UNL     1      -4.379   4.374  12.562  1.00  0.00    -0.078 C 
HETATM   16  C27 UNL     1      -3.301   3.600  12.313  1.00  0.00    -0.005 C 
HETATM   17  C29 UNL     1      -0.889   3.928  11.543  1.00  0.00     0.275 C 
HETATM   18  O7  UNL     1      -0.670   2.944  10.844  1.00  0.00    -0.264 OA
HETATM   19  O8  UNL     1      -0.184   5.106  11.421  1.00  0.00    -0.281 OA
BRANCH  15  20
HETATM   20  C20 UNL     1      -5.777   3.947  12.161  1.00  0.00     0.072 C 
BRANCH  20  21
HETATM   21  C21 UNL     1      -6.869   4.711  12.875  1.00  0.00    -0.054 A 
HETATM   22  C22 UNL     1      -6.841   4.856  14.271  1.00  0.00     0.007 A 
HETATM   23  C23 UNL     1      -7.831   5.591  14.927  1.00  0.00     0.001 A 
HETATM   24  C24 UNL     1      -8.856   6.183  14.196  1.00  0.00     0.000 A 
HETATM   25  C25 UNL     1      -8.898   6.044  12.808  1.00  0.00     0.001 A 
HETATM   26  C26 UNL     1      -7.911   5.309  12.152  1.00  0.00     0.007 A 
ENDBRANCH  20  21
ENDBRANCH  15  20
ENDBRANCH   2  10
ENDBRANCH   1   2
BRANCH   1  27
HETATM   27  C5  UNL     1       2.031   7.933  10.781  1.00  0.00     0.109 C 
BRANCH  27  28
HETATM   28  C6  UNL     1       2.778   6.625  10.446  1.00  0.00     0.185 C 
BRANCH  28  29
HETATM   29  N1  UNL     1       4.165   6.711  10.943  1.00  0.00    -0.347 N 
HETATM   30  C7  UNL     1       4.997   7.753  10.595  1.00  0.00     0.218 C 
HETATM   31  O1  UNL     1       4.678   8.654   9.830  1.00  0.00    -0.274 OA
HETATM   32  H10 UNL     1       4.433   6.100  11.708  1.00  0.00     0.163 HD
BRANCH  30  33
HETATM   33  C8  UNL     1       6.365   7.690  11.244  1.00  0.00     0.105 C 
BRANCH  33  34
HETATM   34  C9  UNL     1       6.341   6.927  12.573  1.00  0.00     0.056 C 
BRANCH  34  35
HETATM   35  C10 UNL     1       6.506   7.818  13.812  1.00  0.00     0.315 C 
BRANCH  35  36
HETATM   36  N2  UNL     1       7.590   7.310  14.677  1.00  0.00     0.093 N 
HETATM   37  H16 UNL     1       8.391   7.047  14.098  1.00  0.00     0.314 HD
HETATM   38  H17 UNL     1       7.265   6.455  15.135  1.00  0.00     0.314 HD
ENDBRANCH  35  36
BRANCH  35  39
HETATM   39  C11 UNL     1       5.193   7.905  14.598  1.00  0.00     0.173 C 
HETATM   40  O2  UNL     1       5.029   8.546  15.629  1.00  0.00    -0.648 OA
BRANCH  39  41
HETATM   41  O3  UNL     1       4.159   7.275  14.003  1.00  0.00    -0.775 OA
HETATM   42  H18 UNL     1       3.406   7.377  14.624  1.00  0.00     0.167 HD
ENDBRANCH  39  41
ENDBRANCH  35  39
ENDBRANCH  34  35
ENDBRANCH  33  34
ENDBRANCH  30  33
ENDBRANCH  28  29
BRANCH  28  43
HETATM   43  C12 UNL     1       2.739   6.363   8.919  1.00  0.00     0.241 C 
HETATM   44  O4  UNL     1       2.305   7.186   8.112  1.00  0.00    -0.271 OA
HETATM   45  N3  UNL     1       3.156   5.113   8.511  1.00  0.00    -0.349 N 
HETATM   46  H19 UNL     1       3.745   4.571   9.131  1.00  0.00     0.163 HD
BRANCH  45  47
HETATM   47  C13 UNL     1       3.246   4.800   7.094  1.00  0.00     0.232 C 
BRANCH  47  48
HETATM   48  C14 UNL     1       4.057   3.544   6.792  1.00  0.00     0.158 C 
HETATM   49  O5  UNL     1       5.123   3.246   7.314  1.00  0.00    -0.649 OA
BRANCH  48  50
HETATM   50  O6  UNL     1       3.530   2.734   5.847  1.00  0.00    -0.775 OA
HETATM   51  H22 UNL     1       4.137   1.964   5.859  1.00  0.00     0.167 HD
ENDBRANCH  48  50
ENDBRANCH  47  48
ENDBRANCH  45  47
ENDBRANCH  28  43
ENDBRANCH  27  28
ENDBRANCH   1  27
TORSDOF 19
ENDMDL
MODEL 5
REMARK minimizedAffinity -8.58530903
REMARK CNNscore 0.158958599
REMARK CNNaffinity 6.7093029
REMARK  19 active torsions:
REMARK  status: ('A' for Active; 'I' for Inactive)
REMARK    1  A    between atoms: C2_2  and  C3_3 
REMARK    2  A    between atoms: C3_3  and  C4_4 
REMARK    3  A    between atoms: C4_4  and  S1_5 
REMARK    4  A    between atoms: C4_4  and  C15_25 
REMARK    5  A    between atoms: S1_5  and  C5_6 
REMARK    6  A    between atoms: C5_6  and  C6_7 
REMARK    7  A    between atoms: C6_7  and  N1_8 
REMARK    8  A    between atoms: C6_7  and  C12_18 
REMARK       I    between atoms: N1_8  and  C7_9 
REMARK    9  A    between atoms: C7_9  and  C8_11 
REMARK   10  A    between atoms: C8_11  and  C9_12 
REMARK   11  A    between atoms: C9_12  and  C10_13 
REMARK   12  A    between atoms: C10_13  and  N2_14 
REMARK   13  A    between atoms: C10_13  and  C11_15 
REMARK   14  A    between atoms: C11_15  and  O3_17 
REMARK       I    between atoms: C12_18  and  N3_20 
REMARK   15  A    between atoms: N3_20  and  C13_21 
REMARK   16  A    between atoms: C13_21  and  C14_22 
REMARK   17  A    between atoms: C14_22  and  O6_24 
REMARK   18  A    between atoms: C19_29  and  C20_30 
REMARK   19  A    between atoms: C20_30  and  C21_31 
ROOT
HETATM    1  S1  UNL     1      -0.192   8.350  11.310  1.00  0.00    -0.154 SA
ENDROOT
BRANCH   1   2
HETATM    2  C4  UNL     1      -1.192   7.817  12.780  1.00  0.00     0.113 C 
BRANCH   2   3
HETATM    3  C3  UNL     1      -0.811   8.345  14.226  1.00  0.00    -0.022 C 
HETATM    4  C30 UNL     1      -2.025   8.766  15.100  1.00  0.00     0.011 C 
HETATM    5  C31 UNL     1      -1.715  10.157  15.637  1.00  0.00     0.001 C 
HETATM    6  C32 UNL     1      -0.906  10.791  14.527  1.00  0.00     0.001 C 
HETATM    7  C33 UNL     1       0.018   9.666  14.080  1.00  0.00     0.011 C 
BRANCH   3   8
HETATM    8  C2  UNL     1       0.046   7.257  14.950  1.00  0.00     0.006 C 
HETATM    9  C1  UNL     1       1.124   7.740  15.920  1.00  0.00     0.006 C 
ENDBRANCH   3   8
ENDBRANCH   2   3
BRANCH   2  10
HETATM   10  C15 UNL     1      -1.501   6.337  12.633  1.00  0.00     0.075 C 
HETATM   11  C16 UNL     1      -2.380   5.604  13.315  1.00  0.00    -0.031 C 
HETATM   12  C17 UNL     1      -3.401   5.948  14.344  1.00  0.00     0.042 C 
HETATM   13  C28 UNL     1      -2.412   4.222  12.778  1.00  0.00     0.140 C 
HETATM   14  C18 UNL     1      -4.807   5.668  13.781  1.00  0.00     0.038 C 
HETATM   15  C19 UNL     1      -4.910   4.437  12.888  1.00  0.00    -0.078 C 
HETATM   16  C27 UNL     1      -3.812   3.789  12.445  1.00  0.00    -0.005 C 
HETATM   17  C29 UNL     1      -1.488   4.401  11.580  1.00  0.00     0.275 C 
HETATM   18  O7  UNL     1      -1.268   3.558  10.717  1.00  0.00    -0.264 OA
HETATM   19  O8  UNL     1      -0.864   5.629  11.605  1.00  0.00    -0.281 OA
BRANCH  15  20
HETATM   20  C20 UNL     1      -6.308   3.983  12.516  1.00  0.00     0.072 C 
BRANCH  20  21
HETATM   21  C21 UNL     1      -7.397   4.873  13.069  1.00  0.00    -0.054 A 
HETATM   22  C22 UNL     1      -7.464   5.148  14.443  1.00  0.00     0.007 A 
HETATM   23  C23 UNL     1      -8.450   5.998  14.949  1.00  0.00     0.001 A 
HETATM   24  C24 UNL     1      -9.378   6.576  14.088  1.00  0.00     0.000 A 
HETATM   25  C25 UNL     1      -9.325   6.308  12.720  1.00  0.00     0.001 A 
HETATM   26  C26 UNL     1      -8.342   5.459  12.214  1.00  0.00     0.007 A 
ENDBRANCH  20  21
ENDBRANCH  15  20
ENDBRANCH   2  10
ENDBRANCH   1   2
BRANCH   1  27
HETATM   27  C5  UNL     1       1.512   8.412  11.966  1.00  0.00     0.109 C 
BRANCH  27  28
HETATM   28  C6  UNL     1       2.152   7.016  12.113  1.00  0.00     0.185 C 
BRANCH  28  29
HETATM   29  N1  UNL     1       3.191   7.059  13.159  1.00  0.00    -0.347 N 
HETATM   30  C7  UNL     1       4.071   8.116  13.265  1.00  0.00     0.218 C 
HETATM   31  O1  UNL     1       4.091   9.066  12.493  1.00  0.00    -0.274 OA
HETATM   32  H10 UNL     1       3.119   6.399  13.928  1.00  0.00     0.163 HD
BRANCH  30  33
HETATM   33  C8  UNL     1       5.031   8.002  14.432  1.00  0.00     0.105 C 
BRANCH  33  34
HETATM   34  C9  UNL     1       6.431   7.563  13.989  1.00  0.00     0.056 C 
BRANCH  34  35
HETATM   35  C10 UNL     1       7.575   8.318  14.681  1.00  0.00     0.315 C 
BRANCH  35  36
HETATM   36  N2  UNL     1       8.497   7.372  15.340  1.00  0.00     0.093 N 
HETATM   37  H16 UNL     1       8.679   6.583  14.716  1.00  0.00     0.314 HD
HETATM   38  H17 UNL     1       8.032   6.991  16.169  1.00  0.00     0.314 HD
ENDBRANCH  35  36
BRANCH  35  39
HETATM   39  C11 UNL     1       7.026   9.325  15.697  1.00  0.00     0.173 C 
HETATM   40  O2  UNL     1       6.904   9.120  16.899  1.00  0.00    -0.648 OA
BRANCH  39  41
HETATM   41  O3  UNL     1       6.756  10.538  15.171  1.00  0.00    -0.775 OA
HETATM   42  H18 UNL     1       6.381  11.060  15.913  1.00  0.00     0.167 HD
ENDBRANCH  39  41
ENDBRANCH  35  39
ENDBRANCH  34  35
ENDBRANCH  33  34
ENDBRANCH  30  33
ENDBRANCH  28  29
BRANCH  28  43
HETATM   43  C12 UNL     1       2.736   6.549  10.755  1.00  0.00     0.241 C 
HETATM   44  O4  UNL     1       3.805   5.947  10.661  1.00  0.00    -0.271 OA
HETATM   45  N3  UNL     1       2.018   6.911   9.633  1.00  0.00    -0.349 N 
HETATM   46  H19 UNL     1       1.041   7.154   9.739  1.00  0.00     0.163 HD
BRANCH  45  47
HETATM   47  C13 UNL     1       2.430   6.443   8.321  1.00  0.00     0.232 C 
BRANCH  47  48
HETATM   48  C14 UNL     1       2.199   7.458   7.205  1.00  0.00     0.158 C 
HETATM   49  O5  UNL     1       1.579   7.246   6.172  1.00  0.00    -0.649 OA
BRANCH  48  50
HETATM   50  O6  UNL     1       2.763   8.669   7.406  1.00  0.00    -0.775 OA
HETATM   51  H22 UNL     1       2.438   9.190   6.641  1.00  0.00     0.167 HD
ENDBRANCH  48  50
ENDBRANCH  47  48
ENDBRANCH  45  47
ENDBRANCH  28  43
ENDBRANCH  27  28
ENDBRANCH   1  27
TORSDOF 19
ENDMDL
MODEL 6
REMARK minimizedAffinity -8.37699413
REMARK CNNscore 0.153960094
REMARK CNNaffinity 6.41140366
REMARK  19 active torsions:
REMARK  status: ('A' for Active; 'I' for Inactive)
REMARK    1  A    between atoms: C2_2  and  C3_3 
REMARK    2  A    between atoms: C3_3  and  C4_4 
REMARK    3  A    between atoms: C4_4  and  S1_5 
REMARK    4  A    between atoms: C4_4  and  C15_25 
REMARK    5  A    between atoms: S1_5  and  C5_6 
REMARK    6  A    between atoms: C5_6  and  C6_7 
REMARK    7  A    between atoms: C6_7  and  N1_8 
REMARK    8  A    between atoms: C6_7  and  C12_18 
REMARK       I    between atoms: N1_8  and  C7_9 
REMARK    9  A    between atoms: C7_9  and  C8_11 
REMARK   10  A    between atoms: C8_11  and  C9_12 
REMARK   11  A    between atoms: C9_12  and  C10_13 
REMARK   12  A    between atoms: C10_13  and  N2_14 
REMARK   13  A    between atoms: C10_13  and  C11_15 
REMARK   14  A    between atoms: C11_15  and  O3_17 
REMARK       I    between atoms: C12_18  and  N3_20 
REMARK   15  A    between atoms: N3_20  and  C13_21 
REMARK   16  A    between atoms: C13_21  and  C14_22 
REMARK   17  A    between atoms: C14_22  and  O6_24 
REMARK   18  A    between atoms: C19_29  and  C20_30 
REMARK   19  A    between atoms: C20_30  and  C21_31 
ROOT
HETATM    1  S1  UNL     1      -0.851   8.393  16.168  1.00  0.00    -0.154 SA
ENDROOT
BRANCH   1   2
HETATM    2  C4  UNL     1      -1.646   8.755  14.530  1.00  0.00     0.113 C 
BRANCH   2   3
HETATM    3  C3  UNL     1      -3.173   9.179  14.471  1.00  0.00    -0.022 C 
HETATM    4  C30 UNL     1      -4.120   8.297  15.332  1.00  0.00     0.011 C 
HETATM    5  C31 UNL     1      -5.269   7.875  14.424  1.00  0.00     0.001 C 
HETATM    6  C32 UNL     1      -4.618   7.759  13.063  1.00  0.00     0.001 C 
HETATM    7  C33 UNL     1      -3.699   8.972  13.010  1.00  0.00     0.011 C 
BRANCH   3   8
HETATM    8  C2  UNL     1      -3.295  10.684  14.872  1.00  0.00     0.006 C 
HETATM    9  C1  UNL     1      -4.277  11.037  15.989  1.00  0.00     0.006 C 
ENDBRANCH   3   8
ENDBRANCH   2   3
BRANCH   2  10
HETATM   10  C15 UNL     1      -1.168   7.717  13.531  1.00  0.00     0.075 C 
HETATM   11  C16 UNL     1      -1.327   6.394  13.571  1.00  0.00    -0.031 C 
HETATM   12  C17 UNL     1      -2.070   5.494  14.496  1.00  0.00     0.042 C 
HETATM   13  C28 UNL     1      -0.776   5.779  12.339  1.00  0.00     0.140 C 
HETATM   14  C18 UNL     1      -3.216   4.808  13.729  1.00  0.00     0.038 C 
HETATM   15  C19 UNL     1      -2.894   4.434  12.286  1.00  0.00    -0.078 C 
HETATM   16  C27 UNL     1      -1.777   4.881  11.672  1.00  0.00    -0.005 C 
HETATM   17  C29 UNL     1      -0.427   7.045  11.566  1.00  0.00     0.275 C 
HETATM   18  O7  UNL     1      -0.033   7.086  10.406  1.00  0.00    -0.264 OA
HETATM   19  O8  UNL     1      -0.549   8.167  12.357  1.00  0.00    -0.281 OA
BRANCH  15  20
HETATM   20  C20 UNL     1      -3.893   3.543  11.575  1.00  0.00     0.072 C 
BRANCH  20  21
HETATM   21  C21 UNL     1      -5.257   3.530  12.226  1.00  0.00    -0.054 A 
HETATM   22  C22 UNL     1      -5.729   4.657  12.915  1.00  0.00     0.007 A 
HETATM   23  C23 UNL     1      -7.003   4.657  13.487  1.00  0.00     0.001 A 
HETATM   24  C24 UNL     1      -7.814   3.531  13.378  1.00  0.00     0.000 A 
HETATM   25  C25 UNL     1      -7.356   2.402  12.698  1.00  0.00     0.001 A 
HETATM   26  C26 UNL     1      -6.083   2.401  12.128  1.00  0.00     0.007 A 
ENDBRANCH  20  21
ENDBRANCH  15  20
ENDBRANCH   2  10
ENDBRANCH   1   2
BRANCH   1  27
HETATM   27  C5  UNL     1      -0.881  10.013  17.013  1.00  0.00     0.109 C 
BRANCH  27  28
HETATM   28  C6  UNL     1       0.522  10.503  17.424  1.00  0.00     0.185 C 
BRANCH  28  29
HETATM   29  N1  UNL     1       1.535   9.530  16.971  1.00  0.00    -0.347 N 
HETATM   30  C7  UNL     1       2.464   9.847  16.003  1.00  0.00     0.218 C 
HETATM   31  O1  UNL     1       2.502  10.923  15.421  1.00  0.00    -0.274 OA
HETATM   32  H10 UNL     1       1.669   8.691  17.528  1.00  0.00     0.163 HD
BRANCH  30  33
HETATM   33  C8  UNL     1       3.449   8.734  15.709  1.00  0.00     0.105 C 
BRANCH  33  34
HETATM   34  C9  UNL     1       4.763   9.264  15.122  1.00  0.00     0.056 C 
BRANCH  34  35
HETATM   35  C10 UNL     1       5.841   8.189  14.924  1.00  0.00     0.315 C 
BRANCH  35  36
HETATM   36  N2  UNL     1       5.351   6.872  15.375  1.00  0.00     0.093 N 
HETATM   37  H16 UNL     1       4.393   6.735  15.045  1.00  0.00     0.314 HD
HETATM   38  H17 UNL     1       5.311   6.874  16.398  1.00  0.00     0.314 HD
ENDBRANCH  35  36
BRANCH  35  39
HETATM   39  C11 UNL     1       7.126   8.565  15.669  1.00  0.00     0.173 C 
HETATM   40  O2  UNL     1       7.268   8.545  16.886  1.00  0.00    -0.648 OA
BRANCH  39  41
HETATM   41  O3  UNL     1       8.166   8.845  14.856  1.00  0.00    -0.775 OA
HETATM   42  H18 UNL     1       8.898   9.102  15.457  1.00  0.00     0.167 HD
ENDBRANCH  39  41
ENDBRANCH  35  39
ENDBRANCH  34  35
ENDBRANCH  33  34
ENDBRANCH  30  33
ENDBRANCH  28  29
BRANCH  28  43
HETATM   43  C12 UNL     1       0.587  10.715  18.958  1.00  0.00     0.241 C 
HETATM   44  O4  UNL     1      -0.319  11.252  19.596  1.00  0.00    -0.271 OA
HETATM   45  N3  UNL     1       1.762  10.330  19.571  1.00  0.00    -0.349 N 
HETATM   46  H19 UNL     1       2.361   9.664  19.098  1.00  0.00     0.163 HD
BRANCH  45  47
HETATM   47  C13 UNL     1       1.887  10.400  21.017  1.00  0.00     0.232 C 
BRANCH  47  48
HETATM   48  C14 UNL     1       2.695   9.254  21.620  1.00  0.00     0.158 C 
HETATM   49  O5  UNL     1       3.916   9.207  21.687  1.00  0.00    -0.649 OA
BRANCH  48  50
HETATM   50  O6  UNL     1       1.962   8.218  22.084  1.00  0.00    -0.775 OA
HETATM   51  H22 UNL     1       2.639   7.641  22.497  1.00  0.00     0.167 HD
ENDBRANCH  48  50
ENDBRANCH  47  48
ENDBRANCH  45  47
ENDBRANCH  28  43
ENDBRANCH  27  28
ENDBRANCH   1  27
TORSDOF 19
ENDMDL
MODEL 7
REMARK minimizedAffinity -7.67063951
REMARK CNNscore 0.146972388
REMARK CNNaffinity 6.697855
REMARK  19 active torsions:
REMARK  status: ('A' for Active; 'I' for Inactive)
REMARK    1  A    between atoms: C2_2  and  C3_3 
REMARK    2  A    between atoms: C3_3  and  C4_4 
REMARK    3  A    between atoms: C4_4  and  S1_5 
REMARK    4  A    between atoms: C4_4  and  C15_25 
REMARK    5  A    between atoms: S1_5  and  C5_6 
REMARK    6  A    between atoms: C5_6  and  C6_7 
REMARK    7  A    between atoms: C6_7  and  N1_8 
REMARK    8  A    between atoms: C6_7  and  C12_18 
REMARK       I    between atoms: N1_8  and  C7_9 
REMARK    9  A    between atoms: C7_9  and  C8_11 
REMARK   10  A    between atoms: C8_11  and  C9_12 
REMARK   11  A    between atoms: C9_12  and  C10_13 
REMARK   12  A    between atoms: C10_13  and  N2_14 
REMARK   13  A    between atoms: C10_13  and  C11_15 
REMARK   14  A    between atoms: C11_15  and  O3_17 
REMARK       I    between atoms: C12_18  and  N3_20 
REMARK   15  A    between atoms: N3_20  and  C13_21 
REMARK   16  A    between atoms: C13_21  and  C14_22 
REMARK   17  A    between atoms: C14_22  and  O6_24 
REMARK   18  A    between atoms: C19_29  and  C20_30 
REMARK   19  A    between atoms: C20_30  and  C21_31 
ROOT
HETATM    1  S1  UNL     1       0.238   8.001  16.152  1.00  0.00    -0.154 SA
ENDROOT
BRANCH   1   2
HETATM    2  C4  UNL     1      -0.537   8.424  14.520  1.00  0.00     0.113 C 
BRANCH   2   3
HETATM    3  C3  UNL     1      -1.513   9.670  14.410  1.00  0.00    -0.022 C 
HETATM    4  C30 UNL     1      -2.583   9.752  15.533  1.00  0.00     0.011 C 
HETATM    5  C31 UNL     1      -3.927   9.947  14.842  1.00  0.00     0.001 C 
HETATM    6  C32 UNL     1      -3.771   9.181  13.547  1.00  0.00     0.001 C 
HETATM    7  C33 UNL     1      -2.360   9.534  13.099  1.00  0.00     0.011 C 
BRANCH   3   8
HETATM    8  C2  UNL     1      -0.657  10.977  14.357  1.00  0.00     0.006 C 
HETATM    9  C1  UNL     1      -0.204  11.575  15.689  1.00  0.00     0.006 C 
ENDBRANCH   3   8
ENDBRANCH   2   3
BRANCH   2  10
HETATM   10  C15 UNL     1      -0.974   7.132  13.853  1.00  0.00     0.075 C 
HETATM   11  C16 UNL     1      -1.852   6.230  14.291  1.00  0.00    -0.031 C 
HETATM   12  C17 UNL     1      -2.758   6.192  15.474  1.00  0.00     0.042 C 
HETATM   13  C28 UNL     1      -2.038   5.167  13.274  1.00  0.00     0.140 C 
HETATM   14  C18 UNL     1      -4.222   6.213  14.996  1.00  0.00     0.038 C 
HETATM   15  C19 UNL     1      -4.494   5.430  13.716  1.00  0.00    -0.078 C 
HETATM   16  C27 UNL     1      -3.489   4.958  12.948  1.00  0.00    -0.005 C 
HETATM   17  C29 UNL     1      -1.200   5.756  12.146  1.00  0.00     0.275 C 
HETATM   18  O7  UNL     1      -1.117   5.304  11.009  1.00  0.00    -0.264 OA
HETATM   19  O8  UNL     1      -0.480   6.850  12.573  1.00  0.00    -0.281 OA
BRANCH  15  20
HETATM   20  C20 UNL     1      -5.948   5.216  13.347  1.00  0.00     0.072 C 
BRANCH  20  21
HETATM   21  C21 UNL     1      -6.219   3.865  12.725  1.00  0.00    -0.054 A 
HETATM   22  C22 UNL     1      -5.449   3.412  11.643  1.00  0.00     0.007 A 
HETATM   23  C23 UNL     1      -5.677   2.150  11.091  1.00  0.00     0.001 A 
HETATM   24  C24 UNL     1      -6.677   1.333  11.611  1.00  0.00     0.000 A 
HETATM   25  C25 UNL     1      -7.453   1.773  12.683  1.00  0.00     0.001 A 
HETATM   26  C26 UNL     1      -7.227   3.034  13.235  1.00  0.00     0.007 A 
ENDBRANCH  20  21
ENDBRANCH  15  20
ENDBRANCH   2  10
ENDBRANCH   1   2
BRANCH   1  27
HETATM   27  C5  UNL     1       1.853   7.290  15.674  1.00  0.00     0.109 C 
BRANCH  27  28
HETATM   28  C6  UNL     1       2.612   8.157  14.648  1.00  0.00     0.185 C 
BRANCH  28  29
HETATM   29  N1  UNL     1       3.231   7.285  13.632  1.00  0.00    -0.347 N 
HETATM   30  C7  UNL     1       3.609   7.766  12.396  1.00  0.00     0.218 C 
HETATM   31  O1  UNL     1       3.430   8.920  12.030  1.00  0.00    -0.274 OA
HETATM   32  H10 UNL     1       3.564   6.372  13.928  1.00  0.00     0.163 HD
BRANCH  30  33
HETATM   33  C8  UNL     1       4.272   6.732  11.510  1.00  0.00     0.105 C 
BRANCH  33  34
HETATM   34  C9  UNL     1       3.813   6.839  10.051  1.00  0.00     0.056 C 
BRANCH  34  35
HETATM   35  C10 UNL     1       2.765   5.795   9.642  1.00  0.00     0.315 C 
BRANCH  35  36
HETATM   36  N2  UNL     1       1.751   5.635  10.704  1.00  0.00     0.093 N 
HETATM   37  H16 UNL     1       1.480   6.555  11.057  1.00  0.00     0.314 HD
HETATM   38  H17 UNL     1       2.179   5.135  11.488  1.00  0.00     0.314 HD
ENDBRANCH  35  36
BRANCH  35  39
HETATM   39  C11 UNL     1       3.429   4.451   9.330  1.00  0.00     0.173 C 
HETATM   40  O2  UNL     1       4.318   4.277   8.505  1.00  0.00    -0.648 OA
BRANCH  39  41
HETATM   41  O3  UNL     1       3.015   3.440  10.124  1.00  0.00    -0.775 OA
HETATM   42  H18 UNL     1       3.485   2.646   9.792  1.00  0.00     0.167 HD
ENDBRANCH  39  41
ENDBRANCH  35  39
ENDBRANCH  34  35
ENDBRANCH  33  34
ENDBRANCH  30  33
ENDBRANCH  28  29
BRANCH  28  43
HETATM   43  C12 UNL     1       3.672   9.030  15.366  1.00  0.00     0.241 C 
HETATM   44  O4  UNL     1       4.714   8.568  15.830  1.00  0.00    -0.271 OA
HETATM   45  N3  UNL     1       3.349  10.362  15.524  1.00  0.00    -0.349 N 
HETATM   46  H19 UNL     1       2.645  10.767  14.918  1.00  0.00     0.163 HD
BRANCH  45  47
HETATM   47  C13 UNL     1       4.314  11.284  16.099  1.00  0.00     0.232 C 
BRANCH  47  48
HETATM   48  C14 UNL     1       4.114  11.533  17.591  1.00  0.00     0.158 C 
HETATM   49  O5  UNL     1       3.368  10.895  18.322  1.00  0.00    -0.649 OA
BRANCH  48  50
HETATM   50  O6  UNL     1       4.819  12.567  18.100  1.00  0.00    -0.775 OA
HETATM   51  H22 UNL     1       4.624  12.511  19.059  1.00  0.00     0.167 HD
ENDBRANCH  48  50
ENDBRANCH  47  48
ENDBRANCH  45  47
ENDBRANCH  28  43
ENDBRANCH  27  28
ENDBRANCH   1  27
TORSDOF 19
ENDMDL
MODEL 8
REMARK minimizedAffinity -8.29084873
REMARK CNNscore 0.145070821
REMARK CNNaffinity 6.72763062
REMARK  19 active torsions:
REMARK  status: ('A' for Active; 'I' for Inactive)
REMARK    1  A    between atoms: C2_2  and  C3_3 
REMARK    2  A    between atoms: C3_3  and  C4_4 
REMARK    3  A    between atoms: C4_4  and  S1_5 
REMARK    4  A    between atoms: C4_4  and  C15_25 
REMARK    5  A    between atoms: S1_5  and  C5_6 
REMARK    6  A    between atoms: C5_6  and  C6_7 
REMARK    7  A    between atoms: C6_7  and  N1_8 
REMARK    8  A    between atoms: C6_7  and  C12_18 
REMARK       I    between atoms: N1_8  and  C7_9 
REMARK    9  A    between atoms: C7_9  and  C8_11 
REMARK   10  A    between atoms: C8_11  and  C9_12 
REMARK   11  A    between atoms: C9_12  and  C10_13 
REMARK   12  A    between atoms: C10_13  and  N2_14 
REMARK   13  A    between atoms: C10_13  and  C11_15 
REMARK   14  A    between atoms: C11_15  and  O3_17 
REMARK       I    between atoms: C12_18  and  N3_20 
REMARK   15  A    between atoms: N3_20  and  C13_21 
REMARK   16  A    between atoms: C13_21  and  C14_22 
REMARK   17  A    between atoms: C14_22  and  O6_24 
REMARK   18  A    between atoms: C19_29  and  C20_30 
REMARK   19  A    between atoms: C20_30  and  C21_31 
ROOT
HETATM    1  S1  UNL     1       1.214   7.567  13.822  1.00  0.00    -0.154 SA
ENDROOT
BRANCH   1   2
HETATM    2  C4  UNL     1       1.510   6.495  12.337  1.00  0.00     0.113 C 
BRANCH   2   3
HETATM    3  C3  UNL     1       1.834   7.162  10.934  1.00  0.00    -0.022 C 
HETATM    4  C30 UNL     1       1.594   6.235   9.710  1.00  0.00     0.011 C 
HETATM    5  C31 UNL     1       2.862   6.290   8.866  1.00  0.00     0.001 C 
HETATM    6  C32 UNL     1       3.960   6.469   9.891  1.00  0.00     0.001 C 
HETATM    7  C33 UNL     1       3.367   7.477  10.866  1.00  0.00     0.011 C 
BRANCH   3   8
HETATM    8  C2  UNL     1       1.012   8.484  10.803  1.00  0.00     0.006 C 
HETATM    9  C1  UNL     1      -0.241   8.450   9.928  1.00  0.00     0.006 C 
ENDBRANCH   3   8
ENDBRANCH   2   3
BRANCH   2  10
HETATM   10  C15 UNL     1       0.496   5.365  12.357  1.00  0.00     0.075 C 
HETATM   11  C16 UNL     1      -0.546   5.203  13.172  1.00  0.00    -0.031 C 
HETATM   12  C17 UNL     1      -1.138   6.058  14.238  1.00  0.00     0.042 C 
HETATM   13  C28 UNL     1      -1.318   4.000  12.774  1.00  0.00     0.140 C 
HETATM   14  C18 UNL     1      -2.552   6.495  13.813  1.00  0.00     0.038 C 
HETATM   15  C19 UNL     1      -3.352   5.443  13.053  1.00  0.00    -0.078 C 
HETATM   16  C27 UNL     1      -2.776   4.313  12.592  1.00  0.00    -0.005 C 
HETATM   17  C29 UNL     1      -0.570   3.638  11.497  1.00  0.00     0.275 C 
HETATM   18  O7  UNL     1      -0.895   2.760  10.705  1.00  0.00    -0.264 OA
HETATM   19  O8  UNL     1       0.578   4.388  11.356  1.00  0.00    -0.281 OA
BRANCH  15  20
HETATM   20  C20 UNL     1      -4.823   5.735  12.835  1.00  0.00     0.072 C 
BRANCH  20  21
HETATM   21  C21 UNL     1      -5.686   4.493  12.806  1.00  0.00    -0.054 A 
HETATM   22  C22 UNL     1      -6.733   4.332  13.725  1.00  0.00     0.007 A 
HETATM   23  C23 UNL     1      -7.551   3.201  13.677  1.00  0.00     0.001 A 
HETATM   24  C24 UNL     1      -7.328   2.222  12.714  1.00  0.00     0.000 A 
HETATM   25  C25 UNL     1      -6.287   2.368  11.796  1.00  0.00     0.001 A 
HETATM   26  C26 UNL     1      -5.469   3.496  11.844  1.00  0.00     0.007 A 
ENDBRANCH  20  21
ENDBRANCH  15  20
ENDBRANCH   2  10
ENDBRANCH   1   2
BRANCH   1  27
HETATM   27  C5  UNL     1       2.899   7.871  14.460  1.00  0.00     0.109 C 
BRANCH  27  28
HETATM   28  C6  UNL     1       3.129   9.338  14.879  1.00  0.00     0.185 C 
BRANCH  28  29
HETATM   29  N1  UNL     1       4.574   9.636  14.853  1.00  0.00    -0.347 N 
HETATM   30  C7  UNL     1       5.508   8.739  15.325  1.00  0.00     0.218 C 
HETATM   31  O1  UNL     1       5.224   7.661  15.831  1.00  0.00    -0.274 OA
HETATM   32  H10 UNL     1       4.885  10.425  14.296  1.00  0.00     0.163 HD
BRANCH  30  33
HETATM   33  C8  UNL     1       6.941   9.204  15.168  1.00  0.00     0.105 C 
BRANCH  33  34
HETATM   34  C9  UNL     1       7.775   8.238  14.319  1.00  0.00     0.056 C 
BRANCH  34  35
HETATM   35  C10 UNL     1       8.983   7.639  15.052  1.00  0.00     0.315 C 
BRANCH  35  36
HETATM   36  N2  UNL     1       8.811   7.751  16.514  1.00  0.00     0.093 N 
HETATM   37  H16 UNL     1       7.853   7.494  16.764  1.00  0.00     0.314 HD
HETATM   38  H17 UNL     1       8.932   8.731  16.780  1.00  0.00     0.314 HD
ENDBRANCH  35  36
BRANCH  35  39
HETATM   39  C11 UNL     1      10.281   8.325  14.612  1.00  0.00     0.173 C 
HETATM   40  O2  UNL     1      11.073   7.877  13.792  1.00  0.00    -0.648 OA
BRANCH  39  41
HETATM   41  O3  UNL     1      10.457   9.552  15.146  1.00  0.00    -0.775 OA
HETATM   42  H18 UNL     1      11.330   9.851  14.815  1.00  0.00     0.167 HD
ENDBRANCH  39  41
ENDBRANCH  35  39
ENDBRANCH  34  35
ENDBRANCH  33  34
ENDBRANCH  30  33
ENDBRANCH  28  29
BRANCH  28  43
HETATM   43  C12 UNL     1       2.523   9.594  16.282  1.00  0.00     0.241 C 
HETATM   44  O4  UNL     1       2.306   8.690  17.090  1.00  0.00    -0.271 OA
HETATM   45  N3  UNL     1       2.167  10.898  16.557  1.00  0.00    -0.349 N 
HETATM   46  H19 UNL     1       2.590  11.642  16.014  1.00  0.00     0.163 HD
BRANCH  45  47
HETATM   47  C13 UNL     1       1.678  11.259  17.878  1.00  0.00     0.232 C 
BRANCH  47  48
HETATM   48  C14 UNL     1       2.777  11.693  18.843  1.00  0.00     0.158 C 
HETATM   49  O5  UNL     1       2.835  12.776  19.409  1.00  0.00    -0.649 OA
BRANCH  48  50
HETATM   50  O6  UNL     1       3.759  10.785  19.040  1.00  0.00    -0.775 OA
HETATM   51  H22 UNL     1       4.307  11.206  19.736  1.00  0.00     0.167 HD
ENDBRANCH  48  50
ENDBRANCH  47  48
ENDBRANCH  45  47
ENDBRANCH  28  43
ENDBRANCH  27  28
ENDBRANCH   1  27
TORSDOF 19
ENDMDL
MODEL 9
REMARK minimizedAffinity -8.24720287
REMARK CNNscore 0.141519114
REMARK CNNaffinity 6.74459457
REMARK  19 active torsions:
REMARK  status: ('A' for Active; 'I' for Inactive)
REMARK    1  A    between atoms: C2_2  and  C3_3 
REMARK    2  A    between atoms: C3_3  and  C4_4 
REMARK    3  A    between atoms: C4_4  and  S1_5 
REMARK    4  A    between atoms: C4_4  and  C15_25 
REMARK    5  A    between atoms: S1_5  and  C5_6 
REMARK    6  A    between atoms: C5_6  and  C6_7 
REMARK    7  A    between atoms: C6_7  and  N1_8 
REMARK    8  A    between atoms: C6_7  and  C12_18 
REMARK       I    between atoms: N1_8  and  C7_9 
REMARK    9  A    between atoms: C7_9  and  C8_11 
REMARK   10  A    between atoms: C8_11  and  C9_12 
REMARK   11  A    between atoms: C9_12  and  C10_13 
REMARK   12  A    between atoms: C10_13  and  N2_14 
REMARK   13  A    between atoms: C10_13  and  C11_15 
REMARK   14  A    between atoms: C11_15  and  O3_17 
REMARK       I    between atoms: C12_18  and  N3_20 
REMARK   15  A    between atoms: N3_20  and  C13_21 
REMARK   16  A    between atoms: C13_21  and  C14_22 
REMARK   17  A    between atoms: C14_22  and  O6_24 
REMARK   18  A    between atoms: C19_29  and  C20_30 
REMARK   19  A    between atoms: C20_30  and  C21_31 
ROOT
HETATM    1  S1  UNL     1       0.954   7.482  15.740  1.00  0.00    -0.154 SA
ENDROOT
BRANCH   1   2
HETATM    2  C4  UNL     1       0.508   7.657  13.947  1.00  0.00     0.113 C 
BRANCH   2   3
HETATM    3  C3  UNL     1      -0.457   8.828  13.485  1.00  0.00    -0.022 C 
HETATM    4  C30 UNL     1      -1.960   8.587  13.800  1.00  0.00     0.011 C 
HETATM    5  C31 UNL     1      -2.724   8.839  12.506  1.00  0.00     0.001 C 
HETATM    6  C32 UNL     1      -1.755   8.391  11.433  1.00  0.00     0.001 C 
HETATM    7  C33 UNL     1      -0.417   8.929  11.922  1.00  0.00     0.011 C 
BRANCH   3   8
HETATM    8  C2  UNL     1       0.037  10.169  14.118  1.00  0.00     0.006 C 
HETATM    9  C1  UNL     1      -0.883  10.850  15.131  1.00  0.00     0.006 C 
ENDBRANCH   3   8
ENDBRANCH   2   3
BRANCH   2  10
HETATM   10  C15 UNL     1       0.246   6.271  13.385  1.00  0.00     0.075 C 
HETATM   11  C16 UNL     1      -0.769   5.449  13.650  1.00  0.00    -0.031 C 
HETATM   12  C17 UNL     1      -2.006   5.601  14.466  1.00  0.00     0.042 C 
HETATM   13  C28 UNL     1      -0.670   4.233  12.807  1.00  0.00     0.140 C 
HETATM   14  C18 UNL     1      -3.237   5.536  13.542  1.00  0.00     0.038 C 
HETATM   15  C19 UNL     1      -3.122   4.553  12.382  1.00  0.00    -0.078 C 
HETATM   16  C27 UNL     1      -1.948   3.966  12.065  1.00  0.00    -0.005 C 
HETATM   17  C29 UNL     1       0.513   4.633  11.934  1.00  0.00     0.275 C 
HETATM   18  O7  UNL     1       0.934   4.002  10.970  1.00  0.00    -0.264 OA
HETATM   19  O8  UNL     1       1.110   5.787  12.395  1.00  0.00    -0.281 OA
BRANCH  15  20
HETATM   20  C20 UNL     1      -4.390   4.274  11.600  1.00  0.00     0.072 C 
BRANCH  20  21
HETATM   21  C21 UNL     1      -5.612   4.104  12.473  1.00  0.00    -0.054 A 
HETATM   22  C22 UNL     1      -6.081   5.169  13.257  1.00  0.00     0.007 A 
HETATM   23  C23 UNL     1      -7.230   5.023  14.038  1.00  0.00     0.001 A 
HETATM   24  C24 UNL     1      -7.916   3.812  14.044  1.00  0.00     0.000 A 
HETATM   25  C25 UNL     1      -7.459   2.744  13.271  1.00  0.00     0.001 A 
HETATM   26  C26 UNL     1      -6.312   2.889  12.492  1.00  0.00     0.007 A 
ENDBRANCH  20  21
ENDBRANCH  15  20
ENDBRANCH   2  10
ENDBRANCH   1   2
BRANCH   1  27
HETATM   27  C5  UNL     1       2.766   7.247  15.697  1.00  0.00     0.109 C 
BRANCH  27  28
HETATM   28  C6  UNL     1       3.476   8.222  14.736  1.00  0.00     0.185 C 
BRANCH  28  29
HETATM   29  N1  UNL     1       3.173   7.846  13.342  1.00  0.00    -0.347 N 
HETATM   30  C7  UNL     1       3.397   8.711  12.292  1.00  0.00     0.218 C 
HETATM   31  O1  UNL     1       3.819   9.852  12.427  1.00  0.00    -0.274 OA
HETATM   32  H10 UNL     1       2.989   6.867  13.144  1.00  0.00     0.163 HD
BRANCH  30  33
HETATM   33  C8  UNL     1       3.070   8.126  10.933  1.00  0.00     0.105 C 
BRANCH  33  34
HETATM   34  C9  UNL     1       4.285   7.454  10.284  1.00  0.00     0.056 C 
BRANCH  34  35
HETATM   35  C10 UNL     1       4.371   5.941  10.528  1.00  0.00     0.315 C 
BRANCH  35  36
HETATM   36  N2  UNL     1       5.781   5.510  10.622  1.00  0.00     0.093 N 
HETATM   37  H16 UNL     1       6.302   6.175  11.197  1.00  0.00     0.314 HD
HETATM   38  H17 UNL     1       6.193   5.545   9.686  1.00  0.00     0.314 HD
ENDBRANCH  35  36
BRANCH  35  39
HETATM   39  C11 UNL     1       3.649   5.168   9.420  1.00  0.00     0.173 C 
HETATM   40  O2  UNL     1       3.334   5.628   8.329  1.00  0.00    -0.648 OA
BRANCH  39  41
HETATM   41  O3  UNL     1       3.454   3.863   9.703  1.00  0.00    -0.775 OA
HETATM   42  H18 UNL     1       2.955   3.507   8.937  1.00  0.00     0.167 HD
ENDBRANCH  39  41
ENDBRANCH  35  39
ENDBRANCH  34  35
ENDBRANCH  33  34
ENDBRANCH  30  33
ENDBRANCH  28  29
BRANCH  28  43
HETATM   43  C12 UNL     1       5.003   8.219  15.003  1.00  0.00     0.241 C 
HETATM   44  O4  UNL     1       5.520   8.853  15.923  1.00  0.00    -0.271 OA
HETATM   45  N3  UNL     1       5.772   7.516  14.100  1.00  0.00    -0.349 N 
HETATM   46  H19 UNL     1       5.328   6.802  13.535  1.00  0.00     0.163 HD
BRANCH  45  47
HETATM   47  C13 UNL     1       7.203   7.374  14.314  1.00  0.00     0.232 C 
BRANCH  47  48
HETATM   48  C14 UNL     1       8.038   7.590  13.055  1.00  0.00     0.158 C 
HETATM   49  O5  UNL     1       7.606   7.593  11.911  1.00  0.00    -0.649 OA
BRANCH  48  50
HETATM   50  O6  UNL     1       9.361   7.766  13.268  1.00  0.00    -0.775 OA
HETATM   51  H22 UNL     1       9.700   7.968  12.371  1.00  0.00     0.167 HD
ENDBRANCH  48  50
ENDBRANCH  47  48
ENDBRANCH  45  47
ENDBRANCH  28  43
ENDBRANCH  27  28
ENDBRANCH   1  27
TORSDOF 19
ENDMDL
