MODEL 1
REMARK minimizedAffinity -8.3214035
REMARK CNNscore 0.529301643
REMARK CNNaffinity 7.16920328
REMARK  14 active torsions:
REMARK  status: ('A' for Active; 'I' for Inactive)
REMARK    1  A    between atoms: C19_20  and  O2_21 
REMARK    2  A    between atoms: C19_20  and  C20_22 
REMARK    3  A    between atoms: C20_22  and  C21_24 
REMARK    4  A    between atoms: C21_24  and  O4_25 
REMARK    5  A    between atoms: O4_25  and  C22_26 
REMARK    6  A    between atoms: C22_26  and  C23_28 
REMARK    7  A    between atoms: C23_28  and  C24_29 
REMARK    8  A    between atoms: C24_29  and  C25_30 
REMARK       I    between atoms: C25_30  and  N1_32 
REMARK    9  A    between atoms: N1_32  and  C26_33 
REMARK   10  A    between atoms: C26_33  and  C27_34 
REMARK   11  A    between atoms: C27_34  and  C28_35 
REMARK   12  A    between atoms: C27_34  and  C30_39 
REMARK   13  A    between atoms: C28_35  and  C29_36 
REMARK   14  A    between atoms: C29_36  and  O8_38 
ROOT
HETATM    1  C20 UNL     1      -6.949   5.638  14.948  1.00  0.00     0.185 C 
HETATM    2  O3  UNL     1      -7.185   4.469  14.616  1.00  0.00    -0.292 OA
ENDROOT
BRANCH   1   3
HETATM    3  C19 UNL     1      -6.011   6.490  14.054  1.00  0.00     0.128 C 
HETATM    4  C14 UNL     1      -4.469   6.255  14.131  1.00  0.00    -0.002 C 
HETATM    5  C13 UNL     1      -3.949   4.953  13.499  1.00  0.00     0.013 C 
HETATM    6  C15 UNL     1      -3.929   6.369  15.578  1.00  0.00     0.019 C 
HETATM    7  C16 UNL     1      -3.991   7.429  13.232  1.00  0.00     0.002 C 
HETATM    8  C12 UNL     1      -2.419   4.973  13.327  1.00  0.00     0.007 C 
HETATM    9  C11 UNL     1      -1.906   6.207  12.536  1.00  0.00     0.002 C 
HETATM   10  C2  UNL     1      -0.343   6.232  12.328  1.00  0.00    -0.016 C 
HETATM   11  C10 UNL     1      -2.464   7.542  13.123  1.00  0.00    -0.004 C 
HETATM   12  C1  UNL     1       0.420   6.199  13.671  1.00  0.00     0.020 C 
HETATM   13  C3  UNL     1       0.059   4.981  11.491  1.00  0.00     0.022 C 
HETATM   14  C7  UNL     1       0.050   7.515  11.582  1.00  0.00    -0.068 C 
HETATM   15  C4  UNL     1       1.450   5.072  10.877  1.00  0.00     0.084 C 
HETATM   16  C5  UNL     1       1.563   6.320  10.040  1.00  0.00     0.149 C 
HETATM   17  O1  UNL     1       2.234   6.367   9.015  1.00  0.00    -0.293 OA
HETATM   18  C6  UNL     1       0.887   7.542  10.526  1.00  0.00     0.053 C 
HETATM   19  C8  UNL     1      -0.537   8.807  12.098  1.00  0.00     0.035 C 
HETATM   20  C9  UNL     1      -2.052   8.724  12.236  1.00  0.00     0.010 C 
HETATM   21  C17 UNL     1      -4.785   8.620  13.764  1.00  0.00     0.009 C 
HETATM   22  C18 UNL     1      -6.150   8.025  14.181  1.00  0.00     0.047 C 
BRANCH   3  23
HETATM   23  O2  UNL     1      -6.422   6.184  12.693  1.00  0.00    -0.381 OA
HETATM   24  H27 UNL     1      -7.301   5.749  12.750  1.00  0.00     0.211 HD
ENDBRANCH   3  23
ENDBRANCH   1   3
BRANCH   1  25
HETATM   25  C21 UNL     1      -7.575   6.187  16.225  1.00  0.00     0.260 C 
BRANCH  25  26
HETATM   26  O4  UNL     1      -8.991   6.310  16.246  1.00  0.00    -0.314 OA
BRANCH  26  27
HETATM   27  C22 UNL     1      -9.473   7.411  15.601  1.00  0.00     0.259 C 
HETATM   28  O5  UNL     1      -9.191   8.562  15.893  1.00  0.00    -0.265 OA
BRANCH  27  29
HETATM   29  C23 UNL     1     -10.361   7.008  14.452  1.00  0.00     0.120 C 
BRANCH  29  30
HETATM   30  C24 UNL     1     -10.702   8.234  13.619  1.00  0.00     0.112 C 
BRANCH  30  31
HETATM   31  C25 UNL     1     -12.197   8.374  13.409  1.00  0.00     0.218 C 
HETATM   32  O6  UNL     1     -12.688   8.872  12.404  1.00  0.00    -0.274 OA
HETATM   33  N1  UNL     1     -12.936   7.944  14.490  1.00  0.00    -0.360 N 
HETATM   34  H34 UNL     1     -12.471   7.375  15.188  1.00  0.00     0.162 HD
BRANCH  33  35
HETATM   35  C26 UNL     1     -14.383   7.809  14.411  1.00  0.00     0.132 C 
BRANCH  35  36
HETATM   36  C27 UNL     1     -14.825   6.464  13.778  1.00  0.00     0.046 C 
BRANCH  36  37
HETATM   37  C28 UNL     1     -15.475   6.668  12.400  1.00  0.00     0.120 C 
BRANCH  37  38
HETATM   38  C29 UNL     1     -16.191   7.986  12.279  1.00  0.00     0.140 C 
HETATM   39  O7  UNL     1     -17.210   8.340  12.844  1.00  0.00    -0.650 OA
BRANCH  38  40
HETATM   40  O8  UNL     1     -15.558   8.822  11.430  1.00  0.00    -0.776 OA
HETATM   41  H40 UNL     1     -16.102   9.636  11.453  1.00  0.00     0.167 HD
ENDBRANCH  38  40
ENDBRANCH  37  38
ENDBRANCH  36  37
BRANCH  36  42
HETATM   42  C30 UNL     1     -15.780   5.703  14.697  1.00  0.00    -0.052 A 
HETATM   43  C31 UNL     1     -16.080   6.151  15.994  1.00  0.00     0.007 A 
HETATM   44  C32 UNL     1     -16.935   5.416  16.818  1.00  0.00     0.001 A 
HETATM   45  C33 UNL     1     -17.505   4.230  16.358  1.00  0.00     0.000 A 
HETATM   46  C34 UNL     1     -17.223   3.781  15.071  1.00  0.00     0.001 A 
HETATM   47  C35 UNL     1     -16.365   4.510  14.245  1.00  0.00     0.007 A 
ENDBRANCH  36  42
ENDBRANCH  35  36
ENDBRANCH  33  35
ENDBRANCH  30  31
ENDBRANCH  29  30
ENDBRANCH  27  29
ENDBRANCH  26  27
ENDBRANCH  25  26
ENDBRANCH   1  25
TORSDOF 14
ENDMDL
MODEL 2
REMARK minimizedAffinity -9.98110867
REMARK CNNscore 0.45164907
REMARK CNNaffinity 7.44393015
REMARK  14 active torsions:
REMARK  status: ('A' for Active; 'I' for Inactive)
REMARK    1  A    between atoms: C19_20  and  O2_21 
REMARK    2  A    between atoms: C19_20  and  C20_22 
REMARK    3  A    between atoms: C20_22  and  C21_24 
REMARK    4  A    between atoms: C21_24  and  O4_25 
REMARK    5  A    between atoms: O4_25  and  C22_26 
REMARK    6  A    between atoms: C22_26  and  C23_28 
REMARK    7  A    between atoms: C23_28  and  C24_29 
REMARK    8  A    between atoms: C24_29  and  C25_30 
REMARK       I    between atoms: C25_30  and  N1_32 
REMARK    9  A    between atoms: N1_32  and  C26_33 
REMARK   10  A    between atoms: C26_33  and  C27_34 
REMARK   11  A    between atoms: C27_34  and  C28_35 
REMARK   12  A    between atoms: C27_34  and  C30_39 
REMARK   13  A    between atoms: C28_35  and  C29_36 
REMARK   14  A    between atoms: C29_36  and  O8_38 
ROOT
HETATM    1  C20 UNL     1      -1.073   7.305  14.351  1.00  0.00     0.185 C 
HETATM    2  O3  UNL     1      -0.275   6.393  14.602  1.00  0.00    -0.292 OA
ENDROOT
BRANCH   1   3
HETATM    3  C19 UNL     1      -2.421   6.949  13.672  1.00  0.00     0.128 C 
HETATM    4  C14 UNL     1      -3.724   6.933  14.532  1.00  0.00    -0.002 C 
HETATM    5  C13 UNL     1      -4.265   8.305  14.970  1.00  0.00     0.013 C 
HETATM    6  C15 UNL     1      -3.597   6.017  15.773  1.00  0.00     0.019 C 
HETATM    7  C16 UNL     1      -4.713   6.361  13.478  1.00  0.00     0.002 C 
HETATM    8  C12 UNL     1      -5.703   8.206  15.511  1.00  0.00     0.007 C 
HETATM    9  C11 UNL     1      -6.685   7.522  14.522  1.00  0.00     0.002 C 
HETATM   10  C2  UNL     1      -8.169   7.433  15.048  1.00  0.00    -0.016 C 
HETATM   11  C10 UNL     1      -6.135   6.150  14.016  1.00  0.00    -0.004 C 
HETATM   12  C1  UNL     1      -8.262   6.670  16.388  1.00  0.00     0.020 C 
HETATM   13  C3  UNL     1      -8.700   8.883  15.258  1.00  0.00     0.022 C 
HETATM   14  C7  UNL     1      -9.033   6.699  14.013  1.00  0.00    -0.068 C 
HETATM   15  C4  UNL     1     -10.216   8.972  15.376  1.00  0.00     0.084 C 
HETATM   16  C5  UNL     1     -10.865   8.346  14.169  1.00  0.00     0.149 C 
HETATM   17  O1  UNL     1     -11.912   8.769  13.690  1.00  0.00    -0.293 OA
HETATM   18  C6  UNL     1     -10.237   7.136  13.595  1.00  0.00     0.053 C 
HETATM   19  C8  UNL     1      -8.481   5.404  13.466  1.00  0.00     0.035 C 
HETATM   20  C9  UNL     1      -7.061   5.573  12.939  1.00  0.00     0.010 C 
HETATM   21  C17 UNL     1      -3.956   5.166  12.904  1.00  0.00     0.009 C 
HETATM   22  C18 UNL     1      -2.472   5.603  12.912  1.00  0.00     0.047 C 
BRANCH   3  23
HETATM   23  O2  UNL     1      -2.597   7.968  12.648  1.00  0.00    -0.381 OA
HETATM   24  H27 UNL     1      -1.726   8.404  12.526  1.00  0.00     0.211 HD
ENDBRANCH   3  23
ENDBRANCH   1   3
BRANCH   1  25
HETATM   25  C21 UNL     1      -0.695   8.740  14.706  1.00  0.00     0.260 C 
BRANCH  25  26
HETATM   26  O4  UNL     1      -0.191   8.967  16.015  1.00  0.00    -0.314 OA
BRANCH  26  27
HETATM   27  C22 UNL     1       1.157   9.168  16.075  1.00  0.00     0.259 C 
HETATM   28  O5  UNL     1       1.857   8.876  17.031  1.00  0.00    -0.265 OA
BRANCH  27  29
HETATM   29  C23 UNL     1       1.664   9.754  14.783  1.00  0.00     0.120 C 
BRANCH  29  30
HETATM   30  C24 UNL     1       2.730   8.841  14.195  1.00  0.00     0.112 C 
BRANCH  30  31
HETATM   31  C25 UNL     1       2.249   8.156  12.931  1.00  0.00     0.218 C 
HETATM   32  O6  UNL     1       1.568   8.718  12.083  1.00  0.00    -0.274 OA
HETATM   33  N1  UNL     1       2.604   6.825  12.870  1.00  0.00    -0.360 N 
HETATM   34  H34 UNL     1       3.320   6.495  13.505  1.00  0.00     0.162 HD
BRANCH  33  35
HETATM   35  C26 UNL     1       2.412   6.047  11.655  1.00  0.00     0.132 C 
BRANCH  35  36
HETATM   36  C27 UNL     1       3.613   6.154  10.681  1.00  0.00     0.046 C 
BRANCH  36  37
HETATM   37  C28 UNL     1       4.742   7.022  11.260  1.00  0.00     0.120 C 
BRANCH  37  38
HETATM   38  C29 UNL     1       6.113   6.477  10.961  1.00  0.00     0.140 C 
HETATM   39  O7  UNL     1       7.047   7.049  10.429  1.00  0.00    -0.650 OA
BRANCH  38  40
HETATM   40  O8  UNL     1       6.241   5.198  11.368  1.00  0.00    -0.776 OA
HETATM   41  H40 UNL     1       7.165   4.970  11.138  1.00  0.00     0.167 HD
ENDBRANCH  38  40
ENDBRANCH  37  38
ENDBRANCH  36  37
BRANCH  36  42
HETATM   42  C30 UNL     1       3.181   6.702   9.321  1.00  0.00    -0.052 A 
HETATM   43  C31 UNL     1       3.148   8.079   9.049  1.00  0.00     0.007 A 
HETATM   44  C32 UNL     1       2.720   8.546   7.804  1.00  0.00     0.001 A 
HETATM   45  C33 UNL     1       2.326   7.647   6.815  1.00  0.00     0.000 A 
HETATM   46  C34 UNL     1       2.363   6.279   7.069  1.00  0.00     0.001 A 
HETATM   47  C35 UNL     1       2.786   5.807   8.313  1.00  0.00     0.007 A 
ENDBRANCH  36  42
ENDBRANCH  35  36
ENDBRANCH  33  35
ENDBRANCH  30  31
ENDBRANCH  29  30
ENDBRANCH  27  29
ENDBRANCH  26  27
ENDBRANCH  25  26
ENDBRANCH   1  25
TORSDOF 14
ENDMDL
MODEL 3
REMARK minimizedAffinity -9.51216984
REMARK CNNscore 0.315706372
REMARK CNNaffinity 6.83664656
REMARK  14 active torsions:
REMARK  status: ('A' for Active; 'I' for Inactive)
REMARK    1  A    between atoms: C19_20  and  O2_21 
REMARK    2  A    between atoms: C19_20  and  C20_22 
REMARK    3  A    between atoms: C20_22  and  C21_24 
REMARK    4  A    between atoms: C21_24  and  O4_25 
REMARK    5  A    between atoms: O4_25  and  C22_26 
REMARK    6  A    between atoms: C22_26  and  C23_28 
REMARK    7  A    between atoms: C23_28  and  C24_29 
REMARK    8  A    between atoms: C24_29  and  C25_30 
REMARK       I    between atoms: C25_30  and  N1_32 
REMARK    9  A    between atoms: N1_32  and  C26_33 
REMARK   10  A    between atoms: C26_33  and  C27_34 
REMARK   11  A    between atoms: C27_34  and  C28_35 
REMARK   12  A    between atoms: C27_34  and  C30_39 
REMARK   13  A    between atoms: C28_35  and  C29_36 
REMARK   14  A    between atoms: C29_36  and  O8_38 
ROOT
HETATM    1  C20 UNL     1      -0.286   8.653  14.119  1.00  0.00     0.185 C 
HETATM    2  O3  UNL     1      -0.282   9.887  14.027  1.00  0.00    -0.292 OA
ENDROOT
BRANCH   1   3
HETATM    3  C19 UNL     1      -1.469   7.864  13.500  1.00  0.00     0.128 C 
HETATM    4  C14 UNL     1      -2.735   7.586  14.371  1.00  0.00    -0.002 C 
HETATM    5  C13 UNL     1      -3.642   8.795  14.654  1.00  0.00     0.013 C 
HETATM    6  C15 UNL     1      -2.386   6.887  15.707  1.00  0.00     0.019 C 
HETATM    7  C16 UNL     1      -3.506   6.647  13.401  1.00  0.00     0.002 C 
HETATM    8  C12 UNL     1      -5.008   8.365  15.219  1.00  0.00     0.007 C 
HETATM    9  C11 UNL     1      -5.742   7.328  14.326  1.00  0.00     0.002 C 
HETATM   10  C2  UNL     1      -7.156   6.894  14.876  1.00  0.00    -0.016 C 
HETATM   11  C10 UNL     1      -4.826   6.114  13.975  1.00  0.00    -0.004 C 
HETATM   12  C1  UNL     1      -7.063   6.291  16.295  1.00  0.00     0.020 C 
HETATM   13  C3  UNL     1      -8.070   8.154  14.923  1.00  0.00     0.022 C 
HETATM   14  C7  UNL     1      -7.761   5.837  13.942  1.00  0.00    -0.068 C 
HETATM   15  C4  UNL     1      -9.554   7.833  15.047  1.00  0.00     0.084 C 
HETATM   16  C5  UNL     1      -9.979   6.920  13.927  1.00  0.00     0.149 C 
HETATM   17  O1  UNL     1     -11.092   6.980  13.415  1.00  0.00    -0.293 OA
HETATM   18  C6  UNL     1      -9.030   5.874  13.489  1.00  0.00     0.053 C 
HETATM   19  C8  UNL     1      -6.863   4.692  13.540  1.00  0.00     0.035 C 
HETATM   20  C9  UNL     1      -5.534   5.185  12.981  1.00  0.00     0.010 C 
HETATM   21  C17 UNL     1      -2.436   5.651  12.958  1.00  0.00     0.009 C 
HETATM   22  C18 UNL     1      -1.131   6.479  12.900  1.00  0.00     0.047 C 
BRANCH   3  23
HETATM   23  O2  UNL     1      -1.897   8.672  12.368  1.00  0.00    -0.381 OA
HETATM   24  H27 UNL     1      -1.178   9.315  12.187  1.00  0.00     0.211 HD
ENDBRANCH   3  23
ENDBRANCH   1   3
BRANCH   1  25
HETATM   25  C21 UNL     1       0.861   7.959  14.848  1.00  0.00     0.260 C 
BRANCH  25  26
HETATM   26  O4  UNL     1       1.071   8.320  16.206  1.00  0.00    -0.314 OA
BRANCH  26  27
HETATM   27  C22 UNL     1       2.242   8.978  16.442  1.00  0.00     0.259 C 
HETATM   28  O5  UNL     1       3.347   8.543  16.166  1.00  0.00    -0.265 OA
BRANCH  27  29
HETATM   29  C23 UNL     1       1.977  10.333  17.045  1.00  0.00     0.120 C 
BRANCH  29  30
HETATM   30  C24 UNL     1       0.658  10.302  17.804  1.00  0.00     0.112 C 
BRANCH  30  31
HETATM   31  C25 UNL     1       0.808  10.832  19.217  1.00  0.00     0.218 C 
HETATM   32  O6  UNL     1       0.035  11.641  19.713  1.00  0.00    -0.274 OA
HETATM   33  N1  UNL     1       1.936  10.360  19.853  1.00  0.00    -0.360 N 
HETATM   34  H34 UNL     1       2.408   9.558  19.451  1.00  0.00     0.162 HD
BRANCH  33  35
HETATM   35  C26 UNL     1       2.155  10.590  21.274  1.00  0.00     0.132 C 
BRANCH  35  36
HETATM   36  C27 UNL     1       3.607  10.272  21.715  1.00  0.00     0.046 C 
BRANCH  36  37
HETATM   37  C28 UNL     1       3.641   9.304  22.909  1.00  0.00     0.120 C 
BRANCH  37  38
HETATM   38  C29 UNL     1       2.405   8.451  23.007  1.00  0.00     0.140 C 
HETATM   39  O7  UNL     1       1.888   7.779  22.133  1.00  0.00    -0.650 OA
BRANCH  38  40
HETATM   40  O8  UNL     1       1.873   8.483  24.246  1.00  0.00    -0.776 OA
HETATM   41  H40 UNL     1       1.101   7.884  24.185  1.00  0.00     0.167 HD
ENDBRANCH  38  40
ENDBRANCH  37  38
ENDBRANCH  36  37
BRANCH  36  42
HETATM   42  C30 UNL     1       4.377  11.548  22.055  1.00  0.00    -0.052 A 
HETATM   43  C31 UNL     1       3.972  12.809  21.589  1.00  0.00     0.007 A 
HETATM   44  C32 UNL     1       4.717  13.951  21.896  1.00  0.00     0.001 A 
HETATM   45  C33 UNL     1       5.868  13.849  22.675  1.00  0.00     0.000 A 
HETATM   46  C34 UNL     1       6.273  12.606  23.152  1.00  0.00     0.001 A 
HETATM   47  C35 UNL     1       5.536  11.461  22.844  1.00  0.00     0.007 A 
ENDBRANCH  36  42
ENDBRANCH  35  36
ENDBRANCH  33  35
ENDBRANCH  30  31
ENDBRANCH  29  30
ENDBRANCH  27  29
ENDBRANCH  26  27
ENDBRANCH  25  26
ENDBRANCH   1  25
TORSDOF 14
ENDMDL
MODEL 4
REMARK minimizedAffinity -9.56905365
REMARK CNNscore 0.315243959
REMARK CNNaffinity 7.11554575
REMARK  14 active torsions:
REMARK  status: ('A' for Active; 'I' for Inactive)
REMARK    1  A    between atoms: C19_20  and  O2_21 
REMARK    2  A    between atoms: C19_20  and  C20_22 
REMARK    3  A    between atoms: C20_22  and  C21_24 
REMARK    4  A    between atoms: C21_24  and  O4_25 
REMARK    5  A    between atoms: O4_25  and  C22_26 
REMARK    6  A    between atoms: C22_26  and  C23_28 
REMARK    7  A    between atoms: C23_28  and  C24_29 
REMARK    8  A    between atoms: C24_29  and  C25_30 
REMARK       I    between atoms: C25_30  and  N1_32 
REMARK    9  A    between atoms: N1_32  and  C26_33 
REMARK   10  A    between atoms: C26_33  and  C27_34 
REMARK   11  A    between atoms: C27_34  and  C28_35 
REMARK   12  A    between atoms: C27_34  and  C30_39 
REMARK   13  A    between atoms: C28_35  and  C29_36 
REMARK   14  A    between atoms: C29_36  and  O8_38 
ROOT
HETATM    1  C20 UNL     1      -0.720   8.677  14.289  1.00  0.00     0.185 C 
HETATM    2  O3  UNL     1       0.018   9.332  13.542  1.00  0.00    -0.292 OA
ENDROOT
BRANCH   1   3
HETATM    3  C19 UNL     1      -1.979   8.001  13.686  1.00  0.00     0.128 C 
HETATM    4  C14 UNL     1      -3.252   7.836  14.575  1.00  0.00    -0.002 C 
HETATM    5  C13 UNL     1      -4.041   9.122  14.875  1.00  0.00     0.013 C 
HETATM    6  C15 UNL     1      -2.949   7.104  15.905  1.00  0.00     0.019 C 
HETATM    7  C16 UNL     1      -4.120   6.975  13.615  1.00  0.00     0.002 C 
HETATM    8  C12 UNL     1      -5.432   8.816  15.460  1.00  0.00     0.007 C 
HETATM    9  C11 UNL     1      -6.271   7.854  14.575  1.00  0.00     0.002 C 
HETATM   10  C2  UNL     1      -7.709   7.548  15.145  1.00  0.00    -0.016 C 
HETATM   11  C10 UNL     1      -5.474   6.563  14.208  1.00  0.00    -0.004 C 
HETATM   12  C1  UNL     1      -7.651   6.935  16.562  1.00  0.00     0.020 C 
HETATM   13  C3  UNL     1      -8.505   8.887  15.209  1.00  0.00     0.022 C 
HETATM   14  C7  UNL     1      -8.423   6.555  14.218  1.00  0.00    -0.068 C 
HETATM   15  C4  UNL     1     -10.009   8.702  15.355  1.00  0.00     0.084 C 
HETATM   16  C5  UNL     1     -10.533   7.836  14.240  1.00  0.00     0.149 C 
HETATM   17  O1  UNL     1     -11.643   7.999  13.744  1.00  0.00    -0.293 OA
HETATM   18  C6  UNL     1      -9.689   6.709  13.785  1.00  0.00     0.053 C 
HETATM   19  C8  UNL     1      -7.639   5.334  13.801  1.00  0.00     0.035 C 
HETATM   20  C9  UNL     1      -6.278   5.706  13.223  1.00  0.00     0.010 C 
HETATM   21  C17 UNL     1      -3.152   5.888  13.154  1.00  0.00     0.009 C 
HETATM   22  C18 UNL     1      -1.778   6.593  13.078  1.00  0.00     0.047 C 
BRANCH   3  23
HETATM   23  O2  UNL     1      -2.349   8.849  12.563  1.00  0.00    -0.381 OA
HETATM   24  H27 UNL     1      -1.576   9.424  12.372  1.00  0.00     0.211 HD
ENDBRANCH   3  23
ENDBRANCH   1   3
BRANCH   1  25
HETATM   25  C21 UNL     1      -0.371   8.571  15.770  1.00  0.00     0.260 C 
BRANCH  25  26
HETATM   26  O4  UNL     1       0.558   7.562  16.141  1.00  0.00    -0.314 OA
BRANCH  26  27
HETATM   27  C22 UNL     1       1.839   8.003  16.298  1.00  0.00     0.259 C 
HETATM   28  O5  UNL     1       2.202   8.775  17.170  1.00  0.00    -0.265 OA
BRANCH  27  29
HETATM   29  C23 UNL     1       2.748   7.369  15.277  1.00  0.00     0.120 C 
BRANCH  29  30
HETATM   30  C24 UNL     1       4.052   8.150  15.203  1.00  0.00     0.112 C 
BRANCH  30  31
HETATM   31  C25 UNL     1       4.625   8.157  13.799  1.00  0.00     0.218 C 
HETATM   32  O6  UNL     1       5.689   8.690  13.513  1.00  0.00    -0.274 OA
HETATM   33  N1  UNL     1       3.794   7.561  12.874  1.00  0.00    -0.360 N 
HETATM   34  H34 UNL     1       3.036   6.983  13.219  1.00  0.00     0.162 HD
BRANCH  33  35
HETATM   35  C26 UNL     1       4.245   7.290  11.517  1.00  0.00     0.132 C 
BRANCH  35  36
HETATM   36  C27 UNL     1       3.306   6.318  10.758  1.00  0.00     0.046 C 
BRANCH  36  37
HETATM   37  C28 UNL     1       4.081   5.433   9.768  1.00  0.00     0.120 C 
BRANCH  37  38
HETATM   38  C29 UNL     1       3.414   4.107   9.520  1.00  0.00     0.140 C 
HETATM   39  O7  UNL     1       2.611   3.528  10.230  1.00  0.00    -0.650 OA
BRANCH  38  40
HETATM   40  O8  UNL     1       3.801   3.565   8.348  1.00  0.00    -0.776 OA
HETATM   41  H40 UNL     1       3.292   2.730   8.296  1.00  0.00     0.167 HD
ENDBRANCH  38  40
ENDBRANCH  37  38
ENDBRANCH  36  37
BRANCH  36  42
HETATM   42  C30 UNL     1       2.197   7.073  10.025  1.00  0.00    -0.052 A 
HETATM   43  C31 UNL     1       2.297   7.407   8.665  1.00  0.00     0.007 A 
HETATM   44  C32 UNL     1       1.277   8.123   8.034  1.00  0.00     0.001 A 
HETATM   45  C33 UNL     1       0.145   8.509   8.749  1.00  0.00     0.000 A 
HETATM   46  C34 UNL     1       0.029   8.175  10.095  1.00  0.00     0.001 A 
HETATM   47  C35 UNL     1       1.048   7.463  10.732  1.00  0.00     0.007 A 
ENDBRANCH  36  42
ENDBRANCH  35  36
ENDBRANCH  33  35
ENDBRANCH  30  31
ENDBRANCH  29  30
ENDBRANCH  27  29
ENDBRANCH  26  27
ENDBRANCH  25  26
ENDBRANCH   1  25
TORSDOF 14
ENDMDL
MODEL 5
REMARK minimizedAffinity -8.50941563
REMARK CNNscore 0.307421088
REMARK CNNaffinity 6.82836199
REMARK  14 active torsions:
REMARK  status: ('A' for Active; 'I' for Inactive)
REMARK    1  A    between atoms: C19_20  and  O2_21 
REMARK    2  A    between atoms: C19_20  and  C20_22 
REMARK    3  A    between atoms: C20_22  and  C21_24 
REMARK    4  A    between atoms: C21_24  and  O4_25 
REMARK    5  A    between atoms: O4_25  and  C22_26 
REMARK    6  A    between atoms: C22_26  and  C23_28 
REMARK    7  A    between atoms: C23_28  and  C24_29 
REMARK    8  A    between atoms: C24_29  and  C25_30 
REMARK       I    between atoms: C25_30  and  N1_32 
REMARK    9  A    between atoms: N1_32  and  C26_33 
REMARK   10  A    between atoms: C26_33  and  C27_34 
REMARK   11  A    between atoms: C27_34  and  C28_35 
REMARK   12  A    between atoms: C27_34  and  C30_39 
REMARK   13  A    between atoms: C28_35  and  C29_36 
REMARK   14  A    between atoms: C29_36  and  O8_38 
ROOT
HETATM    1  C20 UNL     1      -3.468   5.620  14.428  1.00  0.00     0.185 C 
HETATM    2  O3  UNL     1      -2.883   4.560  14.168  1.00  0.00    -0.292 OA
ENDROOT
BRANCH   1   3
HETATM    3  C19 UNL     1      -4.876   5.860  13.825  1.00  0.00     0.128 C 
HETATM    4  C14 UNL     1      -5.984   6.506  14.716  1.00  0.00    -0.002 C 
HETATM    5  C13 UNL     1      -5.820   8.004  15.023  1.00  0.00     0.013 C 
HETATM    6  C15 UNL     1      -6.194   5.735  16.042  1.00  0.00     0.019 C 
HETATM    7  C16 UNL     1      -7.197   6.361  13.754  1.00  0.00     0.002 C 
HETATM    8  C12 UNL     1      -7.107   8.611  15.610  1.00  0.00     0.007 C 
HETATM    9  C11 UNL     1      -8.359   8.370  14.723  1.00  0.00     0.002 C 
HETATM   10  C2  UNL     1      -9.684   9.007  15.295  1.00  0.00    -0.016 C 
HETATM   11  C10 UNL     1      -8.520   6.863  14.348  1.00  0.00    -0.004 C 
HETATM   12  C1  UNL     1     -10.015   8.479  16.709  1.00  0.00     0.020 C 
HETATM   13  C3  UNL     1      -9.492  10.551  15.367  1.00  0.00     0.022 C 
HETATM   14  C7  UNL     1     -10.856   8.663  14.365  1.00  0.00    -0.068 C 
HETATM   15  C4  UNL     1     -10.795  11.326  15.515  1.00  0.00     0.084 C 
HETATM   16  C5  UNL     1     -11.738  10.968  14.397  1.00  0.00     0.149 C 
HETATM   17  O1  UNL     1     -12.515  11.779  13.904  1.00  0.00    -0.293 OA
HETATM   18  C6  UNL     1     -11.762   9.563  13.935  1.00  0.00     0.053 C 
HETATM   19  C8  UNL     1     -10.984   7.219  13.940  1.00  0.00     0.035 C 
HETATM   20  C9  UNL     1      -9.680   6.683  13.361  1.00  0.00     0.010 C 
HETATM   21  C17 UNL     1      -7.098   4.911  13.286  1.00  0.00     0.009 C 
HETATM   22  C18 UNL     1      -5.579   4.627  13.210  1.00  0.00     0.047 C 
BRANCH   3  23
HETATM   23  O2  UNL     1      -4.648   6.762  12.706  1.00  0.00    -0.381 OA
HETATM   24  H27 UNL     1      -3.685   6.744  12.516  1.00  0.00     0.211 HD
ENDBRANCH   3  23
ENDBRANCH   1   3
BRANCH   1  25
HETATM   25  C21 UNL     1      -2.778   6.649  15.317  1.00  0.00     0.260 C 
BRANCH  25  26
HETATM   26  O4  UNL     1      -2.280   7.818  14.680  1.00  0.00    -0.314 OA
BRANCH  26  27
HETATM   27  C22 UNL     1      -1.362   7.580  13.699  1.00  0.00     0.259 C 
HETATM   28  O5  UNL     1      -1.526   7.847  12.520  1.00  0.00    -0.265 OA
BRANCH  27  29
HETATM   29  C23 UNL     1      -0.105   6.989  14.282  1.00  0.00     0.120 C 
BRANCH  29  30
HETATM   30  C24 UNL     1       0.878   8.105  14.606  1.00  0.00     0.112 C 
BRANCH  30  31
HETATM   31  C25 UNL     1       1.833   8.365  13.457  1.00  0.00     0.218 C 
HETATM   32  O6  UNL     1       1.663   9.255  12.634  1.00  0.00    -0.274 OA
HETATM   33  N1  UNL     1       2.869   7.457  13.400  1.00  0.00    -0.360 N 
HETATM   34  H34 UNL     1       3.042   6.883  14.216  1.00  0.00     0.162 HD
BRANCH  33  35
HETATM   35  C26 UNL     1       3.994   7.651  12.498  1.00  0.00     0.132 C 
BRANCH  35  36
HETATM   36  C27 UNL     1       3.979   6.663  11.303  1.00  0.00     0.046 C 
BRANCH  36  37
HETATM   37  C28 UNL     1       5.400   6.334  10.817  1.00  0.00     0.120 C 
BRANCH  37  38
HETATM   38  C29 UNL     1       6.462   7.130  11.527  1.00  0.00     0.140 C 
HETATM   39  O7  UNL     1       6.988   6.889  12.598  1.00  0.00    -0.650 OA
BRANCH  38  40
HETATM   40  O8  UNL     1       6.822   8.222  10.822  1.00  0.00    -0.776 OA
HETATM   41  H40 UNL     1       7.519   8.636  11.371  1.00  0.00     0.167 HD
ENDBRANCH  38  40
ENDBRANCH  37  38
ENDBRANCH  36  37
BRANCH  36  42
HETATM   42  C30 UNL     1       3.144   7.205  10.143  1.00  0.00    -0.052 A 
HETATM   43  C31 UNL     1       1.796   6.855   9.969  1.00  0.00     0.007 A 
HETATM   44  C32 UNL     1       1.070   7.347   8.881  1.00  0.00     0.001 A 
HETATM   45  C33 UNL     1       1.678   8.197   7.959  1.00  0.00     0.000 A 
HETATM   46  C34 UNL     1       3.012   8.560   8.126  1.00  0.00     0.001 A 
HETATM   47  C35 UNL     1       3.743   8.067   9.209  1.00  0.00     0.007 A 
ENDBRANCH  36  42
ENDBRANCH  35  36
ENDBRANCH  33  35
ENDBRANCH  30  31
ENDBRANCH  29  30
ENDBRANCH  27  29
ENDBRANCH  26  27
ENDBRANCH  25  26
ENDBRANCH   1  25
TORSDOF 14
ENDMDL
MODEL 6
REMARK minimizedAffinity -9.01022911
REMARK CNNscore 0.302167356
REMARK CNNaffinity 6.66444159
REMARK  14 active torsions:
REMARK  status: ('A' for Active; 'I' for Inactive)
REMARK    1  A    between atoms: C19_20  and  O2_21 
REMARK    2  A    between atoms: C19_20  and  C20_22 
REMARK    3  A    between atoms: C20_22  and  C21_24 
REMARK    4  A    between atoms: C21_24  and  O4_25 
REMARK    5  A    between atoms: O4_25  and  C22_26 
REMARK    6  A    between atoms: C22_26  and  C23_28 
REMARK    7  A    between atoms: C23_28  and  C24_29 
REMARK    8  A    between atoms: C24_29  and  C25_30 
REMARK       I    between atoms: C25_30  and  N1_32 
REMARK    9  A    between atoms: N1_32  and  C26_33 
REMARK   10  A    between atoms: C26_33  and  C27_34 
REMARK   11  A    between atoms: C27_34  and  C28_35 
REMARK   12  A    between atoms: C27_34  and  C30_39 
REMARK   13  A    between atoms: C28_35  and  C29_36 
REMARK   14  A    between atoms: C29_36  and  O8_38 
ROOT
HETATM    1  C20 UNL     1       1.324   6.980  14.129  1.00  0.00     0.185 C 
HETATM    2  O3  UNL     1       1.845   6.484  13.121  1.00  0.00    -0.292 OA
ENDROOT
BRANCH   1   3
HETATM    3  C19 UNL     1      -0.197   6.780  14.355  1.00  0.00     0.128 C 
HETATM    4  C14 UNL     1      -1.049   6.103  13.236  1.00  0.00    -0.002 C 
HETATM    5  C13 UNL     1      -0.841   4.590  13.048  1.00  0.00     0.013 C 
HETATM    6  C15 UNL     1      -0.893   6.811  11.869  1.00  0.00     0.019 C 
HETATM    7  C16 UNL     1      -2.466   6.302  13.843  1.00  0.00     0.002 C 
HETATM    8  C12 UNL     1      -1.945   3.966  12.174  1.00  0.00     0.007 C 
HETATM    9  C11 UNL     1      -3.378   4.260  12.694  1.00  0.00     0.002 C 
HETATM   10  C2  UNL     1      -4.523   3.608  11.826  1.00  0.00    -0.016 C 
HETATM   11  C10 UNL     1      -3.600   5.784  12.948  1.00  0.00    -0.004 C 
HETATM   12  C1  UNL     1      -4.465   4.070  10.353  1.00  0.00     0.020 C 
HETATM   13  C3  UNL     1      -4.350   2.060  11.874  1.00  0.00     0.022 C 
HETATM   14  C7  UNL     1      -5.888   4.005  12.404  1.00  0.00    -0.068 C 
HETATM   15  C4  UNL     1      -5.586   1.289  11.427  1.00  0.00     0.084 C 
HETATM   16  C5  UNL     1      -6.779   1.708  12.245  1.00  0.00     0.149 C 
HETATM   17  O1  UNL     1      -7.673   0.928  12.554  1.00  0.00    -0.293 OA
HETATM   18  C6  UNL     1      -6.892   3.134  12.622  1.00  0.00     0.053 C 
HETATM   19  C8  UNL     1      -6.092   5.468  12.718  1.00  0.00     0.035 C 
HETATM   20  C9  UNL     1      -4.972   6.020  13.592  1.00  0.00     0.010 C 
HETATM   21  C17 UNL     1      -2.462   7.772  14.257  1.00  0.00     0.009 C 
HETATM   22  C18 UNL     1      -1.010   8.047  14.712  1.00  0.00     0.047 C 
BRANCH   3  23
HETATM   23  O2  UNL     1      -0.284   5.931  15.533  1.00  0.00    -0.381 OA
HETATM   24  H27 UNL     1       0.597   5.950  15.966  1.00  0.00     0.211 HD
ENDBRANCH   3  23
ENDBRANCH   1   3
BRANCH   1  25
HETATM   25  C21 UNL     1       2.193   7.777  15.097  1.00  0.00     0.260 C 
BRANCH  25  26
HETATM   26  O4  UNL     1       2.518   9.109  14.721  1.00  0.00    -0.314 OA
BRANCH  26  27
HETATM   27  C22 UNL     1       2.902   9.911  15.756  1.00  0.00     0.259 C 
HETATM   28  O5  UNL     1       3.588  10.912  15.636  1.00  0.00    -0.265 OA
BRANCH  27  29
HETATM   29  C23 UNL     1       2.324   9.414  17.055  1.00  0.00     0.120 C 
BRANCH  29  30
HETATM   30  C24 UNL     1       1.298  10.413  17.570  1.00  0.00     0.112 C 
BRANCH  30  31
HETATM   31  C25 UNL     1       1.728  11.035  18.884  1.00  0.00     0.218 C 
HETATM   32  O6  UNL     1       1.873  12.241  19.037  1.00  0.00    -0.274 OA
HETATM   33  N1  UNL     1       2.000  10.101  19.860  1.00  0.00    -0.360 N 
HETATM   34  H34 UNL     1       1.672   9.153  19.714  1.00  0.00     0.162 HD
BRANCH  33  35
HETATM   35  C26 UNL     1       2.233  10.497  21.241  1.00  0.00     0.132 C 
BRANCH  35  36
HETATM   36  C27 UNL     1       3.695  10.254  21.694  1.00  0.00     0.046 C 
BRANCH  36  37
HETATM   37  C28 UNL     1       3.779   9.198  22.809  1.00  0.00     0.120 C 
BRANCH  37  38
HETATM   38  C29 UNL     1       2.494   8.436  22.992  1.00  0.00     0.140 C 
HETATM   39  O7  UNL     1       1.878   7.796  22.159  1.00  0.00    -0.650 OA
BRANCH  38  40
HETATM   40  O8  UNL     1       2.043   8.516  24.260  1.00  0.00    -0.776 OA
HETATM   41  H40 UNL     1       1.228   7.974  24.254  1.00  0.00     0.167 HD
ENDBRANCH  38  40
ENDBRANCH  37  38
ENDBRANCH  36  37
BRANCH  36  42
HETATM   42  C30 UNL     1       4.358  11.552  22.155  1.00  0.00    -0.052 A 
HETATM   43  C31 UNL     1       5.682  11.586  22.623  1.00  0.00     0.007 A 
HETATM   44  C32 UNL     1       6.248  12.785  23.063  1.00  0.00     0.001 A 
HETATM   45  C33 UNL     1       5.503  13.963  23.036  1.00  0.00     0.000 A 
HETATM   46  C34 UNL     1       4.193  13.944  22.566  1.00  0.00     0.001 A 
HETATM   47  C35 UNL     1       3.622  12.747  22.129  1.00  0.00     0.007 A 
ENDBRANCH  36  42
ENDBRANCH  35  36
ENDBRANCH  33  35
ENDBRANCH  30  31
ENDBRANCH  29  30
ENDBRANCH  27  29
ENDBRANCH  26  27
ENDBRANCH  25  26
ENDBRANCH   1  25
TORSDOF 14
ENDMDL
MODEL 7
REMARK minimizedAffinity -8.23841953
REMARK CNNscore 0.277153015
REMARK CNNaffinity 7.08439255
REMARK  14 active torsions:
REMARK  status: ('A' for Active; 'I' for Inactive)
REMARK    1  A    between atoms: C19_20  and  O2_21 
REMARK    2  A    between atoms: C19_20  and  C20_22 
REMARK    3  A    between atoms: C20_22  and  C21_24 
REMARK    4  A    between atoms: C21_24  and  O4_25 
REMARK    5  A    between atoms: O4_25  and  C22_26 
REMARK    6  A    between atoms: C22_26  and  C23_28 
REMARK    7  A    between atoms: C23_28  and  C24_29 
REMARK    8  A    between atoms: C24_29  and  C25_30 
REMARK       I    between atoms: C25_30  and  N1_32 
REMARK    9  A    between atoms: N1_32  and  C26_33 
REMARK   10  A    between atoms: C26_33  and  C27_34 
REMARK   11  A    between atoms: C27_34  and  C28_35 
REMARK   12  A    between atoms: C27_34  and  C30_39 
REMARK   13  A    between atoms: C28_35  and  C29_36 
REMARK   14  A    between atoms: C29_36  and  O8_38 
ROOT
HETATM    1  C20 UNL     1      -5.758   4.510  13.395  1.00  0.00     0.185 C 
HETATM    2  O3  UNL     1      -6.108   3.458  12.845  1.00  0.00    -0.292 OA
ENDROOT
BRANCH   1   3
HETATM    3  C19 UNL     1      -6.699   5.148  14.450  1.00  0.00     0.128 C 
HETATM    4  C14 UNL     1      -7.721   6.237  13.995  1.00  0.00    -0.002 C 
HETATM    5  C13 UNL     1      -8.921   5.739  13.171  1.00  0.00     0.013 C 
HETATM    6  C15 UNL     1      -7.039   7.406  13.244  1.00  0.00     0.019 C 
HETATM    7  C16 UNL     1      -8.263   6.669  15.386  1.00  0.00     0.002 C 
HETATM    8  C12 UNL     1     -10.023   6.809  13.063  1.00  0.00     0.007 C 
HETATM    9  C11 UNL     1     -10.493   7.348  14.442  1.00  0.00     0.002 C 
HETATM   10  C2  UNL     1     -11.640   8.427  14.353  1.00  0.00    -0.016 C 
HETATM   11  C10 UNL     1      -9.289   7.809  15.323  1.00  0.00    -0.004 C 
HETATM   12  C1  UNL     1     -11.221   9.647  13.503  1.00  0.00     0.020 C 
HETATM   13  C3  UNL     1     -12.887   7.761  13.697  1.00  0.00     0.022 C 
HETATM   14  C7  UNL     1     -11.985   8.919  15.765  1.00  0.00    -0.068 C 
HETATM   15  C4  UNL     1     -14.179   8.540  13.904  1.00  0.00     0.084 C 
HETATM   16  C5  UNL     1     -14.418   8.762  15.375  1.00  0.00     0.149 C 
HETATM   17  O1  UNL     1     -15.542   8.780  15.865  1.00  0.00    -0.293 OA
HETATM   18  C6  UNL     1     -13.244   9.036  16.232  1.00  0.00     0.053 C 
HETATM   19  C8  UNL     1     -10.825   9.305  16.652  1.00  0.00     0.035 C 
HETATM   20  C9  UNL     1      -9.777   8.201  16.723  1.00  0.00     0.010 C 
HETATM   21  C17 UNL     1      -6.991   6.864  16.209  1.00  0.00     0.009 C 
HETATM   22  C18 UNL     1      -6.017   5.784  15.683  1.00  0.00     0.047 C 
BRANCH   3  23
HETATM   23  O2  UNL     1      -7.469   4.032  14.978  1.00  0.00    -0.381 OA
HETATM   24  H27 UNL     1      -7.004   3.210  14.708  1.00  0.00     0.211 HD
ENDBRANCH   3  23
ENDBRANCH   1   3
BRANCH   1  25
HETATM   25  C21 UNL     1      -4.425   5.143  13.006  1.00  0.00     0.260 C 
BRANCH  25  26
HETATM   26  O4  UNL     1      -3.247   4.507  13.483  1.00  0.00    -0.314 OA
BRANCH  26  27
HETATM   27  C22 UNL     1      -2.107   4.857  12.821  1.00  0.00     0.259 C 
HETATM   28  O5  UNL     1      -1.973   4.820  11.609  1.00  0.00    -0.265 OA
BRANCH  27  29
HETATM   29  C23 UNL     1      -1.058   5.338  13.790  1.00  0.00     0.120 C 
BRANCH  29  30
HETATM   30  C24 UNL     1       0.288   5.412  13.085  1.00  0.00     0.112 C 
BRANCH  30  31
HETATM   31  C25 UNL     1       0.656   6.838  12.723  1.00  0.00     0.218 C 
HETATM   32  O6  UNL     1       0.395   7.798  13.437  1.00  0.00    -0.274 OA
HETATM   33  N1  UNL     1       1.253   6.944  11.485  1.00  0.00    -0.360 N 
HETATM   34  H34 UNL     1       1.603   6.098  11.052  1.00  0.00     0.162 HD
BRANCH  33  35
HETATM   35  C26 UNL     1       1.858   8.192  11.042  1.00  0.00     0.132 C 
BRANCH  35  36
HETATM   36  C27 UNL     1       2.859   7.990   9.876  1.00  0.00     0.046 C 
BRANCH  36  37
HETATM   37  C28 UNL     1       2.415   6.861   8.932  1.00  0.00     0.120 C 
BRANCH  37  38
HETATM   38  C29 UNL     1       1.553   7.350   7.799  1.00  0.00     0.140 C 
HETATM   39  O7  UNL     1       0.601   8.107   7.854  1.00  0.00    -0.650 OA
BRANCH  38  40
HETATM   40  O8  UNL     1       1.955   6.847   6.614  1.00  0.00    -0.776 OA
HETATM   41  H40 UNL     1       1.338   7.248   5.967  1.00  0.00     0.167 HD
ENDBRANCH  38  40
ENDBRANCH  37  38
ENDBRANCH  36  37
BRANCH  36  42
HETATM   42  C30 UNL     1       4.269   7.711  10.395  1.00  0.00    -0.052 A 
HETATM   43  C31 UNL     1       5.228   8.728  10.529  1.00  0.00     0.007 A 
HETATM   44  C32 UNL     1       6.517   8.432  10.980  1.00  0.00     0.001 A 
HETATM   45  C33 UNL     1       6.862   7.122  11.308  1.00  0.00     0.000 A 
HETATM   46  C34 UNL     1       5.917   6.107  11.189  1.00  0.00     0.001 A 
HETATM   47  C35 UNL     1       4.630   6.396  10.734  1.00  0.00     0.007 A 
ENDBRANCH  36  42
ENDBRANCH  35  36
ENDBRANCH  33  35
ENDBRANCH  30  31
ENDBRANCH  29  30
ENDBRANCH  27  29
ENDBRANCH  26  27
ENDBRANCH  25  26
ENDBRANCH   1  25
TORSDOF 14
ENDMDL
MODEL 8
REMARK minimizedAffinity -9.11445141
REMARK CNNscore 0.274514645
REMARK CNNaffinity 7.00103045
REMARK  14 active torsions:
REMARK  status: ('A' for Active; 'I' for Inactive)
REMARK    1  A    between atoms: C19_20  and  O2_21 
REMARK    2  A    between atoms: C19_20  and  C20_22 
REMARK    3  A    between atoms: C20_22  and  C21_24 
REMARK    4  A    between atoms: C21_24  and  O4_25 
REMARK    5  A    between atoms: O4_25  and  C22_26 
REMARK    6  A    between atoms: C22_26  and  C23_28 
REMARK    7  A    between atoms: C23_28  and  C24_29 
REMARK    8  A    between atoms: C24_29  and  C25_30 
REMARK       I    between atoms: C25_30  and  N1_32 
REMARK    9  A    between atoms: N1_32  and  C26_33 
REMARK   10  A    between atoms: C26_33  and  C27_34 
REMARK   11  A    between atoms: C27_34  and  C28_35 
REMARK   12  A    between atoms: C27_34  and  C30_39 
REMARK   13  A    between atoms: C28_35  and  C29_36 
REMARK   14  A    between atoms: C29_36  and  O8_38 
ROOT
HETATM    1  C20 UNL     1       0.422   7.301  13.223  1.00  0.00     0.185 C 
HETATM    2  O3  UNL     1       0.396   7.870  14.323  1.00  0.00    -0.292 OA
ENDROOT
BRANCH   1   3
HETATM    3  C19 UNL     1      -0.874   6.626  12.704  1.00  0.00     0.128 C 
HETATM    4  C14 UNL     1      -2.097   6.489  13.665  1.00  0.00    -0.002 C 
HETATM    5  C13 UNL     1      -2.857   7.788  13.984  1.00  0.00     0.013 C 
HETATM    6  C15 UNL     1      -1.726   5.778  14.989  1.00  0.00     0.019 C 
HETATM    7  C16 UNL     1      -3.023   5.619  12.770  1.00  0.00     0.002 C 
HETATM    8  C12 UNL     1      -4.216   7.505  14.651  1.00  0.00     0.007 C 
HETATM    9  C11 UNL     1      -5.111   6.535  13.832  1.00  0.00     0.002 C 
HETATM   10  C2  UNL     1      -6.518   6.253  14.487  1.00  0.00    -0.016 C 
HETATM   11  C10 UNL     1      -4.346   5.230  13.445  1.00  0.00    -0.004 C 
HETATM   12  C1  UNL     1      -6.386   5.665  15.909  1.00  0.00     0.020 C 
HETATM   13  C3  UNL     1      -7.297   7.600  14.570  1.00  0.00     0.022 C 
HETATM   14  C7  UNL     1      -7.290   5.249  13.619  1.00  0.00    -0.068 C 
HETATM   15  C4  UNL     1      -8.793   7.431  14.802  1.00  0.00     0.084 C 
HETATM   16  C5  UNL     1      -9.385   6.549  13.733  1.00  0.00     0.149 C 
HETATM   17  O1  UNL     1     -10.519   6.714  13.297  1.00  0.00    -0.293 OA
HETATM   18  C6  UNL     1      -8.577   5.407  13.254  1.00  0.00     0.053 C 
HETATM   19  C8  UNL     1      -6.540   4.013  13.181  1.00  0.00     0.035 C 
HETATM   20  C9  UNL     1      -5.211   4.363  12.522  1.00  0.00     0.010 C 
HETATM   21  C17 UNL     1      -2.091   4.514  12.277  1.00  0.00     0.009 C 
HETATM   22  C18 UNL     1      -0.718   5.206  12.112  1.00  0.00     0.047 C 
BRANCH   3  23
HETATM   23  O2  UNL     1      -1.298   7.457  11.587  1.00  0.00    -0.381 OA
HETATM   24  H27 UNL     1      -0.533   8.021  11.343  1.00  0.00     0.211 HD
ENDBRANCH   3  23
ENDBRANCH   1   3
BRANCH   1  25
HETATM   25  C21 UNL     1       1.727   7.273  12.433  1.00  0.00     0.260 C 
BRANCH  25  26
HETATM   26  O4  UNL     1       1.646   7.582  11.048  1.00  0.00    -0.314 OA
BRANCH  26  27
HETATM   27  C22 UNL     1       2.302   6.706  10.234  1.00  0.00     0.259 C 
HETATM   28  O5  UNL     1       1.810   5.688   9.775  1.00  0.00    -0.265 OA
BRANCH  27  29
HETATM   29  C23 UNL     1       3.697   7.195   9.943  1.00  0.00     0.120 C 
BRANCH  29  30
HETATM   30  C24 UNL     1       4.708   6.261  10.594  1.00  0.00     0.112 C 
BRANCH  30  31
HETATM   31  C25 UNL     1       5.983   6.989  10.973  1.00  0.00     0.218 C 
HETATM   32  O6  UNL     1       7.090   6.650  10.574  1.00  0.00    -0.274 OA
HETATM   33  N1  UNL     1       5.771   8.023  11.860  1.00  0.00    -0.360 N 
HETATM   34  H34 UNL     1       4.822   8.354  11.985  1.00  0.00     0.162 HD
BRANCH  33  35
HETATM   35  C26 UNL     1       6.832   8.964  12.189  1.00  0.00     0.132 C 
BRANCH  35  36
HETATM   36  C27 UNL     1       7.500   8.658  13.554  1.00  0.00     0.046 C 
BRANCH  36  37
HETATM   37  C28 UNL     1       6.727   9.290  14.723  1.00  0.00     0.120 C 
BRANCH  37  38
HETATM   38  C29 UNL     1       6.091   8.267  15.625  1.00  0.00     0.140 C 
HETATM   39  O7  UNL     1       4.984   7.770  15.530  1.00  0.00    -0.650 OA
BRANCH  38  40
HETATM   40  O8  UNL     1       6.914   7.908  16.631  1.00  0.00    -0.776 OA
HETATM   41  H40 UNL     1       6.401   7.237  17.126  1.00  0.00     0.167 HD
ENDBRANCH  38  40
ENDBRANCH  37  38
ENDBRANCH  36  37
BRANCH  36  42
HETATM   42  C30 UNL     1       8.956   9.125  13.578  1.00  0.00    -0.052 A 
HETATM   43  C31 UNL     1       9.327  10.423  13.192  1.00  0.00     0.007 A 
HETATM   44  C32 UNL     1      10.670  10.808  13.199  1.00  0.00     0.001 A 
HETATM   45  C33 UNL     1      11.656   9.907  13.597  1.00  0.00     0.000 A 
HETATM   46  C34 UNL     1      11.299   8.621  13.992  1.00  0.00     0.001 A 
HETATM   47  C35 UNL     1       9.959   8.230  13.982  1.00  0.00     0.007 A 
ENDBRANCH  36  42
ENDBRANCH  35  36
ENDBRANCH  33  35
ENDBRANCH  30  31
ENDBRANCH  29  30
ENDBRANCH  27  29
ENDBRANCH  26  27
ENDBRANCH  25  26
ENDBRANCH   1  25
TORSDOF 14
ENDMDL
MODEL 9
REMARK minimizedAffinity -9.17383385
REMARK CNNscore 0.271080554
REMARK CNNaffinity 6.70886469
REMARK  14 active torsions:
REMARK  status: ('A' for Active; 'I' for Inactive)
REMARK    1  A    between atoms: C19_20  and  O2_21 
REMARK    2  A    between atoms: C19_20  and  C20_22 
REMARK    3  A    between atoms: C20_22  and  C21_24 
REMARK    4  A    between atoms: C21_24  and  O4_25 
REMARK    5  A    between atoms: O4_25  and  C22_26 
REMARK    6  A    between atoms: C22_26  and  C23_28 
REMARK    7  A    between atoms: C23_28  and  C24_29 
REMARK    8  A    between atoms: C24_29  and  C25_30 
REMARK       I    between atoms: C25_30  and  N1_32 
REMARK    9  A    between atoms: N1_32  and  C26_33 
REMARK   10  A    between atoms: C26_33  and  C27_34 
REMARK   11  A    between atoms: C27_34  and  C28_35 
REMARK   12  A    between atoms: C27_34  and  C30_39 
REMARK   13  A    between atoms: C28_35  and  C29_36 
REMARK   14  A    between atoms: C29_36  and  O8_38 
ROOT
HETATM    1  C20 UNL     1       0.493   8.016  13.509  1.00  0.00     0.185 C 
HETATM    2  O3  UNL     1       1.568   7.408  13.594  1.00  0.00    -0.292 OA
ENDROOT
BRANCH   1   3
HETATM    3  C19 UNL     1      -0.741   7.270  12.939  1.00  0.00     0.128 C 
HETATM    4  C14 UNL     1      -1.972   7.017  13.867  1.00  0.00    -0.002 C 
HETATM    5  C13 UNL     1      -2.828   8.249  14.208  1.00  0.00     0.013 C 
HETATM    6  C15 UNL     1      -1.580   6.292  15.178  1.00  0.00     0.019 C 
HETATM    7  C16 UNL     1      -2.816   6.114  12.925  1.00  0.00     0.002 C 
HETATM    8  C12 UNL     1      -4.178   7.852  14.833  1.00  0.00     0.007 C 
HETATM    9  C11 UNL     1      -4.984   6.848  13.965  1.00  0.00     0.002 C 
HETATM   10  C2  UNL     1      -6.382   6.448  14.577  1.00  0.00    -0.016 C 
HETATM   11  C10 UNL     1      -4.122   5.613  13.556  1.00  0.00    -0.004 C 
HETATM   12  C1  UNL     1      -6.239   5.826  15.984  1.00  0.00     0.020 C 
HETATM   13  C3  UNL     1      -7.255   7.735  14.683  1.00  0.00     0.022 C 
HETATM   14  C7  UNL     1      -7.063   5.422  13.661  1.00  0.00    -0.068 C 
HETATM   15  C4  UNL     1      -8.740   7.455  14.875  1.00  0.00     0.084 C 
HETATM   16  C5  UNL     1      -9.246   6.569  13.766  1.00  0.00     0.149 C 
HETATM   17  O1  UNL     1     -10.379   6.668  13.309  1.00  0.00    -0.293 OA
HETATM   18  C6  UNL     1      -8.350   5.502  13.271  1.00  0.00     0.053 C 
HETATM   19  C8  UNL     1      -6.219   4.256  13.204  1.00  0.00     0.035 C 
HETATM   20  C9  UNL     1      -4.904   4.717  12.587  1.00  0.00     0.010 C 
HETATM   21  C17 UNL     1      -1.799   5.093  12.420  1.00  0.00     0.009 C 
HETATM   22  C18 UNL     1      -0.474   5.883  12.308  1.00  0.00     0.047 C 
BRANCH   3  23
HETATM   23  O2  UNL     1      -1.199   8.104  11.839  1.00  0.00    -0.381 OA
HETATM   24  H27 UNL     1      -0.470   8.728  11.630  1.00  0.00     0.211 HD
ENDBRANCH   3  23
ENDBRANCH   1   3
BRANCH   1  25
HETATM   25  C21 UNL     1       0.427   9.474  13.955  1.00  0.00     0.260 C 
BRANCH  25  26
HETATM   26  O4  UNL     1       0.349   9.716  15.353  1.00  0.00    -0.314 OA
BRANCH  26  27
HETATM   27  C22 UNL     1      -0.332  10.847  15.693  1.00  0.00     0.259 C 
HETATM   28  O5  UNL     1      -1.345  11.239  15.137  1.00  0.00    -0.265 OA
BRANCH  27  29
HETATM   29  C23 UNL     1       0.312  11.517  16.880  1.00  0.00     0.120 C 
BRANCH  29  30
HETATM   30  C24 UNL     1       1.050  10.477  17.710  1.00  0.00     0.112 C 
BRANCH  30  31
HETATM   31  C25 UNL     1       0.983  10.791  19.192  1.00  0.00     0.218 C 
HETATM   32  O6  UNL     1      -0.054  11.102  19.764  1.00  0.00    -0.274 OA
HETATM   33  N1  UNL     1       2.216  10.752  19.809  1.00  0.00    -0.360 N 
HETATM   34  H34 UNL     1       2.979  10.303  19.316  1.00  0.00     0.162 HD
BRANCH  33  35
HETATM   35  C26 UNL     1       2.339  10.826  21.257  1.00  0.00     0.132 C 
BRANCH  35  36
HETATM   36  C27 UNL     1       3.684  10.252  21.773  1.00  0.00     0.046 C 
BRANCH  36  37
HETATM   37  C28 UNL     1       3.522   9.554  23.133  1.00  0.00     0.120 C 
BRANCH  37  38
HETATM   38  C29 UNL     1       2.400   8.552  23.148  1.00  0.00     0.140 C 
HETATM   39  O7  UNL     1       1.986   7.877  22.223  1.00  0.00    -0.650 OA
BRANCH  38  40
HETATM   40  O8  UNL     1       1.843   8.444  24.371  1.00  0.00    -0.776 OA
HETATM   41  H40 UNL     1       1.151   7.761  24.255  1.00  0.00     0.167 HD
ENDBRANCH  38  40
ENDBRANCH  37  38
ENDBRANCH  36  37
BRANCH  36  42
HETATM   42  C30 UNL     1       4.753  11.340  21.869  1.00  0.00    -0.052 A 
HETATM   43  C31 UNL     1       4.910  12.321  20.876  1.00  0.00     0.007 A 
HETATM   44  C32 UNL     1       5.916  13.284  20.982  1.00  0.00     0.001 A 
HETATM   45  C33 UNL     1       6.773  13.284  22.082  1.00  0.00     0.000 A 
HETATM   46  C34 UNL     1       6.621  12.324  23.078  1.00  0.00     0.001 A 
HETATM   47  C35 UNL     1       5.620  11.356  22.974  1.00  0.00     0.007 A 
ENDBRANCH  36  42
ENDBRANCH  35  36
ENDBRANCH  33  35
ENDBRANCH  30  31
ENDBRANCH  29  30
ENDBRANCH  27  29
ENDBRANCH  26  27
ENDBRANCH  25  26
ENDBRANCH   1  25
TORSDOF 14
ENDMDL
