MODEL 1
REMARK minimizedAffinity -7.93832731
REMARK CNNscore 0.666278064
REMARK CNNaffinity 6.69642639
REMARK  7 active torsions:
REMARK  status: ('A' for Active; 'I' for Inactive)
REMARK    1  A    between atoms: C2_2  and  C3_3 
REMARK    2  A    between atoms: C2_2  and  C9_11 
REMARK    3  A    between atoms: C3_3  and  C4_4 
REMARK    4  A    between atoms: C4_4  and  C5_5 
REMARK    5  A    between atoms: C5_5  and  O1_6 
REMARK    6  A    between atoms: C5_5  and  C6_7 
REMARK    7  A    between atoms: C6_7  and  O2_10 
ROOT
HETATM    1  C9  UNL     1       7.720  10.233  14.897  1.00  0.00    -0.001 C 
HETATM    2  C10 UNL     1       8.611  10.425  13.634  1.00  0.00     0.007 C 
HETATM    3  C11 UNL     1       7.721  10.201  12.399  1.00  0.00     0.015 C 
HETATM    4  C12 UNL     1       6.280  10.203  12.940  1.00  0.00    -0.004 C 
HETATM    5  C13 UNL     1       5.828  11.693  13.041  1.00  0.00     0.021 C 
HETATM    6  C14 UNL     1       5.182   9.503  12.165  1.00  0.00     0.007 C 
HETATM    7  C15 UNL     1       4.068   8.994  12.739  1.00  0.00     0.007 C 
HETATM    8  C16 UNL     1       3.990   9.068  14.261  1.00  0.00     0.157 C 
HETATM    9  O3  UNL     1       2.972   8.717  14.856  1.00  0.00    -0.293 OA
HETATM   10  C17 UNL     1       5.173   9.572  15.083  1.00  0.00     0.094 C 
HETATM   11  C18 UNL     1       6.489   9.468  14.314  1.00  0.00    -0.022 C 
HETATM   12  C19 UNL     1       6.851   7.956  14.167  1.00  0.00     0.017 C 
HETATM   13  C20 UNL     1       2.871   8.353  11.968  1.00  0.00    -0.007 C 
HETATM   14  C21 UNL     1       1.586   9.103  12.397  1.00  0.00     0.021 C 
HETATM   15  C22 UNL     1       2.821   6.853  12.366  1.00  0.00     0.022 C 
HETATM   16  C23 UNL     1       1.802   6.034  11.599  1.00  0.00     0.080 C 
HETATM   17  C24 UNL     1       2.086   6.123  10.122  1.00  0.00     0.135 C 
HETATM   18  O4  UNL     1       2.252   5.103   9.454  1.00  0.00    -0.297 OA
HETATM   19  C25 UNL     1       2.105   7.524   9.504  1.00  0.00     0.018 C 
HETATM   20  C26 UNL     1       0.644   8.012   9.396  1.00  0.00     0.023 C 
HETATM   21  C27 UNL     1       2.609   7.422   8.042  1.00  0.00     0.023 C 
HETATM   22  C28 UNL     1       3.023   8.478  10.384  1.00  0.00     0.021 C 
HETATM   23  C29 UNL     1       4.508   8.330  10.009  1.00  0.00     0.090 C 
HETATM   24  C30 UNL     1       5.311   9.398  10.692  1.00  0.00     0.157 C 
HETATM   25  O5  UNL     1       6.058  10.139  10.063  1.00  0.00    -0.293 OA
ENDROOT
BRANCH   1  26
HETATM   26  C2  UNL     1       8.526   9.641  16.098  1.00  0.00    -0.014 C 
HETATM   27  C1  UNL     1       9.699   8.790  15.574  1.00  0.00     0.010 C 
BRANCH  26  28
HETATM   28  C3  UNL     1       9.031  10.745  17.058  1.00  0.00     0.007 C 
BRANCH  28  29
HETATM   29  C4  UNL     1       9.796  10.252  18.296  1.00  0.00     0.035 C 
BRANCH  29  30
HETATM   30  C5  UNL     1      10.986  11.126  18.727  1.00  0.00     0.151 C 
BRANCH  30  31
HETATM   31  O1  UNL     1      11.981  10.256  19.310  1.00  0.00    -0.393 OA
HETATM   32  H10 UNL     1      12.292   9.662  18.606  1.00  0.00     0.210 HD
ENDBRANCH  30  31
BRANCH  30  33
HETATM   33  C6  UNL     1      10.706  12.248  19.771  1.00  0.00     0.076 C 
HETATM   34  C7  UNL     1      10.599  13.640  19.153  1.00  0.00     0.048 C 
HETATM   35  C8  UNL     1       9.486  11.975  20.659  1.00  0.00     0.048 C 
BRANCH  33  36
HETATM   36  O2  UNL     1      11.851  12.276  20.650  1.00  0.00    -0.388 OA
HETATM   37  H17 UNL     1      11.983  11.344  20.914  1.00  0.00     0.210 HD
ENDBRANCH  33  36
ENDBRANCH  30  33
ENDBRANCH  29  30
ENDBRANCH  28  29
ENDBRANCH  26  28
ENDBRANCH   1  26
TORSDOF 7
ENDMDL
MODEL 2
REMARK minimizedAffinity -6.95689726
REMARK CNNscore 0.590877116
REMARK CNNaffinity 6.96644783
REMARK  7 active torsions:
REMARK  status: ('A' for Active; 'I' for Inactive)
REMARK    1  A    between atoms: C2_2  and  C3_3 
REMARK    2  A    between atoms: C2_2  and  C9_11 
REMARK    3  A    between atoms: C3_3  and  C4_4 
REMARK    4  A    between atoms: C4_4  and  C5_5 
REMARK    5  A    between atoms: C5_5  and  O1_6 
REMARK    6  A    between atoms: C5_5  and  C6_7 
REMARK    7  A    between atoms: C6_7  and  O2_10 
ROOT
HETATM    1  C9  UNL     1      -9.575  -7.440  -5.438  1.00  0.00    -0.001 C 
HETATM    2  C10 UNL     1      -8.308  -7.815  -6.262  1.00  0.00     0.007 C 
HETATM    3  C11 UNL     1      -7.485  -8.808  -5.423  1.00  0.00     0.015 C 
HETATM    4  C12 UNL     1      -8.424  -9.241  -4.283  1.00  0.00    -0.004 C 
HETATM    5  C13 UNL     1      -9.319 -10.394  -4.836  1.00  0.00     0.021 C 
HETATM    6  C14 UNL     1      -7.844  -9.771  -2.987  1.00  0.00     0.007 C 
HETATM    7  C15 UNL     1      -8.475  -9.685  -1.793  1.00  0.00     0.007 C 
HETATM    8  C16 UNL     1      -9.798  -8.926  -1.775  1.00  0.00     0.157 C 
HETATM    9  O3  UNL     1     -10.483  -8.882  -0.754  1.00  0.00    -0.293 OA
HETATM   10  C17 UNL     1     -10.302  -8.197  -3.018  1.00  0.00     0.094 C 
HETATM   11  C18 UNL     1      -9.171  -7.887  -3.997  1.00  0.00    -0.022 C 
HETATM   12  C19 UNL     1      -8.258  -6.792  -3.359  1.00  0.00     0.017 C 
HETATM   13  C20 UNL     1      -7.957 -10.301  -0.456  1.00  0.00    -0.007 C 
HETATM   14  C21 UNL     1      -9.080 -11.210   0.103  1.00  0.00     0.021 C 
HETATM   15  C22 UNL     1      -7.642  -9.120   0.501  1.00  0.00     0.022 C 
HETATM   16  C23 UNL     1      -6.990  -9.528   1.807  1.00  0.00     0.080 C 
HETATM   17  C24 UNL     1      -5.705 -10.264   1.526  1.00  0.00     0.135 C 
HETATM   18  O4  UNL     1      -4.645  -9.880   2.017  1.00  0.00    -0.297 OA
HETATM   19  C25 UNL     1      -5.804 -11.518   0.653  1.00  0.00     0.018 C 
HETATM   20  C26 UNL     1      -6.425 -12.642   1.510  1.00  0.00     0.023 C 
HETATM   21  C27 UNL     1      -4.373 -12.008   0.314  1.00  0.00     0.023 C 
HETATM   22  C28 UNL     1      -6.645 -11.188  -0.655  1.00  0.00     0.021 C 
HETATM   23  C29 UNL     1      -5.764 -10.544  -1.740  1.00  0.00     0.090 C 
HETATM   24  C30 UNL     1      -6.530 -10.456  -3.028  1.00  0.00     0.157 C 
HETATM   25  O5  UNL     1      -6.081 -10.913  -4.073  1.00  0.00    -0.293 OA
ENDROOT
BRANCH   1  26
HETATM   26  C2  UNL     1     -10.038  -5.972  -5.712  1.00  0.00    -0.014 C 
HETATM   27  C1  UNL     1     -11.573  -5.884  -5.639  1.00  0.00     0.010 C 
BRANCH  26  28
HETATM   28  C3  UNL     1      -9.380  -4.966  -4.737  1.00  0.00     0.007 C 
BRANCH  28  29
HETATM   29  C4  UNL     1     -10.040  -3.580  -4.664  1.00  0.00     0.035 C 
BRANCH  29  30
HETATM   30  C5  UNL     1      -9.231  -2.431  -5.289  1.00  0.00     0.151 C 
BRANCH  30  31
HETATM   31  O1  UNL     1      -8.111  -2.159  -4.418  1.00  0.00    -0.393 OA
HETATM   32  H10 UNL     1      -7.546  -2.950  -4.418  1.00  0.00     0.210 HD
ENDBRANCH  30  31
BRANCH  30  33
HETATM   33  C6  UNL     1      -9.967  -1.076  -5.507  1.00  0.00     0.076 C 
HETATM   34  C7  UNL     1     -10.686  -0.567  -4.261  1.00  0.00     0.048 C 
HETATM   35  C8  UNL     1      -9.070   0.029  -6.080  1.00  0.00     0.048 C 
BRANCH  33  36
HETATM   36  O2  UNL     1     -10.988  -1.325  -6.497  1.00  0.00    -0.388 OA
HETATM   37  H17 UNL     1     -10.520  -1.784  -7.223  1.00  0.00     0.210 HD
ENDBRANCH  33  36
ENDBRANCH  30  33
ENDBRANCH  29  30
ENDBRANCH  28  29
ENDBRANCH  26  28
ENDBRANCH   1  26
TORSDOF 7
ENDMDL
MODEL 3
REMARK minimizedAffinity -6.61598492
REMARK CNNscore 0.527197123
REMARK CNNaffinity 5.76852036
REMARK  7 active torsions:
REMARK  status: ('A' for Active; 'I' for Inactive)
REMARK    1  A    between atoms: C2_2  and  C3_3 
REMARK    2  A    between atoms: C2_2  and  C9_11 
REMARK    3  A    between atoms: C3_3  and  C4_4 
REMARK    4  A    between atoms: C4_4  and  C5_5 
REMARK    5  A    between atoms: C5_5  and  O1_6 
REMARK    6  A    between atoms: C5_5  and  C6_7 
REMARK    7  A    between atoms: C6_7  and  O2_10 
ROOT
HETATM    1  C9  UNL     1     -16.974   2.864  14.227  1.00  0.00    -0.001 C 
HETATM    2  C10 UNL     1     -17.340   2.974  15.736  1.00  0.00     0.007 C 
HETATM    3  C11 UNL     1     -16.994   1.629  16.398  1.00  0.00     0.015 C 
HETATM    4  C12 UNL     1     -16.147   0.878  15.356  1.00  0.00    -0.004 C 
HETATM    5  C13 UNL     1     -14.676   1.375  15.513  1.00  0.00     0.021 C 
HETATM    6  C14 UNL     1     -16.065  -0.635  15.397  1.00  0.00     0.007 C 
HETATM    7  C15 UNL     1     -15.823  -1.403  14.310  1.00  0.00     0.007 C 
HETATM    8  C16 UNL     1     -15.722  -0.677  12.971  1.00  0.00     0.157 C 
HETATM    9  O3  UNL     1     -15.409  -1.285  11.949  1.00  0.00    -0.293 OA
HETATM   10  C17 UNL     1     -16.013   0.818  12.867  1.00  0.00     0.094 C 
HETATM   11  C18 UNL     1     -16.868   1.318  14.029  1.00  0.00    -0.022 C 
HETATM   12  C19 UNL     1     -18.304   0.723  13.871  1.00  0.00     0.017 C 
HETATM   13  C20 UNL     1     -15.637  -2.952  14.327  1.00  0.00    -0.007 C 
HETATM   14  C21 UNL     1     -14.275  -3.264  13.657  1.00  0.00     0.021 C 
HETATM   15  C22 UNL     1     -16.822  -3.565  13.532  1.00  0.00     0.022 C 
HETATM   16  C23 UNL     1     -16.883  -5.079  13.565  1.00  0.00     0.080 C 
HETATM   17  C24 UNL     1     -16.973  -5.554  14.992  1.00  0.00     0.135 C 
HETATM   18  O4  UNL     1     -17.894  -6.286  15.350  1.00  0.00    -0.297 OA
HETATM   19  C25 UNL     1     -15.849  -5.121  15.938  1.00  0.00     0.018 C 
HETATM   20  C26 UNL     1     -14.595  -5.953  15.593  1.00  0.00     0.023 C 
HETATM   21  C27 UNL     1     -16.225  -5.531  17.384  1.00  0.00     0.023 C 
HETATM   22  C28 UNL     1     -15.619  -3.554  15.805  1.00  0.00     0.021 C 
HETATM   23  C29 UNL     1     -16.612  -2.766  16.678  1.00  0.00     0.090 C 
HETATM   24  C30 UNL     1     -16.222  -1.316  16.704  1.00  0.00     0.157 C 
HETATM   25  O5  UNL     1     -16.060  -0.715  17.761  1.00  0.00    -0.293 OA
ENDROOT
BRANCH   1  26
HETATM   26  C2  UNL     1     -17.931   3.714  13.329  1.00  0.00    -0.014 C 
HETATM   27  C1  UNL     1     -19.103   4.250  14.172  1.00  0.00     0.010 C 
BRANCH  26  28
HETATM   28  C3  UNL     1     -17.185   4.870  12.621  1.00  0.00     0.007 C 
BRANCH  28  29
HETATM   29  C4  UNL     1     -16.816   6.068  13.510  1.00  0.00     0.035 C 
BRANCH  29  30
HETATM   30  C5  UNL     1     -16.182   7.263  12.777  1.00  0.00     0.151 C 
BRANCH  30  31
HETATM   31  O1  UNL     1     -16.036   6.897  11.387  1.00  0.00    -0.393 OA
HETATM   32  H10 UNL     1     -16.931   6.772  11.027  1.00  0.00     0.210 HD
ENDBRANCH  30  31
BRANCH  30  33
HETATM   33  C6  UNL     1     -14.780   7.736  13.264  1.00  0.00     0.076 C 
HETATM   34  C7  UNL     1     -14.839   8.658  14.480  1.00  0.00     0.048 C 
HETATM   35  C8  UNL     1     -13.797   6.588  13.526  1.00  0.00     0.048 C 
BRANCH  33  36
HETATM   36  O2  UNL     1     -14.219   8.514  12.185  1.00  0.00    -0.388 OA
HETATM   37  H17 UNL     1     -14.330   7.953  11.392  1.00  0.00     0.210 HD
ENDBRANCH  33  36
ENDBRANCH  30  33
ENDBRANCH  29  30
ENDBRANCH  28  29
ENDBRANCH  26  28
ENDBRANCH   1  26
TORSDOF 7
ENDMDL
MODEL 4
REMARK minimizedAffinity -8.15430069
REMARK CNNscore 0.396251202
REMARK CNNaffinity 6.78668928
REMARK  7 active torsions:
REMARK  status: ('A' for Active; 'I' for Inactive)
REMARK    1  A    between atoms: C2_2  and  C3_3 
REMARK    2  A    between atoms: C2_2  and  C9_11 
REMARK    3  A    between atoms: C3_3  and  C4_4 
REMARK    4  A    between atoms: C4_4  and  C5_5 
REMARK    5  A    between atoms: C5_5  and  O1_6 
REMARK    6  A    between atoms: C5_5  and  C6_7 
REMARK    7  A    between atoms: C6_7  and  O2_10 
ROOT
HETATM    1  C9  UNL     1       0.072   8.803  14.009  1.00  0.00    -0.001 C 
HETATM    2  C10 UNL     1      -0.404  10.285  14.058  1.00  0.00     0.007 C 
HETATM    3  C11 UNL     1      -1.881  10.285  14.488  1.00  0.00     0.015 C 
HETATM    4  C12 UNL     1      -2.151   8.855  14.989  1.00  0.00    -0.004 C 
HETATM    5  C13 UNL     1      -1.680   8.791  16.475  1.00  0.00     0.021 C 
HETATM    6  C14 UNL     1      -3.565   8.309  14.993  1.00  0.00     0.007 C 
HETATM    7  C15 UNL     1      -3.860   6.993  14.898  1.00  0.00     0.007 C 
HETATM    8  C16 UNL     1      -2.685   6.043  14.687  1.00  0.00     0.157 C 
HETATM    9  O3  UNL     1      -2.854   4.825  14.686  1.00  0.00    -0.293 OA
HETATM   10  C17 UNL     1      -1.273   6.581  14.464  1.00  0.00     0.094 C 
HETATM   11  C18 UNL     1      -1.283   8.027  13.972  1.00  0.00    -0.022 C 
HETATM   12  C19 UNL     1      -1.842   8.044  12.513  1.00  0.00     0.017 C 
HETATM   13  C20 UNL     1      -5.295   6.384  14.994  1.00  0.00    -0.007 C 
HETATM   14  C21 UNL     1      -5.271   5.313  16.114  1.00  0.00     0.021 C 
HETATM   15  C22 UNL     1      -5.622   5.762  13.610  1.00  0.00     0.022 C 
HETATM   16  C23 UNL     1      -7.041   5.246  13.474  1.00  0.00     0.080 C 
HETATM   17  C24 UNL     1      -8.016   6.364  13.733  1.00  0.00     0.135 C 
HETATM   18  O4  UNL     1      -8.871   6.655  12.897  1.00  0.00    -0.297 OA
HETATM   19  C25 UNL     1      -7.915   7.071  15.088  1.00  0.00     0.018 C 
HETATM   20  C26 UNL     1      -8.500   6.125  16.158  1.00  0.00     0.023 C 
HETATM   21  C27 UNL     1      -8.851   8.307  15.081  1.00  0.00     0.023 C 
HETATM   22  C28 UNL     1      -6.401   7.473  15.363  1.00  0.00     0.021 C 
HETATM   23  C29 UNL     1      -6.042   8.805  14.680  1.00  0.00     0.090 C 
HETATM   24  C30 UNL     1      -4.690   9.263  15.145  1.00  0.00     0.157 C 
HETATM   25  O5  UNL     1      -4.519  10.383  15.611  1.00  0.00    -0.293 OA
ENDROOT
BRANCH   1  26
HETATM   26  C2  UNL     1       1.149   8.571  12.901  1.00  0.00    -0.014 C 
HETATM   27  C1  UNL     1       2.337   7.780  13.480  1.00  0.00     0.010 C 
BRANCH  26  28
HETATM   28  C3  UNL     1       0.560   7.854  11.662  1.00  0.00     0.007 C 
BRANCH  28  29
HETATM   29  C4  UNL     1       1.168   8.257  10.308  1.00  0.00     0.035 C 
BRANCH  29  30
HETATM   30  C5  UNL     1       1.277   7.125   9.272  1.00  0.00     0.151 C 
BRANCH  30  31
HETATM   31  O1  UNL     1       1.337   5.875   9.993  1.00  0.00    -0.393 OA
HETATM   32  H10 UNL     1       0.489   5.768  10.457  1.00  0.00     0.210 HD
ENDBRANCH  30  31
BRANCH  30  33
HETATM   33  C6  UNL     1       2.505   7.149   8.315  1.00  0.00     0.076 C 
HETATM   34  C7  UNL     1       2.276   6.386   7.013  1.00  0.00     0.048 C 
HETATM   35  C8  UNL     1       3.023   8.560   8.010  1.00  0.00     0.048 C 
BRANCH  33  36
HETATM   36  O2  UNL     1       3.571   6.466   9.009  1.00  0.00    -0.388 OA
HETATM   37  H17 UNL     1       3.595   6.882   9.894  1.00  0.00     0.210 HD
ENDBRANCH  33  36
ENDBRANCH  30  33
ENDBRANCH  29  30
ENDBRANCH  28  29
ENDBRANCH  26  28
ENDBRANCH   1  26
TORSDOF 7
ENDMDL
MODEL 5
REMARK minimizedAffinity -7.14261723
REMARK CNNscore 0.376617074
REMARK CNNaffinity 6.60280752
REMARK  7 active torsions:
REMARK  status: ('A' for Active; 'I' for Inactive)
REMARK    1  A    between atoms: C2_2  and  C3_3 
REMARK    2  A    between atoms: C2_2  and  C9_11 
REMARK    3  A    between atoms: C3_3  and  C4_4 
REMARK    4  A    between atoms: C4_4  and  C5_5 
REMARK    5  A    between atoms: C5_5  and  O1_6 
REMARK    6  A    between atoms: C5_5  and  C6_7 
REMARK    7  A    between atoms: C6_7  and  O2_10 
ROOT
HETATM    1  C9  UNL     1     -10.115   7.678  14.951  1.00  0.00    -0.001 C 
HETATM    2  C10 UNL     1      -9.613   9.129  14.691  1.00  0.00     0.007 C 
HETATM    3  C11 UNL     1     -10.844   9.998  14.383  1.00  0.00     0.015 C 
HETATM    4  C12 UNL     1     -12.054   9.132  14.778  1.00  0.00    -0.004 C 
HETATM    5  C13 UNL     1     -12.266   9.311  16.313  1.00  0.00     0.021 C 
HETATM    6  C14 UNL     1     -13.408   9.396  14.152  1.00  0.00     0.007 C 
HETATM    7  C15 UNL     1     -14.362   8.448  14.003  1.00  0.00     0.007 C 
HETATM    8  C16 UNL     1     -13.984   7.029  14.416  1.00  0.00     0.157 C 
HETATM    9  O3  UNL     1     -14.821   6.127  14.404  1.00  0.00    -0.293 OA
HETATM   10  C17 UNL     1     -12.559   6.691  14.848  1.00  0.00     0.094 C 
HETATM   11  C18 UNL     1     -11.548   7.712  14.330  1.00  0.00    -0.022 C 
HETATM   12  C19 UNL     1     -11.437   7.548  12.780  1.00  0.00     0.017 C 
HETATM   13  C20 UNL     1     -15.801   8.700  13.454  1.00  0.00    -0.007 C 
HETATM   14  C21 UNL     1     -16.802   8.172  14.512  1.00  0.00     0.021 C 
HETATM   15  C22 UNL     1     -15.921   7.927  12.112  1.00  0.00     0.022 C 
HETATM   16  C23 UNL     1     -17.214   8.173  11.360  1.00  0.00     0.080 C 
HETATM   17  C24 UNL     1     -17.363   9.644  11.072  1.00  0.00     0.135 C 
HETATM   18  O4  UNL     1     -17.527  10.043   9.921  1.00  0.00    -0.297 OA
HETATM   19  C25 UNL     1     -17.349  10.589  12.278  1.00  0.00     0.018 C 
HETATM   20  C26 UNL     1     -18.705  10.449  13.003  1.00  0.00     0.023 C 
HETATM   21  C27 UNL     1     -17.308  12.052  11.768  1.00  0.00     0.023 C 
HETATM   22  C28 UNL     1     -16.103  10.247  13.204  1.00  0.00     0.021 C 
HETATM   23  C29 UNL     1     -14.822  10.932  12.695  1.00  0.00     0.090 C 
HETATM   24  C30 UNL     1     -13.727  10.774  13.710  1.00  0.00     0.157 C 
HETATM   25  O5  UNL     1     -13.109  11.742  14.141  1.00  0.00    -0.293 OA
ENDROOT
BRANCH   1  26
HETATM   26  C2  UNL     1      -9.075   6.607  14.487  1.00  0.00    -0.014 C 
HETATM   27  C1  UNL     1      -9.348   6.209  13.024  1.00  0.00     0.010 C 
BRANCH  26  28
HETATM   28  C3  UNL     1      -7.618   7.100  14.662  1.00  0.00     0.007 C 
BRANCH  28  29
HETATM   29  C4  UNL     1      -6.563   6.000  14.864  1.00  0.00     0.035 C 
BRANCH  29  30
HETATM   30  C5  UNL     1      -5.711   5.669  13.627  1.00  0.00     0.151 C 
BRANCH  30  31
HETATM   31  O1  UNL     1      -5.926   4.277  13.307  1.00  0.00    -0.393 OA
HETATM   32  H10 UNL     1      -6.861   4.179  13.056  1.00  0.00     0.210 HD
ENDBRANCH  30  31
BRANCH  30  33
HETATM   33  C6  UNL     1      -4.171   5.868  13.747  1.00  0.00     0.076 C 
HETATM   34  C7  UNL     1      -3.364   4.676  13.237  1.00  0.00     0.048 C 
HETATM   35  C8  UNL     1      -3.663   7.160  13.096  1.00  0.00     0.048 C 
BRANCH  33  36
HETATM   36  O2  UNL     1      -3.887   5.983  15.157  1.00  0.00    -0.388 OA
HETATM   37  H17 UNL     1      -4.523   6.651  15.483  1.00  0.00     0.210 HD
ENDBRANCH  33  36
ENDBRANCH  30  33
ENDBRANCH  29  30
ENDBRANCH  28  29
ENDBRANCH  26  28
ENDBRANCH   1  26
TORSDOF 7
ENDMDL
MODEL 6
REMARK minimizedAffinity -6.87670898
REMARK CNNscore 0.375680774
REMARK CNNaffinity 6.36001825
REMARK  7 active torsions:
REMARK  status: ('A' for Active; 'I' for Inactive)
REMARK    1  A    between atoms: C2_2  and  C3_3 
REMARK    2  A    between atoms: C2_2  and  C9_11 
REMARK    3  A    between atoms: C3_3  and  C4_4 
REMARK    4  A    between atoms: C4_4  and  C5_5 
REMARK    5  A    between atoms: C5_5  and  O1_6 
REMARK    6  A    between atoms: C5_5  and  C6_7 
REMARK    7  A    between atoms: C6_7  and  O2_10 
ROOT
HETATM    1  C9  UNL     1      -7.011 -10.828  -1.523  1.00  0.00    -0.001 C 
HETATM    2  C10 UNL     1      -5.629 -10.211  -1.890  1.00  0.00     0.007 C 
HETATM    3  C11 UNL     1      -4.749 -10.261  -0.629  1.00  0.00     0.015 C 
HETATM    4  C12 UNL     1      -5.502 -11.183   0.347  1.00  0.00    -0.004 C 
HETATM    5  C13 UNL     1      -5.122 -12.650  -0.020  1.00  0.00     0.021 C 
HETATM    6  C14 UNL     1      -5.256 -11.066   1.838  1.00  0.00     0.007 C 
HETATM    7  C15 UNL     1      -6.170 -11.403   2.777  1.00  0.00     0.007 C 
HETATM    8  C16 UNL     1      -7.542 -11.836   2.269  1.00  0.00     0.157 C 
HETATM    9  O3  UNL     1      -8.398 -12.250   3.049  1.00  0.00    -0.293 OA
HETATM   10  C17 UNL     1      -7.888 -11.758   0.784  1.00  0.00     0.094 C 
HETATM   11  C18 UNL     1      -6.989 -10.774   0.038  1.00  0.00    -0.022 C 
HETATM   12  C19 UNL     1      -7.351  -9.328   0.505  1.00  0.00     0.017 C 
HETATM   13  C20 UNL     1      -5.922 -11.389   4.318  1.00  0.00    -0.007 C 
HETATM   14  C21 UNL     1      -6.266 -12.800   4.858  1.00  0.00     0.021 C 
HETATM   15  C22 UNL     1      -6.851 -10.301   4.921  1.00  0.00     0.022 C 
HETATM   16  C23 UNL     1      -6.642 -10.047   6.401  1.00  0.00     0.080 C 
HETATM   17  C24 UNL     1      -5.213  -9.640   6.650  1.00  0.00     0.135 C 
HETATM   18  O4  UNL     1      -4.955  -8.585   7.227  1.00  0.00    -0.297 OA
HETATM   19  C25 UNL     1      -4.126 -10.619   6.196  1.00  0.00     0.018 C 
HETATM   20  C26 UNL     1      -4.110 -11.801   7.189  1.00  0.00     0.023 C 
HETATM   21  C27 UNL     1      -2.742  -9.939   6.350  1.00  0.00     0.023 C 
HETATM   22  C28 UNL     1      -4.406 -11.063   4.695  1.00  0.00     0.021 C 
HETATM   23  C29 UNL     1      -3.851 -10.034   3.694  1.00  0.00     0.090 C 
HETATM   24  C30 UNL     1      -3.931 -10.590   2.301  1.00  0.00     0.157 C 
HETATM   25  O5  UNL     1      -2.947 -10.632   1.571  1.00  0.00    -0.293 OA
ENDROOT
BRANCH   1  26
HETATM   26  C2  UNL     1      -8.179 -10.164  -2.322  1.00  0.00    -0.014 C 
HETATM   27  C1  UNL     1      -8.610  -8.856  -1.632  1.00  0.00     0.010 C 
BRANCH  26  28
HETATM   28  C3  UNL     1      -7.798  -9.908  -3.800  1.00  0.00     0.007 C 
BRANCH  28  29
HETATM   29  C4  UNL     1      -7.549  -8.439  -4.179  1.00  0.00     0.035 C 
BRANCH  29  30
HETATM   30  C5  UNL     1      -8.485  -7.871  -5.260  1.00  0.00     0.151 C 
BRANCH  30  31
HETATM   31  O1  UNL     1      -7.685  -7.593  -6.431  1.00  0.00    -0.393 OA
HETATM   32  H10 UNL     1      -7.343  -8.444  -6.755  1.00  0.00     0.210 HD
ENDBRANCH  30  31
BRANCH  30  33
HETATM   33  C6  UNL     1      -9.252  -6.558  -4.922  1.00  0.00     0.076 C 
HETATM   34  C7  UNL     1      -9.541  -5.691  -6.144  1.00  0.00     0.048 C 
HETATM   35  C8  UNL     1     -10.543  -6.786  -4.126  1.00  0.00     0.048 C 
BRANCH  33  36
HETATM   36  O2  UNL     1      -8.378  -5.788  -4.069  1.00  0.00    -0.388 OA
HETATM   37  H17 UNL     1      -8.094  -6.416  -3.375  1.00  0.00     0.210 HD
ENDBRANCH  33  36
ENDBRANCH  30  33
ENDBRANCH  29  30
ENDBRANCH  28  29
ENDBRANCH  26  28
ENDBRANCH   1  26
TORSDOF 7
ENDMDL
MODEL 7
REMARK minimizedAffinity -8.43351841
REMARK CNNscore 0.307655692
REMARK CNNaffinity 6.75312281
REMARK  7 active torsions:
REMARK  status: ('A' for Active; 'I' for Inactive)
REMARK    1  A    between atoms: C2_2  and  C3_3 
REMARK    2  A    between atoms: C2_2  and  C9_11 
REMARK    3  A    between atoms: C3_3  and  C4_4 
REMARK    4  A    between atoms: C4_4  and  C5_5 
REMARK    5  A    between atoms: C5_5  and  O1_6 
REMARK    6  A    between atoms: C5_5  and  C6_7 
REMARK    7  A    between atoms: C6_7  and  O2_10 
ROOT
HETATM    1  C9  UNL     1      -3.429   6.976  14.816  1.00  0.00    -0.001 C 
HETATM    2  C10 UNL     1      -3.843   5.673  14.070  1.00  0.00     0.007 C 
HETATM    3  C11 UNL     1      -2.608   5.160  13.310  1.00  0.00     0.015 C 
HETATM    4  C12 UNL     1      -1.428   5.972  13.872  1.00  0.00    -0.004 C 
HETATM    5  C13 UNL     1      -0.962   5.263  15.181  1.00  0.00     0.021 C 
HETATM    6  C14 UNL     1      -0.171   6.150  13.043  1.00  0.00     0.007 C 
HETATM    7  C15 UNL     1       0.666   7.205  13.168  1.00  0.00     0.007 C 
HETATM    8  C16 UNL     1       0.241   8.301  14.141  1.00  0.00     0.157 C 
HETATM    9  O3  UNL     1       0.988   9.247  14.387  1.00  0.00    -0.293 OA
HETATM   10  C17 UNL     1      -1.121   8.254  14.829  1.00  0.00     0.094 C 
HETATM   11  C18 UNL     1      -2.113   7.373  14.072  1.00  0.00    -0.022 C 
HETATM   12  C19 UNL     1      -2.480   8.088  12.733  1.00  0.00     0.017 C 
HETATM   13  C20 UNL     1       2.016   7.377  12.405  1.00  0.00    -0.007 C 
HETATM   14  C21 UNL     1       3.124   7.603  13.464  1.00  0.00     0.021 C 
HETATM   15  C22 UNL     1       1.859   8.605  11.467  1.00  0.00     0.022 C 
HETATM   16  C23 UNL     1       3.033   8.838  10.537  1.00  0.00     0.080 C 
HETATM   17  C24 UNL     1       3.257   7.616   9.684  1.00  0.00     0.135 C 
HETATM   18  O4  UNL     1       3.270   7.703   8.457  1.00  0.00    -0.297 OA
HETATM   19  C25 UNL     1       3.511   6.296  10.419  1.00  0.00     0.018 C 
HETATM   20  C26 UNL     1       4.948   6.339  10.982  1.00  0.00     0.023 C 
HETATM   21  C27 UNL     1       3.512   5.139   9.388  1.00  0.00     0.023 C 
HETATM   22  C28 UNL     1       2.402   6.093  11.540  1.00  0.00     0.021 C 
HETATM   23  C29 UNL     1       1.118   5.480  10.953  1.00  0.00     0.090 C 
HETATM   24  C30 UNL     1       0.187   5.094  12.066  1.00  0.00     0.157 C 
HETATM   25  O5  UNL     1      -0.273   3.961  12.153  1.00  0.00    -0.293 OA
ENDROOT
BRANCH   1  26
HETATM   26  C2  UNL     1      -4.614   7.989  14.926  1.00  0.00    -0.014 C 
HETATM   27  C1  UNL     1      -4.124   9.408  14.583  1.00  0.00     0.010 C 
BRANCH  26  28
HETATM   28  C3  UNL     1      -5.808   7.584  14.029  1.00  0.00     0.007 C 
BRANCH  28  29
HETATM   29  C4  UNL     1      -6.719   6.481  14.592  1.00  0.00     0.035 C 
BRANCH  29  30
HETATM   30  C5  UNL     1      -8.048   6.280  13.843  1.00  0.00     0.151 C 
BRANCH  30  31
HETATM   31  O1  UNL     1      -9.059   5.956  14.824  1.00  0.00    -0.393 OA
HETATM   32  H10 UNL     1      -9.161   6.732  15.400  1.00  0.00     0.210 HD
ENDBRANCH  30  31
BRANCH  30  33
HETATM   33  C6  UNL     1      -8.096   5.158  12.764  1.00  0.00     0.076 C 
HETATM   34  C7  UNL     1      -8.807   5.580  11.480  1.00  0.00     0.048 C 
HETATM   35  C8  UNL     1      -6.723   4.563  12.430  1.00  0.00     0.048 C 
BRANCH  33  36
HETATM   36  O2  UNL     1      -8.877   4.084  13.332  1.00  0.00    -0.388 OA
HETATM   37  H17 UNL     1      -8.487   3.936  14.216  1.00  0.00     0.210 HD
ENDBRANCH  33  36
ENDBRANCH  30  33
ENDBRANCH  29  30
ENDBRANCH  28  29
ENDBRANCH  26  28
ENDBRANCH   1  26
TORSDOF 7
ENDMDL
MODEL 8
REMARK minimizedAffinity -8.09800339
REMARK CNNscore 0.273165435
REMARK CNNaffinity 6.77965927
REMARK  7 active torsions:
REMARK  status: ('A' for Active; 'I' for Inactive)
REMARK    1  A    between atoms: C2_2  and  C3_3 
REMARK    2  A    between atoms: C2_2  and  C9_11 
REMARK    3  A    between atoms: C3_3  and  C4_4 
REMARK    4  A    between atoms: C4_4  and  C5_5 
REMARK    5  A    between atoms: C5_5  and  O1_6 
REMARK    6  A    between atoms: C5_5  and  C6_7 
REMARK    7  A    between atoms: C6_7  and  O2_10 
ROOT
HETATM    1  C9  UNL     1      -5.202   5.611  13.916  1.00  0.00    -0.001 C 
HETATM    2  C10 UNL     1      -4.768   6.130  15.319  1.00  0.00     0.007 C 
HETATM    3  C11 UNL     1      -6.023   6.677  16.020  1.00  0.00     0.015 C 
HETATM    4  C12 UNL     1      -7.205   6.184  15.167  1.00  0.00    -0.004 C 
HETATM    5  C13 UNL     1      -7.534   4.731  15.631  1.00  0.00     0.021 C 
HETATM    6  C14 UNL     1      -8.526   6.926  15.204  1.00  0.00     0.007 C 
HETATM    7  C15 UNL     1      -9.411   6.934  14.181  1.00  0.00     0.007 C 
HETATM    8  C16 UNL     1      -8.980   6.221  12.902  1.00  0.00     0.157 C 
HETATM    9  O3  UNL     1      -9.760   6.098  11.959  1.00  0.00    -0.293 OA
HETATM   10  C17 UNL     1      -7.572   5.650  12.759  1.00  0.00     0.094 C 
HETATM   11  C18 UNL     1      -6.588   6.307  13.725  1.00  0.00    -0.022 C 
HETATM   12  C19 UNL     1      -6.360   7.782  13.265  1.00  0.00     0.017 C 
HETATM   13  C20 UNL     1     -10.820   7.603  14.216  1.00  0.00    -0.007 C 
HETATM   14  C21 UNL     1     -11.860   6.519  13.839  1.00  0.00     0.021 C 
HETATM   15  C22 UNL     1     -10.801   8.765  13.186  1.00  0.00     0.022 C 
HETATM   16  C23 UNL     1     -12.050   9.624  13.186  1.00  0.00     0.080 C 
HETATM   17  C24 UNL     1     -12.265  10.211  14.557  1.00  0.00     0.135 C 
HETATM   18  O4  UNL     1     -12.370  11.427  14.707  1.00  0.00    -0.297 OA
HETATM   19  C25 UNL     1     -12.389   9.223  15.720  1.00  0.00     0.018 C 
HETATM   20  C26 UNL     1     -13.782   8.562  15.631  1.00  0.00     0.023 C 
HETATM   21  C27 UNL     1     -12.398  10.014  17.052  1.00  0.00     0.023 C 
HETATM   22  C28 UNL     1     -11.193   8.177  15.658  1.00  0.00     0.021 C 
HETATM   23  C29 UNL     1      -9.921   8.741  16.317  1.00  0.00     0.090 C 
HETATM   24  C30 UNL     1      -8.892   7.655  16.442  1.00  0.00     0.157 C 
HETATM   25  O5  UNL     1      -8.363   7.395  17.517  1.00  0.00    -0.293 OA
ENDROOT
BRANCH   1  26
HETATM   26  C2  UNL     1      -4.072   5.789  12.851  1.00  0.00    -0.014 C 
HETATM   27  C1  UNL     1      -3.084   6.878  13.311  1.00  0.00     0.010 C 
BRANCH  26  28
HETATM   28  C3  UNL     1      -3.334   4.460  12.561  1.00  0.00     0.007 C 
BRANCH  28  29
HETATM   29  C4  UNL     1      -1.803   4.506  12.691  1.00  0.00     0.035 C 
BRANCH  29  30
HETATM   30  C5  UNL     1      -1.033   4.632  11.366  1.00  0.00     0.151 C 
BRANCH  30  31
HETATM   31  O1  UNL     1      -0.863   3.302  10.829  1.00  0.00    -0.393 OA
HETATM   32  H10 UNL     1      -1.749   2.959  10.623  1.00  0.00     0.210 HD
ENDBRANCH  30  31
BRANCH  30  33
HETATM   33  C6  UNL     1       0.385   5.276  11.423  1.00  0.00     0.076 C 
HETATM   34  C7  UNL     1       0.535   6.494  10.516  1.00  0.00     0.048 C 
HETATM   35  C8  UNL     1       0.850   5.620  12.843  1.00  0.00     0.048 C 
BRANCH  33  36
HETATM   36  O2  UNL     1       1.302   4.278  10.925  1.00  0.00    -0.388 OA
HETATM   37  H17 UNL     1       1.080   3.467  11.425  1.00  0.00     0.210 HD
ENDBRANCH  33  36
ENDBRANCH  30  33
ENDBRANCH  29  30
ENDBRANCH  28  29
ENDBRANCH  26  28
ENDBRANCH   1  26
TORSDOF 7
ENDMDL
MODEL 9
REMARK minimizedAffinity -6.74594975
REMARK CNNscore 0.262493789
REMARK CNNaffinity 5.64083433
REMARK  7 active torsions:
REMARK  status: ('A' for Active; 'I' for Inactive)
REMARK    1  A    between atoms: C2_2  and  C3_3 
REMARK    2  A    between atoms: C2_2  and  C9_11 
REMARK    3  A    between atoms: C3_3  and  C4_4 
REMARK    4  A    between atoms: C4_4  and  C5_5 
REMARK    5  A    between atoms: C5_5  and  O1_6 
REMARK    6  A    between atoms: C5_5  and  C6_7 
REMARK    7  A    between atoms: C6_7  and  O2_10 
ROOT
HETATM    1  C9  UNL     1       4.866  15.684   0.705  1.00  0.00    -0.001 C 
HETATM    2  C10 UNL     1       4.719  17.118   0.116  1.00  0.00     0.007 C 
HETATM    3  C11 UNL     1       3.370  17.681   0.594  1.00  0.00     0.015 C 
HETATM    4  C12 UNL     1       2.904  16.717   1.699  1.00  0.00    -0.004 C 
HETATM    5  C13 UNL     1       3.600  17.161   3.022  1.00  0.00     0.021 C 
HETATM    6  C14 UNL     1       1.430  16.611   2.037  1.00  0.00     0.007 C 
HETATM    7  C15 UNL     1       0.859  15.502   2.562  1.00  0.00     0.007 C 
HETATM    8  C16 UNL     1       1.761  14.282   2.723  1.00  0.00     0.157 C 
HETATM    9  O3  UNL     1       1.348  13.266   3.280  1.00  0.00    -0.293 OA
HETATM   10  C17 UNL     1       3.193  14.290   2.194  1.00  0.00     0.094 C 
HETATM   11  C18 UNL     1       3.395  15.345   1.107  1.00  0.00    -0.022 C 
HETATM   12  C19 UNL     1       2.609  14.894  -0.165  1.00  0.00     0.017 C 
HETATM   13  C20 UNL     1      -0.631  15.386   3.013  1.00  0.00    -0.007 C 
HETATM   14  C21 UNL     1      -0.635  14.917   4.489  1.00  0.00     0.021 C 
HETATM   15  C22 UNL     1      -1.312  14.350   2.078  1.00  0.00     0.022 C 
HETATM   16  C23 UNL     1      -2.808  14.213   2.279  1.00  0.00     0.080 C 
HETATM   17  C24 UNL     1      -3.474  15.548   2.071  1.00  0.00     0.135 C 
HETATM   18  O4  UNL     1      -4.383  15.673   1.251  1.00  0.00    -0.297 OA
HETATM   19  C25 UNL     1      -2.998  16.704   2.956  1.00  0.00     0.018 C 
HETATM   20  C26 UNL     1      -3.571  16.481   4.373  1.00  0.00     0.023 C 
HETATM   21  C27 UNL     1      -3.648  18.019   2.457  1.00  0.00     0.023 C 
HETATM   22  C28 UNL     1      -1.410  16.776   2.925  1.00  0.00     0.021 C 
HETATM   23  C29 UNL     1      -0.909  17.555   1.696  1.00  0.00     0.090 C 
HETATM   24  C30 UNL     1       0.568  17.796   1.818  1.00  0.00     0.157 C 
HETATM   25  O5  UNL     1       1.043  18.922   1.721  1.00  0.00    -0.293 OA
ENDROOT
BRANCH   1  26
HETATM   26  C2  UNL     1       5.665  14.738  -0.248  1.00  0.00    -0.014 C 
HETATM   27  C1  UNL     1       6.471  13.718   0.579  1.00  0.00     0.010 C 
BRANCH  26  28
HETATM   28  C3  UNL     1       4.741  14.020  -1.260  1.00  0.00     0.007 C 
BRANCH  28  29
HETATM   29  C4  UNL     1       5.339  12.781  -1.946  1.00  0.00     0.035 C 
BRANCH  29  30
HETATM   30  C5  UNL     1       4.370  11.993  -2.845  1.00  0.00     0.151 C 
BRANCH  30  31
HETATM   31  O1  UNL     1       4.807  10.616  -2.859  1.00  0.00    -0.393 OA
HETATM   32  H10 UNL     1       4.712  10.274  -1.953  1.00  0.00     0.210 HD
ENDBRANCH  30  31
BRANCH  30  33
HETATM   33  C6  UNL     1       4.253  12.440  -4.332  1.00  0.00     0.076 C 
HETATM   34  C7  UNL     1       4.772  11.401  -5.322  1.00  0.00     0.048 C 
HETATM   35  C8  UNL     1       2.841  12.884  -4.733  1.00  0.00     0.048 C 
BRANCH  33  36
HETATM   36  O2  UNL     1       5.100  13.601  -4.473  1.00  0.00    -0.388 OA
HETATM   37  H17 UNL     1       4.841  14.186  -3.733  1.00  0.00     0.210 HD
ENDBRANCH  33  36
ENDBRANCH  30  33
ENDBRANCH  29  30
ENDBRANCH  28  29
ENDBRANCH  26  28
ENDBRANCH   1  26
TORSDOF 7
ENDMDL
