MODEL 1
REMARK minimizedAffinity -7.53646755
REMARK CNNscore 0.859329522
REMARK CNNaffinity 6.60526991
REMARK  9 active torsions:
REMARK  status: ('A' for Active; 'I' for Inactive)
REMARK    1  A    between atoms: C2_2  and  C30_35 
REMARK    2  A    between atoms: C3_3  and  C4_4 
REMARK    3  A    between atoms: C4_4  and  O1_5 
REMARK    4  A    between atoms: C4_4  and  C5_6 
REMARK    5  A    between atoms: C5_6  and  C6_7 
REMARK    6  A    between atoms: C6_7  and  C8_9 
REMARK    7  A    between atoms: C10_11  and  O2_12 
REMARK    8  A    between atoms: C29_33  and  O5_34 
REMARK    9  A    between atoms: C30_35  and  O7_37 
ROOT
HETATM    1  C8  UNL     1       4.526  55.218  -8.292  1.00  0.00     0.001 C 
HETATM    2  C9  UNL     1       5.218  53.900  -8.741  1.00  0.00     0.038 C 
HETATM    3  C10 UNL     1       4.087  52.927  -9.128  1.00  0.00     0.132 C 
HETATM    4  C11 UNL     1       2.879  53.850  -9.454  1.00  0.00     0.017 C 
HETATM    5  C12 UNL     1       3.116  54.488 -10.864  1.00  0.00     0.023 C 
HETATM    6  C13 UNL     1       1.449  53.296  -9.536  1.00  0.00    -0.029 C 
HETATM    7  C14 UNL     1       0.374  54.091  -9.263  1.00  0.00     0.002 C 
HETATM    8  C15 UNL     1       0.620  55.494  -8.713  1.00  0.00     0.157 C 
HETATM    9  O3  UNL     1      -0.312  56.248  -8.444  1.00  0.00    -0.293 OA
HETATM   10  C16 UNL     1       2.038  55.999  -8.486  1.00  0.00     0.094 C 
HETATM   11  C17 UNL     1       3.006  54.848  -8.242  1.00  0.00    -0.019 C 
HETATM   12  C18 UNL     1       2.636  54.202  -6.874  1.00  0.00     0.017 C 
HETATM   13  C19 UNL     1      -1.104  53.621  -9.460  1.00  0.00    -0.008 C 
HETATM   14  C20 UNL     1      -1.595  53.244  -8.044  1.00  0.00     0.021 C 
HETATM   15  C21 UNL     1      -2.036  54.712 -10.062  1.00  0.00     0.022 C 
HETATM   16  C22 UNL     1      -3.444  54.226 -10.380  1.00  0.00     0.080 C 
HETATM   17  C23 UNL     1      -3.430  53.045 -11.314  1.00  0.00     0.135 C 
HETATM   18  O4  UNL     1      -4.205  53.010 -12.271  1.00  0.00    -0.297 OA
HETATM   19  C24 UNL     1      -2.511  51.870 -10.956  1.00  0.00     0.018 C 
HETATM   20  C25 UNL     1      -3.230  50.982  -9.933  1.00  0.00     0.023 C 
HETATM   21  C26 UNL     1      -2.326  51.022 -12.243  1.00  0.00     0.023 C 
HETATM   22  C27 UNL     1      -1.120  52.432 -10.501  1.00  0.00     0.016 C 
HETATM   23  C28 UNL     1      -0.133  51.348 -10.060  1.00  0.00     0.043 C 
HETATM   24  C29 UNL     1       1.294  51.889 -10.080  1.00  0.00     0.149 C 
ENDROOT
BRANCH   1  25
HETATM   25  C6  UNL     1       5.262  55.948  -7.124  1.00  0.00    -0.011 C 
HETATM   26  C7  UNL     1       5.002  57.455  -7.009  1.00  0.00     0.010 C 
BRANCH  25  27
HETATM   27  C5  UNL     1       6.775  55.622  -7.131  1.00  0.00     0.040 C 
BRANCH  27  28
HETATM   28  C4  UNL     1       7.417  55.386  -5.751  1.00  0.00     0.142 C 
BRANCH  28  29
HETATM   29  C3  UNL     1       8.690  56.136  -5.495  1.00  0.00     0.018 C 
HETATM   30  C2  UNL     1       8.856  57.415  -5.097  1.00  0.00     0.010 C 
HETATM   31  C1  UNL     1       7.765  58.386  -4.760  1.00  0.00     0.055 C 
BRANCH  30  32
HETATM   32  C30 UNL     1      10.259  57.880  -4.963  1.00  0.00     0.171 C 
HETATM   33  O6  UNL     1      11.209  57.223  -4.577  1.00  0.00    -0.646 OA
BRANCH  32  34
HETATM   34  O7  UNL     1      10.412  59.165  -5.322  1.00  0.00    -0.773 OA
HETATM   35  H44 UNL     1      11.369  59.327  -5.197  1.00  0.00     0.167 HD
ENDBRANCH  32  34
ENDBRANCH  30  32
ENDBRANCH  28  29
BRANCH  28  36
HETATM   36  O1  UNL     1       7.679  53.994  -5.590  1.00  0.00    -0.392 OA
HETATM   37  H6  UNL     1       6.824  53.532  -5.595  1.00  0.00     0.210 HD
ENDBRANCH  28  36
ENDBRANCH  27  28
ENDBRANCH  25  27
ENDBRANCH   1  25
BRANCH   3  38
HETATM   38  O2  UNL     1       4.464  52.088 -10.211  1.00  0.00    -0.394 OA
HETATM   39  H17 UNL     1       5.359  51.752 -10.020  1.00  0.00     0.210 HD
ENDBRANCH   3  38
BRANCH  24  40
HETATM   40  O5  UNL     1       2.070  50.968  -9.329  1.00  0.00    -0.391 OA
HETATM   41  H43 UNL     1       2.924  50.902  -9.801  1.00  0.00     0.210 HD
ENDBRANCH  24  40
TORSDOF 9
ENDMDL
MODEL 2
REMARK minimizedAffinity -7.55652428
REMARK CNNscore 0.843790829
REMARK CNNaffinity 6.88499594
REMARK  9 active torsions:
REMARK  status: ('A' for Active; 'I' for Inactive)
REMARK    1  A    between atoms: C2_2  and  C30_35 
REMARK    2  A    between atoms: C3_3  and  C4_4 
REMARK    3  A    between atoms: C4_4  and  O1_5 
REMARK    4  A    between atoms: C4_4  and  C5_6 
REMARK    5  A    between atoms: C5_6  and  C6_7 
REMARK    6  A    between atoms: C6_7  and  C8_9 
REMARK    7  A    between atoms: C10_11  and  O2_12 
REMARK    8  A    between atoms: C29_33  and  O5_34 
REMARK    9  A    between atoms: C30_35  and  O7_37 
ROOT
HETATM    1  C8  UNL     1      -1.671  51.477 -10.401  1.00  0.00     0.001 C 
HETATM    2  C9  UNL     1      -0.876  50.170 -10.685  1.00  0.00     0.038 C 
HETATM    3  C10 UNL     1       0.617  50.547 -10.606  1.00  0.00     0.132 C 
HETATM    4  C11 UNL     1       0.644  51.833  -9.734  1.00  0.00     0.017 C 
HETATM    5  C12 UNL     1       0.441  51.418  -8.238  1.00  0.00     0.023 C 
HETATM    6  C13 UNL     1       1.879  52.747  -9.697  1.00  0.00    -0.029 C 
HETATM    7  C14 UNL     1       1.755  54.080  -9.432  1.00  0.00     0.002 C 
HETATM    8  C15 UNL     1       0.355  54.682  -9.338  1.00  0.00     0.157 C 
HETATM    9  O3  UNL     1       0.186  55.877  -9.109  1.00  0.00    -0.293 OA
HETATM   10  C16 UNL     1      -0.877  53.808  -9.523  1.00  0.00     0.094 C 
HETATM   11  C17 UNL     1      -0.572  52.591 -10.387  1.00  0.00    -0.019 C 
HETATM   12  C18 UNL     1      -0.277  53.098 -11.830  1.00  0.00     0.017 C 
HETATM   13  C19 UNL     1       2.983  55.029  -9.249  1.00  0.00    -0.008 C 
HETATM   14  C20 UNL     1       3.119  55.771 -10.598  1.00  0.00     0.021 C 
HETATM   15  C21 UNL     1       2.813  56.064  -8.100  1.00  0.00     0.022 C 
HETATM   16  C22 UNL     1       4.053  56.905  -7.827  1.00  0.00     0.080 C 
HETATM   17  C23 UNL     1       5.253  56.050  -7.522  1.00  0.00     0.135 C 
HETATM   18  O4  UNL     1       5.988  56.338  -6.576  1.00  0.00    -0.297 OA
HETATM   19  C24 UNL     1       5.570  54.902  -8.490  1.00  0.00     0.018 C 
HETATM   20  C25 UNL     1       6.348  55.472  -9.683  1.00  0.00     0.023 C 
HETATM   21  C26 UNL     1       6.523  53.926  -7.750  1.00  0.00     0.023 C 
HETATM   22  C27 UNL     1       4.239  54.156  -8.848  1.00  0.00     0.016 C 
HETATM   23  C28 UNL     1       4.422  53.023  -9.860  1.00  0.00     0.043 C 
HETATM   24  C29 UNL     1       3.231  52.070  -9.812  1.00  0.00     0.149 C 
ENDROOT
BRANCH   1  25
HETATM   25  C6  UNL     1      -2.994  51.597 -11.222  1.00  0.00    -0.011 C 
HETATM   26  C7  UNL     1      -3.999  52.640 -10.719  1.00  0.00     0.010 C 
BRANCH  25  27
HETATM   27  C5  UNL     1      -3.653  50.211 -11.422  1.00  0.00     0.040 C 
BRANCH  27  28
HETATM   28  C4  UNL     1      -4.376  49.628 -10.193  1.00  0.00     0.142 C 
BRANCH  28  29
HETATM   29  C3  UNL     1      -5.869  49.772 -10.196  1.00  0.00     0.018 C 
HETATM   30  C2  UNL     1      -6.793  49.016 -10.827  1.00  0.00     0.010 C 
HETATM   31  C1  UNL     1      -6.525  47.793 -11.649  1.00  0.00     0.055 C 
BRANCH  30  32
HETATM   32  C30 UNL     1      -8.206  49.439 -10.659  1.00  0.00     0.171 C 
HETATM   33  O6  UNL     1      -9.172  49.000 -11.256  1.00  0.00    -0.646 OA
BRANCH  32  34
HETATM   34  O7  UNL     1      -8.347  50.407  -9.739  1.00  0.00    -0.773 OA
HETATM   35  H44 UNL     1      -9.312  50.573  -9.726  1.00  0.00     0.167 HD
ENDBRANCH  32  34
ENDBRANCH  30  32
ENDBRANCH  28  29
BRANCH  28  36
HETATM   36  O1  UNL     1      -3.870  50.249  -9.015  1.00  0.00    -0.392 OA
HETATM   37  H6  UNL     1      -2.931  50.011  -8.938  1.00  0.00     0.210 HD
ENDBRANCH  28  36
ENDBRANCH  27  28
ENDBRANCH  25  27
ENDBRANCH   1  25
BRANCH   3  38
HETATM   38  O2  UNL     1       1.398  49.486 -10.070  1.00  0.00    -0.394 OA
HETATM   39  H17 UNL     1       1.118  48.666 -10.517  1.00  0.00     0.210 HD
ENDBRANCH   3  38
BRANCH  24  40
HETATM   40  O5  UNL     1       3.307  51.290 -10.996  1.00  0.00    -0.391 OA
HETATM   41  H43 UNL     1       3.039  50.388 -10.731  1.00  0.00     0.210 HD
ENDBRANCH  24  40
TORSDOF 9
ENDMDL
MODEL 3
REMARK minimizedAffinity -7.61526632
REMARK CNNscore 0.794132471
REMARK CNNaffinity 6.34772158
REMARK  9 active torsions:
REMARK  status: ('A' for Active; 'I' for Inactive)
REMARK    1  A    between atoms: C2_2  and  C30_35 
REMARK    2  A    between atoms: C3_3  and  C4_4 
REMARK    3  A    between atoms: C4_4  and  O1_5 
REMARK    4  A    between atoms: C4_4  and  C5_6 
REMARK    5  A    between atoms: C5_6  and  C6_7 
REMARK    6  A    between atoms: C6_7  and  C8_9 
REMARK    7  A    between atoms: C10_11  and  O2_12 
REMARK    8  A    between atoms: C29_33  and  O5_34 
REMARK    9  A    between atoms: C30_35  and  O7_37 
ROOT
HETATM    1  C8  UNL     1       4.298  56.818  -7.629  1.00  0.00     0.001 C 
HETATM    2  C9  UNL     1       5.373  55.906  -8.285  1.00  0.00     0.038 C 
HETATM    3  C10 UNL     1       4.608  54.742  -8.945  1.00  0.00     0.132 C 
HETATM    4  C11 UNL     1       3.174  55.298  -9.163  1.00  0.00     0.017 C 
HETATM    5  C12 UNL     1       3.205  56.268 -10.393  1.00  0.00     0.023 C 
HETATM    6  C13 UNL     1       1.991  54.365  -9.463  1.00  0.00    -0.029 C 
HETATM    7  C14 UNL     1       0.719  54.713  -9.113  1.00  0.00     0.002 C 
HETATM    8  C15 UNL     1       0.507  55.969  -8.272  1.00  0.00     0.157 C 
HETATM    9  O3  UNL     1      -0.616  56.324  -7.923  1.00  0.00    -0.293 OA
HETATM   10  C16 UNL     1       1.692  56.822  -7.843  1.00  0.00     0.094 C 
HETATM   11  C17 UNL     1       2.973  55.999  -7.768  1.00  0.00    -0.019 C 
HETATM   12  C18 UNL     1       2.817  54.990  -6.591  1.00  0.00     0.017 C 
HETATM   13  C19 UNL     1      -0.534  53.867  -9.510  1.00  0.00    -0.008 C 
HETATM   14  C20 UNL     1      -0.890  53.060  -8.241  1.00  0.00     0.021 C 
HETATM   15  C21 UNL     1      -1.759  54.723  -9.944  1.00  0.00     0.022 C 
HETATM   16  C22 UNL     1      -2.940  53.910 -10.458  1.00  0.00     0.080 C 
HETATM   17  C23 UNL     1      -2.549  53.023 -11.609  1.00  0.00     0.135 C 
HETATM   18  O4  UNL     1      -3.268  52.961 -12.608  1.00  0.00    -0.297 OA
HETATM   19  C24 UNL     1      -1.309  52.138 -11.432  1.00  0.00     0.018 C 
HETATM   20  C25 UNL     1      -1.718  50.872 -10.667  1.00  0.00     0.023 C 
HETATM   21  C26 UNL     1      -0.859  51.688 -12.848  1.00  0.00     0.023 C 
HETATM   22  C27 UNL     1      -0.169  52.986 -10.771  1.00  0.00     0.016 C 
HETATM   23  C28 UNL     1       1.106  52.188 -10.489  1.00  0.00     0.043 C 
HETATM   24  C29 UNL     1       2.290  53.131 -10.293  1.00  0.00     0.149 C 
ENDROOT
BRANCH   1  25
HETATM   25  C6  UNL     1       4.760  57.467  -6.286  1.00  0.00    -0.011 C 
HETATM   26  C7  UNL     1       6.266  57.420  -6.004  1.00  0.00     0.010 C 
BRANCH  25  27
HETATM   27  C5  UNL     1       3.933  56.928  -5.093  1.00  0.00     0.040 C 
BRANCH  27  28
HETATM   28  C4  UNL     1       3.049  57.960  -4.369  1.00  0.00     0.142 C 
BRANCH  28  29
HETATM   29  C3  UNL     1       1.570  57.767  -4.530  1.00  0.00     0.018 C 
HETATM   30  C2  UNL     1       0.580  58.027  -3.650  1.00  0.00     0.010 C 
HETATM   31  C1  UNL     1       0.740  58.635  -2.290  1.00  0.00     0.055 C 
BRANCH  30  32
HETATM   32  C30 UNL     1      -0.795  57.693  -4.099  1.00  0.00     0.171 C 
HETATM   33  O6  UNL     1      -1.829  58.218  -3.728  1.00  0.00    -0.646 OA
BRANCH  32  34
HETATM   34  O7  UNL     1      -0.814  56.703  -5.006  1.00  0.00    -0.773 OA
HETATM   35  H44 UNL     1      -1.765  56.601  -5.216  1.00  0.00     0.167 HD
ENDBRANCH  32  34
ENDBRANCH  30  32
ENDBRANCH  28  29
BRANCH  28  36
HETATM   36  O1  UNL     1       3.382  59.267  -4.831  1.00  0.00    -0.392 OA
HETATM   37  H6  UNL     1       4.302  59.443  -4.573  1.00  0.00     0.210 HD
ENDBRANCH  28  36
ENDBRANCH  27  28
ENDBRANCH  25  27
ENDBRANCH   1  25
BRANCH   3  38
HETATM   38  O2  UNL     1       5.237  54.315 -10.146  1.00  0.00    -0.394 OA
HETATM   39  H17 UNL     1       6.191  54.237  -9.962  1.00  0.00     0.210 HD
ENDBRANCH   3  38
BRANCH  24  40
HETATM   40  O5  UNL     1       3.313  52.352  -9.691  1.00  0.00    -0.391 OA
HETATM   41  H43 UNL     1       4.147  52.655 -10.102  1.00  0.00     0.210 HD
ENDBRANCH  24  40
TORSDOF 9
ENDMDL
MODEL 4
REMARK minimizedAffinity -9.88732052
REMARK CNNscore 0.727162302
REMARK CNNaffinity 7.11972284
REMARK  9 active torsions:
REMARK  status: ('A' for Active; 'I' for Inactive)
REMARK    1  A    between atoms: C2_2  and  C30_35 
REMARK    2  A    between atoms: C3_3  and  C4_4 
REMARK    3  A    between atoms: C4_4  and  O1_5 
REMARK    4  A    between atoms: C4_4  and  C5_6 
REMARK    5  A    between atoms: C5_6  and  C6_7 
REMARK    6  A    between atoms: C6_7  and  C8_9 
REMARK    7  A    between atoms: C10_11  and  O2_12 
REMARK    8  A    between atoms: C29_33  and  O5_34 
REMARK    9  A    between atoms: C30_35  and  O7_37 
ROOT
HETATM    1  C8  UNL     1      -0.765  49.455 -18.105  1.00  0.00     0.001 C 
HETATM    2  C9  UNL     1      -1.950  48.451 -18.182  1.00  0.00     0.038 C 
HETATM    3  C10 UNL     1      -2.590  48.642 -19.571  1.00  0.00     0.132 C 
HETATM    4  C11 UNL     1      -1.459  49.273 -20.432  1.00  0.00     0.017 C 
HETATM    5  C12 UNL     1      -0.441  48.144 -20.810  1.00  0.00     0.023 C 
HETATM    6  C13 UNL     1      -1.763  49.956 -21.773  1.00  0.00    -0.029 C 
HETATM    7  C14 UNL     1      -0.962  50.954 -22.248  1.00  0.00     0.002 C 
HETATM    8  C15 UNL     1       0.145  51.496 -21.347  1.00  0.00     0.157 C 
HETATM    9  O3  UNL     1       0.891  52.398 -21.721  1.00  0.00    -0.293 OA
HETATM   10  C16 UNL     1       0.359  50.924 -19.953  1.00  0.00     0.094 C 
HETATM   11  C17 UNL     1      -0.927  50.328 -19.392  1.00  0.00    -0.019 C 
HETATM   12  C18 UNL     1      -1.921  51.502 -19.146  1.00  0.00     0.017 C 
HETATM   13  C19 UNL     1      -1.145  51.593 -23.662  1.00  0.00    -0.008 C 
HETATM   14  C20 UNL     1      -1.886  52.924 -23.408  1.00  0.00     0.021 C 
HETATM   15  C21 UNL     1       0.194  51.875 -24.403  1.00  0.00     0.022 C 
HETATM   16  C22 UNL     1       0.026  52.373 -25.832  1.00  0.00     0.080 C 
HETATM   17  C23 UNL     1      -0.785  51.417 -26.665  1.00  0.00     0.135 C 
HETATM   18  O4  UNL     1      -0.410  51.121 -27.801  1.00  0.00    -0.297 OA
HETATM   19  C24 UNL     1      -2.123  50.936 -26.091  1.00  0.00     0.018 C 
HETATM   20  C25 UNL     1      -3.188  52.003 -26.376  1.00  0.00     0.023 C 
HETATM   21  C26 UNL     1      -2.533  49.663 -26.880  1.00  0.00     0.023 C 
HETATM   22  C27 UNL     1      -1.926  50.569 -24.580  1.00  0.00     0.016 C 
HETATM   23  C28 UNL     1      -3.214  50.130 -23.880  1.00  0.00     0.043 C 
HETATM   24  C29 UNL     1      -2.889  49.365 -22.600  1.00  0.00     0.149 C 
ENDROOT
BRANCH   1  25
HETATM   25  C6  UNL     1      -0.550  50.065 -16.684  1.00  0.00    -0.011 C 
HETATM   26  C7  UNL     1      -1.654  49.777 -15.659  1.00  0.00     0.010 C 
BRANCH  25  27
HETATM   27  C5  UNL     1      -0.223  51.576 -16.770  1.00  0.00     0.040 C 
BRANCH  27  28
HETATM   28  C4  UNL     1       1.263  51.950 -16.615  1.00  0.00     0.142 C 
BRANCH  28  29
HETATM   29  C3  UNL     1       1.960  51.346 -15.433  1.00  0.00     0.018 C 
HETATM   30  C2  UNL     1       3.260  51.429 -15.079  1.00  0.00     0.010 C 
HETATM   31  C1  UNL     1       4.321  52.215 -15.787  1.00  0.00     0.055 C 
BRANCH  30  32
HETATM   32  C30 UNL     1       3.653  50.684 -13.857  1.00  0.00     0.171 C 
HETATM   33  O6  UNL     1       3.077  50.690 -12.784  1.00  0.00    -0.646 OA
BRANCH  32  34
HETATM   34  O7  UNL     1       4.765  49.953 -14.036  1.00  0.00    -0.773 OA
HETATM   35  H44 UNL     1       4.895  49.516 -13.170  1.00  0.00     0.167 HD
ENDBRANCH  32  34
ENDBRANCH  30  32
ENDBRANCH  28  29
BRANCH  28  36
HETATM   36  O1  UNL     1       1.380  53.368 -16.525  1.00  0.00    -0.392 OA
HETATM   37  H6  UNL     1       1.074  53.741 -17.368  1.00  0.00     0.210 HD
ENDBRANCH  28  36
ENDBRANCH  27  28
ENDBRANCH  25  27
ENDBRANCH   1  25
BRANCH   3  38
HETATM   38  O2  UNL     1      -3.080  47.415 -20.096  1.00  0.00    -0.394 OA
HETATM   39  H17 UNL     1      -3.575  46.972 -19.382  1.00  0.00     0.210 HD
ENDBRANCH   3  38
BRANCH  24  40
HETATM   40  O5  UNL     1      -4.096  49.323 -21.854  1.00  0.00    -0.391 OA
HETATM   41  H43 UNL     1      -4.120  48.434 -21.447  1.00  0.00     0.210 HD
ENDBRANCH  24  40
TORSDOF 9
ENDMDL
MODEL 5
REMARK minimizedAffinity -8.15540981
REMARK CNNscore 0.580437243
REMARK CNNaffinity 6.17503357
REMARK  9 active torsions:
REMARK  status: ('A' for Active; 'I' for Inactive)
REMARK    1  A    between atoms: C2_2  and  C30_35 
REMARK    2  A    between atoms: C3_3  and  C4_4 
REMARK    3  A    between atoms: C4_4  and  O1_5 
REMARK    4  A    between atoms: C4_4  and  C5_6 
REMARK    5  A    between atoms: C5_6  and  C6_7 
REMARK    6  A    between atoms: C6_7  and  C8_9 
REMARK    7  A    between atoms: C10_11  and  O2_12 
REMARK    8  A    between atoms: C29_33  and  O5_34 
REMARK    9  A    between atoms: C30_35  and  O7_37 
ROOT
HETATM    1  C8  UNL     1      -1.695  52.456 -11.047  1.00  0.00     0.001 C 
HETATM    2  C9  UNL     1      -0.695  52.560 -12.234  1.00  0.00     0.038 C 
HETATM    3  C10 UNL     1       0.444  53.485 -11.761  1.00  0.00     0.132 C 
HETATM    4  C11 UNL     1       0.386  53.403 -10.210  1.00  0.00     0.017 C 
HETATM    5  C12 UNL     1       1.011  52.038  -9.766  1.00  0.00     0.023 C 
HETATM    6  C13 UNL     1       1.102  54.438  -9.328  1.00  0.00    -0.029 C 
HETATM    7  C14 UNL     1       0.641  54.730  -8.077  1.00  0.00     0.002 C 
HETATM    8  C15 UNL     1      -0.692  54.137  -7.630  1.00  0.00     0.157 C 
HETATM    9  O3  UNL     1      -1.157  54.373  -6.517  1.00  0.00    -0.293 OA
HETATM   10  C16 UNL     1      -1.484  53.226  -8.557  1.00  0.00     0.094 C 
HETATM   11  C17 UNL     1      -1.173  53.515 -10.021  1.00  0.00    -0.019 C 
HETATM   12  C18 UNL     1      -1.731  54.932 -10.351  1.00  0.00     0.017 C 
HETATM   13  C19 UNL     1       1.402  55.671  -7.088  1.00  0.00    -0.008 C 
HETATM   14  C20 UNL     1       0.669  57.029  -7.184  1.00  0.00     0.021 C 
HETATM   15  C21 UNL     1       1.391  55.176  -5.613  1.00  0.00     0.022 C 
HETATM   16  C22 UNL     1       2.238  56.013  -4.665  1.00  0.00     0.080 C 
HETATM   17  C23 UNL     1       3.669  56.102  -5.125  1.00  0.00     0.135 C 
HETATM   18  O4  UNL     1       4.585  55.946  -4.316  1.00  0.00    -0.297 OA
HETATM   19  C24 UNL     1       3.920  56.502  -6.584  1.00  0.00     0.018 C 
HETATM   20  C25 UNL     1       3.848  58.031  -6.690  1.00  0.00     0.023 C 
HETATM   21  C26 UNL     1       5.377  56.090  -6.930  1.00  0.00     0.023 C 
HETATM   22  C27 UNL     1       2.926  55.715  -7.506  1.00  0.00     0.016 C 
HETATM   23  C28 UNL     1       3.043  56.078  -8.988  1.00  0.00     0.043 C 
HETATM   24  C29 UNL     1       2.414  54.989  -9.853  1.00  0.00     0.149 C 
ENDROOT
BRANCH   1  25
HETATM   25  C6  UNL     1      -3.189  52.366 -11.491  1.00  0.00    -0.011 C 
HETATM   26  C7  UNL     1      -4.200  53.074 -10.582  1.00  0.00     0.010 C 
BRANCH  25  27
HETATM   27  C5  UNL     1      -3.597  50.901 -11.777  1.00  0.00     0.040 C 
BRANCH  27  28
HETATM   28  C4  UNL     1      -4.111  50.099 -10.566  1.00  0.00     0.142 C 
BRANCH  28  29
HETATM   29  C3  UNL     1      -5.581  50.218 -10.292  1.00  0.00     0.018 C 
HETATM   30  C2  UNL     1      -6.403  49.342  -9.677  1.00  0.00     0.010 C 
HETATM   31  C1  UNL     1      -6.004  48.034  -9.064  1.00  0.00     0.055 C 
BRANCH  30  32
HETATM   32  C30 UNL     1      -7.830  49.739  -9.587  1.00  0.00     0.171 C 
HETATM   33  O6  UNL     1      -8.475  49.912  -8.568  1.00  0.00    -0.646 OA
BRANCH  32  34
HETATM   34  O7  UNL     1      -8.395  49.904 -10.794  1.00  0.00    -0.773 OA
HETATM   35  H44 UNL     1      -9.313  50.172 -10.584  1.00  0.00     0.167 HD
ENDBRANCH  32  34
ENDBRANCH  30  32
ENDBRANCH  28  29
BRANCH  28  36
HETATM   36  O1  UNL     1      -3.404  50.511  -9.399  1.00  0.00    -0.392 OA
HETATM   37  H6  UNL     1      -2.469  50.278  -9.525  1.00  0.00     0.210 HD
ENDBRANCH  28  36
ENDBRANCH  27  28
ENDBRANCH  25  27
ENDBRANCH   1  25
BRANCH   3  38
HETATM   38  O2  UNL     1       1.699  53.091 -12.300  1.00  0.00    -0.394 OA
HETATM   39  H17 UNL     1       1.565  52.920 -13.251  1.00  0.00     0.210 HD
ENDBRANCH   3  38
BRANCH  24  40
HETATM   40  O5  UNL     1       2.242  55.564 -11.140  1.00  0.00    -0.391 OA
HETATM   41  H43 UNL     1       2.454  54.850 -11.774  1.00  0.00     0.210 HD
ENDBRANCH  24  40
TORSDOF 9
ENDMDL
MODEL 6
REMARK minimizedAffinity -7.7600832
REMARK CNNscore 0.573061347
REMARK CNNaffinity 6.2195096
REMARK  9 active torsions:
REMARK  status: ('A' for Active; 'I' for Inactive)
REMARK    1  A    between atoms: C2_2  and  C30_35 
REMARK    2  A    between atoms: C3_3  and  C4_4 
REMARK    3  A    between atoms: C4_4  and  O1_5 
REMARK    4  A    between atoms: C4_4  and  C5_6 
REMARK    5  A    between atoms: C5_6  and  C6_7 
REMARK    6  A    between atoms: C6_7  and  C8_9 
REMARK    7  A    between atoms: C10_11  and  O2_12 
REMARK    8  A    between atoms: C29_33  and  O5_34 
REMARK    9  A    between atoms: C30_35  and  O7_37 
ROOT
HETATM    1  C8  UNL     1      -1.725  52.694 -10.769  1.00  0.00     0.001 C 
HETATM    2  C9  UNL     1      -0.795  52.712 -12.016  1.00  0.00     0.038 C 
HETATM    3  C10 UNL     1       0.429  53.567 -11.630  1.00  0.00     0.132 C 
HETATM    4  C11 UNL     1       0.462  53.513 -10.077  1.00  0.00     0.017 C 
HETATM    5  C12 UNL     1       1.022  52.116  -9.645  1.00  0.00     0.023 C 
HETATM    6  C13 UNL     1       1.297  54.511  -9.261  1.00  0.00    -0.029 C 
HETATM    7  C14 UNL     1       0.934  54.853  -7.990  1.00  0.00     0.002 C 
HETATM    8  C15 UNL     1      -0.405  54.356  -7.452  1.00  0.00     0.157 C 
HETATM    9  O3  UNL     1      -0.784  54.640  -6.318  1.00  0.00    -0.293 OA
HETATM   10  C16 UNL     1      -1.311  53.486  -8.312  1.00  0.00     0.094 C 
HETATM   11  C17 UNL     1      -1.072  53.731  -9.797  1.00  0.00    -0.019 C 
HETATM   12  C18 UNL     1      -1.556  55.176 -10.120  1.00  0.00     0.017 C 
HETATM   13  C19 UNL     1       1.814  55.756  -7.067  1.00  0.00    -0.008 C 
HETATM   14  C20 UNL     1       1.167  57.157  -7.145  1.00  0.00     0.021 C 
HETATM   15  C21 UNL     1       1.861  55.285  -5.585  1.00  0.00     0.022 C 
HETATM   16  C22 UNL     1       2.819  56.079  -4.706  1.00  0.00     0.080 C 
HETATM   17  C23 UNL     1       4.221  56.065  -5.253  1.00  0.00     0.135 C 
HETATM   18  O4  UNL     1       5.173  55.861  -4.498  1.00  0.00    -0.297 OA
HETATM   19  C24 UNL     1       4.408  56.425  -6.733  1.00  0.00     0.018 C 
HETATM   20  C25 UNL     1       4.430  57.953  -6.864  1.00  0.00     0.023 C 
HETATM   21  C26 UNL     1       5.810  55.912  -7.158  1.00  0.00     0.023 C 
HETATM   22  C27 UNL     1       3.309  55.692  -7.578  1.00  0.00     0.016 C 
HETATM   23  C28 UNL     1       3.359  56.023  -9.071  1.00  0.00     0.043 C 
HETATM   24  C29 UNL     1       2.607  54.966  -9.875  1.00  0.00     0.149 C 
ENDROOT
BRANCH   1  25
HETATM   25  C6  UNL     1      -3.246  52.696 -11.120  1.00  0.00    -0.011 C 
HETATM   26  C7  UNL     1      -4.040  53.917 -10.642  1.00  0.00     0.010 C 
BRANCH  25  27
HETATM   27  C5  UNL     1      -3.918  51.368 -10.694  1.00  0.00     0.040 C 
BRANCH  27  28
HETATM   28  C4  UNL     1      -3.569  50.135 -11.548  1.00  0.00     0.142 C 
BRANCH  28  29
HETATM   29  C3  UNL     1      -3.297  50.411 -12.997  1.00  0.00     0.018 C 
HETATM   30  C2  UNL     1      -2.314  49.925 -13.784  1.00  0.00     0.010 C 
HETATM   31  C1  UNL     1      -1.272  48.926 -13.383  1.00  0.00     0.055 C 
BRANCH  30  32
HETATM   32  C30 UNL     1      -2.293  50.420 -15.183  1.00  0.00     0.171 C 
HETATM   33  O6  UNL     1      -1.312  50.565 -15.889  1.00  0.00    -0.646 OA
BRANCH  32  34
HETATM   34  O7  UNL     1      -3.520  50.717 -15.642  1.00  0.00    -0.773 OA
HETATM   35  H44 UNL     1      -3.356  51.012 -16.560  1.00  0.00     0.167 HD
ENDBRANCH  32  34
ENDBRANCH  30  32
ENDBRANCH  28  29
BRANCH  28  36
HETATM   36  O1  UNL     1      -4.636  49.193 -11.466  1.00  0.00    -0.392 OA
HETATM   37  H6  UNL     1      -4.695  48.898 -10.542  1.00  0.00     0.210 HD
ENDBRANCH  28  36
ENDBRANCH  27  28
ENDBRANCH  25  27
ENDBRANCH   1  25
BRANCH   3  38
HETATM   38  O2  UNL     1       1.620  53.081 -12.237  1.00  0.00    -0.394 OA
HETATM   39  H17 UNL     1       1.416  52.905 -13.174  1.00  0.00     0.210 HD
ENDBRANCH   3  38
BRANCH  24  40
HETATM   40  O5  UNL     1       2.395  55.531 -11.160  1.00  0.00    -0.391 OA
HETATM   41  H43 UNL     1       2.519  54.795 -11.791  1.00  0.00     0.210 HD
ENDBRANCH  24  40
TORSDOF 9
ENDMDL
MODEL 7
REMARK minimizedAffinity -8.47835636
REMARK CNNscore 0.548238099
REMARK CNNaffinity 5.77497864
REMARK  9 active torsions:
REMARK  status: ('A' for Active; 'I' for Inactive)
REMARK    1  A    between atoms: C2_2  and  C30_35 
REMARK    2  A    between atoms: C3_3  and  C4_4 
REMARK    3  A    between atoms: C4_4  and  O1_5 
REMARK    4  A    between atoms: C4_4  and  C5_6 
REMARK    5  A    between atoms: C5_6  and  C6_7 
REMARK    6  A    between atoms: C6_7  and  C8_9 
REMARK    7  A    between atoms: C10_11  and  O2_12 
REMARK    8  A    between atoms: C29_33  and  O5_34 
REMARK    9  A    between atoms: C30_35  and  O7_37 
ROOT
HETATM    1  C8  UNL     1     -10.230  46.228 -27.677  1.00  0.00     0.001 C 
HETATM    2  C9  UNL     1     -10.471  45.325 -28.920  1.00  0.00     0.038 C 
HETATM    3  C10 UNL     1     -11.887  44.735 -28.757  1.00  0.00     0.132 C 
HETATM    4  C11 UNL     1     -12.609  45.726 -27.803  1.00  0.00     0.017 C 
HETATM    5  C12 UNL     1     -12.994  47.004 -28.621  1.00  0.00     0.023 C 
HETATM    6  C13 UNL     1     -13.914  45.341 -27.090  1.00  0.00    -0.029 C 
HETATM    7  C14 UNL     1     -14.250  45.903 -25.892  1.00  0.00     0.002 C 
HETATM    8  C15 UNL     1     -13.230  46.797 -25.191  1.00  0.00     0.157 C 
HETATM    9  O3  UNL     1     -13.477  47.323 -24.108  1.00  0.00    -0.293 OA
HETATM   10  C16 UNL     1     -11.872  47.065 -25.822  1.00  0.00     0.094 C 
HETATM   11  C17 UNL     1     -11.455  45.931 -26.751  1.00  0.00    -0.019 C 
HETATM   12  C18 UNL     1     -11.196  44.672 -25.871  1.00  0.00     0.017 C 
HETATM   13  C19 UNL     1     -15.622  45.650 -25.188  1.00  0.00    -0.008 C 
HETATM   14  C20 UNL     1     -15.323  44.598 -24.096  1.00  0.00     0.021 C 
HETATM   15  C21 UNL     1     -16.236  46.921 -24.532  1.00  0.00     0.022 C 
HETATM   16  C22 UNL     1     -17.632  46.717 -23.959  1.00  0.00     0.080 C 
HETATM   17  C23 UNL     1     -18.594  46.206 -24.998  1.00  0.00     0.135 C 
HETATM   18  O4  UNL     1     -19.717  46.703 -25.092  1.00  0.00    -0.297 OA
HETATM   19  C24 UNL     1     -18.159  44.993 -25.830  1.00  0.00     0.018 C 
HETATM   20  C25 UNL     1     -18.442  43.720 -25.022  1.00  0.00     0.023 C 
HETATM   21  C26 UNL     1     -19.071  44.946 -27.086  1.00  0.00     0.023 C 
HETATM   22  C27 UNL     1     -16.670  45.189 -26.278  1.00  0.00     0.016 C 
HETATM   23  C28 UNL     1     -16.104  44.008 -27.069  1.00  0.00     0.043 C 
HETATM   24  C29 UNL     1     -14.865  44.437 -27.850  1.00  0.00     0.149 C 
ENDROOT
BRANCH   1  25
HETATM   25  C6  UNL     1      -8.754  46.211 -27.166  1.00  0.00    -0.011 C 
HETATM   26  C7  UNL     1      -8.564  45.866 -25.685  1.00  0.00     0.010 C 
BRANCH  25  27
HETATM   27  C5  UNL     1      -8.016  47.515 -27.554  1.00  0.00     0.040 C 
BRANCH  27  28
HETATM   28  C4  UNL     1      -8.317  48.064 -28.961  1.00  0.00     0.142 C 
BRANCH  28  29
HETATM   29  C3  UNL     1      -7.243  47.839 -29.984  1.00  0.00     0.018 C 
HETATM   30  C2  UNL     1      -5.904  47.919 -29.839  1.00  0.00     0.010 C 
HETATM   31  C1  UNL     1      -5.166  48.210 -28.567  1.00  0.00     0.055 C 
BRANCH  30  32
HETATM   32  C30 UNL     1      -5.099  47.669 -31.061  1.00  0.00     0.171 C 
HETATM   33  O6  UNL     1      -4.900  46.592 -31.593  1.00  0.00    -0.646 OA
BRANCH  32  34
HETATM   34  O7  UNL     1      -4.573  48.795 -31.569  1.00  0.00    -0.773 OA
HETATM   35  H44 UNL     1      -4.089  48.486 -32.362  1.00  0.00     0.167 HD
ENDBRANCH  32  34
ENDBRANCH  30  32
ENDBRANCH  28  29
BRANCH  28  36
HETATM   36  O1  UNL     1      -8.564  49.465 -28.873  1.00  0.00    -0.392 OA
HETATM   37  H6  UNL     1      -9.365  49.588 -28.337  1.00  0.00     0.210 HD
ENDBRANCH  28  36
ENDBRANCH  27  28
ENDBRANCH  25  27
ENDBRANCH   1  25
BRANCH   3  38
HETATM   38  O2  UNL     1     -12.538  44.583 -30.012  1.00  0.00    -0.394 OA
HETATM   39  H17 UNL     1     -11.900  44.171 -30.622  1.00  0.00     0.210 HD
ENDBRANCH   3  38
BRANCH  24  40
HETATM   40  O5  UNL     1     -14.217  43.236 -28.243  1.00  0.00    -0.391 OA
HETATM   41  H43 UNL     1     -13.882  43.405 -29.146  1.00  0.00     0.210 HD
ENDBRANCH  24  40
TORSDOF 9
ENDMDL
MODEL 8
REMARK minimizedAffinity -8.85330009
REMARK CNNscore 0.544124961
REMARK CNNaffinity 6.56606674
REMARK  9 active torsions:
REMARK  status: ('A' for Active; 'I' for Inactive)
REMARK    1  A    between atoms: C2_2  and  C30_35 
REMARK    2  A    between atoms: C3_3  and  C4_4 
REMARK    3  A    between atoms: C4_4  and  O1_5 
REMARK    4  A    between atoms: C4_4  and  C5_6 
REMARK    5  A    between atoms: C5_6  and  C6_7 
REMARK    6  A    between atoms: C6_7  and  C8_9 
REMARK    7  A    between atoms: C10_11  and  O2_12 
REMARK    8  A    between atoms: C29_33  and  O5_34 
REMARK    9  A    between atoms: C30_35  and  O7_37 
ROOT
HETATM    1  C8  UNL     1      -6.166  48.979 -23.728  1.00  0.00     0.001 C 
HETATM    2  C9  UNL     1      -7.030  49.263 -22.466  1.00  0.00     0.038 C 
HETATM    3  C10 UNL     1      -6.066  49.817 -21.398  1.00  0.00     0.132 C 
HETATM    4  C11 UNL     1      -4.867  50.377 -22.215  1.00  0.00     0.017 C 
HETATM    5  C12 UNL     1      -5.300  51.740 -22.852  1.00  0.00     0.023 C 
HETATM    6  C13 UNL     1      -3.523  50.696 -21.544  1.00  0.00    -0.029 C 
HETATM    7  C14 UNL     1      -2.357  50.639 -22.250  1.00  0.00     0.002 C 
HETATM    8  C15 UNL     1      -2.389  50.092 -23.675  1.00  0.00     0.157 C 
HETATM    9  O3  UNL     1      -1.368  50.013 -24.354  1.00  0.00    -0.293 OA
HETATM   10  C16 UNL     1      -3.699  49.632 -24.298  1.00  0.00     0.094 C 
HETATM   11  C17 UNL     1      -4.697  49.190 -23.235  1.00  0.00    -0.019 C 
HETATM   12  C18 UNL     1      -4.140  47.891 -22.578  1.00  0.00     0.017 C 
HETATM   13  C19 UNL     1      -0.980  51.081 -21.658  1.00  0.00    -0.008 C 
HETATM   14  C20 UNL     1      -0.275  49.765 -21.259  1.00  0.00     0.021 C 
HETATM   15  C21 UNL     1      -0.087  51.868 -22.660  1.00  0.00     0.022 C 
HETATM   16  C22 UNL     1       1.198  52.417 -22.056  1.00  0.00     0.080 C 
HETATM   17  C23 UNL     1       0.925  53.301 -20.869  1.00  0.00     0.135 C 
HETATM   18  O4  UNL     1       1.511  54.379 -20.758  1.00  0.00    -0.297 OA
HETATM   19  C24 UNL     1      -0.006  52.755 -19.778  1.00  0.00     0.018 C 
HETATM   20  C25 UNL     1       0.813  51.851 -18.847  1.00  0.00     0.023 C 
HETATM   21  C26 UNL     1      -0.483  53.966 -18.932  1.00  0.00     0.023 C 
HETATM   22  C27 UNL     1      -1.244  52.076 -20.458  1.00  0.00     0.016 C 
HETATM   23  C28 UNL     1      -2.218  51.439 -19.465  1.00  0.00     0.043 C 
HETATM   24  C29 UNL     1      -3.579  51.221 -20.122  1.00  0.00     0.149 C 
ENDROOT
BRANCH   1  25
HETATM   25  C6  UNL     1      -6.623  47.720 -24.531  1.00  0.00    -0.011 C 
HETATM   26  C7  UNL     1      -6.390  47.773 -26.045  1.00  0.00     0.010 C 
BRANCH  25  27
HETATM   27  C5  UNL     1      -8.082  47.338 -24.185  1.00  0.00     0.040 C 
BRANCH  27  28
HETATM   28  C4  UNL     1      -8.865  46.607 -25.291  1.00  0.00     0.142 C 
BRANCH  28  29
HETATM   29  C3  UNL     1     -10.257  47.110 -25.535  1.00  0.00     0.018 C 
HETATM   30  C2  UNL     1     -10.938  47.195 -26.697  1.00  0.00     0.010 C 
HETATM   31  C1  UNL     1     -10.455  46.741 -28.041  1.00  0.00     0.055 C 
BRANCH  30  32
HETATM   32  C30 UNL     1     -12.302  47.774 -26.614  1.00  0.00     0.171 C 
HETATM   33  O6  UNL     1     -13.222  47.372 -25.924  1.00  0.00    -0.646 OA
BRANCH  32  34
HETATM   34  O7  UNL     1     -12.456  48.844 -27.410  1.00  0.00    -0.773 OA
HETATM   35  H44 UNL     1     -13.380  49.122 -27.245  1.00  0.00     0.167 HD
ENDBRANCH  32  34
ENDBRANCH  30  32
ENDBRANCH  28  29
BRANCH  28  36
HETATM   36  O1  UNL     1      -8.941  45.220 -24.971  1.00  0.00    -0.392 OA
HETATM   37  H6  UNL     1      -8.035  44.868 -24.977  1.00  0.00     0.210 HD
ENDBRANCH  28  36
ENDBRANCH  27  28
ENDBRANCH  25  27
ENDBRANCH   1  25
BRANCH   3  38
HETATM   38  O2  UNL     1      -6.696  50.794 -20.579  1.00  0.00    -0.394 OA
HETATM   39  H17 UNL     1      -7.566  50.438 -20.321  1.00  0.00     0.210 HD
ENDBRANCH   3  38
BRANCH  24  40
HETATM   40  O5  UNL     1      -4.279  50.319 -19.277  1.00  0.00    -0.391 OA
HETATM   41  H43 UNL     1      -5.206  50.631 -19.276  1.00  0.00     0.210 HD
ENDBRANCH  24  40
TORSDOF 9
ENDMDL
MODEL 9
REMARK minimizedAffinity -8.25640202
REMARK CNNscore 0.485831738
REMARK CNNaffinity 6.13554716
REMARK  9 active torsions:
REMARK  status: ('A' for Active; 'I' for Inactive)
REMARK    1  A    between atoms: C2_2  and  C30_35 
REMARK    2  A    between atoms: C3_3  and  C4_4 
REMARK    3  A    between atoms: C4_4  and  O1_5 
REMARK    4  A    between atoms: C4_4  and  C5_6 
REMARK    5  A    between atoms: C5_6  and  C6_7 
REMARK    6  A    between atoms: C6_7  and  C8_9 
REMARK    7  A    between atoms: C10_11  and  O2_12 
REMARK    8  A    between atoms: C29_33  and  O5_34 
REMARK    9  A    between atoms: C30_35  and  O7_37 
ROOT
HETATM    1  C8  UNL     1      -6.608  47.903 -19.755  1.00  0.00     0.001 C 
HETATM    2  C9  UNL     1      -7.342  47.177 -20.918  1.00  0.00     0.038 C 
HETATM    3  C10 UNL     1      -6.763  47.758 -22.224  1.00  0.00     0.132 C 
HETATM    4  C11 UNL     1      -5.374  48.321 -21.813  1.00  0.00     0.017 C 
HETATM    5  C12 UNL     1      -4.385  47.118 -21.648  1.00  0.00     0.023 C 
HETATM    6  C13 UNL     1      -4.611  49.302 -22.716  1.00  0.00    -0.029 C 
HETATM    7  C14 UNL     1      -3.735  50.204 -22.185  1.00  0.00     0.002 C 
HETATM    8  C15 UNL     1      -3.649  50.337 -20.667  1.00  0.00     0.157 C 
HETATM    9  O3  UNL     1      -2.883  51.138 -20.136  1.00  0.00    -0.293 OA
HETATM   10  C16 UNL     1      -4.514  49.470 -19.764  1.00  0.00     0.094 C 
HETATM   11  C17 UNL     1      -5.790  49.029 -20.470  1.00  0.00    -0.019 C 
HETATM   12  C18 UNL     1      -6.668  50.298 -20.691  1.00  0.00     0.017 C 
HETATM   13  C19 UNL     1      -2.835  51.133 -23.062  1.00  0.00    -0.008 C 
HETATM   14  C20 UNL     1      -3.549  52.504 -23.056  1.00  0.00     0.021 C 
HETATM   15  C21 UNL     1      -1.385  51.298 -22.521  1.00  0.00     0.022 C 
HETATM   16  C22 UNL     1      -0.462  52.092 -23.435  1.00  0.00     0.080 C 
HETATM   17  C23 UNL     1      -0.388  51.492 -24.813  1.00  0.00     0.135 C 
HETATM   18  O4  UNL     1       0.704  51.362 -25.369  1.00  0.00    -0.297 OA
HETATM   19  C24 UNL     1      -1.713  51.169 -25.517  1.00  0.00     0.018 C 
HETATM   20  C25 UNL     1      -2.247  52.453 -26.164  1.00  0.00     0.023 C 
HETATM   21  C26 UNL     1      -1.392  50.178 -26.669  1.00  0.00     0.023 C 
HETATM   22  C27 UNL     1      -2.678  50.479 -24.492  1.00  0.00     0.016 C 
HETATM   23  C28 UNL     1      -4.060  50.162 -25.068  1.00  0.00     0.043 C 
HETATM   24  C29 UNL     1      -4.763  49.111 -24.212  1.00  0.00     0.149 C 
ENDROOT
BRANCH   1  25
HETATM   25  C6  UNL     1      -7.512  48.168 -18.510  1.00  0.00    -0.011 C 
HETATM   26  C7  UNL     1      -7.266  47.259 -17.301  1.00  0.00     0.010 C 
BRANCH  25  27
HETATM   27  C5  UNL     1      -9.008  48.208 -18.907  1.00  0.00     0.040 C 
BRANCH  27  28
HETATM   28  C4  UNL     1      -9.778  46.882 -18.761  1.00  0.00     0.142 C 
BRANCH  28  29
HETATM   29  C3  UNL     1     -11.027  46.951 -17.934  1.00  0.00     0.018 C 
HETATM   30  C2  UNL     1     -12.244  47.425 -18.273  1.00  0.00     0.010 C 
HETATM   31  C1  UNL     1     -12.644  47.959 -19.615  1.00  0.00     0.055 C 
BRANCH  30  32
HETATM   32  C30 UNL     1     -13.279  47.385 -17.211  1.00  0.00     0.171 C 
HETATM   33  O6  UNL     1     -14.347  47.970 -17.212  1.00  0.00    -0.646 OA
BRANCH  32  34
HETATM   34  O7  UNL     1     -12.926  46.602 -16.178  1.00  0.00    -0.773 OA
HETATM   35  H44 UNL     1     -13.693  46.660 -15.572  1.00  0.00     0.167 HD
ENDBRANCH  32  34
ENDBRANCH  30  32
ENDBRANCH  28  29
BRANCH  28  36
HETATM   36  O1  UNL     1      -8.915  45.903 -18.188  1.00  0.00    -0.392 OA
HETATM   37  H6  UNL     1      -8.189  45.749 -18.815  1.00  0.00     0.210 HD
ENDBRANCH  28  36
ENDBRANCH  27  28
ENDBRANCH  25  27
ENDBRANCH   1  25
BRANCH   3  38
HETATM   38  O2  UNL     1      -6.693  46.775 -23.249  1.00  0.00    -0.394 OA
HETATM   39  H17 UNL     1      -7.544  46.301 -23.255  1.00  0.00     0.210 HD
ENDBRANCH   3  38
BRANCH  24  40
HETATM   40  O5  UNL     1      -6.131  49.151 -24.591  1.00  0.00    -0.391 OA
HETATM   41  H43 UNL     1      -6.429  48.220 -24.586  1.00  0.00     0.210 HD
ENDBRANCH  24  40
TORSDOF 9
ENDMDL
