MODEL 1
REMARK minimizedAffinity -8.9111681
REMARK CNNscore 0.600857794
REMARK CNNaffinity 6.82444048
REMARK  8 active torsions:
REMARK  status: ('A' for Active; 'I' for Inactive)
REMARK    1  A    between atoms: C2_2  and  C3_3 
REMARK    2  A    between atoms: C2_2  and  C9_12 
REMARK    3  A    between atoms: C3_3  and  C4_4 
REMARK    4  A    between atoms: C4_4  and  C5_5 
REMARK    5  A    between atoms: C6_6  and  C7_7 
REMARK    6  A    between atoms: C6_6  and  C8_9 
REMARK    7  A    between atoms: C7_7  and  O1_8 
REMARK    8  A    between atoms: C8_9  and  O3_11 
ROOT
HETATM    1  C9  UNL     1      -1.799  10.665  18.349  1.00  0.00    -0.002 C 
HETATM    2  C10 UNL     1      -3.185  11.347  18.414  1.00  0.00     0.006 C 
HETATM    3  C11 UNL     1      -3.888  11.007  17.088  1.00  0.00     0.006 C 
HETATM    4  C12 UNL     1      -2.937  10.043  16.377  1.00  0.00    -0.001 C 
HETATM    5  C13 UNL     1      -3.095   9.868  14.859  1.00  0.00    -0.000 C 
HETATM    6  C14 UNL     1      -4.516   9.333  14.587  1.00  0.00     0.006 C 
HETATM    7  C15 UNL     1      -4.710   8.540  13.304  1.00  0.00     0.007 C 
HETATM    8  C16 UNL     1      -3.717   7.380  13.114  1.00  0.00     0.010 C 
HETATM    9  C17 UNL     1      -4.036   6.063  13.912  1.00  0.00     0.018 C 
HETATM   10  C18 UNL     1      -5.373   5.460  13.430  1.00  0.00     0.023 C 
HETATM   11  C19 UNL     1      -4.105   6.215  15.438  1.00  0.00     0.023 C 
HETATM   12  C20 UNL     1      -2.915   5.042  13.631  1.00  0.00     0.135 C 
HETATM   13  O4  UNL     1      -3.138   3.877  13.297  1.00  0.00    -0.297 OA
HETATM   14  C21 UNL     1      -1.497   5.513  13.848  1.00  0.00     0.080 C 
HETATM   15  C22 UNL     1      -1.268   6.725  12.973  1.00  0.00     0.018 C 
HETATM   16  C23 UNL     1      -2.262   7.833  13.298  1.00  0.00    -0.026 A 
HETATM   17  C24 UNL     1      -1.843   9.169  12.745  1.00  0.00     0.021 A 
HETATM   18  C25 UNL     1      -1.949   9.010  14.258  1.00  0.00    -0.028 A 
HETATM   19  C26 UNL     1      -0.576   9.096  14.954  1.00  0.00     0.011 C 
HETATM   20  C27 UNL     1      -0.589   9.369  16.459  1.00  0.00     0.011 C 
HETATM   21  C28 UNL     1      -1.540  10.512  16.821  1.00  0.00    -0.036 C 
HETATM   22  C29 UNL     1      -1.089  11.826  16.154  1.00  0.00     0.016 C 
ENDROOT
BRANCH   1  23
HETATM   23  C2  UNL     1      -0.679  11.276  19.236  1.00  0.00    -0.014 C 
HETATM   24  C1  UNL     1      -0.848  12.807  19.264  1.00  0.00     0.010 C 
BRANCH  23  25
HETATM   25  C3  UNL     1       0.767  10.929  18.815  1.00  0.00     0.008 C 
BRANCH  25  26
HETATM   26  C4  UNL     1       1.800  11.201  19.917  1.00  0.00     0.028 C 
BRANCH  26  27
HETATM   27  C5  UNL     1       1.809  10.089  20.935  1.00  0.00    -0.011 C 
HETATM   28  C6  UNL     1       2.810   9.751  21.775  1.00  0.00     0.035 C 
BRANCH  28  29
HETATM   29  C7  UNL     1       2.689   8.640  22.773  1.00  0.00     0.209 C 
BRANCH  29  30
HETATM   30  O1  UNL     1       1.645   7.752  22.386  1.00  0.00    -0.396 OA
HETATM   31  H12 UNL     1       0.865   8.295  22.177  1.00  0.00     0.209 HD
ENDBRANCH  29  30
ENDBRANCH  28  29
BRANCH  28  32
HETATM   32  C8  UNL     1       4.101  10.468  21.739  1.00  0.00     0.173 C 
HETATM   33  O2  UNL     1       4.586  11.136  22.634  1.00  0.00    -0.646 OA
BRANCH  32  34
HETATM   34  O3  UNL     1       4.738  10.288  20.571  1.00  0.00    -0.773 OA
HETATM   35  H13 UNL     1       5.558  10.815  20.672  1.00  0.00     0.167 HD
ENDBRANCH  32  34
ENDBRANCH  28  32
ENDBRANCH  26  27
ENDBRANCH  25  26
ENDBRANCH  23  25
ENDBRANCH   1  23
TORSDOF 8
ENDMDL
MODEL 2
REMARK minimizedAffinity -7.55708885
REMARK CNNscore 0.553327441
REMARK CNNaffinity 6.96210337
REMARK  8 active torsions:
REMARK  status: ('A' for Active; 'I' for Inactive)
REMARK    1  A    between atoms: C2_2  and  C3_3 
REMARK    2  A    between atoms: C2_2  and  C9_12 
REMARK    3  A    between atoms: C3_3  and  C4_4 
REMARK    4  A    between atoms: C4_4  and  C5_5 
REMARK    5  A    between atoms: C6_6  and  C7_7 
REMARK    6  A    between atoms: C6_6  and  C8_9 
REMARK    7  A    between atoms: C7_7  and  O1_8 
REMARK    8  A    between atoms: C8_9  and  O3_11 
ROOT
HETATM    1  C9  UNL     1     -13.079 -10.871  26.503  1.00  0.00    -0.002 C 
HETATM    2  C10 UNL     1     -14.231 -10.480  25.548  1.00  0.00     0.006 C 
HETATM    3  C11 UNL     1     -15.157  -9.554  26.357  1.00  0.00     0.006 C 
HETATM    4  C12 UNL     1     -14.435  -9.347  27.690  1.00  0.00    -0.001 C 
HETATM    5  C13 UNL     1     -15.267  -8.868  28.890  1.00  0.00    -0.000 C 
HETATM    6  C14 UNL     1     -15.881  -7.499  28.527  1.00  0.00     0.006 C 
HETATM    7  C15 UNL     1     -16.220  -6.577  29.688  1.00  0.00     0.007 C 
HETATM    8  C16 UNL     1     -15.063  -6.338  30.673  1.00  0.00     0.010 C 
HETATM    9  C17 UNL     1     -13.984  -5.286  30.225  1.00  0.00     0.018 C 
HETATM   10  C18 UNL     1     -14.627  -3.887  30.095  1.00  0.00     0.023 C 
HETATM   11  C19 UNL     1     -13.260  -5.601  28.909  1.00  0.00     0.023 C 
HETATM   12  C20 UNL     1     -12.893  -5.217  31.313  1.00  0.00     0.135 C 
HETATM   13  O4  UNL     1     -12.489  -4.156  31.791  1.00  0.00    -0.297 OA
HETATM   14  C21 UNL     1     -12.273  -6.528  31.736  1.00  0.00     0.080 C 
HETATM   15  C22 UNL     1     -13.381  -7.431  32.229  1.00  0.00     0.018 C 
HETATM   16  C23 UNL     1     -14.431  -7.654  31.148  1.00  0.00    -0.026 A 
HETATM   17  C24 UNL     1     -15.328  -8.825  31.442  1.00  0.00     0.021 A 
HETATM   18  C25 UNL     1     -14.441  -8.884  30.204  1.00  0.00    -0.028 A 
HETATM   19  C26 UNL     1     -13.341  -9.958  30.321  1.00  0.00     0.011 C 
HETATM   20  C27 UNL     1     -12.671 -10.396  29.018  1.00  0.00     0.011 C 
HETATM   21  C28 UNL     1     -13.699 -10.678  27.919  1.00  0.00    -0.036 C 
HETATM   22  C29 UNL     1     -14.628 -11.836  28.329  1.00  0.00     0.016 C 
ENDROOT
BRANCH   1  23
HETATM   23  C2  UNL     1     -12.335 -12.199  26.190  1.00  0.00    -0.014 C 
HETATM   24  C1  UNL     1     -11.264 -12.435  27.272  1.00  0.00     0.010 C 
BRANCH  23  25
HETATM   25  C3  UNL     1     -11.679 -12.281  24.794  1.00  0.00     0.008 C 
BRANCH  25  26
HETATM   26  C4  UNL     1     -10.345 -13.039  24.796  1.00  0.00     0.028 C 
BRANCH  26  27
HETATM   27  C5  UNL     1      -9.193 -12.109  24.512  1.00  0.00    -0.011 C 
HETATM   28  C6  UNL     1      -8.053 -12.390  23.846  1.00  0.00     0.035 C 
BRANCH  28  29
HETATM   29  C7  UNL     1      -6.988 -11.366  23.596  1.00  0.00     0.209 C 
BRANCH  29  30
HETATM   30  O1  UNL     1      -6.987 -10.992  22.222  1.00  0.00    -0.396 OA
HETATM   31  H12 UNL     1      -6.996 -11.811  21.698  1.00  0.00     0.209 HD
ENDBRANCH  29  30
ENDBRANCH  28  29
BRANCH  28  32
HETATM   32  C8  UNL     1      -7.793 -13.751  23.335  1.00  0.00     0.173 C 
HETATM   33  O2  UNL     1      -8.222 -14.234  22.302  1.00  0.00    -0.646 OA
BRANCH  32  34
HETATM   34  O3  UNL     1      -6.975 -14.440  24.148  1.00  0.00    -0.773 OA
HETATM   35  H13 UNL     1      -6.895 -15.312  23.708  1.00  0.00     0.167 HD
ENDBRANCH  32  34
ENDBRANCH  28  32
ENDBRANCH  26  27
ENDBRANCH  25  26
ENDBRANCH  23  25
ENDBRANCH   1  23
TORSDOF 8
ENDMDL
MODEL 3
REMARK minimizedAffinity -6.24000597
REMARK CNNscore 0.502327085
REMARK CNNaffinity 6.33268881
REMARK  8 active torsions:
REMARK  status: ('A' for Active; 'I' for Inactive)
REMARK    1  A    between atoms: C2_2  and  C3_3 
REMARK    2  A    between atoms: C2_2  and  C9_12 
REMARK    3  A    between atoms: C3_3  and  C4_4 
REMARK    4  A    between atoms: C4_4  and  C5_5 
REMARK    5  A    between atoms: C6_6  and  C7_7 
REMARK    6  A    between atoms: C6_6  and  C8_9 
REMARK    7  A    between atoms: C7_7  and  O1_8 
REMARK    8  A    between atoms: C8_9  and  O3_11 
ROOT
HETATM    1  C9  UNL     1     -13.857  15.086   0.176  1.00  0.00    -0.002 C 
HETATM    2  C10 UNL     1     -14.892  14.552   1.192  1.00  0.00     0.006 C 
HETATM    3  C11 UNL     1     -14.105  14.250   2.481  1.00  0.00     0.006 C 
HETATM    4  C12 UNL     1     -12.685  14.743   2.196  1.00  0.00    -0.001 C 
HETATM    5  C13 UNL     1     -11.546  14.192   3.067  1.00  0.00    -0.000 C 
HETATM    6  C14 UNL     1     -11.839  14.575   4.532  1.00  0.00     0.006 C 
HETATM    7  C15 UNL     1     -10.638  14.682   5.460  1.00  0.00     0.007 C 
HETATM    8  C16 UNL     1      -9.509  15.590   4.942  1.00  0.00     0.010 C 
HETATM    9  C17 UNL     1      -9.726  17.135   5.136  1.00  0.00     0.018 C 
HETATM   10  C18 UNL     1      -9.789  17.479   6.640  1.00  0.00     0.023 C 
HETATM   11  C19 UNL     1     -10.977  17.717   4.462  1.00  0.00     0.023 C 
HETATM   12  C20 UNL     1      -8.521  17.876   4.520  1.00  0.00     0.135 C 
HETATM   13  O4  UNL     1      -7.898  18.754   5.118  1.00  0.00    -0.297 OA
HETATM   14  C21 UNL     1      -8.163  17.522   3.097  1.00  0.00     0.080 C 
HETATM   15  C22 UNL     1      -7.890  16.036   3.038  1.00  0.00     0.018 C 
HETATM   16  C23 UNL     1      -9.099  15.236   3.506  1.00  0.00    -0.026 A 
HETATM   17  C24 UNL     1      -9.025  13.786   3.109  1.00  0.00     0.021 A 
HETATM   18  C25 UNL     1     -10.155  14.638   2.541  1.00  0.00    -0.028 A 
HETATM   19  C26 UNL     1     -10.021  14.850   1.020  1.00  0.00     0.011 C 
HETATM   20  C27 UNL     1     -11.278  15.314   0.281  1.00  0.00     0.011 C 
HETATM   21  C28 UNL     1     -12.508  14.499   0.688  1.00  0.00    -0.036 C 
HETATM   22  C29 UNL     1     -12.322  13.014   0.320  1.00  0.00     0.016 C 
ENDROOT
BRANCH   1  23
HETATM   23  C2  UNL     1     -14.214  14.930  -1.328  1.00  0.00    -0.014 C 
HETATM   24  C1  UNL     1     -15.741  14.779  -1.464  1.00  0.00     0.010 C 
BRANCH  23  25
HETATM   25  C3  UNL     1     -13.517  13.760  -2.059  1.00  0.00     0.008 C 
BRANCH  25  26
HETATM   26  C4  UNL     1     -14.499  12.704  -2.584  1.00  0.00     0.028 C 
BRANCH  26  27
HETATM   27  C5  UNL     1     -13.957  11.313  -2.380  1.00  0.00    -0.011 C 
HETATM   28  C6  UNL     1     -14.357  10.398  -1.471  1.00  0.00     0.035 C 
BRANCH  28  29
HETATM   29  C7  UNL     1     -13.760   9.027  -1.385  1.00  0.00     0.209 C 
BRANCH  29  30
HETATM   30  O1  UNL     1     -13.056   8.729  -2.587  1.00  0.00    -0.396 OA
HETATM   31  H12 UNL     1     -13.643   8.950  -3.330  1.00  0.00     0.209 HD
ENDBRANCH  29  30
ENDBRANCH  28  29
BRANCH  28  32
HETATM   32  C8  UNL     1     -15.413  10.721  -0.491  1.00  0.00     0.173 C 
HETATM   33  O2  UNL     1     -15.251  11.130   0.645  1.00  0.00    -0.646 OA
BRANCH  32  34
HETATM   34  O3  UNL     1     -16.641  10.533  -1.002  1.00  0.00    -0.773 OA
HETATM   35  H13 UNL     1     -17.237  10.768  -0.261  1.00  0.00     0.167 HD
ENDBRANCH  32  34
ENDBRANCH  28  32
ENDBRANCH  26  27
ENDBRANCH  25  26
ENDBRANCH  23  25
ENDBRANCH   1  23
TORSDOF 8
ENDMDL
MODEL 4
REMARK minimizedAffinity -7.13469791
REMARK CNNscore 0.495644808
REMARK CNNaffinity 6.23624182
REMARK  8 active torsions:
REMARK  status: ('A' for Active; 'I' for Inactive)
REMARK    1  A    between atoms: C2_2  and  C3_3 
REMARK    2  A    between atoms: C2_2  and  C9_12 
REMARK    3  A    between atoms: C3_3  and  C4_4 
REMARK    4  A    between atoms: C4_4  and  C5_5 
REMARK    5  A    between atoms: C6_6  and  C7_7 
REMARK    6  A    between atoms: C6_6  and  C8_9 
REMARK    7  A    between atoms: C7_7  and  O1_8 
REMARK    8  A    between atoms: C8_9  and  O3_11 
ROOT
HETATM    1  C9  UNL     1     -12.597   2.334  26.443  1.00  0.00    -0.002 C 
HETATM    2  C10 UNL     1     -11.767   1.633  25.343  1.00  0.00     0.006 C 
HETATM    3  C11 UNL     1     -12.263   2.212  24.005  1.00  0.00     0.006 C 
HETATM    4  C12 UNL     1     -13.256   3.307  24.396  1.00  0.00    -0.001 C 
HETATM    5  C13 UNL     1     -14.270   3.768  23.338  1.00  0.00    -0.000 C 
HETATM    6  C14 UNL     1     -13.482   4.325  22.134  1.00  0.00     0.006 C 
HETATM    7  C15 UNL     1     -14.199   5.348  21.267  1.00  0.00     0.007 C 
HETATM    8  C16 UNL     1     -14.797   6.536  22.041  1.00  0.00     0.010 C 
HETATM    9  C17 UNL     1     -13.787   7.670  22.446  1.00  0.00     0.018 C 
HETATM   10  C18 UNL     1     -13.200   8.337  21.183  1.00  0.00     0.023 C 
HETATM   11  C19 UNL     1     -12.618   7.228  23.338  1.00  0.00     0.023 C 
HETATM   12  C20 UNL     1     -14.557   8.742  23.245  1.00  0.00     0.135 C 
HETATM   13  O4  UNL     1     -14.484   9.946  22.994  1.00  0.00    -0.297 OA
HETATM   14  C21 UNL     1     -15.374   8.257  24.418  1.00  0.00     0.080 C 
HETATM   15  C22 UNL     1     -16.368   7.239  23.907  1.00  0.00     0.018 C 
HETATM   16  C23 UNL     1     -15.660   6.075  23.223  1.00  0.00    -0.026 A 
HETATM   17  C24 UNL     1     -16.552   4.876  23.047  1.00  0.00     0.021 A 
HETATM   18  C25 UNL     1     -15.321   4.741  23.936  1.00  0.00    -0.028 A 
HETATM   19  C26 UNL     1     -15.689   4.542  25.420  1.00  0.00     0.011 C 
HETATM   20  C27 UNL     1     -14.591   3.985  26.328  1.00  0.00     0.011 C 
HETATM   21  C28 UNL     1     -13.888   2.781  25.696  1.00  0.00    -0.036 C 
HETATM   22  C29 UNL     1     -14.884   1.626  25.476  1.00  0.00     0.016 C 
ENDROOT
BRANCH   1  23
HETATM   23  C2  UNL     1     -12.742   1.579  27.794  1.00  0.00    -0.014 C 
HETATM   24  C1  UNL     1     -14.237   1.319  28.059  1.00  0.00     0.010 C 
BRANCH  23  25
HETATM   25  C3  UNL     1     -12.120   2.285  29.020  1.00  0.00     0.008 C 
BRANCH  25  26
HETATM   26  C4  UNL     1     -12.329   3.805  29.014  1.00  0.00     0.028 C 
BRANCH  26  27
HETATM   27  C5  UNL     1     -12.708   4.304  30.385  1.00  0.00    -0.011 C 
HETATM   28  C6  UNL     1     -13.924   4.713  30.805  1.00  0.00     0.035 C 
BRANCH  28  29
HETATM   29  C7  UNL     1     -14.187   5.160  32.211  1.00  0.00     0.209 C 
BRANCH  29  30
HETATM   30  O1  UNL     1     -13.373   6.286  32.522  1.00  0.00    -0.396 OA
HETATM   31  H12 UNL     1     -12.464   6.071  32.250  1.00  0.00     0.209 HD
ENDBRANCH  29  30
ENDBRANCH  28  29
BRANCH  28  32
HETATM   32  C8  UNL     1     -15.070   4.752  29.874  1.00  0.00     0.173 C 
HETATM   33  O2  UNL     1     -15.880   3.862  29.681  1.00  0.00    -0.646 OA
BRANCH  32  34
HETATM   34  O3  UNL     1     -15.158   5.932  29.241  1.00  0.00    -0.773 OA
HETATM   35  H13 UNL     1     -15.937   5.824  28.657  1.00  0.00     0.167 HD
ENDBRANCH  32  34
ENDBRANCH  28  32
ENDBRANCH  26  27
ENDBRANCH  25  26
ENDBRANCH  23  25
ENDBRANCH   1  23
TORSDOF 8
ENDMDL
MODEL 5
REMARK minimizedAffinity -7.15341902
REMARK CNNscore 0.455350071
REMARK CNNaffinity 6.0953145
REMARK  8 active torsions:
REMARK  status: ('A' for Active; 'I' for Inactive)
REMARK    1  A    between atoms: C2_2  and  C3_3 
REMARK    2  A    between atoms: C2_2  and  C9_12 
REMARK    3  A    between atoms: C3_3  and  C4_4 
REMARK    4  A    between atoms: C4_4  and  C5_5 
REMARK    5  A    between atoms: C6_6  and  C7_7 
REMARK    6  A    between atoms: C6_6  and  C8_9 
REMARK    7  A    between atoms: C7_7  and  O1_8 
REMARK    8  A    between atoms: C8_9  and  O3_11 
ROOT
HETATM    1  C9  UNL     1       2.633  11.313  20.806  1.00  0.00    -0.002 C 
HETATM    2  C10 UNL     1       2.057  12.641  21.351  1.00  0.00     0.006 C 
HETATM    3  C11 UNL     1       1.092  13.160  20.269  1.00  0.00     0.006 C 
HETATM    4  C12 UNL     1       1.055  12.053  19.214  1.00  0.00    -0.001 C 
HETATM    5  C13 UNL     1       0.571  12.422  17.804  1.00  0.00    -0.000 C 
HETATM    6  C14 UNL     1      -0.878  12.942  17.919  1.00  0.00     0.006 C 
HETATM    7  C15 UNL     1      -1.751  12.802  16.682  1.00  0.00     0.007 C 
HETATM    8  C16 UNL     1      -1.797  11.382  16.090  1.00  0.00     0.010 C 
HETATM    9  C17 UNL     1      -2.754  10.366  16.812  1.00  0.00     0.018 C 
HETATM   10  C18 UNL     1      -4.219  10.840  16.696  1.00  0.00     0.023 C 
HETATM   11  C19 UNL     1      -2.451  10.114  18.296  1.00  0.00     0.023 C 
HETATM   12  C20 UNL     1      -2.631   8.999  16.109  1.00  0.00     0.135 C 
HETATM   13  O4  UNL     1      -3.607   8.342  15.744  1.00  0.00    -0.297 OA
HETATM   14  C21 UNL     1      -1.235   8.448  15.936  1.00  0.00     0.080 C 
HETATM   15  C22 UNL     1      -0.426   9.459  15.157  1.00  0.00     0.018 C 
HETATM   16  C23 UNL     1      -0.391  10.804  15.872  1.00  0.00    -0.026 A 
HETATM   17  C24 UNL     1       0.693  11.710  15.354  1.00  0.00     0.021 A 
HETATM   18  C25 UNL     1       0.764  11.248  16.806  1.00  0.00    -0.028 A 
HETATM   19  C26 UNL     1       1.956  10.305  17.064  1.00  0.00     0.011 C 
HETATM   20  C27 UNL     1       2.375  10.116  18.522  1.00  0.00     0.011 C 
HETATM   21  C28 UNL     1       2.470  11.452  19.263  1.00  0.00    -0.036 C 
HETATM   22  C29 UNL     1       3.546  12.351  18.625  1.00  0.00     0.016 C 
ENDROOT
BRANCH   1  23
HETATM   23  C2  UNL     1       4.010  10.867  21.372  1.00  0.00    -0.014 C 
HETATM   24  C1  UNL     1       3.795  10.236  22.761  1.00  0.00     0.010 C 
BRANCH  23  25
HETATM   25  C3  UNL     1       5.078  11.979  21.475  1.00  0.00     0.008 C 
BRANCH  25  26
HETATM   26  C4  UNL     1       6.028  11.797  22.666  1.00  0.00     0.028 C 
BRANCH  26  27
HETATM   27  C5  UNL     1       6.541  13.127  23.157  1.00  0.00    -0.011 C 
HETATM   28  C6  UNL     1       7.825  13.536  23.235  1.00  0.00     0.035 C 
BRANCH  28  29
HETATM   29  C7  UNL     1       8.212  14.902  23.712  1.00  0.00     0.209 C 
BRANCH  29  30
HETATM   30  O1  UNL     1       9.172  14.796  24.759  1.00  0.00    -0.396 OA
HETATM   31  H12 UNL     1       8.835  14.144  25.397  1.00  0.00     0.209 HD
ENDBRANCH  29  30
ENDBRANCH  28  29
BRANCH  28  32
HETATM   32  C8  UNL     1       8.930  12.631  22.856  1.00  0.00     0.173 C 
HETATM   33  O2  UNL     1       9.879  12.902  22.143  1.00  0.00    -0.646 OA
BRANCH  32  34
HETATM   34  O3  UNL     1       8.797  11.420  23.421  1.00  0.00    -0.773 OA
HETATM   35  H13 UNL     1       9.573  10.924  23.086  1.00  0.00     0.167 HD
ENDBRANCH  32  34
ENDBRANCH  28  32
ENDBRANCH  26  27
ENDBRANCH  25  26
ENDBRANCH  23  25
ENDBRANCH   1  23
TORSDOF 8
ENDMDL
MODEL 6
REMARK minimizedAffinity -8.25291348
REMARK CNNscore 0.422763199
REMARK CNNaffinity 7.17536402
REMARK  8 active torsions:
REMARK  status: ('A' for Active; 'I' for Inactive)
REMARK    1  A    between atoms: C2_2  and  C3_3 
REMARK    2  A    between atoms: C2_2  and  C9_12 
REMARK    3  A    between atoms: C3_3  and  C4_4 
REMARK    4  A    between atoms: C4_4  and  C5_5 
REMARK    5  A    between atoms: C6_6  and  C7_7 
REMARK    6  A    between atoms: C6_6  and  C8_9 
REMARK    7  A    between atoms: C7_7  and  O1_8 
REMARK    8  A    between atoms: C8_9  and  O3_11 
ROOT
HETATM    1  C9  UNL     1      -6.751   7.049  13.784  1.00  0.00    -0.002 C 
HETATM    2  C10 UNL     1      -7.248   5.650  13.353  1.00  0.00     0.006 C 
HETATM    3  C11 UNL     1      -8.747   5.605  13.703  1.00  0.00     0.006 C 
HETATM    4  C12 UNL     1      -9.075   7.015  14.197  1.00  0.00    -0.001 C 
HETATM    5  C13 UNL     1     -10.339   7.200  15.051  1.00  0.00    -0.000 C 
HETATM    6  C14 UNL     1     -11.552   6.757  14.208  1.00  0.00     0.006 C 
HETATM    7  C15 UNL     1     -12.893   7.378  14.567  1.00  0.00     0.007 C 
HETATM    8  C16 UNL     1     -12.889   8.915  14.631  1.00  0.00     0.010 C 
HETATM    9  C17 UNL     1     -12.977   9.662  13.250  1.00  0.00     0.018 C 
HETATM   10  C18 UNL     1     -14.321   9.345  12.558  1.00  0.00     0.023 C 
HETATM   11  C19 UNL     1     -11.846   9.352  12.258  1.00  0.00     0.023 C 
HETATM   12  C20 UNL     1     -12.915  11.180  13.514  1.00  0.00     0.135 C 
HETATM   13  O4  UNL     1     -13.717  11.978  13.027  1.00  0.00    -0.297 OA
HETATM   14  C21 UNL     1     -11.767  11.675  14.361  1.00  0.00     0.080 C 
HETATM   15  C22 UNL     1     -11.826  10.962  15.692  1.00  0.00     0.018 C 
HETATM   16  C23 UNL     1     -11.751   9.451  15.511  1.00  0.00    -0.026 A 
HETATM   17  C24 UNL     1     -11.420   8.728  16.788  1.00  0.00     0.021 A 
HETATM   18  C25 UNL     1     -10.436   8.639  15.627  1.00  0.00    -0.028 A 
HETATM   19  C26 UNL     1      -9.106   9.359  15.929  1.00  0.00     0.011 C 
HETATM   20  C27 UNL     1      -7.914   8.993  15.044  1.00  0.00     0.011 C 
HETATM   21  C28 UNL     1      -7.775   7.477  14.877  1.00  0.00    -0.036 C 
HETATM   22  C29 UNL     1      -7.516   6.803  16.239  1.00  0.00     0.016 C 
ENDROOT
BRANCH   1  23
HETATM   23  C2  UNL     1      -5.234   7.185  14.091  1.00  0.00    -0.014 C 
HETATM   24  C1  UNL     1      -4.839   8.671  13.996  1.00  0.00     0.010 C 
BRANCH  23  25
HETATM   25  C3  UNL     1      -4.296   6.348  13.192  1.00  0.00     0.008 C 
BRANCH  25  26
HETATM   26  C4  UNL     1      -4.755   4.892  13.029  1.00  0.00     0.028 C 
BRANCH  26  27
HETATM   27  C5  UNL     1      -3.611   4.011  12.595  1.00  0.00    -0.011 C 
HETATM   28  C6  UNL     1      -3.657   2.964  11.744  1.00  0.00     0.035 C 
BRANCH  28  29
HETATM   29  C7  UNL     1      -2.440   2.179  11.361  1.00  0.00     0.209 C 
BRANCH  29  30
HETATM   30  O1  UNL     1      -2.762   0.794  11.276  1.00  0.00    -0.396 OA
HETATM   31  H12 UNL     1      -3.248   0.559  12.085  1.00  0.00     0.209 HD
ENDBRANCH  29  30
ENDBRANCH  28  29
BRANCH  28  32
HETATM   32  C8  UNL     1      -4.937   2.527  11.151  1.00  0.00     0.173 C 
HETATM   33  O2  UNL     1      -5.731   1.740  11.634  1.00  0.00    -0.646 OA
BRANCH  32  34
HETATM   34  O3  UNL     1      -5.171   3.129   9.973  1.00  0.00    -0.773 OA
HETATM   35  H13 UNL     1      -6.029   2.751   9.688  1.00  0.00     0.167 HD
ENDBRANCH  32  34
ENDBRANCH  28  32
ENDBRANCH  26  27
ENDBRANCH  25  26
ENDBRANCH  23  25
ENDBRANCH   1  23
TORSDOF 8
ENDMDL
MODEL 7
REMARK minimizedAffinity -7.39142847
REMARK CNNscore 0.413859069
REMARK CNNaffinity 6.13001823
REMARK  8 active torsions:
REMARK  status: ('A' for Active; 'I' for Inactive)
REMARK    1  A    between atoms: C2_2  and  C3_3 
REMARK    2  A    between atoms: C2_2  and  C9_12 
REMARK    3  A    between atoms: C3_3  and  C4_4 
REMARK    4  A    between atoms: C4_4  and  C5_5 
REMARK    5  A    between atoms: C6_6  and  C7_7 
REMARK    6  A    between atoms: C6_6  and  C8_9 
REMARK    7  A    between atoms: C7_7  and  O1_8 
REMARK    8  A    between atoms: C8_9  and  O3_11 
ROOT
HETATM    1  C9  UNL     1       9.327  11.648  20.085  1.00  0.00    -0.002 C 
HETATM    2  C10 UNL     1       9.829  12.333  21.377  1.00  0.00     0.006 C 
HETATM    3  C11 UNL     1       8.570  12.827  22.113  1.00  0.00     0.006 C 
HETATM    4  C12 UNL     1       7.399  12.295  21.283  1.00  0.00    -0.001 C 
HETATM    5  C13 UNL     1       6.031  12.972  21.456  1.00  0.00    -0.000 C 
HETATM    6  C14 UNL     1       5.607  12.817  22.931  1.00  0.00     0.006 C 
HETATM    7  C15 UNL     1       4.113  12.853  23.216  1.00  0.00     0.007 C 
HETATM    8  C16 UNL     1       3.278  11.875  22.371  1.00  0.00     0.010 C 
HETATM    9  C17 UNL     1       3.278  10.378  22.852  1.00  0.00     0.018 C 
HETATM   10  C18 UNL     1       2.633  10.268  24.251  1.00  0.00     0.023 C 
HETATM   11  C19 UNL     1       4.655   9.701  22.907  1.00  0.00     0.023 C 
HETATM   12  C20 UNL     1       2.430   9.551  21.863  1.00  0.00     0.135 C 
HETATM   13  O4  UNL     1       1.546   8.773  22.226  1.00  0.00    -0.297 OA
HETATM   14  C21 UNL     1       2.775   9.682  20.399  1.00  0.00     0.080 C 
HETATM   15  C22 UNL     1       2.661  11.142  20.020  1.00  0.00     0.018 C 
HETATM   16  C23 UNL     1       3.583  12.005  20.873  1.00  0.00    -0.026 A 
HETATM   17  C24 UNL     1       3.795  13.377  20.292  1.00  0.00     0.021 A 
HETATM   18  C25 UNL     1       4.998  12.449  20.422  1.00  0.00    -0.028 A 
HETATM   19  C26 UNL     1       5.548  12.007  19.052  1.00  0.00     0.011 C 
HETATM   20  C27 UNL     1       6.967  11.437  19.036  1.00  0.00     0.011 C 
HETATM   21  C28 UNL     1       7.937  12.305  19.842  1.00  0.00    -0.036 C 
HETATM   22  C29 UNL     1       8.038  13.716  19.230  1.00  0.00     0.016 C 
ENDROOT
BRANCH   1  23
HETATM   23  C2  UNL     1      10.332  11.572  18.902  1.00  0.00    -0.014 C 
HETATM   24  C1  UNL     1       9.788  10.586  17.851  1.00  0.00     0.010 C 
BRANCH  23  25
HETATM   25  C3  UNL     1      11.776  11.173  19.280  1.00  0.00     0.008 C 
BRANCH  25  26
HETATM   26  C4  UNL     1      12.805  11.528  18.199  1.00  0.00     0.028 C 
BRANCH  26  27
HETATM   27  C5  UNL     1      13.206  12.979  18.290  1.00  0.00    -0.011 C 
HETATM   28  C6  UNL     1      14.197  13.514  19.035  1.00  0.00     0.035 C 
BRANCH  28  29
HETATM   29  C7  UNL     1      14.523  14.976  19.017  1.00  0.00     0.209 C 
BRANCH  29  30
HETATM   30  O1  UNL     1      13.396  15.730  19.449  1.00  0.00    -0.396 OA
HETATM   31  H12 UNL     1      12.623  15.406  18.955  1.00  0.00     0.209 HD
ENDBRANCH  29  30
ENDBRANCH  28  29
BRANCH  28  32
HETATM   32  C8  UNL     1      15.011  12.666  19.928  1.00  0.00     0.173 C 
HETATM   33  O2  UNL     1      14.785  12.417  21.099  1.00  0.00    -0.646 OA
BRANCH  32  34
HETATM   34  O3  UNL     1      16.073  12.147  19.291  1.00  0.00    -0.773 OA
HETATM   35  H13 UNL     1      16.526  11.625  19.986  1.00  0.00     0.167 HD
ENDBRANCH  32  34
ENDBRANCH  28  32
ENDBRANCH  26  27
ENDBRANCH  25  26
ENDBRANCH  23  25
ENDBRANCH   1  23
TORSDOF 8
ENDMDL
MODEL 8
REMARK minimizedAffinity -6.93557405
REMARK CNNscore 0.366317958
REMARK CNNaffinity 6.1435051
REMARK  8 active torsions:
REMARK  status: ('A' for Active; 'I' for Inactive)
REMARK    1  A    between atoms: C2_2  and  C3_3 
REMARK    2  A    between atoms: C2_2  and  C9_12 
REMARK    3  A    between atoms: C3_3  and  C4_4 
REMARK    4  A    between atoms: C4_4  and  C5_5 
REMARK    5  A    between atoms: C6_6  and  C7_7 
REMARK    6  A    between atoms: C6_6  and  C8_9 
REMARK    7  A    between atoms: C7_7  and  O1_8 
REMARK    8  A    between atoms: C8_9  and  O3_11 
ROOT
HETATM    1  C9  UNL     1     -15.442   5.916  23.015  1.00  0.00    -0.002 C 
HETATM    2  C10 UNL     1     -16.938   5.555  22.869  1.00  0.00     0.006 C 
HETATM    3  C11 UNL     1     -17.125   4.217  23.608  1.00  0.00     0.006 C 
HETATM    4  C12 UNL     1     -15.768   3.934  24.254  1.00  0.00    -0.001 C 
HETATM    5  C13 UNL     1     -15.459   2.488  24.670  1.00  0.00    -0.000 C 
HETATM    6  C14 UNL     1     -16.517   2.056  25.707  1.00  0.00     0.006 C 
HETATM    7  C15 UNL     1     -16.108   0.960  26.679  1.00  0.00     0.007 C 
HETATM    8  C16 UNL     1     -14.788   1.225  27.422  1.00  0.00     0.010 C 
HETATM    9  C17 UNL     1     -14.873   2.203  28.650  1.00  0.00     0.018 C 
HETATM   10  C18 UNL     1     -15.777   1.602  29.748  1.00  0.00     0.023 C 
HETATM   11  C19 UNL     1     -15.384   3.617  28.334  1.00  0.00     0.023 C 
HETATM   12  C20 UNL     1     -13.456   2.377  29.232  1.00  0.00     0.135 C 
HETATM   13  O4  UNL     1     -13.205   2.261  30.433  1.00  0.00    -0.297 OA
HETATM   14  C21 UNL     1     -12.367   2.770  28.262  1.00  0.00     0.080 C 
HETATM   15  C22 UNL     1     -12.310   1.722  27.174  1.00  0.00     0.018 C 
HETATM   16  C23 UNL     1     -13.651   1.596  26.460  1.00  0.00    -0.026 A 
HETATM   17  C24 UNL     1     -13.544   0.868  25.148  1.00  0.00     0.021 A 
HETATM   18  C25 UNL     1     -13.987   2.327  25.135  1.00  0.00    -0.028 A 
HETATM   19  C26 UNL     1     -12.944   3.250  24.475  1.00  0.00     0.011 C 
HETATM   20  C27 UNL     1     -13.435   4.629  24.030  1.00  0.00     0.011 C 
HETATM   21  C28 UNL     1     -14.757   4.540  23.264  1.00  0.00    -0.036 C 
HETATM   22  C29 UNL     1     -14.584   3.714  21.975  1.00  0.00     0.016 C 
ENDROOT
BRANCH   1  23
HETATM   23  C2  UNL     1     -14.844   6.860  21.933  1.00  0.00    -0.014 C 
HETATM   24  C1  UNL     1     -15.341   6.405  20.548  1.00  0.00     0.010 C 
BRANCH  23  25
HETATM   25  C3  UNL     1     -13.302   6.959  21.916  1.00  0.00     0.008 C 
BRANCH  25  26
HETATM   26  C4  UNL     1     -12.728   7.664  23.152  1.00  0.00     0.028 C 
BRANCH  26  27
HETATM   27  C5  UNL     1     -12.182   9.024  22.794  1.00  0.00    -0.011 C 
HETATM   28  C6  UNL     1     -11.780   9.998  23.638  1.00  0.00     0.035 C 
BRANCH  28  29
HETATM   29  C7  UNL     1     -11.222  11.303  23.160  1.00  0.00     0.209 C 
BRANCH  29  30
HETATM   30  O1  UNL     1      -9.851  11.408  23.529  1.00  0.00    -0.396 OA
HETATM   31  H12 UNL     1      -9.785  11.175  24.471  1.00  0.00     0.209 HD
ENDBRANCH  29  30
ENDBRANCH  28  29
BRANCH  28  32
HETATM   32  C8  UNL     1     -11.887   9.821  25.100  1.00  0.00     0.173 C 
HETATM   33  O2  UNL     1     -12.878  10.006  25.784  1.00  0.00    -0.646 OA
BRANCH  32  34
HETATM   34  O3  UNL     1     -10.733   9.391  25.635  1.00  0.00    -0.773 OA
HETATM   35  H13 UNL     1     -10.933   9.327  26.592  1.00  0.00     0.167 HD
ENDBRANCH  32  34
ENDBRANCH  28  32
ENDBRANCH  26  27
ENDBRANCH  25  26
ENDBRANCH  23  25
ENDBRANCH   1  23
TORSDOF 8
ENDMDL
MODEL 9
REMARK minimizedAffinity -7.94841909
REMARK CNNscore 0.35056904
REMARK CNNaffinity 6.93961287
REMARK  8 active torsions:
REMARK  status: ('A' for Active; 'I' for Inactive)
REMARK    1  A    between atoms: C2_2  and  C3_3 
REMARK    2  A    between atoms: C2_2  and  C9_12 
REMARK    3  A    between atoms: C3_3  and  C4_4 
REMARK    4  A    between atoms: C4_4  and  C5_5 
REMARK    5  A    between atoms: C6_6  and  C7_7 
REMARK    6  A    between atoms: C6_6  and  C8_9 
REMARK    7  A    between atoms: C7_7  and  O1_8 
REMARK    8  A    between atoms: C8_9  and  O3_11 
ROOT
HETATM    1  C9  UNL     1      -6.598   6.509  13.566  1.00  0.00    -0.002 C 
HETATM    2  C10 UNL     1      -7.240   5.173  13.126  1.00  0.00     0.006 C 
HETATM    3  C11 UNL     1      -8.717   5.250  13.552  1.00  0.00     0.006 C 
HETATM    4  C12 UNL     1      -8.893   6.669  14.097  1.00  0.00    -0.001 C 
HETATM    5  C13 UNL     1     -10.091   6.940  15.020  1.00  0.00    -0.000 C 
HETATM    6  C14 UNL     1     -11.379   6.631  14.229  1.00  0.00     0.006 C 
HETATM    7  C15 UNL     1     -12.640   7.357  14.673  1.00  0.00     0.007 C 
HETATM    8  C16 UNL     1     -12.495   8.885  14.774  1.00  0.00     0.010 C 
HETATM    9  C17 UNL     1     -12.583   9.677  13.419  1.00  0.00     0.018 C 
HETATM   10  C18 UNL     1     -13.982   9.500  12.789  1.00  0.00     0.023 C 
HETATM   11  C19 UNL     1     -11.534   9.297  12.363  1.00  0.00     0.023 C 
HETATM   12  C20 UNL     1     -12.372  11.175  13.717  1.00  0.00     0.135 C 
HETATM   13  O4  UNL     1     -13.122  12.055  13.292  1.00  0.00    -0.297 OA
HETATM   14  C21 UNL     1     -11.144  11.542  14.515  1.00  0.00     0.080 C 
HETATM   15  C22 UNL     1     -11.201  10.798  15.830  1.00  0.00     0.018 C 
HETATM   16  C23 UNL     1     -11.271   9.292  15.607  1.00  0.00    -0.026 A 
HETATM   17  C24 UNL     1     -10.944   8.506  16.848  1.00  0.00     0.021 A 
HETATM   18  C25 UNL     1     -10.030   8.364  15.636  1.00  0.00    -0.028 A 
HETATM   19  C26 UNL     1      -8.628   8.954  15.886  1.00  0.00     0.011 C 
HETATM   20  C27 UNL     1      -7.518   8.510  14.932  1.00  0.00     0.011 C 
HETATM   21  C28 UNL     1      -7.524   6.994  14.721  1.00  0.00    -0.036 C 
HETATM   22  C29 UNL     1      -7.261   6.260  16.050  1.00  0.00     0.016 C 
ENDROOT
BRANCH   1  23
HETATM   23  C2  UNL     1      -5.062   6.501  13.798  1.00  0.00    -0.014 C 
HETATM   24  C1  UNL     1      -4.426   7.622  12.953  1.00  0.00     0.010 C 
BRANCH  23  25
HETATM   25  C3  UNL     1      -4.350   5.164  13.492  1.00  0.00     0.008 C 
BRANCH  25  26
HETATM   26  C4  UNL     1      -3.095   5.331  12.625  1.00  0.00     0.028 C 
BRANCH  26  27
HETATM   27  C5  UNL     1      -2.757   4.048  11.910  1.00  0.00    -0.011 C 
HETATM   28  C6  UNL     1      -1.531   3.576  11.601  1.00  0.00     0.035 C 
BRANCH  28  29
HETATM   29  C7  UNL     1      -1.318   2.262  10.913  1.00  0.00     0.209 C 
BRANCH  29  30
HETATM   30  O1  UNL     1       0.040   1.857  11.050  1.00  0.00    -0.396 OA
HETATM   31  H12 UNL     1       0.596   2.618  10.810  1.00  0.00     0.209 HD
ENDBRANCH  29  30
ENDBRANCH  28  29
BRANCH  28  32
HETATM   32  C8  UNL     1      -0.319   4.356  11.922  1.00  0.00     0.173 C 
HETATM   33  O2  UNL     1       0.095   4.631  13.035  1.00  0.00    -0.646 OA
BRANCH  32  34
HETATM   34  O3  UNL     1       0.336   4.738  10.814  1.00  0.00    -0.773 OA
HETATM   35  H13 UNL     1       1.099   5.246  11.161  1.00  0.00     0.167 HD
ENDBRANCH  32  34
ENDBRANCH  28  32
ENDBRANCH  26  27
ENDBRANCH  25  26
ENDBRANCH  23  25
ENDBRANCH   1  23
TORSDOF 8
ENDMDL
