MODEL 1
REMARK minimizedAffinity -7.09744167
REMARK CNNscore 0.712711573
REMARK CNNaffinity 7.03108597
REMARK  6 active torsions:
REMARK  status: ('A' for Active; 'I' for Inactive)
REMARK    1  A    between atoms: C2_2  and  C30_31 
REMARK    2  A    between atoms: C3_3  and  C4_4 
REMARK    3  A    between atoms: C4_4  and  C5_5 
REMARK    4  A    between atoms: C5_5  and  C6_6 
REMARK    5  A    between atoms: C6_6  and  C8_8 
REMARK    6  A    between atoms: C30_31  and  O3_33 
ROOT
HETATM    1  C8  UNL     1       4.537  54.569  -8.835  1.00  0.00    -0.002 C 
HETATM    2  C9  UNL     1       3.957  56.010  -8.680  1.00  0.00     0.007 C 
HETATM    3  C10 UNL     1       2.497  55.977  -9.185  1.00  0.00     0.015 C 
HETATM    4  C11 UNL     1       2.165  54.479  -9.298  1.00  0.00    -0.013 C 
HETATM    5  C12 UNL     1       1.797  54.006  -7.847  1.00  0.00     0.021 C 
HETATM    6  C13 UNL     1       0.984  54.047 -10.174  1.00  0.00    -0.070 C 
HETATM    7  C14 UNL     1      -0.189  54.703 -10.108  1.00  0.00    -0.022 C 
HETATM    8  C15 UNL     1      -1.475  54.148 -10.625  1.00  0.00     0.034 C 
HETATM    9  C16 UNL     1      -1.440  52.606 -10.707  1.00  0.00     0.013 C 
HETATM   10  C17 UNL     1      -2.825  51.954 -11.076  1.00  0.00     0.018 C 
HETATM   11  C18 UNL     1      -3.514  51.496  -9.769  1.00  0.00     0.023 C 
HETATM   12  C19 UNL     1      -3.788  52.935 -11.791  1.00  0.00     0.023 C 
HETATM   13  C20 UNL     1      -2.738  50.695 -11.958  1.00  0.00     0.135 C 
HETATM   14  O1  UNL     1      -3.742  50.250 -12.532  1.00  0.00    -0.297 OA
HETATM   15  C21 UNL     1      -1.446  49.934 -12.102  1.00  0.00     0.080 C 
HETATM   16  C22 UNL     1      -0.222  50.584 -11.490  1.00  0.00     0.017 C 
HETATM   17  C23 UNL     1      -0.216  52.124 -11.543  1.00  0.00    -0.031 C 
HETATM   18  C24 UNL     1      -0.335  52.593 -13.019  1.00  0.00     0.016 C 
HETATM   19  C25 UNL     1       1.144  52.737 -10.963  1.00  0.00     0.024 C 
HETATM   20  C26 UNL     1       2.079  51.770 -10.199  1.00  0.00     0.010 C 
HETATM   21  C27 UNL     1       3.459  52.368  -9.813  1.00  0.00     0.011 C 
HETATM   22  C28 UNL     1       3.527  53.912  -9.834  1.00  0.00    -0.029 C 
HETATM   23  C29 UNL     1       3.896  54.408 -11.270  1.00  0.00     0.016 C 
ENDROOT
BRANCH   1  24
HETATM   24  C6  UNL     1       6.058  54.569  -9.157  1.00  0.00    -0.014 C 
HETATM   25  C7  UNL     1       6.686  53.177  -9.023  1.00  0.00     0.010 C 
BRANCH  24  26
HETATM   26  C5  UNL     1       6.853  55.592  -8.304  1.00  0.00     0.008 C 
BRANCH  26  27
HETATM   27  C4  UNL     1       6.939  55.277  -6.805  1.00  0.00     0.028 C 
BRANCH  27  28
HETATM   28  C3  UNL     1       6.562  56.480  -5.983  1.00  0.00    -0.013 C 
HETATM   29  C2  UNL     1       7.366  57.342  -5.326  1.00  0.00     0.008 C 
HETATM   30  C1  UNL     1       6.798  58.507  -4.562  1.00  0.00     0.055 C 
BRANCH  29  31
HETATM   31  C30 UNL     1       8.838  57.171  -5.271  1.00  0.00     0.171 C 
HETATM   32  O2  UNL     1       9.476  56.157  -5.479  1.00  0.00    -0.646 OA
BRANCH  31  33
HETATM   33  O3  UNL     1       9.457  58.316  -4.932  1.00  0.00    -0.773 OA
HETATM   34  H46 UNL     1      10.405  58.069  -4.942  1.00  0.00     0.167 HD
ENDBRANCH  31  33
ENDBRANCH  29  31
ENDBRANCH  27  28
ENDBRANCH  26  27
ENDBRANCH  24  26
ENDBRANCH   1  24
TORSDOF 6
ENDMDL
MODEL 2
REMARK minimizedAffinity -7.33102798
REMARK CNNscore 0.606284857
REMARK CNNaffinity 7.11739016
REMARK  6 active torsions:
REMARK  status: ('A' for Active; 'I' for Inactive)
REMARK    1  A    between atoms: C2_2  and  C30_31 
REMARK    2  A    between atoms: C3_3  and  C4_4 
REMARK    3  A    between atoms: C4_4  and  C5_5 
REMARK    4  A    between atoms: C5_5  and  C6_6 
REMARK    5  A    between atoms: C6_6  and  C8_8 
REMARK    6  A    between atoms: C30_31  and  O3_33 
ROOT
HETATM    1  C8  UNL     1      -2.546  52.712 -11.434  1.00  0.00    -0.002 C 
HETATM    2  C9  UNL     1      -3.314  52.797 -10.078  1.00  0.00     0.007 C 
HETATM    3  C10 UNL     1      -2.308  53.272  -9.005  1.00  0.00     0.015 C 
HETATM    4  C11 UNL     1      -1.096  53.769  -9.811  1.00  0.00    -0.013 C 
HETATM    5  C12 UNL     1      -1.456  55.222 -10.286  1.00  0.00     0.021 C 
HETATM    6  C13 UNL     1       0.259  53.900  -9.106  1.00  0.00    -0.070 C 
HETATM    7  C14 UNL     1       0.341  54.466  -7.889  1.00  0.00    -0.022 C 
HETATM    8  C15 UNL     1       1.616  54.966  -7.296  1.00  0.00     0.034 C 
HETATM    9  C16 UNL     1       2.666  55.283  -8.384  1.00  0.00     0.013 C 
HETATM   10  C17 UNL     1       3.967  55.980  -7.832  1.00  0.00     0.018 C 
HETATM   11  C18 UNL     1       3.832  57.507  -8.045  1.00  0.00     0.023 C 
HETATM   12  C19 UNL     1       4.191  55.739  -6.318  1.00  0.00     0.023 C 
HETATM   13  C20 UNL     1       5.272  55.579  -8.543  1.00  0.00     0.135 C 
HETATM   14  O1  UNL     1       6.375  55.841  -8.043  1.00  0.00    -0.297 OA
HETATM   15  C21 UNL     1       5.248  54.910  -9.893  1.00  0.00     0.080 C 
HETATM   16  C22 UNL     1       3.884  54.494 -10.403  1.00  0.00     0.017 C 
HETATM   17  C23 UNL     1       2.894  54.050  -9.308  1.00  0.00    -0.031 C 
HETATM   18  C24 UNL     1       3.502  52.864  -8.510  1.00  0.00     0.016 C 
HETATM   19  C25 UNL     1       1.509  53.540  -9.926  1.00  0.00     0.024 C 
HETATM   20  C26 UNL     1       1.260  53.831 -11.425  1.00  0.00     0.010 C 
HETATM   21  C27 UNL     1      -0.012  53.164 -12.015  1.00  0.00     0.011 C 
HETATM   22  C28 UNL     1      -1.052  52.707 -10.967  1.00  0.00    -0.029 C 
HETATM   23  C29 UNL     1      -0.716  51.259 -10.482  1.00  0.00     0.016 C 
ENDROOT
BRANCH   1  24
HETATM   24  C6  UNL     1      -3.076  51.575 -12.351  1.00  0.00    -0.014 C 
HETATM   25  C7  UNL     1      -2.518  50.201 -11.965  1.00  0.00     0.010 C 
BRANCH  24  26
HETATM   26  C5  UNL     1      -2.815  51.847 -13.856  1.00  0.00     0.008 C 
BRANCH  26  27
HETATM   27  C4  UNL     1      -2.708  50.600 -14.744  1.00  0.00     0.028 C 
BRANCH  27  28
HETATM   28  C3  UNL     1      -1.413  50.600 -15.512  1.00  0.00    -0.013 C 
HETATM   29  C2  UNL     1      -1.218  50.712 -16.843  1.00  0.00     0.008 C 
HETATM   30  C1  UNL     1       0.167  50.706 -17.428  1.00  0.00     0.055 C 
BRANCH  29  31
HETATM   31  C30 UNL     1      -2.342  50.794 -17.806  1.00  0.00     0.171 C 
HETATM   32  O2  UNL     1      -2.842  51.795 -18.281  1.00  0.00    -0.646 OA
BRANCH  31  33
HETATM   33  O3  UNL     1      -2.810  49.574 -18.126  1.00  0.00    -0.773 OA
HETATM   34  H46 UNL     1      -3.527  49.770 -18.763  1.00  0.00     0.167 HD
ENDBRANCH  31  33
ENDBRANCH  29  31
ENDBRANCH  27  28
ENDBRANCH  26  27
ENDBRANCH  24  26
ENDBRANCH   1  24
TORSDOF 6
ENDMDL
MODEL 3
REMARK minimizedAffinity -7.09141922
REMARK CNNscore 0.58586359
REMARK CNNaffinity 6.87197113
REMARK  6 active torsions:
REMARK  status: ('A' for Active; 'I' for Inactive)
REMARK    1  A    between atoms: C2_2  and  C30_31 
REMARK    2  A    between atoms: C3_3  and  C4_4 
REMARK    3  A    between atoms: C4_4  and  C5_5 
REMARK    4  A    between atoms: C5_5  and  C6_6 
REMARK    5  A    between atoms: C6_6  and  C8_8 
REMARK    6  A    between atoms: C30_31  and  O3_33 
ROOT
HETATM    1  C8  UNL     1      -1.663  52.224 -10.083  1.00  0.00    -0.002 C 
HETATM    2  C9  UNL     1      -0.857  50.926 -10.404  1.00  0.00     0.007 C 
HETATM    3  C10 UNL     1       0.625  51.207 -10.072  1.00  0.00     0.015 C 
HETATM    4  C11 UNL     1       0.595  52.515  -9.263  1.00  0.00    -0.013 C 
HETATM    5  C12 UNL     1       0.221  52.108  -7.793  1.00  0.00     0.021 C 
HETATM    6  C13 UNL     1       1.881  53.338  -9.137  1.00  0.00    -0.070 C 
HETATM    7  C14 UNL     1       3.051  52.735  -8.860  1.00  0.00    -0.022 C 
HETATM    8  C15 UNL     1       4.256  53.462  -8.362  1.00  0.00     0.034 C 
HETATM    9  C16 UNL     1       3.878  54.795  -7.681  1.00  0.00     0.013 C 
HETATM   10  C17 UNL     1       5.088  55.520  -6.980  1.00  0.00     0.018 C 
HETATM   11  C18 UNL     1       5.059  55.174  -5.472  1.00  0.00     0.023 C 
HETATM   12  C19 UNL     1       6.465  55.079  -7.534  1.00  0.00     0.023 C 
HETATM   13  C20 UNL     1       5.054  57.058  -7.049  1.00  0.00     0.135 C 
HETATM   14  O1  UNL     1       6.061  57.729  -6.779  1.00  0.00    -0.297 OA
HETATM   15  C21 UNL     1       3.784  57.794  -7.388  1.00  0.00     0.080 C 
HETATM   16  C22 UNL     1       2.619  56.935  -7.834  1.00  0.00     0.017 C 
HETATM   17  C23 UNL     1       3.015  55.677  -8.632  1.00  0.00    -0.031 C 
HETATM   18  C24 UNL     1       3.826  56.094  -9.889  1.00  0.00     0.016 C 
HETATM   19  C25 UNL     1       1.733  54.869  -9.148  1.00  0.00     0.024 C 
HETATM   20  C26 UNL     1       0.363  55.272  -8.552  1.00  0.00     0.010 C 
HETATM   21  C27 UNL     1      -0.862  54.583  -9.212  1.00  0.00     0.011 C 
HETATM   22  C28 UNL     1      -0.533  53.305 -10.017  1.00  0.00    -0.029 C 
HETATM   23  C29 UNL     1      -0.161  53.686 -11.487  1.00  0.00     0.016 C 
ENDROOT
BRANCH   1  24
HETATM   24  C6  UNL     1      -2.876  52.426 -11.033  1.00  0.00    -0.014 C 
HETATM   25  C7  UNL     1      -3.828  53.523 -10.545  1.00  0.00     0.010 C 
BRANCH  24  26
HETATM   26  C5  UNL     1      -3.666  51.115 -11.286  1.00  0.00     0.008 C 
BRANCH  26  27
HETATM   27  C4  UNL     1      -4.964  50.961 -10.483  1.00  0.00     0.028 C 
BRANCH  27  28
HETATM   28  C3  UNL     1      -5.158  49.532 -10.050  1.00  0.00    -0.013 C 
HETATM   29  C2  UNL     1      -6.309  48.867  -9.818  1.00  0.00     0.008 C 
HETATM   30  C1  UNL     1      -6.301  47.422  -9.401  1.00  0.00     0.055 C 
BRANCH  29  31
HETATM   31  C30 UNL     1      -7.636  49.521  -9.906  1.00  0.00     0.171 C 
HETATM   32  O2  UNL     1      -8.343  49.640 -10.889  1.00  0.00    -0.646 OA
BRANCH  31  33
HETATM   33  O3  UNL     1      -8.020  50.025  -8.719  1.00  0.00    -0.773 OA
HETATM   34  H46 UNL     1      -8.899  50.411  -8.914  1.00  0.00     0.167 HD
ENDBRANCH  31  33
ENDBRANCH  29  31
ENDBRANCH  27  28
ENDBRANCH  26  27
ENDBRANCH  24  26
ENDBRANCH   1  24
TORSDOF 6
ENDMDL
MODEL 4
REMARK minimizedAffinity -7.99578047
REMARK CNNscore 0.582739234
REMARK CNNaffinity 6.15324545
REMARK  6 active torsions:
REMARK  status: ('A' for Active; 'I' for Inactive)
REMARK    1  A    between atoms: C2_2  and  C30_31 
REMARK    2  A    between atoms: C3_3  and  C4_4 
REMARK    3  A    between atoms: C4_4  and  C5_5 
REMARK    4  A    between atoms: C5_5  and  C6_6 
REMARK    5  A    between atoms: C6_6  and  C8_8 
REMARK    6  A    between atoms: C30_31  and  O3_33 
ROOT
HETATM    1  C8  UNL     1     -13.269  46.014 -26.758  1.00  0.00    -0.002 C 
HETATM    2  C9  UNL     1     -14.304  45.859 -27.915  1.00  0.00     0.007 C 
HETATM    3  C10 UNL     1     -13.560  46.136 -29.241  1.00  0.00     0.015 C 
HETATM    4  C11 UNL     1     -12.071  46.110 -28.857  1.00  0.00    -0.013 C 
HETATM    5  C12 UNL     1     -11.662  44.594 -28.808  1.00  0.00     0.021 C 
HETATM    6  C13 UNL     1     -11.053  46.771 -29.793  1.00  0.00    -0.070 C 
HETATM    7  C14 UNL     1     -11.117  46.568 -31.121  1.00  0.00    -0.022 C 
HETATM    8  C15 UNL     1      -9.988  46.852 -32.055  1.00  0.00     0.034 C 
HETATM    9  C16 UNL     1      -8.627  46.848 -31.323  1.00  0.00     0.013 C 
HETATM   10  C17 UNL     1      -7.385  46.966 -32.284  1.00  0.00     0.018 C 
HETATM   11  C18 UNL     1      -6.829  45.545 -32.541  1.00  0.00     0.023 C 
HETATM   12  C19 UNL     1      -7.736  47.585 -33.660  1.00  0.00     0.023 C 
HETATM   13  C20 UNL     1      -6.201  47.775 -31.722  1.00  0.00     0.135 C 
HETATM   14  O1  UNL     1      -5.289  48.165 -32.464  1.00  0.00    -0.297 OA
HETATM   15  C21 UNL     1      -6.088  48.066 -30.249  1.00  0.00     0.080 C 
HETATM   16  C22 UNL     1      -7.286  47.685 -29.403  1.00  0.00     0.017 C 
HETATM   17  C23 UNL     1      -8.647  47.828 -30.112  1.00  0.00    -0.031 C 
HETATM   18  C24 UNL     1      -8.831  49.295 -30.590  1.00  0.00     0.016 C 
HETATM   19  C25 UNL     1      -9.869  47.497 -29.133  1.00  0.00     0.024 C 
HETATM   20  C26 UNL     1      -9.523  46.826 -27.782  1.00  0.00     0.010 C 
HETATM   21  C27 UNL     1     -10.718  46.688 -26.800  1.00  0.00     0.011 C 
HETATM   22  C28 UNL     1     -12.113  46.809 -27.452  1.00  0.00    -0.029 C 
HETATM   23  C29 UNL     1     -12.544  48.311 -27.509  1.00  0.00     0.016 C 
ENDROOT
BRANCH   1  24
HETATM   24  C6  UNL     1     -13.910  46.561 -25.451  1.00  0.00    -0.014 C 
HETATM   25  C7  UNL     1     -13.160  46.105 -24.194  1.00  0.00     0.010 C 
BRANCH  24  26
HETATM   26  C5  UNL     1     -15.415  46.206 -25.327  1.00  0.00     0.008 C 
BRANCH  26  27
HETATM   27  C4  UNL     1     -16.276  47.234 -24.581  1.00  0.00     0.028 C 
BRANCH  27  28
HETATM   28  C3  UNL     1     -16.932  46.609 -23.378  1.00  0.00    -0.013 C 
HETATM   29  C2  UNL     1     -18.219  46.242 -23.210  1.00  0.00     0.008 C 
HETATM   30  C1  UNL     1     -18.687  45.614 -21.927  1.00  0.00     0.055 C 
BRANCH  29  31
HETATM   31  C30 UNL     1     -19.253  46.477 -24.246  1.00  0.00     0.171 C 
HETATM   32  O2  UNL     1     -20.111  45.705 -24.629  1.00  0.00    -0.646 OA
BRANCH  31  33
HETATM   33  O3  UNL     1     -19.148  47.708 -24.780  1.00  0.00    -0.773 OA
HETATM   34  H46 UNL     1     -19.881  47.733 -25.428  1.00  0.00     0.167 HD
ENDBRANCH  31  33
ENDBRANCH  29  31
ENDBRANCH  27  28
ENDBRANCH  26  27
ENDBRANCH  24  26
ENDBRANCH   1  24
TORSDOF 6
ENDMDL
MODEL 5
REMARK minimizedAffinity -7.7149086
REMARK CNNscore 0.414762914
REMARK CNNaffinity 5.84063673
REMARK  6 active torsions:
REMARK  status: ('A' for Active; 'I' for Inactive)
REMARK    1  A    between atoms: C2_2  and  C30_31 
REMARK    2  A    between atoms: C3_3  and  C4_4 
REMARK    3  A    between atoms: C4_4  and  C5_5 
REMARK    4  A    between atoms: C5_5  and  C6_6 
REMARK    5  A    between atoms: C6_6  and  C8_8 
REMARK    6  A    between atoms: C30_31  and  O3_33 
ROOT
HETATM    1  C8  UNL     1     -14.103  45.455 -26.367  1.00  0.00    -0.002 C 
HETATM    2  C9  UNL     1     -13.957  43.906 -26.480  1.00  0.00     0.007 C 
HETATM    3  C10 UNL     1     -12.831  43.620 -27.498  1.00  0.00     0.015 C 
HETATM    4  C11 UNL     1     -12.135  44.978 -27.691  1.00  0.00    -0.013 C 
HETATM    5  C12 UNL     1     -11.155  45.141 -26.475  1.00  0.00     0.021 C 
HETATM    6  C13 UNL     1     -11.271  45.197 -28.937  1.00  0.00    -0.070 C 
HETATM    7  C14 UNL     1     -10.399  44.253 -29.335  1.00  0.00    -0.022 C 
HETATM    8  C15 UNL     1      -9.278  44.513 -30.286  1.00  0.00     0.034 C 
HETATM    9  C16 UNL     1      -8.885  46.007 -30.310  1.00  0.00     0.013 C 
HETATM   10  C17 UNL     1      -7.594  46.314 -31.159  1.00  0.00     0.018 C 
HETATM   11  C18 UNL     1      -6.384  46.396 -30.198  1.00  0.00     0.023 C 
HETATM   12  C19 UNL     1      -7.282  45.219 -32.209  1.00  0.00     0.023 C 
HETATM   13  C20 UNL     1      -7.614  47.657 -31.911  1.00  0.00     0.135 C 
HETATM   14  O1  UNL     1      -6.796  47.894 -32.811  1.00  0.00    -0.297 OA
HETATM   15  C21 UNL     1      -8.588  48.744 -31.537  1.00  0.00     0.080 C 
HETATM   16  C22 UNL     1      -9.649  48.364 -30.525  1.00  0.00     0.017 C 
HETATM   17  C23 UNL     1     -10.125  46.901 -30.609  1.00  0.00    -0.031 C 
HETATM   18  C24 UNL     1     -10.682  46.618 -32.032  1.00  0.00     0.016 C 
HETATM   19  C25 UNL     1     -11.307  46.596 -29.574  1.00  0.00     0.024 C 
HETATM   20  C26 UNL     1     -11.582  47.665 -28.489  1.00  0.00     0.010 C 
HETATM   21  C27 UNL     1     -12.846  47.405 -27.625  1.00  0.00     0.011 C 
HETATM   22  C28 UNL     1     -13.368  45.951 -27.657  1.00  0.00    -0.029 C 
HETATM   23  C29 UNL     1     -14.350  45.765 -28.859  1.00  0.00     0.016 C 
ENDROOT
BRANCH   1  24
HETATM   24  C6  UNL     1     -15.567  45.900 -26.091  1.00  0.00    -0.014 C 
HETATM   25  C7  UNL     1     -15.731  46.558 -24.716  1.00  0.00     0.010 C 
BRANCH  24  26
HETATM   26  C5  UNL     1     -16.586  44.740 -26.247  1.00  0.00     0.008 C 
BRANCH  26  27
HETATM   27  C4  UNL     1     -18.024  45.165 -26.574  1.00  0.00     0.028 C 
BRANCH  27  28
HETATM   28  C3  UNL     1     -18.987  44.622 -25.551  1.00  0.00    -0.013 C 
HETATM   29  C2  UNL     1     -19.512  45.238 -24.472  1.00  0.00     0.008 C 
HETATM   30  C1  UNL     1     -20.480  44.528 -23.566  1.00  0.00     0.055 C 
BRANCH  29  31
HETATM   31  C30 UNL     1     -19.135  46.618 -24.083  1.00  0.00     0.171 C 
HETATM   32  O2  UNL     1     -19.098  47.606 -24.791  1.00  0.00    -0.646 OA
BRANCH  31  33
HETATM   33  O3  UNL     1     -18.796  46.691 -22.783  1.00  0.00    -0.773 OA
HETATM   34  H46 UNL     1     -18.583  47.639 -22.661  1.00  0.00     0.167 HD
ENDBRANCH  31  33
ENDBRANCH  29  31
ENDBRANCH  27  28
ENDBRANCH  26  27
ENDBRANCH  24  26
ENDBRANCH   1  24
TORSDOF 6
ENDMDL
MODEL 6
REMARK minimizedAffinity -7.36001158
REMARK CNNscore 0.320622534
REMARK CNNaffinity 5.86926889
REMARK  6 active torsions:
REMARK  status: ('A' for Active; 'I' for Inactive)
REMARK    1  A    between atoms: C2_2  and  C30_31 
REMARK    2  A    between atoms: C3_3  and  C4_4 
REMARK    3  A    between atoms: C4_4  and  C5_5 
REMARK    4  A    between atoms: C5_5  and  C6_6 
REMARK    5  A    between atoms: C6_6  and  C8_8 
REMARK    6  A    between atoms: C30_31  and  O3_33 
ROOT
HETATM    1  C8  UNL     1       1.742  55.930  -8.504  1.00  0.00    -0.002 C 
HETATM    2  C9  UNL     1       0.862  56.782  -7.538  1.00  0.00     0.007 C 
HETATM    3  C10 UNL     1       1.787  57.320  -6.423  1.00  0.00     0.015 C 
HETATM    4  C11 UNL     1       3.209  57.056  -6.946  1.00  0.00    -0.013 C 
HETATM    5  C12 UNL     1       3.531  58.228  -7.940  1.00  0.00     0.021 C 
HETATM    6  C13 UNL     1       4.373  57.043  -5.949  1.00  0.00    -0.070 C 
HETATM    7  C14 UNL     1       4.475  57.999  -5.008  1.00  0.00    -0.022 C 
HETATM    8  C15 UNL     1       5.731  58.283  -4.252  1.00  0.00     0.034 C 
HETATM    9  C16 UNL     1       6.981  57.799  -5.020  1.00  0.00     0.013 C 
HETATM   10  C17 UNL     1       8.343  58.229  -4.357  1.00  0.00     0.018 C 
HETATM   11  C18 UNL     1       8.856  59.501  -5.072  1.00  0.00     0.023 C 
HETATM   12  C19 UNL     1       8.208  58.564  -2.850  1.00  0.00     0.023 C 
HETATM   13  C20 UNL     1       9.482  57.199  -4.482  1.00  0.00     0.135 C 
HETATM   14  O1  UNL     1      10.503  57.293  -3.786  1.00  0.00    -0.297 OA
HETATM   15  C21 UNL     1       9.414  56.085  -5.492  1.00  0.00     0.080 C 
HETATM   16  C22 UNL     1       8.098  55.933  -6.226  1.00  0.00     0.017 C 
HETATM   17  C23 UNL     1       6.851  56.292  -5.394  1.00  0.00    -0.031 C 
HETATM   18  C24 UNL     1       6.806  55.406  -4.119  1.00  0.00     0.016 C 
HETATM   19  C25 UNL     1       5.496  56.023  -6.201  1.00  0.00     0.024 C 
HETATM   20  C26 UNL     1       5.626  55.744  -7.718  1.00  0.00     0.010 C 
HETATM   21  C27 UNL     1       4.307  55.316  -8.417  1.00  0.00     0.011 C 
HETATM   22  C28 UNL     1       3.018  55.660  -7.638  1.00  0.00    -0.029 C 
HETATM   23  C29 UNL     1       2.674  54.504  -6.642  1.00  0.00     0.016 C 
ENDROOT
BRANCH   1  24
HETATM   24  C6  UNL     1       0.963  54.738  -9.128  1.00  0.00    -0.014 C 
HETATM   25  C7  UNL     1       1.321  54.509 -10.601  1.00  0.00     0.010 C 
BRANCH  24  26
HETATM   26  C5  UNL     1      -0.574  54.879  -8.974  1.00  0.00     0.008 C 
BRANCH  26  27
HETATM   27  C4  UNL     1      -1.336  55.244 -10.256  1.00  0.00     0.028 C 
BRANCH  27  28
HETATM   28  C3  UNL     1      -2.609  54.448 -10.365  1.00  0.00    -0.013 C 
HETATM   29  C2  UNL     1      -2.802  53.229 -10.912  1.00  0.00     0.008 C 
HETATM   30  C1  UNL     1      -4.161  52.585 -10.913  1.00  0.00     0.055 C 
BRANCH  29  31
HETATM   31  C30 UNL     1      -1.714  52.479 -11.583  1.00  0.00     0.171 C 
HETATM   32  O2  UNL     1      -0.867  51.776 -11.067  1.00  0.00    -0.646 OA
BRANCH  31  33
HETATM   33  O3  UNL     1      -1.733  52.666 -12.915  1.00  0.00    -0.773 OA
HETATM   34  H46 UNL     1      -0.984  52.118 -13.228  1.00  0.00     0.167 HD
ENDBRANCH  31  33
ENDBRANCH  29  31
ENDBRANCH  27  28
ENDBRANCH  26  27
ENDBRANCH  24  26
ENDBRANCH   1  24
TORSDOF 6
ENDMDL
MODEL 7
REMARK minimizedAffinity -7.10258389
REMARK CNNscore 0.290452719
REMARK CNNaffinity 6.05534744
REMARK  6 active torsions:
REMARK  status: ('A' for Active; 'I' for Inactive)
REMARK    1  A    between atoms: C2_2  and  C30_31 
REMARK    2  A    between atoms: C3_3  and  C4_4 
REMARK    3  A    between atoms: C4_4  and  C5_5 
REMARK    4  A    between atoms: C5_5  and  C6_6 
REMARK    5  A    between atoms: C6_6  and  C8_8 
REMARK    6  A    between atoms: C30_31  and  O3_33 
ROOT
HETATM    1  C8  UNL     1       3.486  54.125 -10.777  1.00  0.00    -0.002 C 
HETATM    2  C9  UNL     1       3.056  55.625 -10.789  1.00  0.00     0.007 C 
HETATM    3  C10 UNL     1       3.742  56.313  -9.588  1.00  0.00     0.015 C 
HETATM    4  C11 UNL     1       4.800  55.299  -9.119  1.00  0.00    -0.013 C 
HETATM    5  C12 UNL     1       6.031  55.481 -10.078  1.00  0.00     0.021 C 
HETATM    6  C13 UNL     1       5.372  55.426  -7.703  1.00  0.00    -0.070 C 
HETATM    7  C14 UNL     1       5.743  56.626  -7.224  1.00  0.00    -0.022 C 
HETATM    8  C15 UNL     1       6.631  56.802  -6.036  1.00  0.00     0.034 C 
HETATM    9  C16 UNL     1       7.500  55.550  -5.783  1.00  0.00     0.013 C 
HETATM   10  C17 UNL     1       8.581  55.741  -4.653  1.00  0.00     0.018 C 
HETATM   11  C18 UNL     1       9.933  56.085  -5.323  1.00  0.00     0.023 C 
HETATM   12  C19 UNL     1       8.240  56.892  -3.674  1.00  0.00     0.023 C 
HETATM   13  C20 UNL     1       8.853  54.493  -3.794  1.00  0.00     0.135 C 
HETATM   14  O1  UNL     1       9.469  54.580  -2.723  1.00  0.00    -0.297 OA
HETATM   15  C21 UNL     1       8.432  53.123  -4.258  1.00  0.00     0.080 C 
HETATM   16  C22 UNL     1       7.572  53.080  -5.504  1.00  0.00     0.017 C 
HETATM   17  C23 UNL     1       6.612  54.275  -5.667  1.00  0.00    -0.031 C 
HETATM   18  C24 UNL     1       5.677  54.361  -4.430  1.00  0.00     0.016 C 
HETATM   19  C25 UNL     1       5.674  54.117  -6.954  1.00  0.00     0.024 C 
HETATM   20  C26 UNL     1       6.048  53.004  -7.962  1.00  0.00     0.010 C 
HETATM   21  C27 UNL     1       5.011  52.778  -9.095  1.00  0.00     0.011 C 
HETATM   22  C28 UNL     1       4.025  53.948  -9.318  1.00  0.00    -0.029 C 
HETATM   23  C29 UNL     1       2.788  53.786  -8.375  1.00  0.00     0.016 C 
ENDROOT
BRANCH   1  24
HETATM   24  C6  UNL     1       2.374  53.179 -11.312  1.00  0.00    -0.014 C 
HETATM   25  C7  UNL     1       1.023  53.416 -10.629  1.00  0.00     0.010 C 
BRANCH  24  26
HETATM   26  C5  UNL     1       2.761  51.680 -11.213  1.00  0.00     0.008 C 
BRANCH  26  27
HETATM   27  C4  UNL     1       2.545  50.856 -12.490  1.00  0.00     0.028 C 
BRANCH  27  28
HETATM   28  C3  UNL     1       3.414  51.366 -13.608  1.00  0.00    -0.013 C 
HETATM   29  C2  UNL     1       3.051  51.794 -14.835  1.00  0.00     0.008 C 
HETATM   30  C1  UNL     1       4.074  52.285 -15.822  1.00  0.00     0.055 C 
BRANCH  29  31
HETATM   31  C30 UNL     1       1.644  51.762 -15.303  1.00  0.00     0.171 C 
HETATM   32  O2  UNL     1       1.115  50.925 -16.009  1.00  0.00    -0.646 OA
BRANCH  31  33
HETATM   33  O3  UNL     1       0.950  52.825 -14.860  1.00  0.00    -0.773 OA
HETATM   34  H46 UNL     1       0.054  52.675 -15.226  1.00  0.00     0.167 HD
ENDBRANCH  31  33
ENDBRANCH  29  31
ENDBRANCH  27  28
ENDBRANCH  26  27
ENDBRANCH  24  26
ENDBRANCH   1  24
TORSDOF 6
ENDMDL
MODEL 8
REMARK minimizedAffinity -8.33968258
REMARK CNNscore 0.240575179
REMARK CNNaffinity 6.38725853
REMARK  6 active torsions:
REMARK  status: ('A' for Active; 'I' for Inactive)
REMARK    1  A    between atoms: C2_2  and  C30_31 
REMARK    2  A    between atoms: C3_3  and  C4_4 
REMARK    3  A    between atoms: C4_4  and  C5_5 
REMARK    4  A    between atoms: C5_5  and  C6_6 
REMARK    5  A    between atoms: C6_6  and  C8_8 
REMARK    6  A    between atoms: C30_31  and  O3_33 
ROOT
HETATM    1  C8  UNL     1      -4.431  49.939 -23.590  1.00  0.00    -0.002 C 
HETATM    2  C9  UNL     1      -4.742  48.830 -24.643  1.00  0.00     0.007 C 
HETATM    3  C10 UNL     1      -5.876  47.952 -24.069  1.00  0.00     0.015 C 
HETATM    4  C11 UNL     1      -6.418  48.758 -22.876  1.00  0.00    -0.013 C 
HETATM    5  C12 UNL     1      -7.394  49.828 -23.484  1.00  0.00     0.021 C 
HETATM    6  C13 UNL     1      -7.235  48.032 -21.802  1.00  0.00    -0.070 C 
HETATM    7  C14 UNL     1      -8.196  47.159 -22.151  1.00  0.00    -0.022 C 
HETATM    8  C15 UNL     1      -9.268  46.696 -21.221  1.00  0.00     0.034 C 
HETATM    9  C16 UNL     1      -9.497  47.700 -20.070  1.00  0.00     0.013 C 
HETATM   10  C17 UNL     1     -10.734  47.353 -19.157  1.00  0.00     0.018 C 
HETATM   11  C18 UNL     1     -11.943  48.194 -19.632  1.00  0.00     0.023 C 
HETATM   12  C19 UNL     1     -11.146  45.861 -19.231  1.00  0.00     0.023 C 
HETATM   13  C20 UNL     1     -10.558  47.691 -17.666  1.00  0.00     0.135 C 
HETATM   14  O1  UNL     1     -11.332  47.232 -16.814  1.00  0.00    -0.297 OA
HETATM   15  C21 UNL     1      -9.479  48.635 -17.204  1.00  0.00     0.080 C 
HETATM   16  C22 UNL     1      -8.481  49.068 -18.259  1.00  0.00     0.017 C 
HETATM   17  C23 UNL     1      -8.163  47.999 -19.323  1.00  0.00    -0.031 C 
HETATM   18  C24 UNL     1      -7.619  46.721 -18.627  1.00  0.00     0.016 C 
HETATM   19  C25 UNL     1      -7.037  48.492 -20.348  1.00  0.00     0.024 C 
HETATM   20  C26 UNL     1      -6.666  49.994 -20.313  1.00  0.00     0.010 C 
HETATM   21  C27 UNL     1      -5.451  50.384 -21.198  1.00  0.00     0.011 C 
HETATM   22  C28 UNL     1      -5.089  49.358 -22.294  1.00  0.00    -0.029 C 
HETATM   23  C29 UNL     1      -4.113  48.282 -21.714  1.00  0.00     0.016 C 
ENDROOT
BRANCH   1  24
HETATM   24  C6  UNL     1      -2.932  50.352 -23.581  1.00  0.00    -0.014 C 
HETATM   25  C7  UNL     1      -2.738  51.851 -23.326  1.00  0.00     0.010 C 
BRANCH  24  26
HETATM   26  C5  UNL     1      -2.187  49.935 -24.876  1.00  0.00     0.008 C 
BRANCH  26  27
HETATM   27  C4  UNL     1      -1.602  51.089 -25.702  1.00  0.00     0.028 C 
BRANCH  27  28
HETATM   28  C3  UNL     1      -0.115  50.924 -25.874  1.00  0.00    -0.013 C 
HETATM   29  C2  UNL     1       0.764  51.750 -26.478  1.00  0.00     0.008 C 
HETATM   30  C1  UNL     1       2.229  51.416 -26.538  1.00  0.00     0.055 C 
BRANCH  29  31
HETATM   31  C30 UNL     1       0.343  52.997 -27.160  1.00  0.00     0.171 C 
HETATM   32  O2  UNL     1       0.306  54.121 -26.697  1.00  0.00    -0.646 OA
BRANCH  31  33
HETATM   33  O3  UNL     1      -0.040  52.763 -28.428  1.00  0.00    -0.773 OA
HETATM   34  H46 UNL     1      -0.278  53.654 -28.757  1.00  0.00     0.167 HD
ENDBRANCH  31  33
ENDBRANCH  29  31
ENDBRANCH  27  28
ENDBRANCH  26  27
ENDBRANCH  24  26
ENDBRANCH   1  24
TORSDOF 6
ENDMDL
MODEL 9
REMARK minimizedAffinity -8.07000637
REMARK CNNscore 0.228018135
REMARK CNNaffinity 6.37735415
REMARK  6 active torsions:
REMARK  status: ('A' for Active; 'I' for Inactive)
REMARK    1  A    between atoms: C2_2  and  C30_31 
REMARK    2  A    between atoms: C3_3  and  C4_4 
REMARK    3  A    between atoms: C4_4  and  C5_5 
REMARK    4  A    between atoms: C5_5  and  C6_6 
REMARK    5  A    between atoms: C6_6  and  C8_8 
REMARK    6  A    between atoms: C30_31  and  O3_33 
ROOT
HETATM    1  C8  UNL     1      -1.815  51.469 -21.939  1.00  0.00    -0.002 C 
HETATM    2  C9  UNL     1      -3.150  52.060 -22.490  1.00  0.00     0.007 C 
HETATM    3  C10 UNL     1      -4.291  51.115 -22.052  1.00  0.00     0.015 C 
HETATM    4  C11 UNL     1      -3.647  50.204 -20.993  1.00  0.00    -0.013 C 
HETATM    5  C12 UNL     1      -3.654  51.024 -19.653  1.00  0.00     0.021 C 
HETATM    6  C13 UNL     1      -4.324  48.872 -20.652  1.00  0.00    -0.070 C 
HETATM    7  C14 UNL     1      -5.654  48.813 -20.461  1.00  0.00    -0.022 C 
HETATM    8  C15 UNL     1      -6.340  47.676 -19.779  1.00  0.00     0.034 C 
HETATM    9  C16 UNL     1      -5.378  46.901 -18.853  1.00  0.00     0.013 C 
HETATM   10  C17 UNL     1      -6.084  45.802 -17.973  1.00  0.00     0.018 C 
HETATM   11  C18 UNL     1      -6.356  46.398 -16.571  1.00  0.00     0.023 C 
HETATM   12  C19 UNL     1      -7.444  45.339 -18.554  1.00  0.00     0.023 C 
HETATM   13  C20 UNL     1      -5.251  44.531 -17.725  1.00  0.00     0.135 C 
HETATM   14  O1  UNL     1      -5.780  43.500 -17.286  1.00  0.00    -0.297 OA
HETATM   15  C21 UNL     1      -3.762  44.520 -17.953  1.00  0.00     0.080 C 
HETATM   16  C22 UNL     1      -3.183  45.756 -18.610  1.00  0.00     0.017 C 
HETATM   17  C23 UNL     1      -4.112  46.437 -19.635  1.00  0.00    -0.031 C 
HETATM   18  C24 UNL     1      -4.490  45.421 -20.747  1.00  0.00     0.016 C 
HETATM   19  C25 UNL     1      -3.402  47.678 -20.353  1.00  0.00     0.024 C 
HETATM   20  C26 UNL     1      -2.072  48.177 -19.739  1.00  0.00     0.010 C 
HETATM   21  C27 UNL     1      -1.338  49.263 -20.572  1.00  0.00     0.011 C 
HETATM   22  C28 UNL     1      -2.219  49.993 -21.610  1.00  0.00    -0.029 C 
HETATM   23  C29 UNL     1      -2.226  49.196 -22.956  1.00  0.00     0.016 C 
ENDROOT
BRANCH   1  24
HETATM   24  C6  UNL     1      -0.605  51.752 -22.873  1.00  0.00    -0.014 C 
HETATM   25  C7  UNL     1       0.588  52.353 -22.121  1.00  0.00     0.010 C 
BRANCH  24  26
HETATM   26  C5  UNL     1      -0.976  52.650 -24.081  1.00  0.00     0.008 C 
BRANCH  26  27
HETATM   27  C4  UNL     1       0.200  53.372 -24.753  1.00  0.00     0.028 C 
BRANCH  27  28
HETATM   28  C3  UNL     1       0.838  52.496 -25.798  1.00  0.00    -0.013 C 
HETATM   29  C2  UNL     1       0.536  52.383 -27.108  1.00  0.00     0.008 C 
HETATM   30  C1  UNL     1       1.305  51.454 -28.006  1.00  0.00     0.055 C 
BRANCH  29  31
HETATM   31  C30 UNL     1      -0.592  53.119 -27.729  1.00  0.00     0.171 C 
HETATM   32  O2  UNL     1      -1.730  53.222 -27.314  1.00  0.00    -0.646 OA
BRANCH  31  33
HETATM   33  O3  UNL     1      -0.228  53.696 -28.889  1.00  0.00    -0.773 OA
HETATM   34  H46 UNL     1      -1.047  54.147 -29.180  1.00  0.00     0.167 HD
ENDBRANCH  31  33
ENDBRANCH  29  31
ENDBRANCH  27  28
ENDBRANCH  26  27
ENDBRANCH  24  26
ENDBRANCH   1  24
TORSDOF 6
ENDMDL
