MODEL 1
REMARK minimizedAffinity -8.58426476
REMARK  10 active torsions:
REMARK  status: ('A' for Active; 'I' for Inactive)
REMARK    1  A    between atoms: C2_2  and  C3_3 
REMARK    2  A    between atoms: C4_4  and  O1_5 
REMARK    3  A    between atoms: C12_13  and  C13_14 
REMARK    4  A    between atoms: C13_14  and  C15_16 
REMARK    5  A    between atoms: C15_16  and  C16_17 
REMARK    6  A    between atoms: C16_17  and  C17_18 
REMARK    7  A    between atoms: C26_27  and  C27_28 
REMARK    8  A    between atoms: C27_28  and  C28_29 
REMARK    9  A    between atoms: C28_29  and  C29_30 
REMARK   10  A    between atoms: C29_30  and  O3_32 
ROOT
HETATM    1  C3  UNL     1      -3.465   6.177  15.203  1.00  0.00     0.045 C 
HETATM    2  C4  UNL     1      -2.576   7.383  15.591  1.00  0.00     0.127 C 
HETATM    3  C5  UNL     1      -1.152   7.202  15.084  1.00  0.00     0.038 C 
HETATM    4  C6  UNL     1      -1.126   7.280  13.556  1.00  0.00     0.006 C 
HETATM    5  C7  UNL     1      -2.036   6.201  12.924  1.00  0.00    -0.027 A 
HETATM    6  C8  UNL     1      -1.377   5.263  11.906  1.00  0.00     0.011 C 
HETATM    7  C9  UNL     1      -0.306   5.861  10.974  1.00  0.00     0.011 C 
HETATM    8  C10 UNL     1       0.212   7.245  11.383  1.00  0.00    -0.032 C 
HETATM    9  C11 UNL     1      -0.748   8.315  10.780  1.00  0.00     0.016 C 
HETATM   10  C12 UNL     1       1.683   7.594  10.971  1.00  0.00    -0.002 C 
HETATM   11  C21 UNL     1       2.054   8.701  11.993  1.00  0.00     0.006 C 
HETATM   12  C22 UNL     1       1.078   8.599  13.176  1.00  0.00     0.011 C 
HETATM   13  C23 UNL     1       0.306   7.286  12.953  1.00  0.00    -0.032 C 
HETATM   14  C24 UNL     1       1.177   6.155  13.586  1.00  0.00     0.016 C 
HETATM   15  C25 UNL     1      -3.454   6.636  12.610  1.00  0.00     0.022 A 
HETATM   16  C26 UNL     1      -3.251   5.669  13.756  1.00  0.00    -0.022 A 
ENDROOT
BRANCH  10  17
HETATM   17  C13 UNL     1       2.014   7.988   9.497  1.00  0.00    -0.014 C 
HETATM   18  C14 UNL     1       0.756   8.443   8.739  1.00  0.00     0.010 C 
BRANCH  17  19
HETATM   19  C15 UNL     1       2.639   6.810   8.694  1.00  0.00     0.008 C 
BRANCH  19  20
HETATM   20  C16 UNL     1       2.170   6.711   7.238  1.00  0.00     0.028 C 
BRANCH  20  21
HETATM   21  C17 UNL     1       2.748   5.495   6.562  1.00  0.00    -0.025 C 
HETATM   22  C18 UNL     1       3.390   4.463   7.142  1.00  0.00    -0.091 C 
HETATM   23  C19 UNL     1       3.945   3.337   6.309  1.00  0.00     0.042 C 
HETATM   24  C20 UNL     1       3.610   4.307   8.621  1.00  0.00     0.042 C 
ENDBRANCH  20  21
ENDBRANCH  19  20
ENDBRANCH  17  19
ENDBRANCH  10  17
BRANCH  16  25
HETATM   25  C27 UNL     1      -3.718   4.214  13.571  1.00  0.00     0.021 C 
BRANCH  25  26
HETATM   26  C28 UNL     1      -4.737   4.031  12.444  1.00  0.00     0.111 C 
BRANCH  26  27
HETATM   27  C29 UNL     1      -4.367   2.872  11.559  1.00  0.00     0.139 C 
HETATM   28  O2  UNL     1      -3.439   2.094  11.697  1.00  0.00    -0.650 OA
BRANCH  27  29
HETATM   29  O3  UNL     1      -5.212   2.748  10.515  1.00  0.00    -0.776 OA
HETATM   30  H46 UNL     1      -4.873   1.970  10.028  1.00  0.00     0.167 HD
ENDBRANCH  27  29
ENDBRANCH  26  27
ENDBRANCH  25  26
ENDBRANCH  16  25
BRANCH   2  31
HETATM   31  O1  UNL     1      -2.500   7.510  17.018  1.00  0.00    -0.395 OA
HETATM   32  H6  UNL     1      -3.414   7.576  17.347  1.00  0.00     0.210 HD
ENDBRANCH   2  31
BRANCH   1  33
HETATM   33  C2  UNL     1      -4.917   6.516  15.503  1.00  0.00    -0.029 C 
HETATM   34  C1  UNL     1      -5.481   7.709  15.277  1.00  0.00     0.007 C 
ENDBRANCH   1  33
TORSDOF 10
ENDMDL
MODEL 2
REMARK minimizedAffinity -8.52536583
REMARK  10 active torsions:
REMARK  status: ('A' for Active; 'I' for Inactive)
REMARK    1  A    between atoms: C2_2  and  C3_3 
REMARK    2  A    between atoms: C4_4  and  O1_5 
REMARK    3  A    between atoms: C12_13  and  C13_14 
REMARK    4  A    between atoms: C13_14  and  C15_16 
REMARK    5  A    between atoms: C15_16  and  C16_17 
REMARK    6  A    between atoms: C16_17  and  C17_18 
REMARK    7  A    between atoms: C26_27  and  C27_28 
REMARK    8  A    between atoms: C27_28  and  C28_29 
REMARK    9  A    between atoms: C28_29  and  C29_30 
REMARK   10  A    between atoms: C29_30  and  O3_32 
ROOT
HETATM    1  C3  UNL     1      -0.368   6.471  11.790  1.00  0.00     0.045 C 
HETATM    2  C4  UNL     1      -0.476   7.788  12.596  1.00  0.00     0.127 C 
HETATM    3  C5  UNL     1      -1.922   8.252  12.702  1.00  0.00     0.038 C 
HETATM    4  C6  UNL     1      -2.718   7.286  13.584  1.00  0.00     0.006 C 
HETATM    5  C7  UNL     1      -2.681   5.848  13.016  1.00  0.00    -0.027 A 
HETATM    6  C8  UNL     1      -4.036   5.180  12.762  1.00  0.00     0.011 C 
HETATM    7  C9  UNL     1      -5.175   5.474  13.756  1.00  0.00     0.011 C 
HETATM    8  C10 UNL     1      -4.921   6.653  14.704  1.00  0.00    -0.032 C 
HETATM    9  C11 UNL     1      -4.135   6.117  15.939  1.00  0.00     0.016 C 
HETATM   10  C12 UNL     1      -6.184   7.433  15.208  1.00  0.00    -0.002 C 
HETATM   11  C21 UNL     1      -5.583   8.810  15.595  1.00  0.00     0.006 C 
HETATM   12  C22 UNL     1      -4.226   8.952  14.885  1.00  0.00     0.011 C 
HETATM   13  C23 UNL     1      -4.160   7.770  13.900  1.00  0.00    -0.032 C 
HETATM   14  C24 UNL     1      -4.880   8.246  12.599  1.00  0.00     0.016 C 
HETATM   15  C25 UNL     1      -1.587   4.952  13.563  1.00  0.00     0.022 A 
HETATM   16  C26 UNL     1      -1.459   5.427  12.132  1.00  0.00    -0.022 A 
ENDROOT
BRANCH  10  17
HETATM   17  C13 UNL     1      -7.089   6.826  16.326  1.00  0.00    -0.014 C 
HETATM   18  C14 UNL     1      -7.498   5.382  15.998  1.00  0.00     0.010 C 
BRANCH  17  19
HETATM   19  C15 UNL     1      -8.397   7.643  16.537  1.00  0.00     0.008 C 
BRANCH  19  20
HETATM   20  C16 UNL     1      -8.821   8.492  15.333  1.00  0.00     0.028 C 
BRANCH  20  21
HETATM   21  C17 UNL     1     -10.202   8.118  14.862  1.00  0.00    -0.025 C 
HETATM   22  C18 UNL     1     -10.528   7.208  13.924  1.00  0.00    -0.091 C 
HETATM   23  C19 UNL     1     -11.967   6.983  13.539  1.00  0.00     0.042 C 
HETATM   24  C20 UNL     1      -9.546   6.337  13.190  1.00  0.00     0.042 C 
ENDBRANCH  20  21
ENDBRANCH  19  20
ENDBRANCH  17  19
ENDBRANCH  10  17
BRANCH  16  25
HETATM   25  C27 UNL     1      -1.658   4.398  11.004  1.00  0.00     0.021 C 
BRANCH  25  26
HETATM   26  C28 UNL     1      -2.040   3.002  11.502  1.00  0.00     0.111 C 
BRANCH  26  27
HETATM   27  C29 UNL     1      -1.048   1.970  11.040  1.00  0.00     0.139 C 
HETATM   28  O2  UNL     1       0.167   2.065  11.006  1.00  0.00    -0.650 OA
BRANCH  27  29
HETATM   29  O3  UNL     1      -1.655   0.837  10.632  1.00  0.00    -0.776 OA
HETATM   30  H46 UNL     1      -0.915   0.254  10.367  1.00  0.00     0.167 HD
ENDBRANCH  27  29
ENDBRANCH  26  27
ENDBRANCH  25  26
ENDBRANCH  16  25
BRANCH   2  31
HETATM   31  O1  UNL     1       0.253   8.836  11.941  1.00  0.00    -0.395 OA
HETATM   32  H6  UNL     1       1.167   8.520  11.829  1.00  0.00     0.210 HD
ENDBRANCH   2  31
BRANCH   1  33
HETATM   33  C2  UNL     1       1.043   5.920  11.928  1.00  0.00    -0.029 C 
HETATM   34  C1  UNL     1       1.949   5.896  10.942  1.00  0.00     0.007 C 
ENDBRANCH   1  33
TORSDOF 10
ENDMDL
MODEL 3
REMARK minimizedAffinity -8.44208336
REMARK  10 active torsions:
REMARK  status: ('A' for Active; 'I' for Inactive)
REMARK    1  A    between atoms: C2_2  and  C3_3 
REMARK    2  A    between atoms: C4_4  and  O1_5 
REMARK    3  A    between atoms: C12_13  and  C13_14 
REMARK    4  A    between atoms: C13_14  and  C15_16 
REMARK    5  A    between atoms: C15_16  and  C16_17 
REMARK    6  A    between atoms: C16_17  and  C17_18 
REMARK    7  A    between atoms: C26_27  and  C27_28 
REMARK    8  A    between atoms: C27_28  and  C28_29 
REMARK    9  A    between atoms: C28_29  and  C29_30 
REMARK   10  A    between atoms: C29_30  and  O3_32 
ROOT
HETATM    1  C3  UNL     1      -4.239   3.356  12.100  1.00  0.00     0.045 C 
HETATM    2  C4  UNL     1      -4.513   4.773  12.658  1.00  0.00     0.127 C 
HETATM    3  C5  UNL     1      -3.317   5.297  13.442  1.00  0.00     0.038 C 
HETATM    4  C6  UNL     1      -2.146   5.562  12.493  1.00  0.00     0.006 C 
HETATM    5  C7  UNL     1      -1.739   4.279  11.732  1.00  0.00    -0.027 A 
HETATM    6  C8  UNL     1      -0.270   3.855  11.846  1.00  0.00     0.011 C 
HETATM    7  C9  UNL     1       0.793   4.969  11.890  1.00  0.00     0.011 C 
HETATM    8  C10 UNL     1       0.246   6.380  12.141  1.00  0.00    -0.032 C 
HETATM    9  C11 UNL     1      -0.169   6.986  10.765  1.00  0.00     0.016 C 
HETATM   10  C12 UNL     1       1.202   7.384  12.869  1.00  0.00    -0.002 C 
HETATM   11  C21 UNL     1       0.203   8.409  13.467  1.00  0.00     0.006 C 
HETATM   12  C22 UNL     1      -1.185   7.748  13.511  1.00  0.00     0.011 C 
HETATM   13  C23 UNL     1      -0.939   6.268  13.170  1.00  0.00    -0.032 C 
HETATM   14  C24 UNL     1      -0.572   5.565  14.515  1.00  0.00     0.016 C 
HETATM   15  C25 UNL     1      -2.386   4.083  10.375  1.00  0.00     0.022 A 
HETATM   16  C26 UNL     1      -2.823   3.173  11.502  1.00  0.00    -0.022 A 
ENDROOT
BRANCH  10  17
HETATM   17  C13 UNL     1       2.375   8.059  12.090  1.00  0.00    -0.014 C 
HETATM   18  C14 UNL     1       2.667   9.471  12.623  1.00  0.00     0.010 C 
BRANCH  17  19
HETATM   19  C15 UNL     1       2.078   8.190  10.568  1.00  0.00     0.008 C 
BRANCH  19  20
HETATM   20  C16 UNL     1       3.293   7.973   9.659  1.00  0.00     0.028 C 
BRANCH  20  21
HETATM   21  C17 UNL     1       4.275   7.015  10.282  1.00  0.00    -0.025 C 
HETATM   22  C18 UNL     1       5.511   7.292  10.739  1.00  0.00    -0.091 C 
HETATM   23  C19 UNL     1       6.386   6.201  11.301  1.00  0.00     0.042 C 
HETATM   24  C20 UNL     1       6.136   8.660  10.759  1.00  0.00     0.042 C 
ENDBRANCH  20  21
ENDBRANCH  19  20
ENDBRANCH  17  19
ENDBRANCH  10  17
BRANCH  16  25
HETATM   25  C27 UNL     1      -2.397   1.694  11.448  1.00  0.00     0.021 C 
BRANCH  25  26
HETATM   26  C28 UNL     1      -0.882   1.485  11.478  1.00  0.00     0.111 C 
BRANCH  26  27
HETATM   27  C29 UNL     1      -0.450   0.477  10.449  1.00  0.00     0.139 C 
HETATM   28  O2  UNL     1      -0.712   0.468   9.258  1.00  0.00    -0.650 OA
BRANCH  27  29
HETATM   29  O3  UNL     1       0.312  -0.496  10.988  1.00  0.00    -0.776 OA
HETATM   30  H46 UNL     1       0.528  -1.075  10.228  1.00  0.00     0.167 HD
ENDBRANCH  27  29
ENDBRANCH  26  27
ENDBRANCH  25  26
ENDBRANCH  16  25
BRANCH   2  31
HETATM   31  O1  UNL     1      -5.627   4.747  13.562  1.00  0.00    -0.395 OA
HETATM   32  H6  UNL     1      -6.379   4.366  13.076  1.00  0.00     0.210 HD
ENDBRANCH   2  31
BRANCH   1  33
HETATM   33  C2  UNL     1      -5.346   2.986  11.125  1.00  0.00    -0.029 C 
HETATM   34  C1  UNL     1      -6.113   1.892  11.225  1.00  0.00     0.007 C 
ENDBRANCH   1  33
TORSDOF 10
ENDMDL
MODEL 4
REMARK minimizedAffinity -8.34630966
REMARK  10 active torsions:
REMARK  status: ('A' for Active; 'I' for Inactive)
REMARK    1  A    between atoms: C2_2  and  C3_3 
REMARK    2  A    between atoms: C4_4  and  O1_5 
REMARK    3  A    between atoms: C12_13  and  C13_14 
REMARK    4  A    between atoms: C13_14  and  C15_16 
REMARK    5  A    between atoms: C15_16  and  C16_17 
REMARK    6  A    between atoms: C16_17  and  C17_18 
REMARK    7  A    between atoms: C26_27  and  C27_28 
REMARK    8  A    between atoms: C27_28  and  C28_29 
REMARK    9  A    between atoms: C28_29  and  C29_30 
REMARK   10  A    between atoms: C29_30  and  O3_32 
ROOT
HETATM    1  C3  UNL     1       0.509   7.135  11.952  1.00  0.00     0.045 C 
HETATM    2  C4  UNL     1      -0.459   6.137  11.272  1.00  0.00     0.127 C 
HETATM    3  C5  UNL     1      -1.413   5.517  12.284  1.00  0.00     0.038 C 
HETATM    4  C6  UNL     1      -2.384   6.579  12.806  1.00  0.00     0.006 C 
HETATM    5  C7  UNL     1      -1.627   7.755  13.467  1.00  0.00    -0.027 A 
HETATM    6  C8  UNL     1      -2.024   8.098  14.907  1.00  0.00     0.011 C 
HETATM    7  C9  UNL     1      -3.509   7.962  15.290  1.00  0.00     0.011 C 
HETATM    8  C10 UNL     1      -4.372   7.192  14.283  1.00  0.00    -0.032 C 
HETATM    9  C11 UNL     1      -4.861   8.201  13.199  1.00  0.00     0.016 C 
HETATM   10  C12 UNL     1      -5.613   6.429  14.861  1.00  0.00    -0.002 C 
HETATM   11  C21 UNL     1      -5.866   5.350  13.775  1.00  0.00     0.006 C 
HETATM   12  C22 UNL     1      -4.578   5.199  12.948  1.00  0.00     0.011 C 
HETATM   13  C23 UNL     1      -3.512   6.008  13.708  1.00  0.00    -0.032 C 
HETATM   14  C24 UNL     1      -2.921   5.045  14.786  1.00  0.00     0.016 C 
HETATM   15  C25 UNL     1      -1.318   8.932  12.562  1.00  0.00     0.022 A 
HETATM   16  C26 UNL     1      -0.164   8.057  12.999  1.00  0.00    -0.022 A 
ENDROOT
BRANCH  10  17
HETATM   17  C13 UNL     1      -6.904   7.212  15.255  1.00  0.00    -0.014 C 
HETATM   18  C14 UNL     1      -7.284   6.971  16.725  1.00  0.00     0.010 C 
BRANCH  17  19
HETATM   19  C15 UNL     1      -8.131   6.808  14.387  1.00  0.00     0.008 C 
BRANCH  19  20
HETATM   20  C16 UNL     1      -9.355   7.717  14.547  1.00  0.00     0.028 C 
BRANCH  20  21
HETATM   21  C17 UNL     1     -10.619   6.911  14.684  1.00  0.00    -0.025 C 
HETATM   22  C18 UNL     1     -11.767   7.065  13.995  1.00  0.00    -0.091 C 
HETATM   23  C19 UNL     1     -12.960   6.192  14.285  1.00  0.00     0.042 C 
HETATM   24  C20 UNL     1     -11.983   8.067  12.895  1.00  0.00     0.042 C 
ENDBRANCH  20  21
ENDBRANCH  19  20
ENDBRANCH  17  19
ENDBRANCH  10  17
BRANCH  16  25
HETATM   25  C27 UNL     1       0.848   8.638  14.004  1.00  0.00     0.021 C 
BRANCH  25  26
HETATM   26  C28 UNL     1       2.042   7.721  14.277  1.00  0.00     0.111 C 
BRANCH  26  27
HETATM   27  C29 UNL     1       2.295   7.582  15.754  1.00  0.00     0.139 C 
HETATM   28  O2  UNL     1       1.744   8.177  16.664  1.00  0.00    -0.650 OA
BRANCH  27  29
HETATM   29  O3  UNL     1       3.256   6.674  16.016  1.00  0.00    -0.776 OA
HETATM   30  H46 UNL     1       3.321   6.673  16.993  1.00  0.00     0.167 HD
ENDBRANCH  27  29
ENDBRANCH  26  27
ENDBRANCH  25  26
ENDBRANCH  16  25
BRANCH   2  31
HETATM   31  O1  UNL     1       0.275   5.059  10.674  1.00  0.00    -0.395 OA
HETATM   32  H6  UNL     1       0.919   5.458  10.063  1.00  0.00     0.210 HD
ENDBRANCH   2  31
BRANCH   1  33
HETATM   33  C2  UNL     1       1.259   7.907  10.879  1.00  0.00    -0.029 C 
HETATM   34  C1  UNL     1       0.754   8.229   9.681  1.00  0.00     0.007 C 
ENDBRANCH   1  33
TORSDOF 10
ENDMDL
MODEL 5
REMARK minimizedAffinity -8.21543503
REMARK  10 active torsions:
REMARK  status: ('A' for Active; 'I' for Inactive)
REMARK    1  A    between atoms: C2_2  and  C3_3 
REMARK    2  A    between atoms: C4_4  and  O1_5 
REMARK    3  A    between atoms: C12_13  and  C13_14 
REMARK    4  A    between atoms: C13_14  and  C15_16 
REMARK    5  A    between atoms: C15_16  and  C16_17 
REMARK    6  A    between atoms: C16_17  and  C17_18 
REMARK    7  A    between atoms: C26_27  and  C27_28 
REMARK    8  A    between atoms: C27_28  and  C28_29 
REMARK    9  A    between atoms: C28_29  and  C29_30 
REMARK   10  A    between atoms: C29_30  and  O3_32 
ROOT
HETATM    1  C3  UNL     1       3.819   8.221  11.035  1.00  0.00     0.045 C 
HETATM    2  C4  UNL     1       3.376   8.921  12.342  1.00  0.00     0.127 C 
HETATM    3  C5  UNL     1       1.869   9.140  12.366  1.00  0.00     0.038 C 
HETATM    4  C6  UNL     1       1.146   7.795  12.477  1.00  0.00     0.006 C 
HETATM    5  C7  UNL     1       1.511   6.863  11.298  1.00  0.00    -0.027 A 
HETATM    6  C8  UNL     1       0.339   6.309  10.479  1.00  0.00     0.011 C 
HETATM    7  C9  UNL     1      -0.955   5.953  11.234  1.00  0.00     0.011 C 
HETATM    8  C10 UNL     1      -1.040   6.493  12.667  1.00  0.00    -0.032 C 
HETATM    9  C11 UNL     1      -0.341   5.466  13.610  1.00  0.00     0.016 C 
HETATM   10  C12 UNL     1      -2.475   6.792  13.221  1.00  0.00    -0.002 C 
HETATM   11  C21 UNL     1      -2.182   7.819  14.347  1.00  0.00     0.006 C 
HETATM   12  C22 UNL     1      -0.790   8.419  14.090  1.00  0.00     0.011 C 
HETATM   13  C23 UNL     1      -0.387   7.924  12.689  1.00  0.00    -0.032 C 
HETATM   14  C24 UNL     1      -1.002   8.939  11.674  1.00  0.00     0.016 C 
HETATM   15  C25 UNL     1       2.664   5.909  11.543  1.00  0.00     0.022 A 
HETATM   16  C26 UNL     1       2.893   7.062  10.590  1.00  0.00    -0.022 A 
ENDROOT
BRANCH  10  17
HETATM   17  C13 UNL     1      -3.398   5.623  13.686  1.00  0.00    -0.014 C 
HETATM   18  C14 UNL     1      -3.135   5.245  15.152  1.00  0.00     0.010 C 
BRANCH  17  19
HETATM   19  C15 UNL     1      -3.200   4.336  12.833  1.00  0.00     0.008 C 
BRANCH  19  20
HETATM   20  C16 UNL     1      -4.489   3.560  12.540  1.00  0.00     0.028 C 
BRANCH  20  21
HETATM   21  C17 UNL     1      -5.685   4.476  12.523  1.00  0.00    -0.025 C 
HETATM   22  C18 UNL     1      -6.972   4.146  12.744  1.00  0.00    -0.091 C 
HETATM   23  C19 UNL     1      -8.059   5.184  12.650  1.00  0.00     0.042 C 
HETATM   24  C20 UNL     1      -7.457   2.770  13.111  1.00  0.00     0.042 C 
ENDBRANCH  20  21
ENDBRANCH  19  20
ENDBRANCH  17  19
ENDBRANCH  10  17
BRANCH  16  25
HETATM   25  C27 UNL     1       3.028   6.748   9.089  1.00  0.00     0.021 C 
BRANCH  25  26
HETATM   26  C28 UNL     1       2.753   7.947   8.179  1.00  0.00     0.111 C 
BRANCH  26  27
HETATM   27  C29 UNL     1       1.605   7.671   7.247  1.00  0.00     0.139 C 
HETATM   28  O2  UNL     1       1.626   7.038   6.206  1.00  0.00    -0.650 OA
BRANCH  27  29
HETATM   29  O3  UNL     1       0.457   8.223   7.687  1.00  0.00    -0.776 OA
HETATM   30  H46 UNL     1      -0.202   7.972   7.008  1.00  0.00     0.167 HD
ENDBRANCH  27  29
ENDBRANCH  26  27
ENDBRANCH  25  26
ENDBRANCH  16  25
BRANCH   2  31
HETATM   31  O1  UNL     1       3.989  10.213  12.449  1.00  0.00    -0.395 OA
HETATM   32  H6  UNL     1       4.950  10.079  12.384  1.00  0.00     0.210 HD
ENDBRANCH   2  31
BRANCH   1  33
HETATM   33  C2  UNL     1       5.274   7.799  11.167  1.00  0.00    -0.029 C 
HETATM   34  C1  UNL     1       5.705   6.532  11.118  1.00  0.00     0.007 C 
ENDBRANCH   1  33
TORSDOF 10
ENDMDL
MODEL 6
REMARK minimizedAffinity -8.17080021
REMARK  10 active torsions:
REMARK  status: ('A' for Active; 'I' for Inactive)
REMARK    1  A    between atoms: C2_2  and  C3_3 
REMARK    2  A    between atoms: C4_4  and  O1_5 
REMARK    3  A    between atoms: C12_13  and  C13_14 
REMARK    4  A    between atoms: C13_14  and  C15_16 
REMARK    5  A    between atoms: C15_16  and  C16_17 
REMARK    6  A    between atoms: C16_17  and  C17_18 
REMARK    7  A    between atoms: C26_27  and  C27_28 
REMARK    8  A    between atoms: C27_28  and  C28_29 
REMARK    9  A    between atoms: C28_29  and  C29_30 
REMARK   10  A    between atoms: C29_30  and  O3_32 
ROOT
HETATM    1  C3  UNL     1       0.586   7.632  13.405  1.00  0.00     0.045 C 
HETATM    2  C4  UNL     1      -0.076   8.786  14.196  1.00  0.00     0.127 C 
HETATM    3  C5  UNL     1      -1.519   8.997  13.758  1.00  0.00     0.038 C 
HETATM    4  C6  UNL     1      -2.375   7.801  14.185  1.00  0.00     0.006 C 
HETATM    5  C7  UNL     1      -1.842   6.484  13.576  1.00  0.00    -0.027 A 
HETATM    6  C8  UNL     1      -2.841   5.654  12.762  1.00  0.00     0.011 C 
HETATM    7  C9  UNL     1      -4.303   5.620  13.247  1.00  0.00     0.011 C 
HETATM    8  C10 UNL     1      -4.662   6.676  14.300  1.00  0.00    -0.032 C 
HETATM    9  C11 UNL     1      -4.302   6.097  15.703  1.00  0.00     0.016 C 
HETATM   10  C12 UNL     1      -6.150   7.167  14.322  1.00  0.00    -0.002 C 
HETATM   11  C21 UNL     1      -6.026   8.551  15.012  1.00  0.00     0.006 C 
HETATM   12  C22 UNL     1      -4.561   9.005  14.904  1.00  0.00     0.011 C 
HETATM   13  C23 UNL     1      -3.897   8.002  13.943  1.00  0.00    -0.032 C 
HETATM   14  C24 UNL     1      -4.160   8.541  12.501  1.00  0.00     0.016 C 
HETATM   15  C25 UNL     1      -0.874   5.701  14.442  1.00  0.00     0.022 A 
HETATM   16  C26 UNL     1      -0.321   6.391  13.215  1.00  0.00    -0.022 A 
ENDROOT
BRANCH  10  17
HETATM   17  C13 UNL     1      -7.265   6.271  14.948  1.00  0.00    -0.014 C 
HETATM   18  C14 UNL     1      -7.243   6.334  16.483  1.00  0.00     0.010 C 
BRANCH  17  19
HETATM   19  C15 UNL     1      -7.120   4.775  14.543  1.00  0.00     0.008 C 
BRANCH  19  20
HETATM   20  C16 UNL     1      -7.403   4.483  13.065  1.00  0.00     0.028 C 
BRANCH  20  21
HETATM   21  C17 UNL     1      -7.059   3.060  12.714  1.00  0.00    -0.025 C 
HETATM   22  C18 UNL     1      -6.247   2.634  11.727  1.00  0.00    -0.091 C 
HETATM   23  C19 UNL     1      -6.040   1.161  11.485  1.00  0.00     0.042 C 
HETATM   24  C20 UNL     1      -5.473   3.530  10.801  1.00  0.00     0.042 C 
ENDBRANCH  20  21
ENDBRANCH  19  20
ENDBRANCH  17  19
ENDBRANCH  10  17
BRANCH  16  25
HETATM   25  C27 UNL     1       0.125   5.517  12.029  1.00  0.00     0.021 C 
BRANCH  25  26
HETATM   26  C28 UNL     1      -1.006   4.696  11.407  1.00  0.00     0.111 C 
BRANCH  26  27
HETATM   27  C29 UNL     1      -0.684   3.226  11.420  1.00  0.00     0.139 C 
HETATM   28  O2  UNL     1       0.415   2.703  11.356  1.00  0.00    -0.650 OA
BRANCH  27  29
HETATM   29  O3  UNL     1      -1.795   2.469  11.516  1.00  0.00    -0.776 OA
HETATM   30  H46 UNL     1      -1.456   1.551  11.520  1.00  0.00     0.167 HD
ENDBRANCH  27  29
ENDBRANCH  26  27
ENDBRANCH  25  26
ENDBRANCH  16  25
BRANCH   2  31
HETATM   31  O1  UNL     1       0.618  10.018  13.956  1.00  0.00    -0.395 OA
HETATM   32  H6  UNL     1       1.551   9.869  14.190  1.00  0.00     0.210 HD
ENDBRANCH   2  31
BRANCH   1  33
HETATM   33  C2  UNL     1       1.923   7.296  14.046  1.00  0.00    -0.029 C 
HETATM   34  C1  UNL     1       2.197   7.435  15.350  1.00  0.00     0.007 C 
ENDBRANCH   1  33
TORSDOF 10
ENDMDL
MODEL 7
REMARK minimizedAffinity -8.12100315
REMARK  10 active torsions:
REMARK  status: ('A' for Active; 'I' for Inactive)
REMARK    1  A    between atoms: C2_2  and  C3_3 
REMARK    2  A    between atoms: C4_4  and  O1_5 
REMARK    3  A    between atoms: C12_13  and  C13_14 
REMARK    4  A    between atoms: C13_14  and  C15_16 
REMARK    5  A    between atoms: C15_16  and  C16_17 
REMARK    6  A    between atoms: C16_17  and  C17_18 
REMARK    7  A    between atoms: C26_27  and  C27_28 
REMARK    8  A    between atoms: C27_28  and  C28_29 
REMARK    9  A    between atoms: C28_29  and  C29_30 
REMARK   10  A    between atoms: C29_30  and  O3_32 
ROOT
HETATM    1  C3  UNL     1       3.081   6.774  11.463  1.00  0.00     0.045 C 
HETATM    2  C4  UNL     1       2.043   5.783  10.882  1.00  0.00     0.127 C 
HETATM    3  C5  UNL     1       1.006   5.396  11.927  1.00  0.00     0.038 C 
HETATM    4  C6  UNL     1       0.125   6.602  12.262  1.00  0.00     0.006 C 
HETATM    5  C7  UNL     1       0.971   7.784  12.792  1.00  0.00    -0.027 A 
HETATM    6  C8  UNL     1       0.567   8.355  14.156  1.00  0.00     0.011 C 
HETATM    7  C9  UNL     1      -0.935   8.407  14.492  1.00  0.00     0.011 C 
HETATM    8  C10 UNL     1      -1.838   7.587  13.562  1.00  0.00    -0.032 C 
HETATM    9  C11 UNL     1      -2.197   8.478  12.334  1.00  0.00     0.016 C 
HETATM   10  C12 UNL     1      -3.161   7.025  14.184  1.00  0.00    -0.002 C 
HETATM   11  C21 UNL     1      -3.484   5.834  13.242  1.00  0.00     0.006 C 
HETATM   12  C22 UNL     1      -2.193   5.457  12.497  1.00  0.00     0.011 C 
HETATM   13  C23 UNL     1      -1.077   6.263  13.186  1.00  0.00    -0.032 C 
HETATM   14  C24 UNL     1      -0.611   5.407  14.406  1.00  0.00     0.016 C 
HETATM   15  C25 UNL     1       1.416   8.794  11.751  1.00  0.00     0.022 A 
HETATM   16  C26 UNL     1       2.469   7.887  12.349  1.00  0.00    -0.022 A 
ENDROOT
BRANCH  10  17
HETATM   17  C13 UNL     1      -4.383   7.967  14.417  1.00  0.00    -0.014 C 
HETATM   18  C14 UNL     1      -4.020   9.147  15.333  1.00  0.00     0.010 C 
BRANCH  17  19
HETATM   19  C15 UNL     1      -5.587   7.227  15.070  1.00  0.00     0.008 C 
BRANCH  19  20
HETATM   20  C16 UNL     1      -6.765   6.965  14.124  1.00  0.00     0.028 C 
BRANCH  20  21
HETATM   21  C17 UNL     1      -6.999   5.489  13.940  1.00  0.00    -0.025 C 
HETATM   22  C18 UNL     1      -7.793   4.893  13.029  1.00  0.00    -0.091 C 
HETATM   23  C19 UNL     1      -7.947   3.395  13.007  1.00  0.00     0.042 C 
HETATM   24  C20 UNL     1      -8.573   5.613  11.964  1.00  0.00     0.042 C 
ENDBRANCH  20  21
ENDBRANCH  19  20
ENDBRANCH  17  19
ENDBRANCH  10  17
BRANCH  16  25
HETATM   25  C27 UNL     1       3.502   8.506  13.308  1.00  0.00     0.021 C 
BRANCH  25  26
HETATM   26  C28 UNL     1       4.881   7.846  13.241  1.00  0.00     0.111 C 
BRANCH  26  27
HETATM   27  C29 UNL     1       5.468   7.670  14.615  1.00  0.00     0.139 C 
HETATM   28  O2  UNL     1       5.344   8.405  15.579  1.00  0.00    -0.650 OA
BRANCH  27  29
HETATM   29  O3  UNL     1       6.203   6.543  14.706  1.00  0.00    -0.776 OA
HETATM   30  H46 UNL     1       6.519   6.541  15.633  1.00  0.00     0.167 HD
ENDBRANCH  27  29
ENDBRANCH  26  27
ENDBRANCH  25  26
ENDBRANCH  16  25
BRANCH   2  31
HETATM   31  O1  UNL     1       2.689   4.572  10.464  1.00  0.00    -0.395 OA
HETATM   32  H6  UNL     1       3.385   4.824   9.832  1.00  0.00     0.210 HD
ENDBRANCH   2  31
BRANCH   1  33
HETATM   33  C2  UNL     1       3.932   7.321  10.328  1.00  0.00    -0.029 C 
HETATM   34  C1  UNL     1       3.465   7.640   9.113  1.00  0.00     0.007 C 
ENDBRANCH   1  33
TORSDOF 10
ENDMDL
MODEL 8
REMARK minimizedAffinity -8.09388828
REMARK  10 active torsions:
REMARK  status: ('A' for Active; 'I' for Inactive)
REMARK    1  A    between atoms: C2_2  and  C3_3 
REMARK    2  A    between atoms: C4_4  and  O1_5 
REMARK    3  A    between atoms: C12_13  and  C13_14 
REMARK    4  A    between atoms: C13_14  and  C15_16 
REMARK    5  A    between atoms: C15_16  and  C16_17 
REMARK    6  A    between atoms: C16_17  and  C17_18 
REMARK    7  A    between atoms: C26_27  and  C27_28 
REMARK    8  A    between atoms: C27_28  and  C28_29 
REMARK    9  A    between atoms: C28_29  and  C29_30 
REMARK   10  A    between atoms: C29_30  and  O3_32 
ROOT
HETATM    1  C3  UNL     1      -7.535   6.396  15.018  1.00  0.00     0.045 C 
HETATM    2  C4  UNL     1      -6.732   7.154  16.101  1.00  0.00     0.127 C 
HETATM    3  C5  UNL     1      -5.290   6.667  16.160  1.00  0.00     0.038 C 
HETATM    4  C6  UNL     1      -4.548   7.075  14.885  1.00  0.00     0.006 C 
HETATM    5  C7  UNL     1      -5.234   6.496  13.626  1.00  0.00    -0.027 A 
HETATM    6  C8  UNL     1      -4.354   5.657  12.694  1.00  0.00     0.011 C 
HETATM    7  C9  UNL     1      -2.888   6.093  12.512  1.00  0.00     0.011 C 
HETATM    8  C10 UNL     1      -2.386   7.124  13.530  1.00  0.00    -0.032 C 
HETATM    9  C11 UNL     1      -2.756   8.543  12.999  1.00  0.00     0.016 C 
HETATM   10  C12 UNL     1      -0.856   7.093  13.865  1.00  0.00    -0.002 C 
HETATM   11  C21 UNL     1      -0.814   7.774  15.259  1.00  0.00     0.006 C 
HETATM   12  C22 UNL     1      -2.227   7.711  15.860  1.00  0.00     0.011 C 
HETATM   13  C23 UNL     1      -3.023   6.781  14.927  1.00  0.00    -0.032 C 
HETATM   14  C24 UNL     1      -2.755   5.327  15.428  1.00  0.00     0.016 C 
HETATM   15  C25 UNL     1      -6.247   7.401  12.952  1.00  0.00     0.022 A 
HETATM   16  C26 UNL     1      -6.768   6.187  13.689  1.00  0.00    -0.022 A 
ENDROOT
BRANCH  10  17
HETATM   17  C13 UNL     1       0.181   7.689  12.863  1.00  0.00    -0.014 C 
HETATM   18  C14 UNL     1       0.712   9.049  13.342  1.00  0.00     0.010 C 
BRANCH  17  19
HETATM   19  C15 UNL     1      -0.421   7.901  11.443  1.00  0.00     0.008 C 
BRANCH  19  20
HETATM   20  C16 UNL     1       0.183   7.006  10.354  1.00  0.00     0.028 C 
BRANCH  20  21
HETATM   21  C17 UNL     1       0.975   7.815   9.361  1.00  0.00    -0.025 C 
HETATM   22  C18 UNL     1       2.142   7.480   8.777  1.00  0.00    -0.091 C 
HETATM   23  C19 UNL     1       2.826   8.429   7.828  1.00  0.00     0.042 C 
HETATM   24  C20 UNL     1       2.863   6.176   8.979  1.00  0.00     0.042 C 
ENDBRANCH  20  21
ENDBRANCH  19  20
ENDBRANCH  17  19
ENDBRANCH  10  17
BRANCH  16  25
HETATM   25  C27 UNL     1      -7.341   5.023  12.859  1.00  0.00     0.021 C 
BRANCH  25  26
HETATM   26  C28 UNL     1      -7.291   3.671  13.573  1.00  0.00     0.111 C 
BRANCH  26  27
HETATM   27  C29 UNL     1      -7.115   2.544  12.592  1.00  0.00     0.139 C 
HETATM   28  O2  UNL     1      -6.157   2.326  11.871  1.00  0.00    -0.650 OA
BRANCH  27  29
HETATM   29  O3  UNL     1      -8.186   1.725  12.571  1.00  0.00    -0.776 OA
HETATM   30  H46 UNL     1      -7.949   1.043  11.910  1.00  0.00     0.167 HD
ENDBRANCH  27  29
ENDBRANCH  26  27
ENDBRANCH  25  26
ENDBRANCH  16  25
BRANCH   2  31
HETATM   31  O1  UNL     1      -7.303   6.927  17.398  1.00  0.00    -0.395 OA
HETATM   32  H6  UNL     1      -8.238   7.193  17.347  1.00  0.00     0.210 HD
ENDBRANCH   2  31
BRANCH   1  33
HETATM   33  C2  UNL     1      -8.877   7.084  14.825  1.00  0.00    -0.029 C 
HETATM   34  C1  UNL     1      -9.091   8.395  14.996  1.00  0.00     0.007 C 
ENDBRANCH   1  33
TORSDOF 10
ENDMDL
MODEL 9
REMARK minimizedAffinity -8.00269318
REMARK  10 active torsions:
REMARK  status: ('A' for Active; 'I' for Inactive)
REMARK    1  A    between atoms: C2_2  and  C3_3 
REMARK    2  A    between atoms: C4_4  and  O1_5 
REMARK    3  A    between atoms: C12_13  and  C13_14 
REMARK    4  A    between atoms: C13_14  and  C15_16 
REMARK    5  A    between atoms: C15_16  and  C16_17 
REMARK    6  A    between atoms: C16_17  and  C17_18 
REMARK    7  A    between atoms: C26_27  and  C27_28 
REMARK    8  A    between atoms: C27_28  and  C28_29 
REMARK    9  A    between atoms: C28_29  and  C29_30 
REMARK   10  A    between atoms: C29_30  and  O3_32 
ROOT
HETATM    1  C3  UNL     1       2.366   7.453  11.585  1.00  0.00     0.045 C 
HETATM    2  C4  UNL     1       2.295   6.964  13.051  1.00  0.00     0.127 C 
HETATM    3  C5  UNL     1       1.280   7.768  13.852  1.00  0.00     0.038 C 
HETATM    4  C6  UNL     1      -0.136   7.462  13.358  1.00  0.00     0.006 C 
HETATM    5  C7  UNL     1      -0.290   7.793  11.855  1.00  0.00    -0.027 A 
HETATM    6  C8  UNL     1      -1.425   8.752  11.480  1.00  0.00     0.011 C 
HETATM    7  C9  UNL     1      -2.739   8.649  12.278  1.00  0.00     0.011 C 
HETATM    8  C10 UNL     1      -2.654   7.822  13.567  1.00  0.00    -0.032 C 
HETATM    9  C11 UNL     1      -2.894   6.327  13.195  1.00  0.00     0.016 C 
HETATM   10  C12 UNL     1      -3.634   8.221  14.722  1.00  0.00    -0.002 C 
HETATM   11  C21 UNL     1      -2.911   7.653  15.972  1.00  0.00     0.006 C 
HETATM   12  C22 UNL     1      -1.435   7.430  15.606  1.00  0.00     0.011 C 
HETATM   13  C23 UNL     1      -1.254   8.097  14.230  1.00  0.00    -0.032 C 
HETATM   14  C24 UNL     1      -0.947   9.601  14.512  1.00  0.00     0.016 C 
HETATM   15  C25 UNL     1      -0.045   6.642  10.898  1.00  0.00     0.022 A 
HETATM   16  C26 UNL     1       0.986   7.749  10.948  1.00  0.00    -0.022 A 
ENDROOT
BRANCH  10  17
HETATM   17  C13 UNL     1      -5.140   7.815  14.651  1.00  0.00    -0.014 C 
HETATM   18  C14 UNL     1      -6.041   8.877  15.301  1.00  0.00     0.010 C 
BRANCH  17  19
HETATM   19  C15 UNL     1      -5.424   6.464  15.368  1.00  0.00     0.008 C 
BRANCH  19  20
HETATM   20  C16 UNL     1      -6.514   5.609  14.711  1.00  0.00     0.028 C 
BRANCH  20  21
HETATM   21  C17 UNL     1      -6.012   4.964  13.446  1.00  0.00    -0.025 C 
HETATM   22  C18 UNL     1      -6.442   3.817  12.886  1.00  0.00    -0.091 C 
HETATM   23  C19 UNL     1      -5.800   3.287  11.631  1.00  0.00     0.042 C 
HETATM   24  C20 UNL     1      -7.571   2.973  13.410  1.00  0.00     0.042 C 
ENDBRANCH  20  21
ENDBRANCH  19  20
ENDBRANCH  17  19
ENDBRANCH  10  17
BRANCH  16  25
HETATM   25  C27 UNL     1       1.090   8.699   9.741  1.00  0.00     0.021 C 
BRANCH  25  26
HETATM   26  C28 UNL     1       0.808   8.024   8.397  1.00  0.00     0.111 C 
BRANCH  26  27
HETATM   27  C29 UNL     1       2.064   7.893   7.579  1.00  0.00     0.139 C 
HETATM   28  O2  UNL     1       2.946   8.721   7.429  1.00  0.00    -0.650 OA
BRANCH  27  29
HETATM   29  O3  UNL     1       2.146   6.691   6.974  1.00  0.00    -0.776 OA
HETATM   30  H46 UNL     1       2.994   6.729   6.487  1.00  0.00     0.167 HD
ENDBRANCH  27  29
ENDBRANCH  26  27
ENDBRANCH  25  26
ENDBRANCH  16  25
BRANCH   2  31
HETATM   31  O1  UNL     1       3.566   7.134  13.696  1.00  0.00    -0.395 OA
HETATM   32  H6  UNL     1       4.224   6.660  13.157  1.00  0.00     0.210 HD
ENDBRANCH   2  31
BRANCH   1  33
HETATM   33  C2  UNL     1       3.193   6.468  10.774  1.00  0.00    -0.029 C 
HETATM   34  C1  UNL     1       2.768   5.258  10.384  1.00  0.00     0.007 C 
ENDBRANCH   1  33
TORSDOF 10
ENDMDL
