MODEL 1
REMARK minimizedAffinity -8.96869373
REMARK CNNscore 0.765515566
REMARK CNNaffinity 7.42526007
REMARK  12 active torsions:
REMARK  status: ('A' for Active; 'I' for Inactive)
REMARK    1  A    between atoms: O1_2  and  C2_3 
REMARK    2  A    between atoms: C4_5  and  O2_6 
REMARK    3  A    between atoms: O2_6  and  C5_7 
REMARK    4  A    between atoms: C8_10  and  C9_11 
REMARK    5  A    between atoms: N1_12  and  C10_14 
REMARK    6  A    between atoms: C10_14  and  C11_15 
REMARK    7  A    between atoms: C11_15  and  C12_16 
REMARK    8  A    between atoms: C12_16  and  O3_17 
REMARK    9  A    between atoms: C18_23  and  C19_24 
REMARK   10  A    between atoms: C25_32  and  O6_33 
REMARK   11  A    between atoms: C29_37  and  O7_38 
REMARK   12  A    between atoms: C33_43  and  O9_44 
ROOT
HETATM    1  C5  UNL     1      -4.296   7.164  13.783  1.00  0.00     0.127 C 
HETATM    2  C6  UNL     1      -3.880   8.433  13.049  1.00  0.00     0.033 C 
HETATM    3  C7  UNL     1      -3.156   9.409  13.960  1.00  0.00     0.021 C 
HETATM    4  C8  UNL     1      -1.899   8.793  14.655  1.00  0.00     0.026 C 
HETATM    5  C13 UNL     1      -0.794   8.372  13.623  1.00  0.00     0.009 C 
HETATM    6  C14 UNL     1      -0.323   9.518  12.722  1.00  0.00     0.007 C 
HETATM    7  C15 UNL     1       0.516   8.950  11.588  1.00  0.00     0.013 C 
HETATM    8  C16 UNL     1       1.809   8.253  12.065  1.00  0.00    -0.005 C 
HETATM    9  C17 UNL     1       2.815   9.357  12.472  1.00  0.00     0.019 C 
HETATM   10  C18 UNL     1       2.463   7.346  10.935  1.00  0.00     0.028 C 
HETATM   11  C23 UNL     1       2.385   5.900  11.469  1.00  0.00     0.013 C 
HETATM   12  C24 UNL     1       1.280   5.927  12.515  1.00  0.00     0.040 C 
HETATM   13  C25 UNL     1       1.537   7.254  13.246  1.00  0.00     0.070 C 
HETATM   14  C26 UNL     1       0.430   7.676  14.270  1.00  0.00     0.026 C 
HETATM   15  C27 UNL     1      -0.029   6.490  15.152  1.00  0.00     0.011 C 
HETATM   16  C28 UNL     1      -1.177   6.807  16.113  1.00  0.00     0.039 C 
HETATM   17  C29 UNL     1      -2.358   7.534  15.450  1.00  0.00     0.073 C 
HETATM   18  C30 UNL     1      -3.131   6.535  14.549  1.00  0.00     0.071 C 
ENDROOT
BRANCH   1  19
HETATM   19  O2  UNL     1      -4.722   6.248  12.771  1.00  0.00    -0.356 OA
BRANCH  19  20
HETATM   20  C4  UNL     1      -3.998   5.020  12.765  1.00  0.00     0.263 C 
HETATM   21  C3  UNL     1      -4.926   3.965  12.175  1.00  0.00     0.095 C 
HETATM   22  C2  UNL     1      -4.228   2.612  12.128  1.00  0.00     0.156 C 
HETATM   23  C33 UNL     1      -2.888   2.746  11.380  1.00  0.00     0.175 C 
HETATM   24  C31 UNL     1      -2.057   3.909  11.961  1.00  0.00     0.151 C 
HETATM   25  O8  UNL     1      -2.806   5.130  12.000  1.00  0.00    -0.354 OA
HETATM   26  C32 UNL     1      -0.801   4.180  11.140  1.00  0.00     0.042 C 
BRANCH  22  27
HETATM   27  O1  UNL     1      -5.007   1.619  11.435  1.00  0.00    -0.388 OA
HETATM   28  C1  UNL     1      -6.399   1.697  11.703  1.00  0.00     0.202 C 
ENDBRANCH  22  27
BRANCH  23  29
HETATM   29  O9  UNL     1      -3.157   2.949   9.985  1.00  0.00    -0.390 OA
HETATM   30  H51 UNL     1      -3.902   2.348   9.777  1.00  0.00     0.210 HD
ENDBRANCH  23  29
ENDBRANCH  19  20
ENDBRANCH   1  19
BRANCH  17  31
HETATM   31  O7  UNL     1      -3.275   7.940  16.479  1.00  0.00    -0.389 OA
HETATM   32  H43 UNL     1      -3.453   7.163  17.039  1.00  0.00     0.210 HD
ENDBRANCH  17  31
BRANCH   4  33
HETATM   33  C9  UNL     1      -1.389   9.917  15.580  1.00  0.00     0.068 C 
HETATM   34  N1  UNL     1      -0.907   9.700  16.760  1.00  0.00    -0.401 N 
ATOM     35  H1  UNL     1      -0.861   8.768  17.172  1.00  0.00     0.158 HD
BRANCH  34  36
HETATM   36  C10 UNL     1      -0.433  10.901  17.462  1.00  0.00     0.121 C 
BRANCH  36  37
HETATM   37  C11 UNL     1      -0.835  10.810  18.938  1.00  0.00     0.045 C 
BRANCH  37  38
HETATM   38  C12 UNL     1       0.268  11.273  19.886  1.00  0.00     0.165 C 
BRANCH  38  39
HETATM   39  O3  UNL     1       1.309  10.307  19.969  1.00  0.00    -0.401 OA
HETATM   40  H20 UNL     1       0.857   9.435  19.973  1.00  0.00     0.209 HD
ENDBRANCH  38  39
ENDBRANCH  37  38
ENDBRANCH  36  37
ENDBRANCH  34  36
ENDBRANCH   4  33
BRANCH  13  41
HETATM   41  O6  UNL     1       2.776   7.078  13.964  1.00  0.00    -0.389 OA
HETATM   42  H37 UNL     1       2.586   6.751  14.862  1.00  0.00     0.210 HD
ENDBRANCH  13  41
BRANCH  10  43
HETATM   43  C19 UNL     1       1.924   7.484   9.531  1.00  0.00    -0.045 A 
HETATM   44  C20 UNL     1       2.587   7.216   8.403  1.00  0.00     0.087 A 
HETATM   45  C21 UNL     1       1.678   7.480   7.287  1.00  0.00     0.283 A 
HETATM   46  O4  UNL     1       1.953   7.327   6.110  1.00  0.00    -0.260 OA
HETATM   47  O5  UNL     1       0.485   7.926   7.775  1.00  0.00    -0.314 OA
HETATM   48  C22 UNL     1       0.533   7.904   9.203  1.00  0.00     0.213 A 
ENDBRANCH  10  43
TORSDOF 12
ENDMDL
MODEL 2
REMARK minimizedAffinity -8.36075306
REMARK CNNscore 0.741282344
REMARK CNNaffinity 7.06577253
REMARK  12 active torsions:
REMARK  status: ('A' for Active; 'I' for Inactive)
REMARK    1  A    between atoms: O1_2  and  C2_3 
REMARK    2  A    between atoms: C4_5  and  O2_6 
REMARK    3  A    between atoms: O2_6  and  C5_7 
REMARK    4  A    between atoms: C8_10  and  C9_11 
REMARK    5  A    between atoms: N1_12  and  C10_14 
REMARK    6  A    between atoms: C10_14  and  C11_15 
REMARK    7  A    between atoms: C11_15  and  C12_16 
REMARK    8  A    between atoms: C12_16  and  O3_17 
REMARK    9  A    between atoms: C18_23  and  C19_24 
REMARK   10  A    between atoms: C25_32  and  O6_33 
REMARK   11  A    between atoms: C29_37  and  O7_38 
REMARK   12  A    between atoms: C33_43  and  O9_44 
ROOT
HETATM    1  C5  UNL     1      -4.327   7.083  13.932  1.00  0.00     0.127 C 
HETATM    2  C6  UNL     1      -3.949   8.357  13.183  1.00  0.00     0.033 C 
HETATM    3  C7  UNL     1      -3.214   9.344  14.072  1.00  0.00     0.021 C 
HETATM    4  C8  UNL     1      -1.930   8.749  14.733  1.00  0.00     0.026 C 
HETATM    5  C13 UNL     1      -0.848   8.341  13.671  1.00  0.00     0.009 C 
HETATM    6  C14 UNL     1      -0.419   9.492  12.755  1.00  0.00     0.007 C 
HETATM    7  C15 UNL     1       0.397   8.933  11.599  1.00  0.00     0.013 C 
HETATM    8  C16 UNL     1       1.712   8.255  12.042  1.00  0.00    -0.005 C 
HETATM    9  C17 UNL     1       2.713   9.375  12.418  1.00  0.00     0.019 C 
HETATM   10  C18 UNL     1       2.347   7.356  10.896  1.00  0.00     0.028 C 
HETATM   11  C23 UNL     1       2.305   5.910  11.434  1.00  0.00     0.013 C 
HETATM   12  C24 UNL     1       1.230   5.924  12.510  1.00  0.00     0.040 C 
HETATM   13  C25 UNL     1       1.488   7.256  13.232  1.00  0.00     0.070 C 
HETATM   14  C26 UNL     1       0.403   7.664  14.285  1.00  0.00     0.026 C 
HETATM   15  C27 UNL     1      -0.013   6.474  15.182  1.00  0.00     0.011 C 
HETATM   16  C28 UNL     1      -1.138   6.777  16.174  1.00  0.00     0.039 C 
HETATM   17  C29 UNL     1      -2.348   7.485  15.543  1.00  0.00     0.073 C 
HETATM   18  C30 UNL     1      -3.132   6.473  14.665  1.00  0.00     0.071 C 
ENDROOT
BRANCH   1  19
HETATM   19  O2  UNL     1      -4.767   6.159  12.934  1.00  0.00    -0.356 OA
BRANCH  19  20
HETATM   20  C4  UNL     1      -6.055   5.602  13.193  1.00  0.00     0.263 C 
HETATM   21  C3  UNL     1      -6.466   6.071  14.583  1.00  0.00     0.095 C 
HETATM   22  C2  UNL     1      -7.839   5.521  14.943  1.00  0.00     0.156 C 
HETATM   23  C33 UNL     1      -8.851   5.891  13.842  1.00  0.00     0.175 C 
HETATM   24  C31 UNL     1      -8.310   5.489  12.453  1.00  0.00     0.151 C 
HETATM   25  O8  UNL     1      -7.000   6.019  12.218  1.00  0.00    -0.354 OA
HETATM   26  C32 UNL     1      -9.205   5.989  11.325  1.00  0.00     0.042 C 
BRANCH  22  27
HETATM   27  O1  UNL     1      -8.338   6.064  16.181  1.00  0.00    -0.388 OA
HETATM   28  C1  UNL     1      -7.444   6.972  16.806  1.00  0.00     0.202 C 
ENDBRANCH  22  27
BRANCH  23  29
HETATM   29  O9  UNL     1      -9.108   7.301  13.907  1.00  0.00    -0.390 OA
HETATM   30  H51 UNL     1      -9.161   7.509  14.863  1.00  0.00     0.210 HD
ENDBRANCH  23  29
ENDBRANCH  19  20
ENDBRANCH   1  19
BRANCH  17  31
HETATM   31  O7  UNL     1      -3.241   7.880  16.596  1.00  0.00    -0.389 OA
HETATM   32  H43 UNL     1      -3.393   7.102  17.163  1.00  0.00     0.210 HD
ENDBRANCH  17  31
BRANCH   4  33
HETATM   33  C9  UNL     1      -1.410   9.882  15.641  1.00  0.00     0.068 C 
HETATM   34  N1  UNL     1      -2.186  10.741  16.217  1.00  0.00    -0.401 N 
ATOM     35  H1  UNL     1      -3.197  10.744  16.084  1.00  0.00     0.158 HD
BRANCH  34  36
HETATM   36  C10 UNL     1      -1.497  11.713  17.079  1.00  0.00     0.121 C 
BRANCH  36  37
HETATM   37  C11 UNL     1      -1.933  11.492  18.531  1.00  0.00     0.045 C 
BRANCH  37  38
HETATM   38  C12 UNL     1      -3.302  10.827  18.648  1.00  0.00     0.165 C 
BRANCH  38  39
HETATM   39  O3  UNL     1      -3.178   9.482  19.093  1.00  0.00    -0.401 OA
HETATM   40  H20 UNL     1      -2.388   9.125  18.631  1.00  0.00     0.209 HD
ENDBRANCH  38  39
ENDBRANCH  37  38
ENDBRANCH  36  37
ENDBRANCH  34  36
ENDBRANCH   4  33
BRANCH  13  41
HETATM   41  O6  UNL     1       2.749   7.099  13.915  1.00  0.00    -0.389 OA
HETATM   42  H37 UNL     1       2.588   6.772  14.818  1.00  0.00     0.210 HD
ENDBRANCH  13  41
BRANCH  10  43
HETATM   43  C19 UNL     1       1.768   7.482   9.506  1.00  0.00    -0.045 A 
HETATM   44  C20 UNL     1       2.374   7.145   8.366  1.00  0.00     0.087 A 
HETATM   45  C21 UNL     1       1.443   7.427   7.273  1.00  0.00     0.283 A 
HETATM   46  O4  UNL     1       1.667   7.224   6.093  1.00  0.00    -0.260 OA
HETATM   47  O5  UNL     1       0.294   7.953   7.787  1.00  0.00    -0.314 OA
HETATM   48  C22 UNL     1       0.391   7.970   9.213  1.00  0.00     0.213 A 
ENDBRANCH  10  43
TORSDOF 12
ENDMDL
MODEL 3
REMARK minimizedAffinity -8.72314739
REMARK CNNscore 0.711008728
REMARK CNNaffinity 7.17203903
REMARK  12 active torsions:
REMARK  status: ('A' for Active; 'I' for Inactive)
REMARK    1  A    between atoms: O1_2  and  C2_3 
REMARK    2  A    between atoms: C4_5  and  O2_6 
REMARK    3  A    between atoms: O2_6  and  C5_7 
REMARK    4  A    between atoms: C8_10  and  C9_11 
REMARK    5  A    between atoms: N1_12  and  C10_14 
REMARK    6  A    between atoms: C10_14  and  C11_15 
REMARK    7  A    between atoms: C11_15  and  C12_16 
REMARK    8  A    between atoms: C12_16  and  O3_17 
REMARK    9  A    between atoms: C18_23  and  C19_24 
REMARK   10  A    between atoms: C25_32  and  O6_33 
REMARK   11  A    between atoms: C29_37  and  O7_38 
REMARK   12  A    between atoms: C33_43  and  O9_44 
ROOT
HETATM    1  C5  UNL     1      -4.203   7.492  14.094  1.00  0.00     0.127 C 
HETATM    2  C6  UNL     1      -3.735   8.736  13.348  1.00  0.00     0.033 C 
HETATM    3  C7  UNL     1      -2.886   9.641  14.222  1.00  0.00     0.021 C 
HETATM    4  C8  UNL     1      -1.641   8.923  14.836  1.00  0.00     0.026 C 
HETATM    5  C13 UNL     1      -0.634   8.434  13.736  1.00  0.00     0.009 C 
HETATM    6  C14 UNL     1      -0.131   9.553  12.819  1.00  0.00     0.007 C 
HETATM    7  C15 UNL     1       0.595   8.938  11.631  1.00  0.00     0.013 C 
HETATM    8  C16 UNL     1       1.857   8.139  12.025  1.00  0.00    -0.005 C 
HETATM    9  C17 UNL     1       2.966   9.158  12.380  1.00  0.00     0.019 C 
HETATM   10  C18 UNL     1       2.371   7.201  10.850  1.00  0.00     0.028 C 
HETATM   11  C23 UNL     1       2.215   5.758  11.374  1.00  0.00     0.013 C 
HETATM   12  C24 UNL     1       1.179   5.854  12.484  1.00  0.00     0.040 C 
HETATM   13  C25 UNL     1       1.579   7.148  13.211  1.00  0.00     0.070 C 
HETATM   14  C26 UNL     1       0.569   7.638  14.303  1.00  0.00     0.026 C 
HETATM   15  C27 UNL     1       0.074   6.479  15.200  1.00  0.00     0.011 C 
HETATM   16  C28 UNL     1      -0.988   6.869  16.230  1.00  0.00     0.039 C 
HETATM   17  C29 UNL     1      -2.147   7.692  15.646  1.00  0.00     0.073 C 
HETATM   18  C30 UNL     1      -3.046   6.766  14.783  1.00  0.00     0.071 C 
ENDROOT
BRANCH   1  19
HETATM   19  O2  UNL     1      -4.756   6.624  13.102  1.00  0.00    -0.356 OA
BRANCH  19  20
HETATM   20  C4  UNL     1      -6.161   6.419  13.235  1.00  0.00     0.263 C 
HETATM   21  C3  UNL     1      -6.397   4.916  13.145  1.00  0.00     0.095 C 
HETATM   22  C2  UNL     1      -7.881   4.604  13.281  1.00  0.00     0.156 C 
HETATM   23  C33 UNL     1      -8.428   5.239  14.573  1.00  0.00     0.175 C 
HETATM   24  C31 UNL     1      -8.048   6.733  14.645  1.00  0.00     0.151 C 
HETATM   25  O8  UNL     1      -6.640   6.933  14.470  1.00  0.00    -0.354 OA
HETATM   26  C32 UNL     1      -8.426   7.354  15.985  1.00  0.00     0.042 C 
BRANCH  22  27
HETATM   27  O1  UNL     1      -8.136   3.189  13.359  1.00  0.00    -0.388 OA
HETATM   28  C1  UNL     1      -7.211   2.401  12.625  1.00  0.00     0.202 C 
ENDBRANCH  22  27
BRANCH  23  29
HETATM   29  O9  UNL     1      -7.905   4.518  15.698  1.00  0.00    -0.390 OA
HETATM   30  H51 UNL     1      -7.934   3.575  15.436  1.00  0.00     0.210 HD
ENDBRANCH  23  29
ENDBRANCH  19  20
ENDBRANCH   1  19
BRANCH  17  31
HETATM   31  O7  UNL     1      -2.968   8.152  16.731  1.00  0.00    -0.389 OA
HETATM   32  H43 UNL     1      -3.172   7.383  17.294  1.00  0.00     0.210 HD
ENDBRANCH  17  31
BRANCH   4  33
HETATM   33  C9  UNL     1      -0.993   9.993  15.739  1.00  0.00     0.068 C 
HETATM   34  N1  UNL     1      -0.729   9.800  16.990  1.00  0.00    -0.401 N 
ATOM     35  H1  UNL     1      -0.962   8.932  17.473  1.00  0.00     0.158 HD
BRANCH  34  36
HETATM   36  C10 UNL     1      -0.069  10.928  17.662  1.00  0.00     0.121 C 
BRANCH  36  37
HETATM   37  C11 UNL     1       1.332  11.112  17.071  1.00  0.00     0.045 C 
BRANCH  37  38
HETATM   38  C12 UNL     1       2.372  10.190  17.704  1.00  0.00     0.165 C 
BRANCH  38  39
HETATM   39  O3  UNL     1       2.239   8.861  17.213  1.00  0.00    -0.401 OA
HETATM   40  H20 UNL     1       1.273   8.701  17.148  1.00  0.00     0.209 HD
ENDBRANCH  38  39
ENDBRANCH  37  38
ENDBRANCH  36  37
ENDBRANCH  34  36
ENDBRANCH   4  33
BRANCH  13  41
HETATM   41  O6  UNL     1       2.841   6.869  13.852  1.00  0.00    -0.389 OA
HETATM   42  H37 UNL     1       2.679   6.546  14.757  1.00  0.00     0.210 HD
ENDBRANCH  13  41
BRANCH  10  43
HETATM   43  C19 UNL     1       1.763   7.398   9.481  1.00  0.00    -0.045 A 
HETATM   44  C20 UNL     1       2.338   7.099   8.314  1.00  0.00     0.087 A 
HETATM   45  C21 UNL     1       1.387   7.445   7.256  1.00  0.00     0.283 A 
HETATM   46  O4  UNL     1       1.581   7.290   6.063  1.00  0.00    -0.260 OA
HETATM   47  O5  UNL     1       0.260   7.968   7.819  1.00  0.00    -0.314 OA
HETATM   48  C22 UNL     1       0.389   7.921   9.241  1.00  0.00     0.213 A 
ENDBRANCH  10  43
TORSDOF 12
ENDMDL
MODEL 4
REMARK minimizedAffinity -8.72431469
REMARK CNNscore 0.68766278
REMARK CNNaffinity 7.09859324
REMARK  12 active torsions:
REMARK  status: ('A' for Active; 'I' for Inactive)
REMARK    1  A    between atoms: O1_2  and  C2_3 
REMARK    2  A    between atoms: C4_5  and  O2_6 
REMARK    3  A    between atoms: O2_6  and  C5_7 
REMARK    4  A    between atoms: C8_10  and  C9_11 
REMARK    5  A    between atoms: N1_12  and  C10_14 
REMARK    6  A    between atoms: C10_14  and  C11_15 
REMARK    7  A    between atoms: C11_15  and  C12_16 
REMARK    8  A    between atoms: C12_16  and  O3_17 
REMARK    9  A    between atoms: C18_23  and  C19_24 
REMARK   10  A    between atoms: C25_32  and  O6_33 
REMARK   11  A    between atoms: C29_37  and  O7_38 
REMARK   12  A    between atoms: C33_43  and  O9_44 
ROOT
HETATM    1  C5  UNL     1      -3.980   7.266  14.053  1.00  0.00     0.127 C 
HETATM    2  C6  UNL     1      -3.591   8.523  13.285  1.00  0.00     0.033 C 
HETATM    3  C7  UNL     1      -2.796   9.493  14.141  1.00  0.00     0.021 C 
HETATM    4  C8  UNL     1      -1.508   8.862  14.761  1.00  0.00     0.026 C 
HETATM    5  C13 UNL     1      -0.477   8.417  13.665  1.00  0.00     0.009 C 
HETATM    6  C14 UNL     1      -0.045   9.550  12.728  1.00  0.00     0.007 C 
HETATM    7  C15 UNL     1       0.712   8.961  11.547  1.00  0.00     0.013 C 
HETATM    8  C16 UNL     1       2.022   8.246  11.948  1.00  0.00    -0.005 C 
HETATM    9  C17 UNL     1       3.069   9.337  12.283  1.00  0.00     0.019 C 
HETATM   10  C18 UNL     1       2.589   7.322  10.786  1.00  0.00     0.028 C 
HETATM   11  C23 UNL     1       2.523   5.881  11.334  1.00  0.00     0.013 C 
HETATM   12  C24 UNL     1       1.486   5.933  12.447  1.00  0.00     0.040 C 
HETATM   13  C25 UNL     1       1.809   7.260  13.151  1.00  0.00     0.070 C 
HETATM   14  C26 UNL     1       0.775   7.705  14.239  1.00  0.00     0.026 C 
HETATM   15  C27 UNL     1       0.354   6.533  15.157  1.00  0.00     0.011 C 
HETATM   16  C28 UNL     1      -0.726   6.875  16.186  1.00  0.00     0.039 C 
HETATM   17  C29 UNL     1      -1.936   7.616  15.593  1.00  0.00     0.073 C 
HETATM   18  C30 UNL     1      -2.779   6.623  14.749  1.00  0.00     0.071 C 
ENDROOT
BRANCH   1  19
HETATM   19  O2  UNL     1      -4.483   6.350  13.077  1.00  0.00    -0.356 OA
BRANCH  19  20
HETATM   20  C4  UNL     1      -5.583   5.567  13.535  1.00  0.00     0.263 C 
HETATM   21  C3  UNL     1      -6.807   6.475  13.516  1.00  0.00     0.095 C 
HETATM   22  C2  UNL     1      -8.038   5.714  13.992  1.00  0.00     0.156 C 
HETATM   23  C33 UNL     1      -8.208   4.430  13.158  1.00  0.00     0.175 C 
HETATM   24  C31 UNL     1      -6.891   3.624  13.130  1.00  0.00     0.151 C 
HETATM   25  O8  UNL     1      -5.784   4.430  12.707  1.00  0.00    -0.354 OA
HETATM   26  C32 UNL     1      -6.970   2.436  12.179  1.00  0.00     0.042 C 
BRANCH  22  27
HETATM   27  O1  UNL     1      -9.246   6.483  13.843  1.00  0.00    -0.388 OA
HETATM   28  C1  UNL     1      -9.689   7.089  15.048  1.00  0.00     0.202 C 
ENDBRANCH  22  27
BRANCH  23  29
HETATM   29  O9  UNL     1      -8.620   4.792  11.832  1.00  0.00    -0.390 OA
HETATM   30  H51 UNL     1      -9.267   5.518  11.953  1.00  0.00     0.210 HD
ENDBRANCH  23  29
ENDBRANCH  19  20
ENDBRANCH   1  19
BRANCH  17  31
HETATM   31  O7  UNL     1      -2.779   8.042  16.673  1.00  0.00    -0.389 OA
HETATM   32  H43 UNL     1      -2.934   7.272  17.250  1.00  0.00     0.210 HD
ENDBRANCH  17  31
BRANCH   4  33
HETATM   33  C9  UNL     1      -0.923   9.984  15.644  1.00  0.00     0.068 C 
HETATM   34  N1  UNL     1      -0.400   9.771  16.807  1.00  0.00    -0.401 N 
ATOM     35  H1  UNL     1      -0.366   8.845  17.233  1.00  0.00     0.158 HD
BRANCH  34  36
HETATM   36  C10 UNL     1       0.142  10.967  17.467  1.00  0.00     0.121 C 
BRANCH  36  37
HETATM   37  C11 UNL     1       1.506  10.628  18.077  1.00  0.00     0.045 C 
BRANCH  37  38
HETATM   38  C12 UNL     1       2.459   9.974  17.080  1.00  0.00     0.165 C 
BRANCH  38  39
HETATM   39  O3  UNL     1       2.339   8.557  17.114  1.00  0.00    -0.401 OA
HETATM   40  H20 UNL     1       2.230   8.326  18.062  1.00  0.00     0.209 HD
ENDBRANCH  38  39
ENDBRANCH  37  38
ENDBRANCH  36  37
ENDBRANCH  34  36
ENDBRANCH   4  33
BRANCH  13  41
HETATM   41  O6  UNL     1       3.088   7.068  13.791  1.00  0.00    -0.389 OA
HETATM   42  H37 UNL     1       2.949   6.751  14.702  1.00  0.00     0.210 HD
ENDBRANCH  13  41
BRANCH  10  43
HETATM   43  C19 UNL     1       1.966   7.459   9.417  1.00  0.00    -0.045 A 
HETATM   44  C20 UNL     1       2.545   7.155   8.254  1.00  0.00     0.087 A 
HETATM   45  C21 UNL     1       1.575   7.434   7.194  1.00  0.00     0.283 A 
HETATM   46  O4  UNL     1       1.769   7.257   6.004  1.00  0.00    -0.260 OA
HETATM   47  O5  UNL     1       0.432   7.926   7.751  1.00  0.00    -0.314 OA
HETATM   48  C22 UNL     1       0.570   7.921   9.173  1.00  0.00     0.213 A 
ENDBRANCH  10  43
TORSDOF 12
ENDMDL
MODEL 5
REMARK minimizedAffinity -7.3331356
REMARK CNNscore 0.647303402
REMARK CNNaffinity 7.28580713
REMARK  12 active torsions:
REMARK  status: ('A' for Active; 'I' for Inactive)
REMARK    1  A    between atoms: O1_2  and  C2_3 
REMARK    2  A    between atoms: C4_5  and  O2_6 
REMARK    3  A    between atoms: O2_6  and  C5_7 
REMARK    4  A    between atoms: C8_10  and  C9_11 
REMARK    5  A    between atoms: N1_12  and  C10_14 
REMARK    6  A    between atoms: C10_14  and  C11_15 
REMARK    7  A    between atoms: C11_15  and  C12_16 
REMARK    8  A    between atoms: C12_16  and  O3_17 
REMARK    9  A    between atoms: C18_23  and  C19_24 
REMARK   10  A    between atoms: C25_32  and  O6_33 
REMARK   11  A    between atoms: C29_37  and  O7_38 
REMARK   12  A    between atoms: C33_43  and  O9_44 
ROOT
HETATM    1  C5  UNL     1       0.155   4.692  11.361  1.00  0.00     0.127 C 
HETATM    2  C6  UNL     1      -0.112   4.307  12.811  1.00  0.00     0.033 C 
HETATM    3  C7  UNL     1       0.630   5.204  13.786  1.00  0.00     0.021 C 
HETATM    4  C8  UNL     1       0.309   6.722  13.601  1.00  0.00     0.026 C 
HETATM    5  C13 UNL     1      -1.199   7.050  13.882  1.00  0.00     0.009 C 
HETATM    6  C14 UNL     1      -1.671   6.634  15.279  1.00  0.00     0.007 C 
HETATM    7  C15 UNL     1      -3.188   6.727  15.343  1.00  0.00     0.013 C 
HETATM    8  C16 UNL     1      -3.728   8.161  15.144  1.00  0.00    -0.005 C 
HETATM    9  C17 UNL     1      -3.463   8.948  16.451  1.00  0.00     0.019 C 
HETATM   10  C18 UNL     1      -5.285   8.185  14.830  1.00  0.00     0.028 C 
HETATM   11  C23 UNL     1      -5.411   8.750  13.399  1.00  0.00     0.013 C 
HETATM   12  C24 UNL     1      -4.048   8.513  12.764  1.00  0.00     0.040 C 
HETATM   13  C25 UNL     1      -3.077   8.867  13.901  1.00  0.00     0.070 C 
HETATM   14  C26 UNL     1      -1.573   8.532  13.621  1.00  0.00     0.026 C 
HETATM   15  C27 UNL     1      -1.138   8.954  12.198  1.00  0.00     0.011 C 
HETATM   16  C28 UNL     1       0.295   8.572  11.822  1.00  0.00     0.039 C 
HETATM   17  C29 UNL     1       0.648   7.108  12.129  1.00  0.00     0.073 C 
HETATM   18  C30 UNL     1      -0.072   6.184  11.112  1.00  0.00     0.071 C 
ENDROOT
BRANCH   1  19
HETATM   19  O2  UNL     1      -0.788   3.953  10.580  1.00  0.00    -0.356 OA
BRANCH  19  20
HETATM   20  C4  UNL     1      -2.148   4.269  10.868  1.00  0.00     0.263 C 
HETATM   21  C3  UNL     1      -3.005   3.413   9.945  1.00  0.00     0.095 C 
HETATM   22  C2  UNL     1      -4.483   3.686  10.188  1.00  0.00     0.156 C 
HETATM   23  C33 UNL     1      -4.806   3.498  11.682  1.00  0.00     0.175 C 
HETATM   24  C31 UNL     1      -3.822   4.306  12.555  1.00  0.00     0.151 C 
HETATM   25  O8  UNL     1      -2.458   4.011  12.231  1.00  0.00    -0.354 OA
HETATM   26  C32 UNL     1      -4.003   4.012  14.040  1.00  0.00     0.042 C 
BRANCH  22  27
HETATM   27  O1  UNL     1      -5.333   2.788   9.450  1.00  0.00    -0.388 OA
HETATM   28  C1  UNL     1      -5.732   3.291   8.184  1.00  0.00     0.202 C 
ENDBRANCH  22  27
BRANCH  23  29
HETATM   29  O9  UNL     1      -4.744   2.098  11.994  1.00  0.00    -0.390 OA
HETATM   30  H51 UNL     1      -5.158   1.646  11.230  1.00  0.00     0.210 HD
ENDBRANCH  23  29
ENDBRANCH  19  20
ENDBRANCH   1  19
BRANCH  17  31
HETATM   31  O7  UNL     1       2.056   6.927  11.912  1.00  0.00    -0.389 OA
HETATM   32  H43 UNL     1       2.268   7.288  11.031  1.00  0.00     0.210 HD
ENDBRANCH  17  31
BRANCH   4  33
HETATM   33  C9  UNL     1       1.226   7.430  14.619  1.00  0.00     0.068 C 
HETATM   34  N1  UNL     1       2.409   7.006  14.923  1.00  0.00    -0.401 N 
ATOM     35  H1  UNL     1       2.805   6.153  14.530  1.00  0.00     0.158 HD
BRANCH  34  36
HETATM   36  C10 UNL     1       3.139   7.850  15.881  1.00  0.00     0.121 C 
BRANCH  36  37
HETATM   37  C11 UNL     1       2.914   9.322  15.523  1.00  0.00     0.045 C 
BRANCH  37  38
HETATM   38  C12 UNL     1       2.323  10.133  16.674  1.00  0.00     0.165 C 
BRANCH  38  39
HETATM   39  O3  UNL     1       2.359   9.394  17.889  1.00  0.00    -0.401 OA
HETATM   40  H20 UNL     1       2.132   8.471  17.640  1.00  0.00     0.209 HD
ENDBRANCH  38  39
ENDBRANCH  37  38
ENDBRANCH  36  37
ENDBRANCH  34  36
ENDBRANCH   4  33
BRANCH  13  41
HETATM   41  O6  UNL     1      -3.197  10.292  14.096  1.00  0.00    -0.389 OA
HETATM   42  H37 UNL     1      -2.537  10.749  13.543  1.00  0.00     0.210 HD
ENDBRANCH  13  41
BRANCH  10  43
HETATM   43  C19 UNL     1      -6.057   6.901  15.024  1.00  0.00    -0.045 A 
HETATM   44  C20 UNL     1      -6.570   6.136  14.058  1.00  0.00     0.087 A 
HETATM   45  C21 UNL     1      -7.221   4.994  14.700  1.00  0.00     0.283 A 
HETATM   46  O4  UNL     1      -7.782   4.087  14.112  1.00  0.00    -0.260 OA
HETATM   47  O5  UNL     1      -7.101   5.112  16.054  1.00  0.00    -0.314 OA
HETATM   48  C22 UNL     1      -6.320   6.272  16.349  1.00  0.00     0.213 A 
ENDBRANCH  10  43
TORSDOF 12
ENDMDL
MODEL 6
REMARK minimizedAffinity -6.6051302
REMARK CNNscore 0.615933478
REMARK CNNaffinity 6.45261955
REMARK  12 active torsions:
REMARK  status: ('A' for Active; 'I' for Inactive)
REMARK    1  A    between atoms: O1_2  and  C2_3 
REMARK    2  A    between atoms: C4_5  and  O2_6 
REMARK    3  A    between atoms: O2_6  and  C5_7 
REMARK    4  A    between atoms: C8_10  and  C9_11 
REMARK    5  A    between atoms: N1_12  and  C10_14 
REMARK    6  A    between atoms: C10_14  and  C11_15 
REMARK    7  A    between atoms: C11_15  and  C12_16 
REMARK    8  A    between atoms: C12_16  and  O3_17 
REMARK    9  A    between atoms: C18_23  and  C19_24 
REMARK   10  A    between atoms: C25_32  and  O6_33 
REMARK   11  A    between atoms: C29_37  and  O7_38 
REMARK   12  A    between atoms: C33_43  and  O9_44 
ROOT
HETATM    1  C5  UNL     1     -13.902   7.578  23.308  1.00  0.00     0.127 C 
HETATM    2  C6  UNL     1     -14.965   7.407  24.387  1.00  0.00     0.033 C 
HETATM    3  C7  UNL     1     -16.126   6.549  23.914  1.00  0.00     0.021 C 
HETATM    4  C8  UNL     1     -15.689   5.137  23.408  1.00  0.00     0.026 C 
HETATM    5  C13 UNL     1     -15.039   4.273  24.545  1.00  0.00     0.009 C 
HETATM    6  C14 UNL     1     -15.943   4.079  25.767  1.00  0.00     0.007 C 
HETATM    7  C15 UNL     1     -15.127   3.488  26.906  1.00  0.00     0.013 C 
HETATM    8  C16 UNL     1     -14.559   2.085  26.596  1.00  0.00    -0.005 C 
HETATM    9  C17 UNL     1     -15.728   1.074  26.695  1.00  0.00     0.019 C 
HETATM   10  C18 UNL     1     -13.415   1.656  27.611  1.00  0.00     0.028 C 
HETATM   11  C23 UNL     1     -12.132   1.533  26.761  1.00  0.00     0.013 C 
HETATM   12  C24 UNL     1     -12.403   2.373  25.521  1.00  0.00     0.040 C 
HETATM   13  C25 UNL     1     -13.863   2.030  25.190  1.00  0.00     0.070 C 
HETATM   14  C26 UNL     1     -14.512   2.898  24.059  1.00  0.00     0.026 C 
HETATM   15  C27 UNL     1     -13.565   3.082  22.851  1.00  0.00     0.011 C 
HETATM   16  C28 UNL     1     -14.097   3.999  21.747  1.00  0.00     0.039 C 
HETATM   17  C29 UNL     1     -14.649   5.337  22.264  1.00  0.00     0.073 C 
HETATM   18  C30 UNL     1     -13.468   6.238  22.712  1.00  0.00     0.071 C 
ENDROOT
BRANCH   1  19
HETATM   19  O2  UNL     1     -12.776   8.171  23.959  1.00  0.00    -0.356 OA
BRANCH  19  20
HETATM   20  C4  UNL     1     -12.664   9.577  23.748  1.00  0.00     0.263 C 
HETATM   21  C3  UNL     1     -11.184   9.923  23.855  1.00  0.00     0.095 C 
HETATM   22  C2  UNL     1     -10.971  11.415  23.640  1.00  0.00     0.156 C 
HETATM   23  C33 UNL     1     -11.610  11.842  22.305  1.00  0.00     0.175 C 
HETATM   24  C31 UNL     1     -13.073  11.355  22.224  1.00  0.00     0.151 C 
HETATM   25  O8  UNL     1     -13.180   9.949  22.477  1.00  0.00    -0.354 OA
HETATM   26  C32 UNL     1     -13.685  11.612  20.852  1.00  0.00     0.042 C 
BRANCH  22  27
HETATM   27  O1  UNL     1      -9.575  11.764  23.576  1.00  0.00    -0.388 OA
HETATM   28  C1  UNL     1      -9.253  12.958  24.272  1.00  0.00     0.202 C 
ENDBRANCH  22  27
BRANCH  23  29
HETATM   29  O9  UNL     1     -10.827  11.308  21.227  1.00  0.00    -0.390 OA
HETATM   30  H51 UNL     1      -9.895  11.418  21.507  1.00  0.00     0.210 HD
ENDBRANCH  23  29
ENDBRANCH  19  20
ENDBRANCH   1  19
BRANCH  17  31
HETATM   31  O7  UNL     1     -15.284   6.017  21.171  1.00  0.00    -0.389 OA
HETATM   32  H43 UNL     1     -14.658   6.023  20.423  1.00  0.00     0.210 HD
ENDBRANCH  17  31
BRANCH   4  33
HETATM   33  C9  UNL     1     -16.997   4.492  22.906  1.00  0.00     0.068 C 
HETATM   34  N1  UNL     1     -17.940   5.160  22.326  1.00  0.00    -0.401 N 
ATOM     35  H1  UNL     1     -17.893   6.170  22.188  1.00  0.00     0.158 HD
BRANCH  34  36
HETATM   36  C10 UNL     1     -19.084   4.352  21.881  1.00  0.00     0.121 C 
BRANCH  36  37
HETATM   37  C11 UNL     1     -20.151   5.278  21.288  1.00  0.00     0.045 C 
BRANCH  37  38
HETATM   38  C12 UNL     1     -20.569   6.394  22.242  1.00  0.00     0.165 C 
BRANCH  38  39
HETATM   39  O3  UNL     1     -21.971   6.623  22.174  1.00  0.00    -0.401 OA
HETATM   40  H20 UNL     1     -22.204   6.543  21.224  1.00  0.00     0.209 HD
ENDBRANCH  38  39
ENDBRANCH  37  38
ENDBRANCH  36  37
ENDBRANCH  34  36
ENDBRANCH   4  33
BRANCH  13  41
HETATM   41  O6  UNL     1     -13.858   0.653  24.758  1.00  0.00    -0.389 OA
HETATM   42  H37 UNL     1     -13.750   0.618  23.790  1.00  0.00     0.210 HD
ENDBRANCH  13  41
BRANCH  10  43
HETATM   43  C19 UNL     1     -13.221   2.504  28.846  1.00  0.00    -0.045 A 
HETATM   44  C20 UNL     1     -13.980   2.481  29.944  1.00  0.00     0.087 A 
HETATM   45  C21 UNL     1     -13.422   3.454  30.884  1.00  0.00     0.283 A 
HETATM   46  O4  UNL     1     -13.861   3.683  31.997  1.00  0.00    -0.260 OA
HETATM   47  O5  UNL     1     -12.342   4.061  30.313  1.00  0.00    -0.314 OA
HETATM   48  C22 UNL     1     -12.105   3.473  29.032  1.00  0.00     0.213 A 
ENDBRANCH  10  43
TORSDOF 12
ENDMDL
MODEL 7
REMARK minimizedAffinity -7.53778839
REMARK CNNscore 0.519741654
REMARK CNNaffinity 6.66734552
REMARK  12 active torsions:
REMARK  status: ('A' for Active; 'I' for Inactive)
REMARK    1  A    between atoms: O1_2  and  C2_3 
REMARK    2  A    between atoms: C4_5  and  O2_6 
REMARK    3  A    between atoms: O2_6  and  C5_7 
REMARK    4  A    between atoms: C8_10  and  C9_11 
REMARK    5  A    between atoms: N1_12  and  C10_14 
REMARK    6  A    between atoms: C10_14  and  C11_15 
REMARK    7  A    between atoms: C11_15  and  C12_16 
REMARK    8  A    between atoms: C12_16  and  O3_17 
REMARK    9  A    between atoms: C18_23  and  C19_24 
REMARK   10  A    between atoms: C25_32  and  O6_33 
REMARK   11  A    between atoms: C29_37  and  O7_38 
REMARK   12  A    between atoms: C33_43  and  O9_44 
ROOT
HETATM    1  C5  UNL     1      -1.181   8.097  12.257  1.00  0.00     0.127 C 
HETATM    2  C6  UNL     1      -2.483   8.888  12.190  1.00  0.00     0.033 C 
HETATM    3  C7  UNL     1      -3.524   8.356  13.159  1.00  0.00     0.021 C 
HETATM    4  C8  UNL     1      -3.032   8.318  14.641  1.00  0.00     0.026 C 
HETATM    5  C13 UNL     1      -2.716   9.749  15.200  1.00  0.00     0.009 C 
HETATM    6  C14 UNL     1      -3.899  10.719  15.119  1.00  0.00     0.007 C 
HETATM    7  C15 UNL     1      -3.411  12.130  15.409  1.00  0.00     0.013 C 
HETATM    8  C16 UNL     1      -2.840  12.306  16.834  1.00  0.00    -0.005 C 
HETATM    9  C17 UNL     1      -4.036  12.345  17.817  1.00  0.00     0.019 C 
HETATM   10  C18 UNL     1      -1.998  13.644  16.989  1.00  0.00     0.028 C 
HETATM   11  C23 UNL     1      -0.552  13.191  17.282  1.00  0.00     0.013 C 
HETATM   12  C24 UNL     1      -0.476  11.762  16.763  1.00  0.00     0.040 C 
HETATM   13  C25 UNL     1      -1.823  11.169  17.204  1.00  0.00     0.070 C 
HETATM   14  C26 UNL     1      -2.140   9.743  16.639  1.00  0.00     0.026 C 
HETATM   15  C27 UNL     1      -0.919   8.798  16.726  1.00  0.00     0.011 C 
HETATM   16  C28 UNL     1      -1.127   7.415  16.106  1.00  0.00     0.039 C 
HETATM   17  C29 UNL     1      -1.737   7.453  14.695  1.00  0.00     0.073 C 
HETATM   18  C30 UNL     1      -0.667   7.956  13.690  1.00  0.00     0.071 C 
ENDROOT
BRANCH   1  19
HETATM   19  O2  UNL     1      -0.227   8.850  11.504  1.00  0.00    -0.356 OA
BRANCH  19  20
HETATM   20  C4  UNL     1       1.012   8.173  11.303  1.00  0.00     0.263 C 
HETATM   21  C3  UNL     1       0.703   6.681  11.299  1.00  0.00     0.095 C 
HETATM   22  C2  UNL     1       1.978   5.876  11.086  1.00  0.00     0.156 C 
HETATM   23  C33 UNL     1       2.693   6.364   9.812  1.00  0.00     0.175 C 
HETATM   24  C31 UNL     1       2.865   7.897   9.840  1.00  0.00     0.151 C 
HETATM   25  O8  UNL     1       1.621   8.568  10.082  1.00  0.00    -0.354 OA
HETATM   26  C32 UNL     1       3.415   8.434   8.524  1.00  0.00     0.042 C 
BRANCH  22  27
HETATM   27  O1  UNL     1       1.715   4.470  10.918  1.00  0.00    -0.388 OA
HETATM   28  C1  UNL     1       0.517   4.036  11.542  1.00  0.00     0.202 C 
ENDBRANCH  22  27
BRANCH  23  29
HETATM   29  O9  UNL     1       1.929   5.950   8.669  1.00  0.00    -0.390 OA
HETATM   30  H51 UNL     1       1.627   5.042   8.876  1.00  0.00     0.210 HD
ENDBRANCH  23  29
ENDBRANCH  19  20
ENDBRANCH   1  19
BRANCH  17  31
HETATM   31  O7  UNL     1      -2.056   6.109  14.304  1.00  0.00    -0.389 OA
HETATM   32  H43 UNL     1      -1.267   5.559  14.462  1.00  0.00     0.210 HD
ENDBRANCH  17  31
BRANCH   4  33
HETATM   33  C9  UNL     1      -4.202   7.671  15.412  1.00  0.00     0.068 C 
HETATM   34  N1  UNL     1      -4.920   6.709  14.935  1.00  0.00    -0.401 N 
ATOM     35  H1  UNL     1      -4.779   6.330  13.998  1.00  0.00     0.158 HD
BRANCH  34  36
HETATM   36  C10 UNL     1      -5.955   6.202  15.846  1.00  0.00     0.121 C 
BRANCH  36  37
HETATM   37  C11 UNL     1      -7.173   7.129  15.786  1.00  0.00     0.045 C 
BRANCH  37  38
HETATM   38  C12 UNL     1      -8.481   6.420  16.128  1.00  0.00     0.165 C 
BRANCH  38  39
HETATM   39  O3  UNL     1      -9.295   6.265  14.972  1.00  0.00    -0.401 OA
HETATM   40  H20 UNL     1      -9.193   7.101  14.467  1.00  0.00     0.209 HD
ENDBRANCH  38  39
ENDBRANCH  37  38
ENDBRANCH  36  37
ENDBRANCH  34  36
ENDBRANCH   4  33
BRANCH  13  41
HETATM   41  O6  UNL     1      -1.767  11.085  18.644  1.00  0.00    -0.389 OA
HETATM   42  H37 UNL     1      -1.425  10.210  18.903  1.00  0.00     0.210 HD
ENDBRANCH  13  41
BRANCH  10  43
HETATM   43  C19 UNL     1      -2.080  14.656  15.870  1.00  0.00    -0.045 A 
HETATM   44  C20 UNL     1      -1.248  14.751  14.831  1.00  0.00     0.087 A 
HETATM   45  C21 UNL     1      -1.712  15.861  13.998  1.00  0.00     0.283 A 
HETATM   46  O4  UNL     1      -1.190  16.220  12.957  1.00  0.00    -0.260 OA
HETATM   47  O5  UNL     1      -2.811  16.426  14.574  1.00  0.00    -0.314 OA
HETATM   48  C22 UNL     1      -3.153  15.682  15.745  1.00  0.00     0.213 A 
ENDBRANCH  10  43
TORSDOF 12
ENDMDL
MODEL 8
REMARK minimizedAffinity -7.34131718
REMARK CNNscore 0.48383975
REMARK CNNaffinity 6.65813398
REMARK  12 active torsions:
REMARK  status: ('A' for Active; 'I' for Inactive)
REMARK    1  A    between atoms: O1_2  and  C2_3 
REMARK    2  A    between atoms: C4_5  and  O2_6 
REMARK    3  A    between atoms: O2_6  and  C5_7 
REMARK    4  A    between atoms: C8_10  and  C9_11 
REMARK    5  A    between atoms: N1_12  and  C10_14 
REMARK    6  A    between atoms: C10_14  and  C11_15 
REMARK    7  A    between atoms: C11_15  and  C12_16 
REMARK    8  A    between atoms: C12_16  and  O3_17 
REMARK    9  A    between atoms: C18_23  and  C19_24 
REMARK   10  A    between atoms: C25_32  and  O6_33 
REMARK   11  A    between atoms: C29_37  and  O7_38 
REMARK   12  A    between atoms: C33_43  and  O9_44 
ROOT
HETATM    1  C5  UNL     1      -3.935   8.401  14.597  1.00  0.00     0.127 C 
HETATM    2  C6  UNL     1      -3.755   8.222  16.100  1.00  0.00     0.033 C 
HETATM    3  C7  UNL     1      -2.298   8.320  16.516  1.00  0.00     0.021 C 
HETATM    4  C8  UNL     1      -1.616   9.657  16.082  1.00  0.00     0.026 C 
HETATM    5  C13 UNL     1      -2.272  10.909  16.763  1.00  0.00     0.009 C 
HETATM    6  C14 UNL     1      -2.268  10.851  18.294  1.00  0.00     0.007 C 
HETATM    7  C15 UNL     1      -3.169  11.949  18.839  1.00  0.00     0.013 C 
HETATM    8  C16 UNL     1      -2.689  13.374  18.486  1.00  0.00    -0.005 C 
HETATM    9  C17 UNL     1      -1.476  13.699  19.392  1.00  0.00     0.019 C 
HETATM   10  C18 UNL     1      -3.817  14.469  18.719  1.00  0.00     0.028 C 
HETATM   11  C23 UNL     1      -4.130  15.044  17.321  1.00  0.00     0.013 C 
HETATM   12  C24 UNL     1      -3.656  13.978  16.344  1.00  0.00     0.040 C 
HETATM   13  C25 UNL     1      -2.330  13.514  16.964  1.00  0.00     0.070 C 
HETATM   14  C26 UNL     1      -1.680  12.260  16.287  1.00  0.00     0.026 C 
HETATM   15  C27 UNL     1      -1.715  12.349  14.743  1.00  0.00     0.011 C 
HETATM   16  C28 UNL     1      -1.182  11.114  14.013  1.00  0.00     0.039 C 
HETATM   17  C29 UNL     1      -1.757   9.788  14.535  1.00  0.00     0.073 C 
HETATM   18  C30 UNL     1      -3.235   9.658  14.079  1.00  0.00     0.071 C 
ENDROOT
BRANCH   1  19
HETATM   19  O2  UNL     1      -5.341   8.544  14.385  1.00  0.00    -0.356 OA
BRANCH  19  20
HETATM   20  C4  UNL     1      -6.088   7.358  14.651  1.00  0.00     0.263 C 
HETATM   21  C3  UNL     1      -7.550   7.773  14.762  1.00  0.00     0.095 C 
HETATM   22  C2  UNL     1      -8.425   6.560  15.045  1.00  0.00     0.156 C 
HETATM   23  C33 UNL     1      -8.168   5.476  13.981  1.00  0.00     0.175 C 
HETATM   24  C31 UNL     1      -6.656   5.195  13.847  1.00  0.00     0.151 C 
HETATM   25  O8  UNL     1      -5.911   6.398  13.619  1.00  0.00    -0.354 OA
HETATM   26  C32 UNL     1      -6.351   4.253  12.688  1.00  0.00     0.042 C 
BRANCH  22  27
HETATM   27  O1  UNL     1      -9.829   6.877  15.003  1.00  0.00    -0.388 OA
HETATM   28  C1  UNL     1     -10.099   8.270  15.012  1.00  0.00     0.202 C 
ENDBRANCH  22  27
BRANCH  23  29
HETATM   29  O9  UNL     1      -8.725   5.915  12.734  1.00  0.00    -0.390 OA
HETATM   30  H51 UNL     1      -9.579   6.335  12.966  1.00  0.00     0.210 HD
ENDBRANCH  23  29
ENDBRANCH  19  20
ENDBRANCH   1  19
BRANCH  17  31
HETATM   31  O7  UNL     1      -1.047   8.709  13.909  1.00  0.00    -0.389 OA
HETATM   32  H43 UNL     1      -1.042   8.875  12.948  1.00  0.00     0.210 HD
ENDBRANCH  17  31
BRANCH   4  33
HETATM   33  C9  UNL     1      -0.147   9.496  16.525  1.00  0.00     0.068 C 
HETATM   34  N1  UNL     1       0.671   8.660  15.975  1.00  0.00    -0.401 N 
ATOM     35  H1  UNL     1       0.390   8.027  15.226  1.00  0.00     0.158 HD
BRANCH  34  36
HETATM   36  C10 UNL     1       2.039   8.693  16.512  1.00  0.00     0.121 C 
BRANCH  36  37
HETATM   37  C11 UNL     1       2.914   7.719  15.717  1.00  0.00     0.045 C 
BRANCH  37  38
HETATM   38  C12 UNL     1       2.352   7.408  14.332  1.00  0.00     0.165 C 
BRANCH  38  39
HETATM   39  O3  UNL     1       1.659   6.166  14.330  1.00  0.00    -0.401 OA
HETATM   40  H20 UNL     1       2.192   5.568  14.897  1.00  0.00     0.209 HD
ENDBRANCH  38  39
ENDBRANCH  37  38
ENDBRANCH  36  37
ENDBRANCH  34  36
ENDBRANCH   4  33
BRANCH  13  41
HETATM   41  O6  UNL     1      -1.419  14.625  16.831  1.00  0.00    -0.389 OA
HETATM   42  H37 UNL     1      -0.926  14.540  15.994  1.00  0.00     0.210 HD
ENDBRANCH  13  41
BRANCH  10  43
HETATM   43  C19 UNL     1      -5.058  14.046  19.471  1.00  0.00    -0.045 A 
HETATM   44  C20 UNL     1      -5.143  13.812  20.782  1.00  0.00     0.087 A 
HETATM   45  C21 UNL     1      -6.528  13.440  21.073  1.00  0.00     0.283 A 
HETATM   46  O4  UNL     1      -6.962  13.171  22.179  1.00  0.00    -0.260 OA
HETATM   47  O5  UNL     1      -7.245  13.438  19.913  1.00  0.00    -0.314 OA
HETATM   48  C22 UNL     1      -6.399  13.871  18.846  1.00  0.00     0.213 A 
ENDBRANCH  10  43
TORSDOF 12
ENDMDL
MODEL 9
REMARK minimizedAffinity -8.54880047
REMARK CNNscore 0.443781585
REMARK CNNaffinity 7.11962318
REMARK  12 active torsions:
REMARK  status: ('A' for Active; 'I' for Inactive)
REMARK    1  A    between atoms: O1_2  and  C2_3 
REMARK    2  A    between atoms: C4_5  and  O2_6 
REMARK    3  A    between atoms: O2_6  and  C5_7 
REMARK    4  A    between atoms: C8_10  and  C9_11 
REMARK    5  A    between atoms: N1_12  and  C10_14 
REMARK    6  A    between atoms: C10_14  and  C11_15 
REMARK    7  A    between atoms: C11_15  and  C12_16 
REMARK    8  A    between atoms: C12_16  and  O3_17 
REMARK    9  A    between atoms: C18_23  and  C19_24 
REMARK   10  A    between atoms: C25_32  and  O6_33 
REMARK   11  A    between atoms: C29_37  and  O7_38 
REMARK   12  A    between atoms: C33_43  and  O9_44 
ROOT
HETATM    1  C5  UNL     1      -7.124   4.200  12.567  1.00  0.00     0.127 C 
HETATM    2  C6  UNL     1      -7.021   5.572  11.912  1.00  0.00     0.033 C 
HETATM    3  C7  UNL     1      -7.530   6.678  12.819  1.00  0.00     0.021 C 
HETATM    4  C8  UNL     1      -6.810   6.726  14.205  1.00  0.00     0.026 C 
HETATM    5  C13 UNL     1      -5.279   7.044  14.069  1.00  0.00     0.009 C 
HETATM    6  C14 UNL     1      -4.984   8.357  13.337  1.00  0.00     0.007 C 
HETATM    7  C15 UNL     1      -3.500   8.424  13.008  1.00  0.00     0.013 C 
HETATM    8  C16 UNL     1      -2.591   8.444  14.256  1.00  0.00    -0.005 C 
HETATM    9  C17 UNL     1      -2.681   9.858  14.880  1.00  0.00     0.019 C 
HETATM   10  C18 UNL     1      -1.074   8.127  13.906  1.00  0.00     0.028 C 
HETATM   11  C23 UNL     1      -0.752   6.799  14.624  1.00  0.00     0.013 C 
HETATM   12  C24 UNL     1      -2.105   6.144  14.861  1.00  0.00     0.040 C 
HETATM   13  C25 UNL     1      -2.985   7.328  15.289  1.00  0.00     0.070 C 
HETATM   14  C26 UNL     1      -4.514   7.011  15.417  1.00  0.00     0.026 C 
HETATM   15  C27 UNL     1      -4.771   5.672  16.149  1.00  0.00     0.011 C 
HETATM   16  C28 UNL     1      -6.240   5.251  16.227  1.00  0.00     0.039 C 
HETATM   17  C29 UNL     1      -6.982   5.333  14.884  1.00  0.00     0.073 C 
HETATM   18  C30 UNL     1      -6.499   4.181  13.963  1.00  0.00     0.071 C 
ENDROOT
BRANCH   1  19
HETATM   19  O2  UNL     1      -6.387   3.308  11.727  1.00  0.00    -0.356 OA
BRANCH  19  20
HETATM   20  C4  UNL     1      -5.012   3.184  12.086  1.00  0.00     0.263 C 
HETATM   21  C3  UNL     1      -4.519   1.871  11.492  1.00  0.00     0.095 C 
HETATM   22  C2  UNL     1      -3.048   1.657  11.826  1.00  0.00     0.156 C 
HETATM   23  C33 UNL     1      -2.232   2.884  11.379  1.00  0.00     0.175 C 
HETATM   24  C31 UNL     1      -2.862   4.183  11.924  1.00  0.00     0.151 C 
HETATM   25  O8  UNL     1      -4.253   4.280  11.593  1.00  0.00    -0.354 OA
HETATM   26  C32 UNL     1      -2.181   5.427  11.364  1.00  0.00     0.042 C 
BRANCH  22  27
HETATM   27  O1  UNL     1      -2.497   0.509  11.156  1.00  0.00    -0.388 OA
HETATM   28  C1  UNL     1      -1.087   0.563  10.998  1.00  0.00     0.202 C 
ENDBRANCH  22  27
BRANCH  23  29
HETATM   29  O9  UNL     1      -2.174   2.901   9.945  1.00  0.00    -0.390 OA
HETATM   30  H51 UNL     1      -2.044   1.966   9.681  1.00  0.00     0.210 HD
ENDBRANCH  23  29
ENDBRANCH  19  20
ENDBRANCH   1  19
BRANCH  17  31
HETATM   31  O7  UNL     1      -8.378   5.100  15.123  1.00  0.00    -0.389 OA
HETATM   32  H43 UNL     1      -8.455   4.287  15.655  1.00  0.00     0.210 HD
ENDBRANCH  17  31
BRANCH   4  33
HETATM   33  C9  UNL     1      -7.539   7.847  14.973  1.00  0.00     0.068 C 
HETATM   34  N1  UNL     1      -8.812   8.054  14.886  1.00  0.00    -0.401 N 
ATOM     35  H1  UNL     1      -9.418   7.506  14.276  1.00  0.00     0.158 HD
BRANCH  34  36
HETATM   36  C10 UNL     1      -9.318   9.143  15.734  1.00  0.00     0.121 C 
BRANCH  36  37
HETATM   37  C11 UNL     1     -10.215  10.057  14.893  1.00  0.00     0.045 C 
BRANCH  37  38
HETATM   38  C12 UNL     1     -11.188   9.286  14.005  1.00  0.00     0.165 C 
BRANCH  38  39
HETATM   39  O3  UNL     1     -11.482  10.014  12.819  1.00  0.00    -0.401 OA
HETATM   40  H20 UNL     1     -11.559  10.952  13.100  1.00  0.00     0.209 HD
ENDBRANCH  38  39
ENDBRANCH  37  38
ENDBRANCH  36  37
ENDBRANCH  34  36
ENDBRANCH   4  33
BRANCH  13  41
HETATM   41  O6  UNL     1      -2.497   7.739  16.583  1.00  0.00    -0.389 OA
HETATM   42  H37 UNL     1      -2.991   7.268  17.279  1.00  0.00     0.210 HD
ENDBRANCH  13  41
BRANCH  10  43
HETATM   43  C19 UNL     1      -0.680   8.116  12.448  1.00  0.00    -0.045 A 
HETATM   44  C20 UNL     1      -1.147   8.931  11.500  1.00  0.00     0.087 A 
HETATM   45  C21 UNL     1      -0.485   8.571  10.245  1.00  0.00     0.283 A 
HETATM   46  O4  UNL     1      -0.667   9.123   9.175  1.00  0.00    -0.260 OA
HETATM   47  O5  UNL     1       0.357   7.522  10.468  1.00  0.00    -0.314 OA
HETATM   48  C22 UNL     1       0.341   7.203  11.861  1.00  0.00     0.213 A 
ENDBRANCH  10  43
TORSDOF 12
ENDMDL
