MODEL 1
REMARK minimizedAffinity -8.55818844
REMARK CNNscore 0.688807368
REMARK CNNaffinity 6.78154802
REMARK  12 active torsions:
REMARK  status: ('A' for Active; 'I' for Inactive)
REMARK    1  A    between atoms: C2_2  and  C3_3 
REMARK    2  A    between atoms: C2_2  and  C26_31 
REMARK    3  A    between atoms: C3_3  and  C4_4 
REMARK    4  A    between atoms: C4_4  and  C5_5 
REMARK    5  A    between atoms: C5_5  and  C7_7 
REMARK    6  A    between atoms: C8_8  and  O1_9 
REMARK    7  A    between atoms: C9_10  and  O2_11 
REMARK    8  A    between atoms: C20_22  and  O3_23 
REMARK    9  A    between atoms: C23_26  and  O4_27 
REMARK   10  A    between atoms: C25_29  and  O5_30 
REMARK   11  A    between atoms: C26_31  and  C28_33 
REMARK   12  A    between atoms: C28_33  and  O6_34 
ROOT
HETATM    1  C7  UNL     1      -3.601  48.586 -22.744  1.00  0.00     0.029 C 
HETATM    2  C8  UNL     1      -4.583  48.625 -21.525  1.00  0.00     0.152 C 
HETATM    3  C9  UNL     1      -6.018  48.491 -22.092  1.00  0.00     0.155 C 
HETATM    4  C10 UNL     1      -5.797  48.079 -23.543  1.00  0.00     0.060 C 
HETATM    5  C11 UNL     1      -4.537  48.931 -23.955  1.00  0.00    -0.029 C 
HETATM    6  C12 UNL     1      -4.758  50.464 -24.029  1.00  0.00     0.016 C 
HETATM    7  C13 UNL     1      -4.059  48.434 -25.337  1.00  0.00     0.011 C 
HETATM    8  C14 UNL     1      -5.185  48.391 -26.394  1.00  0.00     0.009 C 
HETATM    9  C15 UNL     1      -6.379  47.554 -25.899  1.00  0.00     0.029 C 
HETATM   10  C16 UNL     1      -7.488  47.218 -26.951  1.00  0.00    -0.031 C 
HETATM   11  C17 UNL     1      -8.408  48.429 -27.239  1.00  0.00     0.016 C 
HETATM   12  C18 UNL     1      -6.886  46.751 -28.310  1.00  0.00     0.012 C 
HETATM   13  C19 UNL     1      -7.927  46.169 -29.275  1.00  0.00     0.032 C 
HETATM   14  C20 UNL     1      -8.809  45.095 -28.638  1.00  0.00     0.118 C 
HETATM   15  C21 UNL     1      -9.376  45.507 -27.276  1.00  0.00     0.039 C 
HETATM   16  C22 UNL     1      -8.251  45.992 -26.354  1.00  0.00     0.025 C 
HETATM   17  C23 UNL     1      -8.584  46.100 -24.844  1.00  0.00     0.126 C 
HETATM   18  C24 UNL     1      -8.275  47.430 -24.157  1.00  0.00     0.071 C 
HETATM   19  C25 UNL     1      -6.961  48.135 -24.565  1.00  0.00     0.071 C 
ENDROOT
BRANCH   1  20
HETATM   20  C5  UNL     1      -2.277  49.379 -22.514  1.00  0.00    -0.011 C 
HETATM   21  C6  UNL     1      -1.339  48.675 -21.526  1.00  0.00     0.010 C 
BRANCH  20  22
HETATM   22  C4  UNL     1      -2.594  50.813 -21.997  1.00  0.00     0.009 C 
BRANCH  22  23
HETATM   23  C3  UNL     1      -1.553  51.864 -22.426  1.00  0.00     0.034 C 
BRANCH  23  24
HETATM   24  C2  UNL     1      -0.482  52.246 -21.405  1.00  0.00    -0.083 C 
HETATM   25  C1  UNL     1      -0.636  52.082 -20.078  1.00  0.00     0.015 C 
BRANCH  24  26
HETATM   26  C26 UNL     1       0.786  52.856 -22.031  1.00  0.00     0.033 C 
HETATM   27  C27 UNL     1       0.653  53.242 -23.512  1.00  0.00     0.017 C 
BRANCH  26  28
HETATM   28  C28 UNL     1       1.304  54.059 -21.215  1.00  0.00     0.172 C 
BRANCH  28  29
HETATM   29  O6  UNL     1       1.988  55.005 -22.032  1.00  0.00    -0.400 OA
HETATM   30  H48 UNL     1       1.376  55.250 -22.749  1.00  0.00     0.209 HD
ENDBRANCH  28  29
ENDBRANCH  26  28
ENDBRANCH  24  26
ENDBRANCH  23  24
ENDBRANCH  22  23
ENDBRANCH  20  22
ENDBRANCH   1  20
BRANCH   2  31
HETATM   31  O1  UNL     1      -4.482  49.844 -20.792  1.00  0.00    -0.393 OA
HETATM   32  H13 UNL     1      -4.939  49.718 -19.944  1.00  0.00     0.210 HD
ENDBRANCH   2  31
BRANCH   3  33
HETATM   33  O2  UNL     1      -6.730  47.491 -21.372  1.00  0.00    -0.392 OA
HETATM   34  H15 UNL     1      -6.870  47.820 -20.467  1.00  0.00     0.210 HD
ENDBRANCH   3  33
BRANCH  19  35
HETATM   35  O5  UNL     1      -7.319  49.509 -24.764  1.00  0.00    -0.389 OA
HETATM   36  H41 UNL     1      -7.731  49.842 -23.949  1.00  0.00     0.210 HD
ENDBRANCH  19  35
BRANCH  17  37
HETATM   37  O4  UNL     1      -9.942  45.749 -24.583  1.00  0.00    -0.395 OA
HETATM   38  H38 UNL     1     -10.508  46.443 -24.962  1.00  0.00     0.210 HD
ENDBRANCH  17  37
BRANCH  14  39
HETATM   39  O3  UNL     1      -9.876  44.796 -29.531  1.00  0.00    -0.396 OA
HETATM   40  H33 UNL     1     -10.421  44.105 -29.115  1.00  0.00     0.210 HD
ENDBRANCH  14  39
TORSDOF 12
ENDMDL
MODEL 2
REMARK minimizedAffinity -7.30091524
REMARK CNNscore 0.66516608
REMARK CNNaffinity 5.70338631
REMARK  12 active torsions:
REMARK  status: ('A' for Active; 'I' for Inactive)
REMARK    1  A    between atoms: C2_2  and  C3_3 
REMARK    2  A    between atoms: C2_2  and  C26_31 
REMARK    3  A    between atoms: C3_3  and  C4_4 
REMARK    4  A    between atoms: C4_4  and  C5_5 
REMARK    5  A    between atoms: C5_5  and  C7_7 
REMARK    6  A    between atoms: C8_8  and  O1_9 
REMARK    7  A    between atoms: C9_10  and  O2_11 
REMARK    8  A    between atoms: C20_22  and  O3_23 
REMARK    9  A    between atoms: C23_26  and  O4_27 
REMARK   10  A    between atoms: C25_29  and  O5_30 
REMARK   11  A    between atoms: C26_31  and  C28_33 
REMARK   12  A    between atoms: C28_33  and  O6_34 
ROOT
HETATM    1  C7  UNL     1      -8.829  46.651 -28.072  1.00  0.00     0.029 C 
HETATM    2  C8  UNL     1      -9.116  48.127 -27.635  1.00  0.00     0.152 C 
HETATM    3  C9  UNL     1     -10.651  48.263 -27.477  1.00  0.00     0.155 C 
HETATM    4  C10 UNL     1     -11.150  46.823 -27.525  1.00  0.00     0.060 C 
HETATM    5  C11 UNL     1     -10.220  46.172 -28.618  1.00  0.00    -0.029 C 
HETATM    6  C12 UNL     1     -10.422  46.688 -30.066  1.00  0.00     0.016 C 
HETATM    7  C13 UNL     1     -10.460  44.647 -28.599  1.00  0.00     0.011 C 
HETATM    8  C14 UNL     1     -11.952  44.262 -28.707  1.00  0.00     0.009 C 
HETATM    9  C15 UNL     1     -12.785  44.957 -27.614  1.00  0.00     0.029 C 
HETATM   10  C16 UNL     1     -14.265  44.477 -27.445  1.00  0.00    -0.031 C 
HETATM   11  C17 UNL     1     -15.190  45.032 -28.554  1.00  0.00     0.016 C 
HETATM   12  C18 UNL     1     -14.385  42.924 -27.464  1.00  0.00     0.012 C 
HETATM   13  C19 UNL     1     -15.769  42.411 -27.045  1.00  0.00     0.032 C 
HETATM   14  C20 UNL     1     -16.263  43.007 -25.728  1.00  0.00     0.118 C 
HETATM   15  C21 UNL     1     -16.112  44.531 -25.660  1.00  0.00     0.039 C 
HETATM   16  C22 UNL     1     -14.677  44.941 -26.010  1.00  0.00     0.025 C 
HETATM   17  C23 UNL     1     -14.255  46.386 -25.642  1.00  0.00     0.126 C 
HETATM   18  C24 UNL     1     -13.634  47.233 -26.753  1.00  0.00     0.071 C 
HETATM   19  C25 UNL     1     -12.657  46.516 -27.712  1.00  0.00     0.071 C 
ENDROOT
BRANCH   1  20
HETATM   20  C5  UNL     1      -7.539  46.490 -28.936  1.00  0.00    -0.011 C 
HETATM   21  C6  UNL     1      -7.095  45.026 -29.054  1.00  0.00     0.010 C 
BRANCH  20  22
HETATM   22  C4  UNL     1      -6.380  47.337 -28.335  1.00  0.00     0.009 C 
BRANCH  22  23
HETATM   23  C3  UNL     1      -5.530  48.056 -29.399  1.00  0.00     0.034 C 
BRANCH  23  24
HETATM   24  C2  UNL     1      -5.934  47.869 -30.861  1.00  0.00    -0.083 C 
HETATM   25  C1  UNL     1      -7.051  48.401 -31.392  1.00  0.00     0.015 C 
BRANCH  24  26
HETATM   26  C26 UNL     1      -4.956  46.998 -31.671  1.00  0.00     0.033 C 
HETATM   27  C27 UNL     1      -5.514  45.633 -32.103  1.00  0.00     0.017 C 
BRANCH  26  28
HETATM   28  C28 UNL     1      -4.395  47.752 -32.894  1.00  0.00     0.172 C 
BRANCH  28  29
HETATM   29  O6  UNL     1      -4.870  47.209 -34.123  1.00  0.00    -0.400 OA
HETATM   30  H48 UNL     1      -5.843  47.209 -34.072  1.00  0.00     0.209 HD
ENDBRANCH  28  29
ENDBRANCH  26  28
ENDBRANCH  24  26
ENDBRANCH  23  24
ENDBRANCH  22  23
ENDBRANCH  20  22
ENDBRANCH   1  20
BRANCH   2  31
HETATM   31  O1  UNL     1      -8.660  49.073 -28.600  1.00  0.00    -0.393 OA
HETATM   32  H13 UNL     1      -8.664  49.949 -28.180  1.00  0.00     0.210 HD
ENDBRANCH   2  31
BRANCH   3  33
HETATM   33  O2  UNL     1     -10.956  48.876 -26.230  1.00  0.00    -0.392 OA
HETATM   34  H15 UNL     1     -10.646  49.798 -26.268  1.00  0.00     0.210 HD
ENDBRANCH   3  33
BRANCH  19  35
HETATM   35  O5  UNL     1     -13.043  46.940 -29.026  1.00  0.00    -0.389 OA
HETATM   36  H41 UNL     1     -13.015  47.911 -29.059  1.00  0.00     0.210 HD
ENDBRANCH  19  35
BRANCH  17  37
HETATM   37  O4  UNL     1     -15.334  47.111 -25.055  1.00  0.00    -0.395 OA
HETATM   38  H38 UNL     1     -16.000  47.268 -25.747  1.00  0.00     0.210 HD
ENDBRANCH  17  37
BRANCH  14  39
HETATM   39  O3  UNL     1     -17.631  42.654 -25.555  1.00  0.00    -0.396 OA
HETATM   40  H33 UNL     1     -17.926  43.034 -24.708  1.00  0.00     0.210 HD
ENDBRANCH  14  39
TORSDOF 12
ENDMDL
MODEL 3
REMARK minimizedAffinity -7.46642447
REMARK CNNscore 0.657201827
REMARK CNNaffinity 6.01571226
REMARK  12 active torsions:
REMARK  status: ('A' for Active; 'I' for Inactive)
REMARK    1  A    between atoms: C2_2  and  C3_3 
REMARK    2  A    between atoms: C2_2  and  C26_31 
REMARK    3  A    between atoms: C3_3  and  C4_4 
REMARK    4  A    between atoms: C4_4  and  C5_5 
REMARK    5  A    between atoms: C5_5  and  C7_7 
REMARK    6  A    between atoms: C8_8  and  O1_9 
REMARK    7  A    between atoms: C9_10  and  O2_11 
REMARK    8  A    between atoms: C20_22  and  O3_23 
REMARK    9  A    between atoms: C23_26  and  O4_27 
REMARK   10  A    between atoms: C25_29  and  O5_30 
REMARK   11  A    between atoms: C26_31  and  C28_33 
REMARK   12  A    between atoms: C28_33  and  O6_34 
ROOT
HETATM    1  C7  UNL     1      -8.471  46.682 -26.610  1.00  0.00     0.029 C 
HETATM    2  C8  UNL     1      -9.355  47.942 -26.895  1.00  0.00     0.152 C 
HETATM    3  C9  UNL     1      -9.618  47.979 -28.421  1.00  0.00     0.155 C 
HETATM    4  C10 UNL     1      -9.148  46.610 -28.902  1.00  0.00     0.060 C 
HETATM    5  C11 UNL     1      -7.867  46.355 -28.022  1.00  0.00    -0.029 C 
HETATM    6  C12 UNL     1      -6.661  47.287 -28.306  1.00  0.00     0.016 C 
HETATM    7  C13 UNL     1      -7.424  44.892 -28.240  1.00  0.00     0.011 C 
HETATM    8  C14 UNL     1      -7.269  44.517 -29.731  1.00  0.00     0.009 C 
HETATM    9  C15 UNL     1      -8.561  44.816 -30.514  1.00  0.00     0.029 C 
HETATM   10  C16 UNL     1      -8.640  44.265 -31.978  1.00  0.00    -0.031 C 
HETATM   11  C17 UNL     1      -7.800  45.108 -32.967  1.00  0.00     0.016 C 
HETATM   12  C18 UNL     1      -8.146  42.791 -32.077  1.00  0.00     0.012 C 
HETATM   13  C19 UNL     1      -8.448  42.134 -33.431  1.00  0.00     0.032 C 
HETATM   14  C20 UNL     1      -9.906  42.280 -33.864  1.00  0.00     0.118 C 
HETATM   15  C21 UNL     1     -10.436  43.712 -33.729  1.00  0.00     0.039 C 
HETATM   16  C22 UNL     1     -10.165  44.251 -32.320  1.00  0.00     0.025 C 
HETATM   17  C23 UNL     1     -10.943  45.524 -31.898  1.00  0.00     0.126 C 
HETATM   18  C24 UNL     1     -10.122  46.690 -31.348  1.00  0.00     0.071 C 
HETATM   19  C25 UNL     1      -8.945  46.332 -30.413  1.00  0.00     0.071 C 
ENDROOT
BRANCH   1  20
HETATM   20  C5  UNL     1      -7.541  46.832 -25.366  1.00  0.00    -0.011 C 
HETATM   21  C6  UNL     1      -8.296  47.341 -24.132  1.00  0.00     0.010 C 
BRANCH  20  22
HETATM   22  C4  UNL     1      -6.364  47.798 -25.689  1.00  0.00     0.009 C 
BRANCH  22  23
HETATM   23  C3  UNL     1      -5.655  48.343 -24.435  1.00  0.00     0.034 C 
BRANCH  23  24
HETATM   24  C2  UNL     1      -4.158  48.630 -24.547  1.00  0.00    -0.083 C 
HETATM   25  C1  UNL     1      -3.466  48.502 -25.694  1.00  0.00     0.015 C 
BRANCH  24  26
HETATM   26  C26 UNL     1      -3.505  49.060 -23.220  1.00  0.00     0.033 C 
HETATM   27  C27 UNL     1      -2.644  47.982 -22.546  1.00  0.00     0.017 C 
BRANCH  26  28
HETATM   28  C28 UNL     1      -2.695  50.363 -23.377  1.00  0.00     0.172 C 
BRANCH  28  29
HETATM   29  O6  UNL     1      -1.326  50.189 -23.026  1.00  0.00    -0.400 OA
HETATM   30  H48 UNL     1      -0.990  49.450 -23.564  1.00  0.00     0.209 HD
ENDBRANCH  28  29
ENDBRANCH  26  28
ENDBRANCH  24  26
ENDBRANCH  23  24
ENDBRANCH  22  23
ENDBRANCH  20  22
ENDBRANCH   1  20
BRANCH   2  31
HETATM   31  O1  UNL     1      -8.712  49.152 -26.502  1.00  0.00    -0.393 OA
HETATM   32  H13 UNL     1      -9.382  49.855 -26.496  1.00  0.00     0.210 HD
ENDBRANCH   2  31
BRANCH   3  33
HETATM   33  O2  UNL     1     -11.006  48.168 -28.668  1.00  0.00    -0.392 OA
HETATM   34  H15 UNL     1     -11.241  49.065 -28.373  1.00  0.00     0.210 HD
ENDBRANCH   3  33
BRANCH  19  35
HETATM   35  O5  UNL     1      -7.845  47.130 -30.873  1.00  0.00    -0.389 OA
HETATM   36  H41 UNL     1      -8.114  48.064 -30.859  1.00  0.00     0.210 HD
ENDBRANCH  19  35
BRANCH  17  37
HETATM   37  O4  UNL     1     -11.775  46.001 -32.955  1.00  0.00    -0.395 OA
HETATM   38  H38 UNL     1     -11.196  46.344 -33.658  1.00  0.00     0.210 HD
ENDBRANCH  17  37
BRANCH  14  39
HETATM   39  O3  UNL     1     -10.024  41.851 -35.216  1.00  0.00    -0.396 OA
HETATM   40  H33 UNL     1     -10.959  41.942 -35.471  1.00  0.00     0.210 HD
ENDBRANCH  14  39
TORSDOF 12
ENDMDL
MODEL 4
REMARK minimizedAffinity -9.46953678
REMARK CNNscore 0.641173601
REMARK CNNaffinity 7.19616318
REMARK  12 active torsions:
REMARK  status: ('A' for Active; 'I' for Inactive)
REMARK    1  A    between atoms: C2_2  and  C3_3 
REMARK    2  A    between atoms: C2_2  and  C26_31 
REMARK    3  A    between atoms: C3_3  and  C4_4 
REMARK    4  A    between atoms: C4_4  and  C5_5 
REMARK    5  A    between atoms: C5_5  and  C7_7 
REMARK    6  A    between atoms: C8_8  and  O1_9 
REMARK    7  A    between atoms: C9_10  and  O2_11 
REMARK    8  A    between atoms: C20_22  and  O3_23 
REMARK    9  A    between atoms: C23_26  and  O4_27 
REMARK   10  A    between atoms: C25_29  and  O5_30 
REMARK   11  A    between atoms: C26_31  and  C28_33 
REMARK   12  A    between atoms: C28_33  and  O6_34 
ROOT
HETATM    1  C7  UNL     1      -1.531  48.667 -19.560  1.00  0.00     0.029 C 
HETATM    2  C8  UNL     1      -2.920  47.989 -19.813  1.00  0.00     0.152 C 
HETATM    3  C9  UNL     1      -3.489  48.592 -21.121  1.00  0.00     0.155 C 
HETATM    4  C10 UNL     1      -2.304  49.342 -21.720  1.00  0.00     0.060 C 
HETATM    5  C11 UNL     1      -1.608  49.958 -20.448  1.00  0.00    -0.029 C 
HETATM    6  C12 UNL     1      -2.413  51.057 -19.708  1.00  0.00     0.016 C 
HETATM    7  C13 UNL     1      -0.252  50.552 -20.889  1.00  0.00     0.011 C 
HETATM    8  C14 UNL     1      -0.369  51.514 -22.093  1.00  0.00     0.009 C 
HETATM    9  C15 UNL     1      -1.076  50.834 -23.279  1.00  0.00     0.029 C 
HETATM   10  C16 UNL     1      -1.050  51.597 -24.646  1.00  0.00    -0.031 C 
HETATM   11  C17 UNL     1      -2.052  52.776 -24.676  1.00  0.00     0.016 C 
HETATM   12  C18 UNL     1       0.361  52.169 -24.972  1.00  0.00     0.012 C 
HETATM   13  C19 UNL     1       0.493  52.695 -26.407  1.00  0.00     0.032 C 
HETATM   14  C20 UNL     1       0.022  51.696 -27.464  1.00  0.00     0.118 C 
HETATM   15  C21 UNL     1      -1.344  51.077 -27.144  1.00  0.00     0.039 C 
HETATM   16  C22 UNL     1      -1.351  50.504 -25.722  1.00  0.00     0.025 C 
HETATM   17  C23 UNL     1      -2.506  49.534 -25.367  1.00  0.00     0.126 C 
HETATM   18  C24 UNL     1      -3.309  49.842 -24.103  1.00  0.00     0.071 C 
HETATM   19  C25 UNL     1      -2.512  50.349 -22.879  1.00  0.00     0.071 C 
ENDROOT
BRANCH   1  20
HETATM   20  C5  UNL     1      -1.141  48.763 -18.052  1.00  0.00    -0.011 C 
HETATM   21  C6  UNL     1      -2.144  48.041 -17.143  1.00  0.00     0.010 C 
BRANCH  20  22
HETATM   22  C4  UNL     1      -1.030  50.254 -17.621  1.00  0.00     0.009 C 
BRANCH  22  23
HETATM   23  C3  UNL     1       0.090  50.514 -16.596  1.00  0.00     0.034 C 
BRANCH  23  24
HETATM   24  C2  UNL     1       1.065  51.652 -16.899  1.00  0.00    -0.083 C 
HETATM   25  C1  UNL     1       0.892  52.521 -17.912  1.00  0.00     0.015 C 
BRANCH  24  26
HETATM   26  C26 UNL     1       2.279  51.701 -15.952  1.00  0.00     0.033 C 
HETATM   27  C27 UNL     1       3.370  52.705 -16.353  1.00  0.00     0.017 C 
BRANCH  26  28
HETATM   28  C28 UNL     1       1.853  51.938 -14.489  1.00  0.00     0.172 C 
BRANCH  28  29
HETATM   29  O6  UNL     1       0.842  52.936 -14.379  1.00  0.00    -0.400 OA
HETATM   30  H48 UNL     1       0.112  52.660 -14.962  1.00  0.00     0.209 HD
ENDBRANCH  28  29
ENDBRANCH  26  28
ENDBRANCH  24  26
ENDBRANCH  23  24
ENDBRANCH  22  23
ENDBRANCH  20  22
ENDBRANCH   1  20
BRANCH   2  31
HETATM   31  O1  UNL     1      -3.838  48.231 -18.749  1.00  0.00    -0.393 OA
HETATM   32  H13 UNL     1      -4.582  47.616 -18.855  1.00  0.00     0.210 HD
ENDBRANCH   2  31
BRANCH   3  33
HETATM   33  O2  UNL     1      -3.930  47.548 -21.982  1.00  0.00    -0.392 OA
HETATM   34  H15 UNL     1      -4.703  47.128 -21.567  1.00  0.00     0.210 HD
ENDBRANCH   3  33
BRANCH  19  35
HETATM   35  O5  UNL     1      -3.263  51.463 -22.378  1.00  0.00    -0.389 OA
HETATM   36  H41 UNL     1      -4.169  51.164 -22.187  1.00  0.00     0.210 HD
ENDBRANCH  19  35
BRANCH  17  37
HETATM   37  O4  UNL     1      -3.408  49.374 -26.460  1.00  0.00    -0.395 OA
HETATM   38  H38 UNL     1      -3.883  50.215 -26.581  1.00  0.00     0.210 HD
ENDBRANCH  17  37
BRANCH  14  39
HETATM   39  O3  UNL     1      -0.035  52.358 -28.722  1.00  0.00    -0.396 OA
HETATM   40  H33 UNL     1      -0.328  51.706 -29.383  1.00  0.00     0.210 HD
ENDBRANCH  14  39
TORSDOF 12
ENDMDL
MODEL 5
REMARK minimizedAffinity -7.71523905
REMARK CNNscore 0.543642402
REMARK CNNaffinity 6.00353098
REMARK  12 active torsions:
REMARK  status: ('A' for Active; 'I' for Inactive)
REMARK    1  A    between atoms: C2_2  and  C3_3 
REMARK    2  A    between atoms: C2_2  and  C26_31 
REMARK    3  A    between atoms: C3_3  and  C4_4 
REMARK    4  A    between atoms: C4_4  and  C5_5 
REMARK    5  A    between atoms: C5_5  and  C7_7 
REMARK    6  A    between atoms: C8_8  and  O1_9 
REMARK    7  A    between atoms: C9_10  and  O2_11 
REMARK    8  A    between atoms: C20_22  and  O3_23 
REMARK    9  A    between atoms: C23_26  and  O4_27 
REMARK   10  A    between atoms: C25_29  and  O5_30 
REMARK   11  A    between atoms: C26_31  and  C28_33 
REMARK   12  A    between atoms: C28_33  and  O6_34 
ROOT
HETATM    1  C7  UNL     1     -13.850  45.846 -27.694  1.00  0.00     0.029 C 
HETATM    2  C8  UNL     1     -13.480  47.001 -26.703  1.00  0.00     0.152 C 
HETATM    3  C9  UNL     1     -12.059  47.487 -27.080  1.00  0.00     0.155 C 
HETATM    4  C10 UNL     1     -11.797  46.826 -28.429  1.00  0.00     0.060 C 
HETATM    5  C11 UNL     1     -12.451  45.404 -28.249  1.00  0.00    -0.029 C 
HETATM    6  C12 UNL     1     -11.753  44.468 -27.230  1.00  0.00     0.016 C 
HETATM    7  C13 UNL     1     -12.465  44.710 -29.629  1.00  0.00     0.011 C 
HETATM    8  C14 UNL     1     -11.085  44.704 -30.324  1.00  0.00     0.009 C 
HETATM    9  C15 UNL     1     -10.517  46.130 -30.439  1.00  0.00     0.029 C 
HETATM   10  C16 UNL     1      -9.245  46.311 -31.334  1.00  0.00    -0.031 C 
HETATM   11  C17 UNL     1      -7.959  45.815 -30.630  1.00  0.00     0.016 C 
HETATM   12  C18 UNL     1      -9.365  45.548 -32.687  1.00  0.00     0.012 C 
HETATM   13  C19 UNL     1      -8.264  45.906 -33.693  1.00  0.00     0.032 C 
HETATM   14  C20 UNL     1      -8.095  47.412 -33.897  1.00  0.00     0.118 C 
HETATM   15  C21 UNL     1      -8.023  48.196 -32.582  1.00  0.00     0.039 C 
HETATM   16  C22 UNL     1      -9.210  47.835 -31.680  1.00  0.00     0.025 C 
HETATM   17  C23 UNL     1      -9.494  48.784 -30.488  1.00  0.00     0.126 C 
HETATM   18  C24 UNL     1      -9.620  48.145 -29.105  1.00  0.00     0.071 C 
HETATM   19  C25 UNL     1     -10.368  46.795 -29.028  1.00  0.00     0.071 C 
ENDROOT
BRANCH   1  20
HETATM   20  C5  UNL     1     -14.835  44.793 -27.096  1.00  0.00    -0.011 C 
HETATM   21  C6  UNL     1     -14.932  43.530 -27.959  1.00  0.00     0.010 C 
BRANCH  20  22
HETATM   22  C4  UNL     1     -16.250  45.418 -26.927  1.00  0.00     0.009 C 
BRANCH  22  23
HETATM   23  C3  UNL     1     -16.855  45.200 -25.528  1.00  0.00     0.034 C 
BRANCH  23  24
HETATM   24  C2  UNL     1     -17.213  46.446 -24.718  1.00  0.00    -0.083 C 
HETATM   25  C1  UNL     1     -16.295  47.324 -24.272  1.00  0.00     0.015 C 
BRANCH  24  26
HETATM   26  C26 UNL     1     -18.720  46.596 -24.439  1.00  0.00     0.033 C 
HETATM   27  C27 UNL     1     -19.624  45.666 -25.260  1.00  0.00     0.017 C 
BRANCH  26  28
HETATM   28  C28 UNL     1     -19.040  46.456 -22.936  1.00  0.00     0.172 C 
BRANCH  28  29
HETATM   29  O6  UNL     1     -18.656  45.183 -22.424  1.00  0.00    -0.400 OA
HETATM   30  H48 UNL     1     -17.713  45.067 -22.638  1.00  0.00     0.209 HD
ENDBRANCH  28  29
ENDBRANCH  26  28
ENDBRANCH  24  26
ENDBRANCH  23  24
ENDBRANCH  22  23
ENDBRANCH  20  22
ENDBRANCH   1  20
BRANCH   2  31
HETATM   31  O1  UNL     1     -13.480  46.566 -25.345  1.00  0.00    -0.393 OA
HETATM   32  H13 UNL     1     -13.465  47.356 -24.781  1.00  0.00     0.210 HD
ENDBRANCH   2  31
BRANCH   3  33
HETATM   33  O2  UNL     1     -12.047  48.906 -27.187  1.00  0.00    -0.392 OA
HETATM   34  H15 UNL     1     -12.185  49.272 -26.296  1.00  0.00     0.210 HD
ENDBRANCH   3  33
BRANCH  19  35
HETATM   35  O5  UNL     1      -9.550  45.961 -28.197  1.00  0.00    -0.389 OA
HETATM   36  H41 UNL     1      -9.417  46.409 -27.344  1.00  0.00     0.210 HD
ENDBRANCH  19  35
BRANCH  17  37
HETATM   37  O4  UNL     1      -8.539  49.842 -30.424  1.00  0.00    -0.395 OA
HETATM   38  H38 UNL     1      -7.682  49.455 -30.172  1.00  0.00     0.210 HD
ENDBRANCH  17  37
BRANCH  14  39
HETATM   39  O3  UNL     1      -6.911  47.638 -34.654  1.00  0.00    -0.396 OA
HETATM   40  H33 UNL     1      -6.825  48.599 -34.782  1.00  0.00     0.210 HD
ENDBRANCH  14  39
TORSDOF 12
ENDMDL
MODEL 6
REMARK minimizedAffinity -8.16523266
REMARK CNNscore 0.519895554
REMARK CNNaffinity 6.29512167
REMARK  12 active torsions:
REMARK  status: ('A' for Active; 'I' for Inactive)
REMARK    1  A    between atoms: C2_2  and  C3_3 
REMARK    2  A    between atoms: C2_2  and  C26_31 
REMARK    3  A    between atoms: C3_3  and  C4_4 
REMARK    4  A    between atoms: C4_4  and  C5_5 
REMARK    5  A    between atoms: C5_5  and  C7_7 
REMARK    6  A    between atoms: C8_8  and  O1_9 
REMARK    7  A    between atoms: C9_10  and  O2_11 
REMARK    8  A    between atoms: C20_22  and  O3_23 
REMARK    9  A    between atoms: C23_26  and  O4_27 
REMARK   10  A    between atoms: C25_29  and  O5_30 
REMARK   11  A    between atoms: C26_31  and  C28_33 
REMARK   12  A    between atoms: C28_33  and  O6_34 
ROOT
HETATM    1  C7  UNL     1      -0.969  50.992 -15.268  1.00  0.00     0.029 C 
HETATM    2  C8  UNL     1      -2.436  51.186 -14.757  1.00  0.00     0.152 C 
HETATM    3  C9  UNL     1      -2.345  51.705 -13.301  1.00  0.00     0.155 C 
HETATM    4  C10 UNL     1      -0.875  52.074 -13.138  1.00  0.00     0.060 C 
HETATM    5  C11 UNL     1      -0.142  50.931 -13.936  1.00  0.00    -0.029 C 
HETATM    6  C12 UNL     1      -0.242  49.511 -13.321  1.00  0.00     0.016 C 
HETATM    7  C13 UNL     1       1.350  51.313 -14.053  1.00  0.00     0.011 C 
HETATM    8  C14 UNL     1       1.996  51.673 -12.696  1.00  0.00     0.009 C 
HETATM    9  C15 UNL     1       1.204  52.783 -11.982  1.00  0.00     0.029 C 
HETATM   10  C16 UNL     1       1.871  53.421 -10.717  1.00  0.00    -0.031 C 
HETATM   11  C17 UNL     1       1.772  52.501  -9.477  1.00  0.00     0.016 C 
HETATM   12  C18 UNL     1       3.378  53.742 -10.947  1.00  0.00     0.012 C 
HETATM   13  C19 UNL     1       3.999  54.597  -9.834  1.00  0.00     0.032 C 
HETATM   14  C20 UNL     1       3.188  55.852  -9.510  1.00  0.00     0.118 C 
HETATM   15  C21 UNL     1       1.692  55.575  -9.328  1.00  0.00     0.039 C 
HETATM   16  C22 UNL     1       1.144  54.792 -10.527  1.00  0.00     0.025 C 
HETATM   17  C23 UNL     1      -0.397  54.743 -10.683  1.00  0.00     0.126 C 
HETATM   18  C24 UNL     1      -1.036  53.364 -10.848  1.00  0.00     0.071 C 
HETATM   19  C25 UNL     1      -0.281  52.348 -11.734  1.00  0.00     0.071 C 
ENDROOT
BRANCH   1  20
HETATM   20  C5  UNL     1      -0.820  49.874 -16.347  1.00  0.00    -0.011 C 
HETATM   21  C6  UNL     1      -0.439  48.520 -15.735  1.00  0.00     0.010 C 
BRANCH  20  22
HETATM   22  C4  UNL     1       0.248  50.286 -17.402  1.00  0.00     0.009 C 
BRANCH  22  23
HETATM   23  C3  UNL     1      -0.242  51.368 -18.382  1.00  0.00     0.034 C 
BRANCH  23  24
HETATM   24  C2  UNL     1      -0.170  51.046 -19.874  1.00  0.00    -0.083 C 
HETATM   25  C1  UNL     1      -0.517  49.851 -20.388  1.00  0.00     0.015 C 
BRANCH  24  26
HETATM   26  C26 UNL     1       0.356  52.207 -20.738  1.00  0.00     0.033 C 
HETATM   27  C27 UNL     1      -0.280  52.313 -22.132  1.00  0.00     0.017 C 
BRANCH  26  28
HETATM   28  C28 UNL     1       0.252  53.559 -20.003  1.00  0.00     0.172 C 
BRANCH  28  29
HETATM   29  O6  UNL     1       1.524  54.180 -19.841  1.00  0.00    -0.400 OA
HETATM   30  H48 UNL     1       1.920  54.244 -20.729  1.00  0.00     0.209 HD
ENDBRANCH  28  29
ENDBRANCH  26  28
ENDBRANCH  24  26
ENDBRANCH  23  24
ENDBRANCH  22  23
ENDBRANCH  20  22
ENDBRANCH   1  20
BRANCH   2  31
HETATM   31  O1  UNL     1      -3.178  49.969 -14.775  1.00  0.00    -0.393 OA
HETATM   32  H13 UNL     1      -4.116  50.192 -14.664  1.00  0.00     0.210 HD
ENDBRANCH   2  31
BRANCH   3  33
HETATM   33  O2  UNL     1      -3.186  52.841 -13.139  1.00  0.00    -0.392 OA
HETATM   34  H15 UNL     1      -4.109  52.541 -13.219  1.00  0.00     0.210 HD
ENDBRANCH   3  33
BRANCH  19  35
HETATM   35  O5  UNL     1      -0.295  51.121 -10.992  1.00  0.00    -0.389 OA
HETATM   36  H41 UNL     1      -1.219  50.890 -10.794  1.00  0.00     0.210 HD
ENDBRANCH  19  35
BRANCH  17  37
HETATM   37  O4  UNL     1      -1.051  55.433  -9.620  1.00  0.00    -0.395 OA
HETATM   38  H38 UNL     1      -0.917  54.919  -8.804  1.00  0.00     0.210 HD
ENDBRANCH  17  37
BRANCH  14  39
HETATM   39  O3  UNL     1       3.714  56.439  -8.326  1.00  0.00    -0.396 OA
HETATM   40  H33 UNL     1       3.193  57.240  -8.140  1.00  0.00     0.210 HD
ENDBRANCH  14  39
TORSDOF 12
ENDMDL
MODEL 7
REMARK minimizedAffinity -8.28721809
REMARK CNNscore 0.51366204
REMARK CNNaffinity 6.58723783
REMARK  12 active torsions:
REMARK  status: ('A' for Active; 'I' for Inactive)
REMARK    1  A    between atoms: C2_2  and  C3_3 
REMARK    2  A    between atoms: C2_2  and  C26_31 
REMARK    3  A    between atoms: C3_3  and  C4_4 
REMARK    4  A    between atoms: C4_4  and  C5_5 
REMARK    5  A    between atoms: C5_5  and  C7_7 
REMARK    6  A    between atoms: C8_8  and  O1_9 
REMARK    7  A    between atoms: C9_10  and  O2_11 
REMARK    8  A    between atoms: C20_22  and  O3_23 
REMARK    9  A    between atoms: C23_26  and  O4_27 
REMARK   10  A    between atoms: C25_29  and  O5_30 
REMARK   11  A    between atoms: C26_31  and  C28_33 
REMARK   12  A    between atoms: C28_33  and  O6_34 
ROOT
HETATM    1  C7  UNL     1      -4.630  48.298 -22.068  1.00  0.00     0.029 C 
HETATM    2  C8  UNL     1      -5.866  48.370 -23.026  1.00  0.00     0.152 C 
HETATM    3  C9  UNL     1      -5.501  49.351 -24.168  1.00  0.00     0.155 C 
HETATM    4  C10 UNL     1      -4.000  49.561 -23.998  1.00  0.00     0.060 C 
HETATM    5  C11 UNL     1      -3.832  49.599 -22.432  1.00  0.00    -0.029 C 
HETATM    6  C12 UNL     1      -4.465  50.821 -21.718  1.00  0.00     0.016 C 
HETATM    7  C13 UNL     1      -2.321  49.571 -22.115  1.00  0.00     0.011 C 
HETATM    8  C14 UNL     1      -1.516  50.647 -22.879  1.00  0.00     0.009 C 
HETATM    9  C15 UNL     1      -1.756  50.545 -24.396  1.00  0.00     0.029 C 
HETATM   10  C16 UNL     1      -0.825  51.406 -25.315  1.00  0.00    -0.031 C 
HETATM   11  C17 UNL     1      -1.224  52.901 -25.314  1.00  0.00     0.016 C 
HETATM   12  C18 UNL     1       0.669  51.316 -24.885  1.00  0.00     0.012 C 
HETATM   13  C19 UNL     1       1.638  51.930 -25.905  1.00  0.00     0.032 C 
HETATM   14  C20 UNL     1       1.420  51.422 -27.330  1.00  0.00     0.118 C 
HETATM   15  C21 UNL     1      -0.050  51.452 -27.764  1.00  0.00     0.039 C 
HETATM   16  C22 UNL     1      -0.927  50.741 -26.726  1.00  0.00     0.025 C 
HETATM   17  C23 UNL     1      -2.362  50.361 -27.169  1.00  0.00     0.126 C 
HETATM   18  C24 UNL     1      -3.511  50.809 -26.265  1.00  0.00     0.071 C 
HETATM   19  C25 UNL     1      -3.275  50.712 -24.741  1.00  0.00     0.071 C 
ENDROOT
BRANCH   1  20
HETATM   20  C5  UNL     1      -5.000  47.982 -20.585  1.00  0.00    -0.011 C 
HETATM   21  C6  UNL     1      -4.569  46.572 -20.164  1.00  0.00     0.010 C 
BRANCH  20  22
HETATM   22  C4  UNL     1      -6.532  48.144 -20.368  1.00  0.00     0.009 C 
BRANCH  22  23
HETATM   23  C3  UNL     1      -6.894  48.843 -19.044  1.00  0.00     0.034 C 
BRANCH  23  24
HETATM   24  C2  UNL     1      -7.675  48.028 -18.013  1.00  0.00    -0.083 C 
HETATM   25  C1  UNL     1      -7.118  47.059 -17.264  1.00  0.00     0.015 C 
BRANCH  24  26
HETATM   26  C26 UNL     1      -9.166  48.402 -17.924  1.00  0.00     0.033 C 
HETATM   27  C27 UNL     1      -9.929  48.333 -19.255  1.00  0.00     0.017 C 
BRANCH  26  28
HETATM   28  C28 UNL     1      -9.900  47.574 -16.849  1.00  0.00     0.172 C 
BRANCH  28  29
HETATM   29  O6  UNL     1     -10.229  48.354 -15.703  1.00  0.00    -0.400 OA
HETATM   30  H48 UNL     1     -10.736  49.122 -16.023  1.00  0.00     0.209 HD
ENDBRANCH  28  29
ENDBRANCH  26  28
ENDBRANCH  24  26
ENDBRANCH  23  24
ENDBRANCH  22  23
ENDBRANCH  20  22
ENDBRANCH   1  20
BRANCH   2  31
HETATM   31  O1  UNL     1      -7.036  48.842 -22.361  1.00  0.00    -0.393 OA
HETATM   32  H13 UNL     1      -7.798  48.655 -22.934  1.00  0.00     0.210 HD
ENDBRANCH   2  31
BRANCH   3  33
HETATM   33  O2  UNL     1      -5.803  48.762 -25.427  1.00  0.00    -0.392 OA
HETATM   34  H15 UNL     1      -6.770  48.682 -25.493  1.00  0.00     0.210 HD
ENDBRANCH   3  33
BRANCH  19  35
HETATM   35  O5  UNL     1      -3.746  51.958 -24.209  1.00  0.00    -0.389 OA
HETATM   36  H41 UNL     1      -4.673  52.078 -24.477  1.00  0.00     0.210 HD
ENDBRANCH  19  35
BRANCH  17  37
HETATM   37  O4  UNL     1      -2.628  50.791 -28.503  1.00  0.00    -0.395 OA
HETATM   38  H38 UNL     1      -2.671  51.764 -28.500  1.00  0.00     0.210 HD
ENDBRANCH  17  37
BRANCH  14  39
HETATM   39  O3  UNL     1       2.197  52.217 -28.219  1.00  0.00    -0.396 OA
HETATM   40  H33 UNL     1       2.054  51.874 -29.118  1.00  0.00     0.210 HD
ENDBRANCH  14  39
TORSDOF 12
ENDMDL
MODEL 8
REMARK minimizedAffinity -7.18465471
REMARK CNNscore 0.502821863
REMARK CNNaffinity 6.24513578
REMARK  12 active torsions:
REMARK  status: ('A' for Active; 'I' for Inactive)
REMARK    1  A    between atoms: C2_2  and  C3_3 
REMARK    2  A    between atoms: C2_2  and  C26_31 
REMARK    3  A    between atoms: C3_3  and  C4_4 
REMARK    4  A    between atoms: C4_4  and  C5_5 
REMARK    5  A    between atoms: C5_5  and  C7_7 
REMARK    6  A    between atoms: C8_8  and  O1_9 
REMARK    7  A    between atoms: C9_10  and  O2_11 
REMARK    8  A    between atoms: C20_22  and  O3_23 
REMARK    9  A    between atoms: C23_26  and  O4_27 
REMARK   10  A    between atoms: C25_29  and  O5_30 
REMARK   11  A    between atoms: C26_31  and  C28_33 
REMARK   12  A    between atoms: C28_33  and  O6_34 
ROOT
HETATM    1  C7  UNL     1       0.055  51.661 -14.154  1.00  0.00     0.029 C 
HETATM    2  C8  UNL     1      -1.401  51.777 -13.589  1.00  0.00     0.152 C 
HETATM    3  C9  UNL     1      -1.283  52.262 -12.123  1.00  0.00     0.155 C 
HETATM    4  C10 UNL     1       0.175  52.692 -12.000  1.00  0.00     0.060 C 
HETATM    5  C11 UNL     1       0.928  51.603 -12.851  1.00  0.00    -0.029 C 
HETATM    6  C12 UNL     1       0.911  50.165 -12.271  1.00  0.00     0.016 C 
HETATM    7  C13 UNL     1       2.397  52.054 -13.008  1.00  0.00     0.011 C 
HETATM    8  C14 UNL     1       3.074  52.408 -11.664  1.00  0.00     0.009 C 
HETATM    9  C15 UNL     1       2.259  53.464 -10.895  1.00  0.00     0.029 C 
HETATM   10  C16 UNL     1       2.940  54.099  -9.636  1.00  0.00    -0.031 C 
HETATM   11  C17 UNL     1       2.924  53.144  -8.418  1.00  0.00     0.016 C 
HETATM   12  C18 UNL     1       4.423  54.492  -9.907  1.00  0.00     0.012 C 
HETATM   13  C19 UNL     1       5.044  55.346  -8.794  1.00  0.00     0.032 C 
HETATM   14  C20 UNL     1       4.191  56.555  -8.410  1.00  0.00     0.118 C 
HETATM   15  C21 UNL     1       2.716  56.207  -8.185  1.00  0.00     0.039 C 
HETATM   16  C22 UNL     1       2.162  55.431  -9.386  1.00  0.00     0.025 C 
HETATM   17  C23 UNL     1       0.620  55.317  -9.492  1.00  0.00     0.126 C 
HETATM   18  C24 UNL     1       0.035  53.916  -9.672  1.00  0.00     0.071 C 
HETATM   19  C25 UNL     1       0.804  52.957 -10.609  1.00  0.00     0.071 C 
ENDROOT
BRANCH   1  20
HETATM   20  C5  UNL     1       0.215  50.578 -15.266  1.00  0.00    -0.011 C 
HETATM   21  C6  UNL     1       1.197  49.470 -14.864  1.00  0.00     0.010 C 
BRANCH  20  22
HETATM   22  C4  UNL     1       0.691  51.238 -16.592  1.00  0.00     0.009 C 
BRANCH  22  23
HETATM   23  C3  UNL     1      -0.209  50.911 -17.798  1.00  0.00     0.034 C 
BRANCH  23  24
HETATM   24  C2  UNL     1      -0.082  51.807 -19.030  1.00  0.00    -0.083 C 
HETATM   25  C1  UNL     1       0.782  52.836 -19.107  1.00  0.00     0.015 C 
BRANCH  24  26
HETATM   26  C26 UNL     1      -1.051  51.440 -20.170  1.00  0.00     0.033 C 
HETATM   27  C27 UNL     1      -0.630  51.941 -21.560  1.00  0.00     0.017 C 
BRANCH  26  28
HETATM   28  C28 UNL     1      -1.332  49.924 -20.216  1.00  0.00     0.172 C 
BRANCH  28  29
HETATM   29  O6  UNL     1      -0.310  49.210 -20.904  1.00  0.00    -0.400 OA
HETATM   30  H48 UNL     1       0.533  49.441 -20.473  1.00  0.00     0.209 HD
ENDBRANCH  28  29
ENDBRANCH  26  28
ENDBRANCH  24  26
ENDBRANCH  23  24
ENDBRANCH  22  23
ENDBRANCH  20  22
ENDBRANCH   1  20
BRANCH   2  31
HETATM   31  O1  UNL     1      -2.090  50.529 -13.614  1.00  0.00    -0.393 OA
HETATM   32  H13 UNL     1      -3.033  50.708 -13.467  1.00  0.00     0.210 HD
ENDBRANCH   2  31
BRANCH   3  33
HETATM   33  O2  UNL     1      -2.167  53.356 -11.904  1.00  0.00    -0.392 OA
HETATM   34  H15 UNL     1      -3.078  53.018 -11.961  1.00  0.00     0.210 HD
ENDBRANCH   3  33
BRANCH  19  35
HETATM   35  O5  UNL     1       0.868  51.712  -9.900  1.00  0.00    -0.389 OA
HETATM   36  H41 UNL     1      -0.037  51.436  -9.678  1.00  0.00     0.210 HD
ENDBRANCH  19  35
BRANCH  17  37
HETATM   37  O4  UNL     1      -0.027  55.951  -8.390  1.00  0.00    -0.395 OA
HETATM   38  H38 UNL     1       0.157  55.424  -7.593  1.00  0.00     0.210 HD
ENDBRANCH  17  37
BRANCH  14  39
HETATM   39  O3  UNL     1       4.732  57.135  -7.228  1.00  0.00    -0.396 OA
HETATM   40  H33 UNL     1       4.183  57.907  -7.004  1.00  0.00     0.210 HD
ENDBRANCH  14  39
TORSDOF 12
ENDMDL
MODEL 9
REMARK minimizedAffinity -9.01148701
REMARK CNNscore 0.441040248
REMARK CNNaffinity 6.51094246
REMARK  12 active torsions:
REMARK  status: ('A' for Active; 'I' for Inactive)
REMARK    1  A    between atoms: C2_2  and  C3_3 
REMARK    2  A    between atoms: C2_2  and  C26_31 
REMARK    3  A    between atoms: C3_3  and  C4_4 
REMARK    4  A    between atoms: C4_4  and  C5_5 
REMARK    5  A    between atoms: C5_5  and  C7_7 
REMARK    6  A    between atoms: C8_8  and  O1_9 
REMARK    7  A    between atoms: C9_10  and  O2_11 
REMARK    8  A    between atoms: C20_22  and  O3_23 
REMARK    9  A    between atoms: C23_26  and  O4_27 
REMARK   10  A    between atoms: C25_29  and  O5_30 
REMARK   11  A    between atoms: C26_31  and  C28_33 
REMARK   12  A    between atoms: C28_33  and  O6_34 
ROOT
HETATM    1  C7  UNL     1      -1.842  50.869 -22.077  1.00  0.00     0.029 C 
HETATM    2  C8  UNL     1      -3.057  51.839 -22.266  1.00  0.00     0.152 C 
HETATM    3  C9  UNL     1      -4.344  50.993 -22.100  1.00  0.00     0.155 C 
HETATM    4  C10 UNL     1      -3.838  49.671 -21.531  1.00  0.00     0.060 C 
HETATM    5  C11 UNL     1      -2.485  49.457 -22.309  1.00  0.00    -0.029 C 
HETATM    6  C12 UNL     1      -2.620  49.184 -23.829  1.00  0.00     0.016 C 
HETATM    7  C13 UNL     1      -1.746  48.267 -21.658  1.00  0.00     0.011 C 
HETATM    8  C14 UNL     1      -2.623  47.002 -21.524  1.00  0.00     0.009 C 
HETATM    9  C15 UNL     1      -3.929  47.311 -20.768  1.00  0.00     0.029 C 
HETATM   10  C16 UNL     1      -4.803  46.084 -20.343  1.00  0.00    -0.031 C 
HETATM   11  C17 UNL     1      -5.589  45.485 -21.534  1.00  0.00     0.016 C 
HETATM   12  C18 UNL     1      -3.947  44.940 -19.721  1.00  0.00     0.012 C 
HETATM   13  C19 UNL     1      -4.784  43.838 -19.060  1.00  0.00     0.032 C 
HETATM   14  C20 UNL     1      -5.825  44.374 -18.077  1.00  0.00     0.118 C 
HETATM   15  C21 UNL     1      -6.650  45.534 -18.644  1.00  0.00     0.039 C 
HETATM   16  C22 UNL     1      -5.726  46.623 -19.203  1.00  0.00     0.025 C 
HETATM   17  C23 UNL     1      -6.367  48.007 -19.479  1.00  0.00     0.126 C 
HETATM   18  C24 UNL     1      -6.154  48.608 -20.869  1.00  0.00     0.071 C 
HETATM   19  C25 UNL     1      -4.756  48.423 -21.500  1.00  0.00     0.071 C 
ENDROOT
BRANCH   1  20
HETATM   20  C5  UNL     1      -0.565  51.298 -22.865  1.00  0.00    -0.011 C 
HETATM   21  C6  UNL     1       0.463  52.002 -21.970  1.00  0.00     0.010 C 
BRANCH  20  22
HETATM   22  C4  UNL     1      -0.952  52.235 -24.046  1.00  0.00     0.009 C 
BRANCH  22  23
HETATM   23  C3  UNL     1       0.247  52.988 -24.651  1.00  0.00     0.034 C 
BRANCH  23  24
HETATM   24  C2  UNL     1       0.364  53.008 -26.175  1.00  0.00    -0.083 C 
HETATM   25  C1  UNL     1       0.001  54.063 -26.928  1.00  0.00     0.015 C 
BRANCH  24  26
HETATM   26  C26 UNL     1       0.916  51.702 -26.776  1.00  0.00     0.033 C 
HETATM   27  C27 UNL     1       0.819  51.604 -28.306  1.00  0.00     0.017 C 
BRANCH  26  28
HETATM   28  C28 UNL     1       2.363  51.428 -26.318  1.00  0.00     0.172 C 
BRANCH  28  29
HETATM   29  O6  UNL     1       3.292  51.520 -27.394  1.00  0.00    -0.400 OA
HETATM   30  H48 UNL     1       3.166  52.397 -27.799  1.00  0.00     0.209 HD
ENDBRANCH  28  29
ENDBRANCH  26  28
ENDBRANCH  24  26
ENDBRANCH  23  24
ENDBRANCH  22  23
ENDBRANCH  20  22
ENDBRANCH   1  20
BRANCH   2  31
HETATM   31  O1  UNL     1      -3.063  52.450 -23.554  1.00  0.00    -0.393 OA
HETATM   32  H13 UNL     1      -3.694  53.188 -23.529  1.00  0.00     0.210 HD
ENDBRANCH   2  31
BRANCH   3  33
HETATM   33  O2  UNL     1      -5.234  51.639 -21.197  1.00  0.00    -0.392 OA
HETATM   34  H15 UNL     1      -5.549  52.455 -21.624  1.00  0.00     0.210 HD
ENDBRANCH   3  33
BRANCH  19  35
HETATM   35  O5  UNL     1      -5.005  48.014 -22.851  1.00  0.00    -0.389 OA
HETATM   36  H41 UNL     1      -5.566  48.684 -23.278  1.00  0.00     0.210 HD
ENDBRANCH  19  35
BRANCH  17  37
HETATM   37  O4  UNL     1      -7.763  48.004 -19.184  1.00  0.00    -0.395 OA
HETATM   38  H38 UNL     1      -8.206  47.444 -19.845  1.00  0.00     0.210 HD
ENDBRANCH  17  37
BRANCH  14  39
HETATM   39  O3  UNL     1      -6.690  43.307 -17.706  1.00  0.00    -0.396 OA
HETATM   40  H33 UNL     1      -7.339  43.664 -17.074  1.00  0.00     0.210 HD
ENDBRANCH  14  39
TORSDOF 12
ENDMDL
