MODEL 1
REMARK minimizedAffinity -6.61878681
REMARK CNNscore 0.876357317
REMARK CNNaffinity 7.13654137
REMARK  15 active torsions:
REMARK  status: ('A' for Active; 'I' for Inactive)
REMARK    1  A    between atoms: C4_5  and  O2_6 
REMARK    2  A    between atoms: C7_10  and  O4_11 
REMARK    3  A    between atoms: O4_11  and  C8_12 
REMARK    4  A    between atoms: C8_12  and  C9_14 
REMARK    5  A    between atoms: C9_14  and  C11_16 
REMARK    6  A    between atoms: C11_16  and  O6_17 
REMARK    7  A    between atoms: C11_16  and  C12_18 
REMARK    8  A    between atoms: C14_20  and  C15_21 
REMARK    9  A    between atoms: C15_21  and  C16_22 
REMARK   10  A    between atoms: C15_21  and  C17_24 
REMARK   11  A    between atoms: C16_22  and  O7_23 
REMARK   12  A    between atoms: C17_24  and  C18_25 
REMARK   13  A    between atoms: C18_25  and  C19_26 
REMARK   14  A    between atoms: C19_26  and  C20_27 
REMARK   15  A    between atoms: C20_27  and  C21_28 
ROOT
HETATM    1  O4  UNL     1       1.959  54.852  -9.195  1.00  0.00    -0.312 OA
ENDROOT
BRANCH   1   2
HETATM    2  C7  UNL     1       2.623  56.127  -9.328  1.00  0.00     0.170 C 
HETATM    3  C6  UNL     1       3.502  56.423  -8.132  1.00  0.00     0.127 A 
HETATM    4  C5  UNL     1       2.970  57.291  -7.009  1.00  0.00     0.223 A 
HETATM    5  O3  UNL     1       3.818  57.829  -8.040  1.00  0.00    -0.360 OA
HETATM    6  C27 UNL     1       4.726  55.532  -7.896  1.00  0.00    -0.003 C 
HETATM    7  C4  UNL     1       3.555  57.264  -5.631  1.00  0.00     0.199 C 
HETATM    8  O1  UNL     1       3.868  58.601  -5.236  1.00  0.00    -0.348 OA
HETATM    9  C30 UNL     1       4.841  56.427  -5.471  1.00  0.00     0.082 C 
HETATM   10  C3  UNL     1       4.906  58.536  -4.253  1.00  0.00     0.205 C 
HETATM   11  C2  UNL     1       5.643  57.264  -4.506  1.00  0.00    -0.056 C 
HETATM   12  C1  UNL     1       6.821  56.932  -3.960  1.00  0.00     0.017 C 
HETATM   13  C29 UNL     1       5.611  56.163  -6.779  1.00  0.00     0.027 C 
HETATM   14  C25 UNL     1       5.546  55.463  -9.235  1.00  0.00    -0.007 C 
HETATM   15  C28 UNL     1       4.273  54.131  -7.424  1.00  0.00     0.019 C 
HETATM   16  C24 UNL     1       4.662  55.119 -10.453  1.00  0.00     0.007 C 
HETATM   17  C26 UNL     1       6.739  54.497  -9.193  1.00  0.00     0.011 C 
HETATM   18  C23 UNL     1       3.478  56.076 -10.596  1.00  0.00     0.036 C 
BRANCH   7  19
HETATM   19  O2  UNL     1       2.576  56.761  -4.722  1.00  0.00    -0.363 OA
HETATM   20  H5  UNL     1       1.780  57.292  -4.882  1.00  0.00     0.213 HD
ENDBRANCH   7  19
ENDBRANCH   1   2
BRANCH   1  21
HETATM   21  C8  UNL     1       1.031  54.527 -10.134  1.00  0.00     0.266 C 
HETATM   22  O5  UNL     1       1.298  54.068 -11.234  1.00  0.00    -0.265 OA
BRANCH  21  23
HETATM   23  C9  UNL     1      -0.368  54.904  -9.677  1.00  0.00     0.114 C 
HETATM   24  C10 UNL     1      -0.371  55.840  -8.464  1.00  0.00     0.023 C 
BRANCH  23  25
HETATM   25  C11 UNL     1      -1.234  53.640  -9.464  1.00  0.00     0.159 C 
BRANCH  25  26
HETATM   26  O6  UNL     1      -0.365  52.592  -9.004  1.00  0.00    -0.390 OA
HETATM   27  H13 UNL     1      -0.295  52.686  -8.038  1.00  0.00     0.210 HD
ENDBRANCH  25  26
BRANCH  25  28
HETATM   28  C12 UNL     1      -2.010  53.153 -10.690  1.00  0.00    -0.058 C 
HETATM   29  C13 UNL     1      -3.386  53.756 -10.836  1.00  0.00     0.046 C 
HETATM   30  C14 UNL     1      -1.521  52.229 -11.545  1.00  0.00    -0.015 C 
BRANCH  30  31
HETATM   31  C15 UNL     1      -2.166  51.720 -12.821  1.00  0.00     0.032 C 
BRANCH  31  32
HETATM   32  C16 UNL     1      -3.248  50.673 -12.501  1.00  0.00     0.172 C 
BRANCH  32  33
HETATM   33  O7  UNL     1      -3.578  49.872 -13.630  1.00  0.00    -0.400 OA
HETATM   34  H21 UNL     1      -2.810  49.303 -13.805  1.00  0.00     0.209 HD
ENDBRANCH  32  33
ENDBRANCH  31  32
BRANCH  31  35
HETATM   35  C17 UNL     1      -1.075  51.183 -13.775  1.00  0.00     0.010 C 
BRANCH  35  36
HETATM   36  C18 UNL     1       0.084  52.169 -13.958  1.00  0.00     0.001 C 
BRANCH  36  37
HETATM   37  C19 UNL     1       1.028  51.785 -15.102  1.00  0.00     0.000 C 
BRANCH  37  38
HETATM   38  C20 UNL     1       2.341  51.177 -14.604  1.00  0.00    -0.000 C 
BRANCH  38  39
HETATM   39  C21 UNL     1       3.556  51.865 -15.232  1.00  0.00    -0.005 C 
HETATM   40  C22 UNL     1       3.134  52.856 -16.309  1.00  0.00     0.005 C 
ENDBRANCH  38  39
ENDBRANCH  37  38
ENDBRANCH  36  37
ENDBRANCH  35  36
ENDBRANCH  31  35
ENDBRANCH  30  31
ENDBRANCH  25  28
ENDBRANCH  23  25
ENDBRANCH  21  23
ENDBRANCH   1  21
TORSDOF 15
ENDMDL
MODEL 2
REMARK minimizedAffinity -8.40769672
REMARK CNNscore 0.492794633
REMARK CNNaffinity 6.99247885
REMARK  15 active torsions:
REMARK  status: ('A' for Active; 'I' for Inactive)
REMARK    1  A    between atoms: C4_5  and  O2_6 
REMARK    2  A    between atoms: C7_10  and  O4_11 
REMARK    3  A    between atoms: O4_11  and  C8_12 
REMARK    4  A    between atoms: C8_12  and  C9_14 
REMARK    5  A    between atoms: C9_14  and  C11_16 
REMARK    6  A    between atoms: C11_16  and  O6_17 
REMARK    7  A    between atoms: C11_16  and  C12_18 
REMARK    8  A    between atoms: C14_20  and  C15_21 
REMARK    9  A    between atoms: C15_21  and  C16_22 
REMARK   10  A    between atoms: C15_21  and  C17_24 
REMARK   11  A    between atoms: C16_22  and  O7_23 
REMARK   12  A    between atoms: C17_24  and  C18_25 
REMARK   13  A    between atoms: C18_25  and  C19_26 
REMARK   14  A    between atoms: C19_26  and  C20_27 
REMARK   15  A    between atoms: C20_27  and  C21_28 
ROOT
HETATM    1  O4  UNL     1      -3.370  49.877 -20.714  1.00  0.00    -0.312 OA
ENDROOT
BRANCH   1   2
HETATM    2  C7  UNL     1      -4.299  50.632 -21.519  1.00  0.00     0.170 C 
HETATM    3  C6  UNL     1      -4.262  50.196 -22.969  1.00  0.00     0.127 A 
HETATM    4  C5  UNL     1      -3.420  50.973 -23.961  1.00  0.00     0.223 A 
HETATM    5  O3  UNL     1      -4.837  51.195 -23.839  1.00  0.00    -0.360 OA
HETATM    6  C27 UNL     1      -4.734  48.779 -23.310  1.00  0.00    -0.003 C 
HETATM    7  C4  UNL     1      -2.961  50.381 -25.257  1.00  0.00     0.199 C 
HETATM    8  O1  UNL     1      -3.323  51.264 -26.322  1.00  0.00    -0.348 OA
HETATM    9  C30 UNL     1      -3.543  48.993 -25.597  1.00  0.00     0.082 C 
HETATM   10  C3  UNL     1      -3.430  50.486 -27.518  1.00  0.00     0.205 C 
HETATM   11  C2  UNL     1      -3.752  49.095 -27.087  1.00  0.00    -0.056 C 
HETATM   12  C1  UNL     1      -4.158  48.109 -27.899  1.00  0.00     0.017 C 
HETATM   13  C29 UNL     1      -4.847  48.637 -24.858  1.00  0.00     0.027 C 
HETATM   14  C25 UNL     1      -6.150  48.568 -22.662  1.00  0.00    -0.007 C 
HETATM   15  C28 UNL     1      -3.705  47.745 -22.800  1.00  0.00     0.019 C 
HETATM   16  C24 UNL     1      -6.185  48.969 -21.172  1.00  0.00     0.007 C 
HETATM   17  C26 UNL     1      -6.702  47.142 -22.809  1.00  0.00     0.011 C 
HETATM   18  C23 UNL     1      -5.702  50.403 -20.950  1.00  0.00     0.036 C 
BRANCH   7  19
HETATM   19  O2  UNL     1      -1.538  50.281 -25.243  1.00  0.00    -0.363 OA
HETATM   20  H5  UNL     1      -1.220  51.162 -24.993  1.00  0.00     0.213 HD
ENDBRANCH   7  19
ENDBRANCH   1   2
BRANCH   1  21
HETATM   21  C8  UNL     1      -2.660  50.554 -19.773  1.00  0.00     0.266 C 
HETATM   22  O5  UNL     1      -2.997  51.628 -19.299  1.00  0.00    -0.265 OA
BRANCH  21  23
HETATM   23  C9  UNL     1      -1.346  49.855 -19.467  1.00  0.00     0.114 C 
HETATM   24  C10 UNL     1      -1.518  48.619 -18.578  1.00  0.00     0.023 C 
BRANCH  23  25
HETATM   25  C11 UNL     1      -0.308  50.858 -18.909  1.00  0.00     0.159 C 
BRANCH  25  26
HETATM   26  O6  UNL     1      -0.856  51.422 -17.705  1.00  0.00    -0.390 OA
HETATM   27  H13 UNL     1      -0.632  50.814 -16.981  1.00  0.00     0.210 HD
ENDBRANCH  25  26
BRANCH  25  28
HETATM   28  C12 UNL     1       0.101  51.986 -19.858  1.00  0.00    -0.058 C 
HETATM   29  C13 UNL     1       0.041  53.365 -19.249  1.00  0.00     0.046 C 
HETATM   30  C14 UNL     1       0.446  51.769 -21.146  1.00  0.00    -0.015 C 
BRANCH  30  31
HETATM   31  C15 UNL     1       0.928  52.792 -22.157  1.00  0.00     0.032 C 
BRANCH  31  32
HETATM   32  C16 UNL     1       0.985  54.195 -21.524  1.00  0.00     0.172 C 
BRANCH  32  33
HETATM   33  O7  UNL     1       2.108  54.945 -21.972  1.00  0.00    -0.400 OA
HETATM   34  H21 UNL     1       1.946  55.165 -22.904  1.00  0.00     0.209 HD
ENDBRANCH  32  33
ENDBRANCH  31  32
BRANCH  31  35
HETATM   35  C17 UNL     1       0.035  52.738 -23.417  1.00  0.00     0.010 C 
BRANCH  35  36
HETATM   36  C18 UNL     1       0.827  52.963 -24.710  1.00  0.00     0.001 C 
BRANCH  36  37
HETATM   37  C19 UNL     1       1.353  51.665 -25.330  1.00  0.00     0.000 C 
BRANCH  37  38
HETATM   38  C20 UNL     1       2.072  51.895 -26.661  1.00  0.00    -0.000 C 
BRANCH  38  39
HETATM   39  C21 UNL     1       1.132  52.485 -27.715  1.00  0.00    -0.005 C 
HETATM   40  C22 UNL     1      -0.013  51.532 -28.031  1.00  0.00     0.005 C 
ENDBRANCH  38  39
ENDBRANCH  37  38
ENDBRANCH  36  37
ENDBRANCH  35  36
ENDBRANCH  31  35
ENDBRANCH  30  31
ENDBRANCH  25  28
ENDBRANCH  23  25
ENDBRANCH  21  23
ENDBRANCH   1  21
TORSDOF 15
ENDMDL
MODEL 3
REMARK minimizedAffinity -8.26822376
REMARK CNNscore 0.450532883
REMARK CNNaffinity 6.52667236
REMARK  15 active torsions:
REMARK  status: ('A' for Active; 'I' for Inactive)
REMARK    1  A    between atoms: C4_5  and  O2_6 
REMARK    2  A    between atoms: C7_10  and  O4_11 
REMARK    3  A    between atoms: O4_11  and  C8_12 
REMARK    4  A    between atoms: C8_12  and  C9_14 
REMARK    5  A    between atoms: C9_14  and  C11_16 
REMARK    6  A    between atoms: C11_16  and  O6_17 
REMARK    7  A    between atoms: C11_16  and  C12_18 
REMARK    8  A    between atoms: C14_20  and  C15_21 
REMARK    9  A    between atoms: C15_21  and  C16_22 
REMARK   10  A    between atoms: C15_21  and  C17_24 
REMARK   11  A    between atoms: C16_22  and  O7_23 
REMARK   12  A    between atoms: C17_24  and  C18_25 
REMARK   13  A    between atoms: C18_25  and  C19_26 
REMARK   14  A    between atoms: C19_26  and  C20_27 
REMARK   15  A    between atoms: C20_27  and  C21_28 
ROOT
HETATM    1  O4  UNL     1      -3.505  50.147 -21.963  1.00  0.00    -0.312 OA
ENDROOT
BRANCH   1   2
HETATM    2  C7  UNL     1      -3.984  51.111 -22.924  1.00  0.00     0.170 C 
HETATM    3  C6  UNL     1      -2.975  51.345 -24.028  1.00  0.00     0.127 A 
HETATM    4  C5  UNL     1      -2.032  52.528 -23.940  1.00  0.00     0.223 A 
HETATM    5  O3  UNL     1      -3.234  52.580 -24.731  1.00  0.00    -0.360 OA
HETATM    6  C27 UNL     1      -2.662  50.185 -24.979  1.00  0.00    -0.003 C 
HETATM    7  C4  UNL     1      -0.745  52.584 -24.705  1.00  0.00     0.199 C 
HETATM    8  O1  UNL     1      -0.694  53.813 -25.433  1.00  0.00    -0.348 OA
HETATM    9  C30 UNL     1      -0.525  51.442 -25.718  1.00  0.00     0.082 C 
HETATM   10  C3  UNL     1       0.174  53.620 -26.555  1.00  0.00     0.205 C 
HETATM   11  C2  UNL     1       0.146  52.161 -26.862  1.00  0.00    -0.056 C 
HETATM   12  C1  UNL     1       0.637  51.596 -27.973  1.00  0.00     0.017 C 
HETATM   13  C29 UNL     1      -1.806  50.716 -26.169  1.00  0.00     0.027 C 
HETATM   14  C25 UNL     1      -4.023  49.621 -25.526  1.00  0.00    -0.007 C 
HETATM   15  C28 UNL     1      -1.845  49.103 -24.237  1.00  0.00     0.019 C 
HETATM   16  C24 UNL     1      -5.042  49.339 -24.402  1.00  0.00     0.007 C 
HETATM   17  C26 UNL     1      -3.878  48.364 -26.397  1.00  0.00     0.011 C 
HETATM   18  C23 UNL     1      -5.284  50.566 -23.521  1.00  0.00     0.036 C 
BRANCH   7  19
HETATM   19  O2  UNL     1       0.342  52.582 -23.781  1.00  0.00    -0.363 OA
HETATM   20  H5  UNL     1       0.143  53.289 -23.148  1.00  0.00     0.213 HD
ENDBRANCH   7  19
ENDBRANCH   1   2
BRANCH   1  21
HETATM   21  C8  UNL     1      -3.696  50.424 -20.646  1.00  0.00     0.266 C 
HETATM   22  O5  UNL     1      -4.020  51.519 -20.215  1.00  0.00    -0.265 OA
BRANCH  21  23
HETATM   23  C9  UNL     1      -3.354  49.226 -19.777  1.00  0.00     0.114 C 
HETATM   24  C10 UNL     1      -3.915  49.338 -18.355  1.00  0.00     0.023 C 
BRANCH  23  25
HETATM   25  C11 UNL     1      -1.833  48.944 -19.803  1.00  0.00     0.159 C 
BRANCH  25  26
HETATM   26  O6  UNL     1      -1.545  48.024 -18.737  1.00  0.00    -0.390 OA
HETATM   27  H13 UNL     1      -1.699  47.130 -19.086  1.00  0.00     0.210 HD
ENDBRANCH  25  26
BRANCH  25  28
HETATM   28  C12 UNL     1      -0.929  50.172 -19.673  1.00  0.00    -0.058 C 
HETATM   29  C13 UNL     1      -0.088  50.458 -20.892  1.00  0.00     0.046 C 
HETATM   30  C14 UNL     1      -0.860  50.912 -18.545  1.00  0.00    -0.015 C 
BRANCH  30  31
HETATM   31  C15 UNL     1      -0.056  52.179 -18.321  1.00  0.00     0.032 C 
BRANCH  31  32
HETATM   32  C16 UNL     1       0.020  53.010 -19.615  1.00  0.00     0.172 C 
BRANCH  32  33
HETATM   33  O7  UNL     1       0.894  54.126 -19.491  1.00  0.00    -0.400 OA
HETATM   34  H21 UNL     1       1.797  53.772 -19.440  1.00  0.00     0.209 HD
ENDBRANCH  32  33
ENDBRANCH  31  32
BRANCH  31  35
HETATM   35  C17 UNL     1       1.337  51.816 -17.758  1.00  0.00     0.010 C 
BRANCH  35  36
HETATM   36  C18 UNL     1       1.676  52.594 -16.481  1.00  0.00     0.001 C 
BRANCH  36  37
HETATM   37  C19 UNL     1       3.162  52.948 -16.367  1.00  0.00     0.000 C 
BRANCH  37  38
HETATM   38  C20 UNL     1       4.001  51.801 -15.799  1.00  0.00    -0.000 C 
BRANCH  38  39
HETATM   39  C21 UNL     1       3.404  51.256 -14.499  1.00  0.00    -0.005 C 
HETATM   40  C22 UNL     1       4.283  50.165 -13.902  1.00  0.00     0.005 C 
ENDBRANCH  38  39
ENDBRANCH  37  38
ENDBRANCH  36  37
ENDBRANCH  35  36
ENDBRANCH  31  35
ENDBRANCH  30  31
ENDBRANCH  25  28
ENDBRANCH  23  25
ENDBRANCH  21  23
ENDBRANCH   1  21
TORSDOF 15
ENDMDL
MODEL 4
REMARK minimizedAffinity -7.37334728
REMARK CNNscore 0.392502666
REMARK CNNaffinity 6.19938421
REMARK  15 active torsions:
REMARK  status: ('A' for Active; 'I' for Inactive)
REMARK    1  A    between atoms: C4_5  and  O2_6 
REMARK    2  A    between atoms: C7_10  and  O4_11 
REMARK    3  A    between atoms: O4_11  and  C8_12 
REMARK    4  A    between atoms: C8_12  and  C9_14 
REMARK    5  A    between atoms: C9_14  and  C11_16 
REMARK    6  A    between atoms: C11_16  and  O6_17 
REMARK    7  A    between atoms: C11_16  and  C12_18 
REMARK    8  A    between atoms: C14_20  and  C15_21 
REMARK    9  A    between atoms: C15_21  and  C16_22 
REMARK   10  A    between atoms: C15_21  and  C17_24 
REMARK   11  A    between atoms: C16_22  and  O7_23 
REMARK   12  A    between atoms: C17_24  and  C18_25 
REMARK   13  A    between atoms: C18_25  and  C19_26 
REMARK   14  A    between atoms: C19_26  and  C20_27 
REMARK   15  A    between atoms: C20_27  and  C21_28 
ROOT
HETATM    1  O4  UNL     1      -0.717  50.897 -19.304  1.00  0.00    -0.312 OA
ENDROOT
BRANCH   1   2
HETATM    2  C7  UNL     1      -2.020  51.345 -19.734  1.00  0.00     0.170 C 
HETATM    3  C6  UNL     1      -2.365  50.814 -21.109  1.00  0.00     0.127 A 
HETATM    4  C5  UNL     1      -2.127  51.685 -22.327  1.00  0.00     0.223 A 
HETATM    5  O3  UNL     1      -3.429  51.576 -21.721  1.00  0.00    -0.360 OA
HETATM    6  C27 UNL     1      -2.556  49.304 -21.274  1.00  0.00    -0.003 C 
HETATM    7  C4  UNL     1      -2.000  51.115 -23.706  1.00  0.00     0.199 C 
HETATM    8  O1  UNL     1      -2.906  51.799 -24.574  1.00  0.00    -0.348 OA
HETATM    9  C30 UNL     1      -2.297  49.606 -23.831  1.00  0.00     0.082 C 
HETATM   10  C3  UNL     1      -3.212  50.924 -25.664  1.00  0.00     0.205 C 
HETATM   11  C2  UNL     1      -3.013  49.535 -25.157  1.00  0.00    -0.056 C 
HETATM   12  C1  UNL     1      -3.410  48.420 -25.783  1.00  0.00     0.017 C 
HETATM   13  C29 UNL     1      -3.145  49.014 -22.689  1.00  0.00     0.027 C 
HETATM   14  C25 UNL     1      -3.572  48.818 -20.177  1.00  0.00    -0.007 C 
HETATM   15  C28 UNL     1      -1.193  48.584 -21.158  1.00  0.00     0.019 C 
HETATM   16  C24 UNL     1      -3.203  49.319 -18.765  1.00  0.00     0.007 C 
HETATM   17  C26 UNL     1      -3.769  47.295 -20.133  1.00  0.00     0.011 C 
HETATM   18  C23 UNL     1      -3.045  50.839 -18.716  1.00  0.00     0.036 C 
BRANCH   7  19
HETATM   19  O2  UNL     1      -0.677  51.353 -24.185  1.00  0.00    -0.363 OA
HETATM   20  H5  UNL     1      -0.523  52.302 -24.055  1.00  0.00     0.213 HD
ENDBRANCH   7  19
ENDBRANCH   1   2
BRANCH   1  21
HETATM   21  C8  UNL     1       0.117  51.822 -18.760  1.00  0.00     0.266 C 
HETATM   22  O5  UNL     1       0.356  52.910 -19.260  1.00  0.00    -0.265 OA
BRANCH  21  23
HETATM   23  C9  UNL     1       0.790  51.287 -17.507  1.00  0.00     0.114 C 
HETATM   24  C10 UNL     1       0.106  50.036 -16.947  1.00  0.00     0.023 C 
BRANCH  23  25
HETATM   25  C11 UNL     1       0.956  52.406 -16.453  1.00  0.00     0.159 C 
BRANCH  25  26
HETATM   26  O6  UNL     1       1.997  53.284 -16.914  1.00  0.00    -0.390 OA
HETATM   27  H13 UNL     1       1.580  53.930 -17.508  1.00  0.00     0.210 HD
ENDBRANCH  25  26
BRANCH  25  28
HETATM   28  C12 UNL     1       1.279  51.937 -15.033  1.00  0.00    -0.058 C 
HETATM   29  C13 UNL     1       0.088  51.883 -14.108  1.00  0.00     0.046 C 
HETATM   30  C14 UNL     1       2.533  51.637 -14.629  1.00  0.00    -0.015 C 
BRANCH  30  31
HETATM   31  C15 UNL     1       2.964  51.104 -13.276  1.00  0.00     0.032 C 
BRANCH  31  32
HETATM   32  C16 UNL     1       2.635  49.605 -13.153  1.00  0.00     0.172 C 
BRANCH  32  33
HETATM   33  O7  UNL     1       3.737  48.778 -13.506  1.00  0.00    -0.400 OA
HETATM   34  H21 UNL     1       4.403  48.883 -12.806  1.00  0.00     0.209 HD
ENDBRANCH  32  33
ENDBRANCH  31  32
BRANCH  31  35
HETATM   35  C17 UNL     1       2.322  51.953 -12.156  1.00  0.00     0.010 C 
BRANCH  35  36
HETATM   36  C18 UNL     1       3.363  52.562 -11.209  1.00  0.00     0.001 C 
BRANCH  36  37
HETATM   37  C19 UNL     1       2.968  53.947 -10.688  1.00  0.00     0.000 C 
BRANCH  37  38
HETATM   38  C20 UNL     1       4.072  54.988 -10.882  1.00  0.00    -0.000 C 
BRANCH  38  39
HETATM   39  C21 UNL     1       4.576  55.534  -9.543  1.00  0.00    -0.005 C 
HETATM   40  C22 UNL     1       3.668  56.640  -9.021  1.00  0.00     0.005 C 
ENDBRANCH  38  39
ENDBRANCH  37  38
ENDBRANCH  36  37
ENDBRANCH  35  36
ENDBRANCH  31  35
ENDBRANCH  30  31
ENDBRANCH  25  28
ENDBRANCH  23  25
ENDBRANCH  21  23
ENDBRANCH   1  21
TORSDOF 15
ENDMDL
MODEL 5
REMARK minimizedAffinity -8.4884758
REMARK CNNscore 0.334874213
REMARK CNNaffinity 6.93921232
REMARK  15 active torsions:
REMARK  status: ('A' for Active; 'I' for Inactive)
REMARK    1  A    between atoms: C4_5  and  O2_6 
REMARK    2  A    between atoms: C7_10  and  O4_11 
REMARK    3  A    between atoms: O4_11  and  C8_12 
REMARK    4  A    between atoms: C8_12  and  C9_14 
REMARK    5  A    between atoms: C9_14  and  C11_16 
REMARK    6  A    between atoms: C11_16  and  O6_17 
REMARK    7  A    between atoms: C11_16  and  C12_18 
REMARK    8  A    between atoms: C14_20  and  C15_21 
REMARK    9  A    between atoms: C15_21  and  C16_22 
REMARK   10  A    between atoms: C15_21  and  C17_24 
REMARK   11  A    between atoms: C16_22  and  O7_23 
REMARK   12  A    between atoms: C17_24  and  C18_25 
REMARK   13  A    between atoms: C18_25  and  C19_26 
REMARK   14  A    between atoms: C19_26  and  C20_27 
REMARK   15  A    between atoms: C20_27  and  C21_28 
ROOT
HETATM    1  O4  UNL     1      -3.386  49.068 -20.719  1.00  0.00    -0.312 OA
ENDROOT
BRANCH   1   2
HETATM    2  C7  UNL     1      -3.584  50.335 -20.058  1.00  0.00     0.170 C 
HETATM    3  C6  UNL     1      -2.418  50.681 -19.157  1.00  0.00     0.127 A 
HETATM    4  C5  UNL     1      -2.502  50.373 -17.675  1.00  0.00     0.223 A 
HETATM    5  O3  UNL     1      -2.778  51.690 -18.188  1.00  0.00    -0.360 OA
HETATM    6  C27 UNL     1      -1.058  50.952 -19.807  1.00  0.00    -0.003 C 
HETATM    7  C4  UNL     1      -1.284  50.250 -16.814  1.00  0.00     0.199 C 
HETATM    8  O1  UNL     1      -1.435  51.100 -15.675  1.00  0.00    -0.348 OA
HETATM    9  C30 UNL     1       0.050  50.626 -17.492  1.00  0.00     0.082 C 
HETATM   10  C3  UNL     1      -0.127  51.432 -15.199  1.00  0.00     0.205 C 
HETATM   11  C2  UNL     1       0.788  51.319 -16.373  1.00  0.00    -0.056 C 
HETATM   12  C1  UNL     1       2.050  51.764 -16.413  1.00  0.00     0.017 C 
HETATM   13  C29 UNL     1      -0.084  51.527 -18.734  1.00  0.00     0.027 C 
HETATM   14  C25 UNL     1      -1.264  52.014 -20.947  1.00  0.00    -0.007 C 
HETATM   15  C28 UNL     1      -0.461  49.632 -20.348  1.00  0.00     0.019 C 
HETATM   16  C24 UNL     1      -2.424  51.646 -21.896  1.00  0.00     0.007 C 
HETATM   17  C26 UNL     1      -0.004  52.294 -21.781  1.00  0.00     0.011 C 
HETATM   18  C23 UNL     1      -3.733  51.406 -21.142  1.00  0.00     0.036 C 
BRANCH   7  19
HETATM   19  O2  UNL     1      -1.184  48.907 -16.342  1.00  0.00    -0.363 OA
HETATM   20  H5  UNL     1      -2.051  48.704 -15.957  1.00  0.00     0.213 HD
ENDBRANCH   7  19
ENDBRANCH   1   2
BRANCH   1  21
HETATM   21  C8  UNL     1      -4.446  48.532 -21.380  1.00  0.00     0.266 C 
HETATM   22  O5  UNL     1      -5.528  48.293 -20.865  1.00  0.00    -0.265 OA
BRANCH  21  23
HETATM   23  C9  UNL     1      -4.079  48.175 -22.811  1.00  0.00     0.114 C 
HETATM   24  C10 UNL     1      -2.587  48.356 -23.109  1.00  0.00     0.023 C 
BRANCH  23  25
HETATM   25  C11 UNL     1      -4.989  48.922 -23.813  1.00  0.00     0.159 C 
BRANCH  25  26
HETATM   26  O6  UNL     1      -6.131  48.087 -24.066  1.00  0.00    -0.390 OA
HETATM   27  H13 UNL     1      -6.779  48.273 -23.366  1.00  0.00     0.210 HD
ENDBRANCH  25  26
BRANCH  25  28
HETATM   28  C12 UNL     1      -4.337  49.307 -25.142  1.00  0.00    -0.058 C 
HETATM   29  C13 UNL     1      -4.518  48.290 -26.243  1.00  0.00     0.046 C 
HETATM   30  C14 UNL     1      -3.622  50.442 -25.304  1.00  0.00    -0.015 C 
BRANCH  30  31
HETATM   31  C15 UNL     1      -2.987  50.958 -26.582  1.00  0.00     0.032 C 
BRANCH  31  32
HETATM   32  C16 UNL     1      -3.244  49.984 -27.747  1.00  0.00     0.172 C 
BRANCH  32  33
HETATM   33  O7  UNL     1      -3.458  50.661 -28.980  1.00  0.00    -0.400 OA
HETATM   34  H21 UNL     1      -2.605  51.047 -29.241  1.00  0.00     0.209 HD
ENDBRANCH  32  33
ENDBRANCH  31  32
BRANCH  31  35
HETATM   35  C17 UNL     1      -1.484  51.225 -26.344  1.00  0.00     0.010 C 
BRANCH  35  36
HETATM   36  C18 UNL     1      -1.170  52.716 -26.180  1.00  0.00     0.001 C 
BRANCH  36  37
HETATM   37  C19 UNL     1       0.325  53.002 -26.009  1.00  0.00     0.000 C 
BRANCH  37  38
HETATM   38  C20 UNL     1       1.095  51.804 -25.448  1.00  0.00    -0.000 C 
BRANCH  38  39
HETATM   39  C21 UNL     1       2.216  51.361 -26.392  1.00  0.00    -0.005 C 
HETATM   40  C22 UNL     1       1.949  51.820 -27.820  1.00  0.00     0.005 C 
ENDBRANCH  38  39
ENDBRANCH  37  38
ENDBRANCH  36  37
ENDBRANCH  35  36
ENDBRANCH  31  35
ENDBRANCH  30  31
ENDBRANCH  25  28
ENDBRANCH  23  25
ENDBRANCH  21  23
ENDBRANCH   1  21
TORSDOF 15
ENDMDL
MODEL 6
REMARK minimizedAffinity -7.24026871
REMARK CNNscore 0.330112547
REMARK CNNaffinity 6.04117584
REMARK  15 active torsions:
REMARK  status: ('A' for Active; 'I' for Inactive)
REMARK    1  A    between atoms: C4_5  and  O2_6 
REMARK    2  A    between atoms: C7_10  and  O4_11 
REMARK    3  A    between atoms: O4_11  and  C8_12 
REMARK    4  A    between atoms: C8_12  and  C9_14 
REMARK    5  A    between atoms: C9_14  and  C11_16 
REMARK    6  A    between atoms: C11_16  and  O6_17 
REMARK    7  A    between atoms: C11_16  and  C12_18 
REMARK    8  A    between atoms: C14_20  and  C15_21 
REMARK    9  A    between atoms: C15_21  and  C16_22 
REMARK   10  A    between atoms: C15_21  and  C17_24 
REMARK   11  A    between atoms: C16_22  and  O7_23 
REMARK   12  A    between atoms: C17_24  and  C18_25 
REMARK   13  A    between atoms: C18_25  and  C19_26 
REMARK   14  A    between atoms: C19_26  and  C20_27 
REMARK   15  A    between atoms: C20_27  and  C21_28 
ROOT
HETATM    1  O4  UNL     1      -0.816  51.605 -19.167  1.00  0.00    -0.312 OA
ENDROOT
BRANCH   1   2
HETATM    2  C7  UNL     1      -0.386  50.635 -20.145  1.00  0.00     0.170 C 
HETATM    3  C6  UNL     1      -1.538  49.778 -20.623  1.00  0.00     0.127 A 
HETATM    4  C5  UNL     1      -1.769  48.418 -19.995  1.00  0.00     0.223 A 
HETATM    5  O3  UNL     1      -1.072  48.561 -21.247  1.00  0.00    -0.360 OA
HETATM    6  C27 UNL     1      -2.659  50.452 -21.420  1.00  0.00    -0.003 C 
HETATM    7  C4  UNL     1      -3.092  47.720 -20.061  1.00  0.00     0.199 C 
HETATM    8  O1  UNL     1      -2.892  46.397 -20.563  1.00  0.00    -0.348 OA
HETATM    9  C30 UNL     1      -4.154  48.393 -20.955  1.00  0.00     0.082 C 
HETATM   10  C3  UNL     1      -4.118  45.966 -21.161  1.00  0.00     0.205 C 
HETATM   11  C2  UNL     1      -4.839  47.203 -21.580  1.00  0.00    -0.056 C 
HETATM   12  C1  UNL     1      -5.913  47.238 -22.380  1.00  0.00     0.017 C 
HETATM   13  C29 UNL     1      -3.593  49.356 -22.018  1.00  0.00     0.027 C 
HETATM   14  C25 UNL     1      -2.002  51.271 -22.590  1.00  0.00    -0.007 C 
HETATM   15  C28 UNL     1      -3.501  51.353 -20.487  1.00  0.00     0.019 C 
HETATM   16  C24 UNL     1      -0.854  52.181 -22.104  1.00  0.00     0.007 C 
HETATM   17  C26 UNL     1      -2.996  52.112 -23.405  1.00  0.00     0.011 C 
HETATM   18  C23 UNL     1       0.210  51.402 -21.328  1.00  0.00     0.036 C 
BRANCH   7  19
HETATM   19  O2  UNL     1      -3.622  47.607 -18.740  1.00  0.00    -0.363 OA
HETATM   20  H5  UNL     1      -2.911  47.213 -18.211  1.00  0.00     0.213 HD
ENDBRANCH   7  19
ENDBRANCH   1   2
BRANCH   1  21
HETATM   21  C8  UNL     1      -0.932  51.187 -17.878  1.00  0.00     0.266 C 
HETATM   22  O5  UNL     1      -1.989  51.122 -17.269  1.00  0.00    -0.265 OA
BRANCH  21  23
HETATM   23  C9  UNL     1       0.431  50.913 -17.264  1.00  0.00     0.114 C 
HETATM   24  C10 UNL     1       0.429  49.710 -16.315  1.00  0.00     0.023 C 
BRANCH  23  25
HETATM   25  C11 UNL     1       1.007  52.192 -16.614  1.00  0.00     0.159 C 
BRANCH  25  26
HETATM   26  O6  UNL     1       1.339  53.105 -17.674  1.00  0.00    -0.390 OA
HETATM   27  H13 UNL     1       0.529  53.599 -17.886  1.00  0.00     0.210 HD
ENDBRANCH  25  26
BRANCH  25  28
HETATM   28  C12 UNL     1       2.231  51.988 -15.718  1.00  0.00    -0.058 C 
HETATM   29  C13 UNL     1       3.542  52.375 -16.357  1.00  0.00     0.046 C 
HETATM   30  C14 UNL     1       2.148  51.465 -14.475  1.00  0.00    -0.015 C 
BRANCH  30  31
HETATM   31  C15 UNL     1       3.274  51.276 -13.477  1.00  0.00     0.032 C 
BRANCH  31  32
HETATM   32  C16 UNL     1       3.683  49.794 -13.394  1.00  0.00     0.172 C 
BRANCH  32  33
HETATM   33  O7  UNL     1       5.070  49.630 -13.123  1.00  0.00    -0.400 OA
HETATM   34  H21 UNL     1       5.213  49.917 -12.205  1.00  0.00     0.209 HD
ENDBRANCH  32  33
ENDBRANCH  31  32
BRANCH  31  35
HETATM   35  C17 UNL     1       2.858  51.861 -12.108  1.00  0.00     0.010 C 
BRANCH  35  36
HETATM   36  C18 UNL     1       1.448  51.430 -11.688  1.00  0.00     0.001 C 
BRANCH  36  37
HETATM   37  C19 UNL     1       0.557  52.605 -11.275  1.00  0.00     0.000 C 
BRANCH  37  38
HETATM   38  C20 UNL     1      -0.804  52.153 -10.737  1.00  0.00    -0.000 C 
BRANCH  38  39
HETATM   39  C21 UNL     1      -1.939  53.034 -11.263  1.00  0.00    -0.005 C 
HETATM   40  C22 UNL     1      -2.224  54.193 -10.316  1.00  0.00     0.005 C 
ENDBRANCH  38  39
ENDBRANCH  37  38
ENDBRANCH  36  37
ENDBRANCH  35  36
ENDBRANCH  31  35
ENDBRANCH  30  31
ENDBRANCH  25  28
ENDBRANCH  23  25
ENDBRANCH  21  23
ENDBRANCH   1  21
TORSDOF 15
ENDMDL
MODEL 7
REMARK minimizedAffinity -8.25506687
REMARK CNNscore 0.279892653
REMARK CNNaffinity 6.46275568
REMARK  15 active torsions:
REMARK  status: ('A' for Active; 'I' for Inactive)
REMARK    1  A    between atoms: C4_5  and  O2_6 
REMARK    2  A    between atoms: C7_10  and  O4_11 
REMARK    3  A    between atoms: O4_11  and  C8_12 
REMARK    4  A    between atoms: C8_12  and  C9_14 
REMARK    5  A    between atoms: C9_14  and  C11_16 
REMARK    6  A    between atoms: C11_16  and  O6_17 
REMARK    7  A    between atoms: C11_16  and  C12_18 
REMARK    8  A    between atoms: C14_20  and  C15_21 
REMARK    9  A    between atoms: C15_21  and  C16_22 
REMARK   10  A    between atoms: C15_21  and  C17_24 
REMARK   11  A    between atoms: C16_22  and  O7_23 
REMARK   12  A    between atoms: C17_24  and  C18_25 
REMARK   13  A    between atoms: C18_25  and  C19_26 
REMARK   14  A    between atoms: C19_26  and  C20_27 
REMARK   15  A    between atoms: C20_27  and  C21_28 
ROOT
HETATM    1  O4  UNL     1      -4.014  49.110 -19.904  1.00  0.00    -0.312 OA
ENDROOT
BRANCH   1   2
HETATM    2  C7  UNL     1      -2.755  48.636 -20.425  1.00  0.00     0.170 C 
HETATM    3  C6  UNL     1      -1.806  49.780 -20.715  1.00  0.00     0.127 A 
HETATM    4  C5  UNL     1      -1.704  50.328 -22.124  1.00  0.00     0.223 A 
HETATM    5  O3  UNL     1      -0.749  49.379 -21.613  1.00  0.00    -0.360 OA
HETATM    6  C27 UNL     1      -1.289  50.607 -19.533  1.00  0.00    -0.003 C 
HETATM    7  C4  UNL     1      -1.173  51.698 -22.414  1.00  0.00     0.199 C 
HETATM    8  O1  UNL     1      -0.143  51.594 -23.399  1.00  0.00    -0.348 OA
HETATM    9  C30 UNL     1      -0.576  52.448 -21.205  1.00  0.00     0.082 C 
HETATM   10  C3  UNL     1       0.722  52.724 -23.247  1.00  0.00     0.205 C 
HETATM   11  C2  UNL     1       0.602  53.157 -21.825  1.00  0.00    -0.056 C 
HETATM   12  C1  UNL     1       1.412  54.031 -21.213  1.00  0.00     0.017 C 
HETATM   13  C29 UNL     1      -0.151  51.550 -20.028  1.00  0.00     0.027 C 
HETATM   14  C25 UNL     1      -0.713  49.615 -18.458  1.00  0.00    -0.007 C 
HETATM   15  C28 UNL     1      -2.430  51.479 -18.961  1.00  0.00     0.019 C 
HETATM   16  C24 UNL     1      -1.693  48.469 -18.126  1.00  0.00     0.007 C 
HETATM   17  C26 UNL     1      -0.272  50.291 -17.152  1.00  0.00     0.011 C 
HETATM   18  C23 UNL     1      -2.136  47.708 -19.376  1.00  0.00     0.036 C 
BRANCH   7  19
HETATM   19  O2  UNL     1      -2.222  52.494 -22.965  1.00  0.00    -0.363 OA
HETATM   20  H5  UNL     1      -2.587  51.970 -23.694  1.00  0.00     0.213 HD
ENDBRANCH   7  19
ENDBRANCH   1   2
BRANCH   1  21
HETATM   21  C8  UNL     1      -5.149  48.542 -20.391  1.00  0.00     0.266 C 
HETATM   22  O5  UNL     1      -5.613  47.485 -19.994  1.00  0.00    -0.265 OA
BRANCH  21  23
HETATM   23  C9  UNL     1      -5.705  49.339 -21.559  1.00  0.00     0.114 C 
HETATM   24  C10 UNL     1      -7.139  49.826 -21.324  1.00  0.00     0.023 C 
BRANCH  23  25
HETATM   25  C11 UNL     1      -5.545  48.556 -22.883  1.00  0.00     0.159 C 
BRANCH  25  26
HETATM   26  O6  UNL     1      -4.714  47.415 -22.613  1.00  0.00    -0.390 OA
HETATM   27  H13 UNL     1      -5.298  46.709 -22.287  1.00  0.00     0.210 HD
ENDBRANCH  25  26
BRANCH  25  28
HETATM   28  C12 UNL     1      -4.958  49.345 -24.054  1.00  0.00    -0.058 C 
HETATM   29  C13 UNL     1      -5.138  50.840 -23.951  1.00  0.00     0.046 C 
HETATM   30  C14 UNL     1      -4.364  48.751 -25.113  1.00  0.00    -0.015 C 
BRANCH  30  31
HETATM   31  C15 UNL     1      -3.693  49.427 -26.294  1.00  0.00     0.032 C 
BRANCH  31  32
HETATM   32  C16 UNL     1      -4.065  48.717 -27.609  1.00  0.00     0.172 C 
BRANCH  32  33
HETATM   33  O7  UNL     1      -3.938  49.571 -28.739  1.00  0.00    -0.400 OA
HETATM   34  H21 UNL     1      -2.987  49.725 -28.870  1.00  0.00     0.209 HD
ENDBRANCH  32  33
ENDBRANCH  31  32
BRANCH  31  35
HETATM   35  C17 UNL     1      -2.167  49.489 -26.057  1.00  0.00     0.010 C 
BRANCH  35  36
HETATM   36  C18 UNL     1      -1.610  50.911 -26.182  1.00  0.00     0.001 C 
BRANCH  36  37
HETATM   37  C19 UNL     1      -0.961  51.187 -27.542  1.00  0.00     0.000 C 
BRANCH  37  38
HETATM   38  C20 UNL     1       0.062  52.324 -27.489  1.00  0.00    -0.000 C 
BRANCH  38  39
HETATM   39  C21 UNL     1       1.487  51.814 -27.722  1.00  0.00    -0.005 C 
HETATM   40  C22 UNL     1       2.127  51.347 -26.421  1.00  0.00     0.005 C 
ENDBRANCH  38  39
ENDBRANCH  37  38
ENDBRANCH  36  37
ENDBRANCH  35  36
ENDBRANCH  31  35
ENDBRANCH  30  31
ENDBRANCH  25  28
ENDBRANCH  23  25
ENDBRANCH  21  23
ENDBRANCH   1  21
TORSDOF 15
ENDMDL
MODEL 8
REMARK minimizedAffinity -7.42024803
REMARK CNNscore 0.264780939
REMARK CNNaffinity 5.79613924
REMARK  15 active torsions:
REMARK  status: ('A' for Active; 'I' for Inactive)
REMARK    1  A    between atoms: C4_5  and  O2_6 
REMARK    2  A    between atoms: C7_10  and  O4_11 
REMARK    3  A    between atoms: O4_11  and  C8_12 
REMARK    4  A    between atoms: C8_12  and  C9_14 
REMARK    5  A    between atoms: C9_14  and  C11_16 
REMARK    6  A    between atoms: C11_16  and  O6_17 
REMARK    7  A    between atoms: C11_16  and  C12_18 
REMARK    8  A    between atoms: C14_20  and  C15_21 
REMARK    9  A    between atoms: C15_21  and  C16_22 
REMARK   10  A    between atoms: C15_21  and  C17_24 
REMARK   11  A    between atoms: C16_22  and  O7_23 
REMARK   12  A    between atoms: C17_24  and  C18_25 
REMARK   13  A    between atoms: C18_25  and  C19_26 
REMARK   14  A    between atoms: C19_26  and  C20_27 
REMARK   15  A    between atoms: C20_27  and  C21_28 
ROOT
HETATM    1  O4  UNL     1      -3.558  49.525 -21.534  1.00  0.00    -0.312 OA
ENDROOT
BRANCH   1   2
HETATM    2  C7  UNL     1      -3.624  50.781 -20.825  1.00  0.00     0.170 C 
HETATM    3  C6  UNL     1      -2.608  50.840 -19.704  1.00  0.00     0.127 A 
HETATM    4  C5  UNL     1      -3.036  50.500 -18.290  1.00  0.00     0.223 A 
HETATM    5  O3  UNL     1      -2.939  51.864 -18.741  1.00  0.00    -0.360 OA
HETATM    6  C27 UNL     1      -1.122  50.843 -20.074  1.00  0.00    -0.003 C 
HETATM    7  C4  UNL     1      -2.056  50.091 -17.234  1.00  0.00     0.199 C 
HETATM    8  O1  UNL     1      -2.252  50.911 -16.080  1.00  0.00    -0.348 OA
HETATM    9  C30 UNL     1      -0.568  50.205 -17.629  1.00  0.00     0.082 C 
HETATM   10  C3  UNL     1      -1.020  50.942 -15.351  1.00  0.00     0.205 C 
HETATM   11  C2  UNL     1       0.062  50.685 -16.345  1.00  0.00    -0.056 C 
HETATM   12  C1  UNL     1       1.372  50.855 -16.122  1.00  0.00     0.017 C 
HETATM   13  C29 UNL     1      -0.278  51.160 -18.802  1.00  0.00     0.027 C 
HETATM   14  C25 UNL     1      -0.888  51.967 -21.148  1.00  0.00    -0.007 C 
HETATM   15  C28 UNL     1      -0.707  49.449 -20.598  1.00  0.00     0.019 C 
HETATM   16  C24 UNL     1      -1.893  51.886 -22.317  1.00  0.00     0.007 C 
HETATM   17  C26 UNL     1       0.538  52.007 -21.716  1.00  0.00     0.011 C 
HETATM   18  C23 UNL     1      -3.344  51.899 -21.832  1.00  0.00     0.036 C 
BRANCH   7  19
HETATM   19  O2  UNL     1      -2.319  48.741 -16.856  1.00  0.00    -0.363 OA
HETATM   20  H5  UNL     1      -3.266  48.711 -16.652  1.00  0.00     0.213 HD
ENDBRANCH   7  19
ENDBRANCH   1   2
BRANCH   1  21
HETATM   21  C8  UNL     1      -4.613  49.196 -22.326  1.00  0.00     0.266 C 
HETATM   22  O5  UNL     1      -5.783  49.362 -22.017  1.00  0.00    -0.265 OA
BRANCH  21  23
HETATM   23  C9  UNL     1      -4.151  48.504 -23.597  1.00  0.00     0.114 C 
HETATM   24  C10 UNL     1      -2.665  48.132 -23.571  1.00  0.00     0.023 C 
BRANCH  23  25
HETATM   25  C11 UNL     1      -4.543  49.329 -24.845  1.00  0.00     0.159 C 
BRANCH  25  26
HETATM   26  O6  UNL     1      -5.720  50.085 -24.511  1.00  0.00    -0.390 OA
HETATM   27  H13 UNL     1      -5.418  50.905 -24.085  1.00  0.00     0.210 HD
ENDBRANCH  25  26
BRANCH  25  28
HETATM   28  C12 UNL     1      -4.802  48.523 -26.119  1.00  0.00    -0.058 C 
HETATM   29  C13 UNL     1      -3.602  48.382 -27.022  1.00  0.00     0.046 C 
HETATM   30  C14 UNL     1      -6.016  48.017 -26.430  1.00  0.00    -0.015 C 
BRANCH  30  31
HETATM   31  C15 UNL     1      -6.377  47.152 -27.624  1.00  0.00     0.032 C 
BRANCH  31  32
HETATM   32  C16 UNL     1      -6.438  48.000 -28.908  1.00  0.00     0.172 C 
BRANCH  32  33
HETATM   33  O7  UNL     1      -7.625  48.779 -28.986  1.00  0.00    -0.400 OA
HETATM   34  H21 UNL     1      -7.554  49.470 -28.307  1.00  0.00     0.209 HD
ENDBRANCH  32  33
ENDBRANCH  31  32
BRANCH  31  35
HETATM   35  C17 UNL     1      -7.696  46.399 -27.339  1.00  0.00     0.010 C 
BRANCH  35  36
HETATM   36  C18 UNL     1      -8.153  45.544 -28.526  1.00  0.00     0.001 C 
BRANCH  36  37
HETATM   37  C19 UNL     1      -9.649  45.677 -28.824  1.00  0.00     0.000 C 
BRANCH  37  38
HETATM   38  C20 UNL     1     -10.344  46.694 -27.915  1.00  0.00    -0.000 C 
BRANCH  38  39
HETATM   39  C21 UNL     1     -11.839  46.801 -28.227  1.00  0.00    -0.005 C 
HETATM   40  C22 UNL     1     -12.431  48.087 -27.665  1.00  0.00     0.005 C 
ENDBRANCH  38  39
ENDBRANCH  37  38
ENDBRANCH  36  37
ENDBRANCH  35  36
ENDBRANCH  31  35
ENDBRANCH  30  31
ENDBRANCH  25  28
ENDBRANCH  23  25
ENDBRANCH  21  23
ENDBRANCH   1  21
TORSDOF 15
ENDMDL
MODEL 9
REMARK minimizedAffinity -7.5546031
REMARK CNNscore 0.243688405
REMARK CNNaffinity 5.78044653
REMARK  15 active torsions:
REMARK  status: ('A' for Active; 'I' for Inactive)
REMARK    1  A    between atoms: C4_5  and  O2_6 
REMARK    2  A    between atoms: C7_10  and  O4_11 
REMARK    3  A    between atoms: O4_11  and  C8_12 
REMARK    4  A    between atoms: C8_12  and  C9_14 
REMARK    5  A    between atoms: C9_14  and  C11_16 
REMARK    6  A    between atoms: C11_16  and  O6_17 
REMARK    7  A    between atoms: C11_16  and  C12_18 
REMARK    8  A    between atoms: C14_20  and  C15_21 
REMARK    9  A    between atoms: C15_21  and  C16_22 
REMARK   10  A    between atoms: C15_21  and  C17_24 
REMARK   11  A    between atoms: C16_22  and  O7_23 
REMARK   12  A    between atoms: C17_24  and  C18_25 
REMARK   13  A    between atoms: C18_25  and  C19_26 
REMARK   14  A    between atoms: C19_26  and  C20_27 
REMARK   15  A    between atoms: C20_27  and  C21_28 
ROOT
HETATM    1  O4  UNL     1       4.245  67.092 -38.062  1.00  0.00    -0.312 OA
ENDROOT
BRANCH   1   2
HETATM    2  C7  UNL     1       4.212  67.584 -39.418  1.00  0.00     0.170 C 
HETATM    3  C6  UNL     1       2.820  68.028 -39.816  1.00  0.00     0.127 A 
HETATM    4  C5  UNL     1       1.923  67.078 -40.584  1.00  0.00     0.223 A 
HETATM    5  O3  UNL     1       2.677  68.108 -41.250  1.00  0.00    -0.360 OA
HETATM    6  C27 UNL     1       2.216  69.240 -39.099  1.00  0.00    -0.003 C 
HETATM    7  C4  UNL     1       0.435  67.234 -40.617  1.00  0.00     0.199 C 
HETATM    8  O1  UNL     1       0.000  67.232 -41.979  1.00  0.00    -0.348 OA
HETATM    9  C30 UNL     1      -0.113  68.520 -39.964  1.00  0.00     0.082 C 
HETATM   10  C3  UNL     1      -1.243  67.938 -42.042  1.00  0.00     0.205 C 
HETATM   11  C2  UNL     1      -1.248  68.884 -40.889  1.00  0.00    -0.056 C 
HETATM   12  C1  UNL     1      -2.121  69.886 -40.716  1.00  0.00     0.017 C 
HETATM   13  C29 UNL     1       0.907  69.667 -39.830  1.00  0.00     0.027 C 
HETATM   14  C25 UNL     1       3.258  70.416 -39.165  1.00  0.00    -0.007 C 
HETATM   15  C28 UNL     1       1.860  68.866 -37.642  1.00  0.00     0.019 C 
HETATM   16  C24 UNL     1       4.670  69.981 -38.720  1.00  0.00     0.007 C 
HETATM   17  C26 UNL     1       2.845  71.666 -38.374  1.00  0.00     0.011 C 
HETATM   18  C23 UNL     1       5.175  68.770 -39.507  1.00  0.00     0.036 C 
BRANCH   7  19
HETATM   19  O2  UNL     1      -0.163  66.112 -39.969  1.00  0.00    -0.363 OA
HETATM   20  H5  UNL     1       0.235  65.332 -40.386  1.00  0.00     0.213 HD
ENDBRANCH   7  19
ENDBRANCH   1   2
BRANCH   1  21
HETATM   21  C8  UNL     1       5.382  66.474 -37.646  1.00  0.00     0.266 C 
HETATM   22  O5  UNL     1       5.860  65.484 -38.179  1.00  0.00    -0.265 OA
BRANCH  21  23
HETATM   23  C9  UNL     1       5.921  67.110 -36.376  1.00  0.00     0.114 C 
HETATM   24  C10 UNL     1       7.274  66.533 -35.945  1.00  0.00     0.023 C 
BRANCH  23  25
HETATM   25  C11 UNL     1       4.862  67.066 -35.249  1.00  0.00     0.159 C 
BRANCH  25  26
HETATM   26  O6  UNL     1       5.477  67.583 -34.057  1.00  0.00    -0.390 OA
HETATM   27  H13 UNL     1       5.382  68.550 -34.085  1.00  0.00     0.210 HD
ENDBRANCH  25  26
BRANCH  25  28
HETATM   28  C12 UNL     1       4.262  65.690 -34.955  1.00  0.00    -0.058 C 
HETATM   29  C13 UNL     1       2.848  65.508 -35.451  1.00  0.00     0.046 C 
HETATM   30  C14 UNL     1       4.927  64.733 -34.272  1.00  0.00    -0.015 C 
BRANCH  30  31
HETATM   31  C15 UNL     1       4.464  63.318 -33.978  1.00  0.00     0.032 C 
BRANCH  31  32
HETATM   32  C16 UNL     1       4.150  63.150 -32.480  1.00  0.00     0.172 C 
BRANCH  32  33
HETATM   33  O7  UNL     1       3.277  62.056 -32.229  1.00  0.00    -0.400 OA
HETATM   34  H21 UNL     1       3.783  61.245 -32.408  1.00  0.00     0.209 HD
ENDBRANCH  32  33
ENDBRANCH  31  32
BRANCH  31  35
HETATM   35  C17 UNL     1       5.519  62.311 -34.487  1.00  0.00     0.010 C 
BRANCH  35  36
HETATM   36  C18 UNL     1       6.945  62.871 -34.427  1.00  0.00     0.001 C 
BRANCH  36  37
HETATM   37  C19 UNL     1       8.018  61.781 -34.347  1.00  0.00     0.000 C 
BRANCH  37  38
HETATM   38  C20 UNL     1       9.182  62.026 -35.310  1.00  0.00    -0.000 C 
BRANCH  38  39
HETATM   39  C21 UNL     1      10.271  62.893 -34.671  1.00  0.00    -0.005 C 
HETATM   40  C22 UNL     1      10.427  62.579 -33.189  1.00  0.00     0.005 C 
ENDBRANCH  38  39
ENDBRANCH  37  38
ENDBRANCH  36  37
ENDBRANCH  35  36
ENDBRANCH  31  35
ENDBRANCH  30  31
ENDBRANCH  25  28
ENDBRANCH  23  25
ENDBRANCH  21  23
ENDBRANCH   1  21
TORSDOF 15
ENDMDL
