MODEL 1
REMARK minimizedAffinity -10.3751211
REMARK CNNscore 0.706417859
REMARK CNNaffinity 7.07713699
REMARK  11 active torsions:
REMARK  status: ('A' for Active; 'I' for Inactive)
REMARK    1  A    between atoms: C3_4  and  O2_5 
REMARK    2  A    between atoms: O2_5  and  C4_6 
REMARK    3  A    between atoms: C7_9  and  C8_10 
REMARK    4  A    between atoms: N1_11  and  C9_13 
REMARK    5  A    between atoms: C9_13  and  C10_14 
REMARK    6  A    between atoms: C10_14  and  O3_15 
REMARK    7  A    between atoms: C16_21  and  C17_22 
REMARK    8  A    between atoms: C23_30  and  O6_31 
REMARK    9  A    between atoms: C27_35  and  O7_36 
REMARK   10  A    between atoms: C30_39  and  O8_40 
REMARK   11  A    between atoms: C31_41  and  O9_42 
ROOT
HETATM    1  C4  UNL     1       0.289   6.955  11.692  1.00  0.00     0.127 C 
HETATM    2  C5  UNL     1       0.111   5.971  12.844  1.00  0.00     0.033 C 
HETATM    3  C6  UNL     1       0.292   6.658  14.195  1.00  0.00     0.021 C 
HETATM    4  C7  UNL     1      -0.677   7.859  14.439  1.00  0.00     0.026 C 
HETATM    5  C11 UNL     1      -2.163   7.379  14.626  1.00  0.00     0.009 C 
HETATM    6  C12 UNL     1      -2.396   6.452  15.817  1.00  0.00     0.007 C 
HETATM    7  C13 UNL     1      -3.742   5.738  15.720  1.00  0.00     0.013 C 
HETATM    8  C14 UNL     1      -4.915   6.570  15.144  1.00  0.00    -0.005 C 
HETATM    9  C15 UNL     1      -6.166   6.205  15.995  1.00  0.00     0.019 C 
HETATM   10  C16 UNL     1      -5.195   6.313  13.624  1.00  0.00     0.028 C 
HETATM   11  C21 UNL     1      -6.026   7.531  13.173  1.00  0.00     0.013 C 
HETATM   12  C22 UNL     1      -5.778   8.626  14.215  1.00  0.00     0.040 C 
HETATM   13  C23 UNL     1      -4.647   8.113  15.128  1.00  0.00     0.070 C 
HETATM   14  C24 UNL     1      -3.180   8.554  14.728  1.00  0.00     0.026 C 
HETATM   15  C25 UNL     1      -3.060   9.472  13.502  1.00  0.00     0.011 C 
HETATM   16  C26 UNL     1      -1.633   9.965  13.276  1.00  0.00     0.039 C 
HETATM   17  C27 UNL     1      -0.576   8.849  13.223  1.00  0.00     0.073 C 
HETATM   18  C28 UNL     1      -0.711   8.110  11.857  1.00  0.00     0.071 C 
ENDROOT
BRANCH   1  19
HETATM   19  O2  UNL     1       1.593   7.547  11.649  1.00  0.00    -0.356 OA
BRANCH  19  20
HETATM   20  C3  UNL     1       2.464   7.022  10.646  1.00  0.00     0.263 C 
HETATM   21  O1  UNL     1       1.889   7.271   9.366  1.00  0.00    -0.354 OA
HETATM   22  C2  UNL     1       2.698   6.777   8.295  1.00  0.00     0.151 C 
HETATM   23  C1  UNL     1       2.030   7.214   6.994  1.00  0.00     0.042 C 
HETATM   24  C31 UNL     1       2.824   5.246   8.384  1.00  0.00     0.175 C 
HETATM   25  C30 UNL     1       3.352   4.849   9.771  1.00  0.00     0.154 C 
HETATM   26  C29 UNL     1       2.557   5.516  10.880  1.00  0.00     0.095 C 
BRANCH  24  27
HETATM   27  O9  UNL     1       3.728   4.727   7.407  1.00  0.00    -0.390 OA
HETATM   28  H47 UNL     1       3.323   4.862   6.533  1.00  0.00     0.210 HD
ENDBRANCH  24  27
BRANCH  25  29
HETATM   29  O8  UNL     1       4.730   5.233   9.885  1.00  0.00    -0.393 OA
HETATM   30  H45 UNL     1       5.150   4.890   9.065  1.00  0.00     0.210 HD
ENDBRANCH  25  29
ENDBRANCH  19  20
ENDBRANCH   1  19
BRANCH  17  31
HETATM   31  O7  UNL     1       0.701   9.513  13.236  1.00  0.00    -0.389 OA
HETATM   32  H39 UNL     1       1.348   8.930  12.785  1.00  0.00     0.210 HD
ENDBRANCH  17  31
BRANCH   4  33
HETATM   33  C8  UNL     1      -0.163   8.489  15.743  1.00  0.00     0.068 C 
HETATM   34  N1  UNL     1      -0.090   9.764  15.925  1.00  0.00    -0.399 N 
ATOM     35  H1  UNL     1      -0.407  10.440  15.230  1.00  0.00     0.158 HD
BRANCH  34  36
HETATM   36  C9  UNL     1       0.485  10.164  17.214  1.00  0.00     0.144 C 
BRANCH  36  37
HETATM   37  C10 UNL     1       1.977   9.821  17.181  1.00  0.00     0.183 C 
BRANCH  37  38
HETATM   38  O3  UNL     1       2.466   9.707  18.517  1.00  0.00    -0.399 OA
HETATM   39  H16 UNL     1       1.873   9.055  18.949  1.00  0.00     0.209 HD
ENDBRANCH  37  38
ENDBRANCH  36  37
ENDBRANCH  34  36
ENDBRANCH   4  33
BRANCH  13  40
HETATM   40  O6  UNL     1      -4.882   8.630  16.444  1.00  0.00    -0.389 OA
HETATM   41  H33 UNL     1      -4.776   9.599  16.412  1.00  0.00     0.210 HD
ENDBRANCH  13  40
BRANCH  10  42
HETATM   42  C17 UNL     1      -5.743   4.976  13.206  1.00  0.00    -0.045 A 
HETATM   43  C18 UNL     1      -7.014   4.596  13.333  1.00  0.00     0.087 A 
HETATM   44  C19 UNL     1      -7.115   3.225  12.839  1.00  0.00     0.283 A 
HETATM   45  O4  UNL     1      -8.140   2.568  12.817  1.00  0.00    -0.260 OA
HETATM   46  O5  UNL     1      -5.889   2.813  12.425  1.00  0.00    -0.314 OA
HETATM   47  C20 UNL     1      -4.940   3.858  12.650  1.00  0.00     0.213 A 
ENDBRANCH  10  42
TORSDOF 11
ENDMDL
MODEL 2
REMARK minimizedAffinity -8.52273846
REMARK CNNscore 0.655815601
REMARK CNNaffinity 7.03562927
REMARK  11 active torsions:
REMARK  status: ('A' for Active; 'I' for Inactive)
REMARK    1  A    between atoms: C3_4  and  O2_5 
REMARK    2  A    between atoms: O2_5  and  C4_6 
REMARK    3  A    between atoms: C7_9  and  C8_10 
REMARK    4  A    between atoms: N1_11  and  C9_13 
REMARK    5  A    between atoms: C9_13  and  C10_14 
REMARK    6  A    between atoms: C10_14  and  O3_15 
REMARK    7  A    between atoms: C16_21  and  C17_22 
REMARK    8  A    between atoms: C23_30  and  O6_31 
REMARK    9  A    between atoms: C27_35  and  O7_36 
REMARK   10  A    between atoms: C30_39  and  O8_40 
REMARK   11  A    between atoms: C31_41  and  O9_42 
ROOT
HETATM    1  C4  UNL     1      -4.738   7.656  13.175  1.00  0.00     0.127 C 
HETATM    2  C5  UNL     1      -3.921   8.927  12.962  1.00  0.00     0.033 C 
HETATM    3  C6  UNL     1      -3.148   9.308  14.221  1.00  0.00     0.021 C 
HETATM    4  C7  UNL     1      -2.177   8.198  14.738  1.00  0.00     0.026 C 
HETATM    5  C11 UNL     1      -0.953   7.998  13.771  1.00  0.00     0.009 C 
HETATM    6  C12 UNL     1      -0.066   9.228  13.592  1.00  0.00     0.007 C 
HETATM    7  C13 UNL     1       0.855   9.087  12.381  1.00  0.00     0.013 C 
HETATM    8  C14 UNL     1       1.430   7.673  12.124  1.00  0.00    -0.005 C 
HETATM    9  C15 UNL     1       2.909   7.878  11.686  1.00  0.00     0.019 C 
HETATM   10  C16 UNL     1       0.649   6.853  11.040  1.00  0.00     0.028 C 
HETATM   11  C21 UNL     1       1.067   5.390  11.288  1.00  0.00     0.013 C 
HETATM   12  C22 UNL     1       1.616   5.339  12.717  1.00  0.00     0.040 C 
HETATM   13  C23 UNL     1       1.310   6.709  13.352  1.00  0.00     0.070 C 
HETATM   14  C24 UNL     1      -0.040   6.804  14.175  1.00  0.00     0.026 C 
HETATM   15  C25 UNL     1      -0.864   5.512  14.276  1.00  0.00     0.011 C 
HETATM   16  C26 UNL     1      -2.067   5.654  15.204  1.00  0.00     0.039 C 
HETATM   17  C27 UNL     1      -2.976   6.854  14.886  1.00  0.00     0.073 C 
HETATM   18  C28 UNL     1      -3.798   6.520  13.604  1.00  0.00     0.071 C 
ENDROOT
BRANCH   1  19
HETATM   19  O2  UNL     1      -5.724   7.783  14.206  1.00  0.00    -0.356 OA
BRANCH  19  20
HETATM   20  C3  UNL     1      -6.681   6.724  14.263  1.00  0.00     0.263 C 
HETATM   21  O1  UNL     1      -6.156   5.596  13.569  1.00  0.00    -0.354 OA
HETATM   22  C2  UNL     1      -7.052   4.482  13.575  1.00  0.00     0.151 C 
HETATM   23  C1  UNL     1      -6.321   3.319  12.909  1.00  0.00     0.042 C 
HETATM   24  C31 UNL     1      -8.351   4.838  12.831  1.00  0.00     0.175 C 
HETATM   25  C30 UNL     1      -8.966   6.108  13.439  1.00  0.00     0.154 C 
HETATM   26  C29 UNL     1      -7.939   7.221  13.554  1.00  0.00     0.095 C 
BRANCH  24  27
HETATM   27  O9  UNL     1      -9.323   3.794  12.925  1.00  0.00    -0.390 OA
HETATM   28  H47 UNL     1      -8.985   3.034  12.421  1.00  0.00     0.210 HD
ENDBRANCH  24  27
BRANCH  25  29
HETATM   29  O8  UNL     1      -9.483   5.810  14.744  1.00  0.00    -0.393 OA
HETATM   30  H45 UNL     1     -10.021   4.998  14.617  1.00  0.00     0.210 HD
ENDBRANCH  25  29
ENDBRANCH  19  20
ENDBRANCH   1  19
BRANCH  17  31
HETATM   31  O7  UNL     1      -3.901   6.951  15.985  1.00  0.00    -0.389 OA
HETATM   32  H39 UNL     1      -4.721   7.374  15.651  1.00  0.00     0.210 HD
ENDBRANCH  17  31
BRANCH   4  33
HETATM   33  C8  UNL     1      -1.691   8.736  16.094  1.00  0.00     0.068 C 
HETATM   34  N1  UNL     1      -2.431   9.452  16.870  1.00  0.00    -0.399 N 
ATOM     35  H1  UNL     1      -3.402   9.677  16.654  1.00  0.00     0.158 HD
BRANCH  34  36
HETATM   36  C9  UNL     1      -1.762   9.918  18.090  1.00  0.00     0.144 C 
BRANCH  36  37
HETATM   37  C10 UNL     1      -2.349  11.287  18.445  1.00  0.00     0.183 C 
BRANCH  37  38
HETATM   38  O3  UNL     1      -3.713  11.129  18.836  1.00  0.00    -0.399 OA
HETATM   39  H16 UNL     1      -3.694  10.457  19.552  1.00  0.00     0.209 HD
ENDBRANCH  37  38
ENDBRANCH  36  37
ENDBRANCH  34  36
ENDBRANCH   4  33
BRANCH  13  40
HETATM   40  O6  UNL     1       2.368   7.008  14.272  1.00  0.00    -0.389 OA
HETATM   41  H33 UNL     1       2.327   6.364  15.002  1.00  0.00     0.210 HD
ENDBRANCH  13  40
BRANCH  10  42
HETATM   42  C17 UNL     1       0.715   7.303   9.608  1.00  0.00    -0.045 A 
HETATM   43  C18 UNL     1       1.627   6.904   8.721  1.00  0.00     0.087 A 
HETATM   44  C19 UNL     1       1.354   7.599   7.465  1.00  0.00     0.283 A 
HETATM   45  O4  UNL     1       2.005   7.471   6.444  1.00  0.00    -0.260 OA
HETATM   46  O5  UNL     1       0.274   8.406   7.632  1.00  0.00    -0.314 OA
HETATM   47  C20 UNL     1      -0.184   8.305   8.982  1.00  0.00     0.213 A 
ENDBRANCH  10  42
TORSDOF 11
ENDMDL
MODEL 3
REMARK minimizedAffinity -10.2325726
REMARK CNNscore 0.640855014
REMARK CNNaffinity 7.0729332
REMARK  11 active torsions:
REMARK  status: ('A' for Active; 'I' for Inactive)
REMARK    1  A    between atoms: C3_4  and  O2_5 
REMARK    2  A    between atoms: O2_5  and  C4_6 
REMARK    3  A    between atoms: C7_9  and  C8_10 
REMARK    4  A    between atoms: N1_11  and  C9_13 
REMARK    5  A    between atoms: C9_13  and  C10_14 
REMARK    6  A    between atoms: C10_14  and  O3_15 
REMARK    7  A    between atoms: C16_21  and  C17_22 
REMARK    8  A    between atoms: C23_30  and  O6_31 
REMARK    9  A    between atoms: C27_35  and  O7_36 
REMARK   10  A    between atoms: C30_39  and  O8_40 
REMARK   11  A    between atoms: C31_41  and  O9_42 
ROOT
HETATM    1  C4  UNL     1      -0.112   6.957  10.227  1.00  0.00     0.127 C 
HETATM    2  C5  UNL     1      -0.136   5.761  11.175  1.00  0.00     0.033 C 
HETATM    3  C6  UNL     1       0.528   6.095  12.508  1.00  0.00     0.021 C 
HETATM    4  C7  UNL     1      -0.108   7.311  13.256  1.00  0.00     0.026 C 
HETATM    5  C11 UNL     1      -1.546   6.974  13.797  1.00  0.00     0.009 C 
HETATM    6  C12 UNL     1      -1.602   5.831  14.808  1.00  0.00     0.007 C 
HETATM    7  C13 UNL     1      -3.028   5.317  14.998  1.00  0.00     0.013 C 
HETATM    8  C14 UNL     1      -4.147   6.388  14.974  1.00  0.00    -0.005 C 
HETATM    9  C15 UNL     1      -5.159   5.983  16.085  1.00  0.00     0.019 C 
HETATM   10  C16 UNL     1      -4.876   6.520  13.593  1.00  0.00     0.028 C 
HETATM   11  C21 UNL     1      -5.569   7.895  13.653  1.00  0.00     0.013 C 
HETATM   12  C22 UNL     1      -4.854   8.686  14.752  1.00  0.00     0.040 C 
HETATM   13  C23 UNL     1      -3.625   7.852  15.163  1.00  0.00     0.070 C 
HETATM   14  C24 UNL     1      -2.271   8.202  14.421  1.00  0.00     0.026 C 
HETATM   15  C25 UNL     1      -2.332   9.357  13.410  1.00  0.00     0.011 C 
HETATM   16  C26 UNL     1      -0.958   9.722  12.853  1.00  0.00     0.039 C 
HETATM   17  C27 UNL     1      -0.172   8.535  12.272  1.00  0.00     0.073 C 
HETATM   18  C28 UNL     1      -0.807   8.149  10.902  1.00  0.00     0.071 C 
ENDROOT
BRANCH   1  19
HETATM   19  O2  UNL     1       1.213   7.389   9.897  1.00  0.00    -0.356 OA
BRANCH  19  20
HETATM   20  C3  UNL     1       2.255   6.480  10.255  1.00  0.00     0.263 C 
HETATM   21  O1  UNL     1       3.312   7.215  10.868  1.00  0.00    -0.354 OA
HETATM   22  C2  UNL     1       4.404   6.380  11.262  1.00  0.00     0.151 C 
HETATM   23  C1  UNL     1       5.398   7.269  12.005  1.00  0.00     0.042 C 
HETATM   24  C31 UNL     1       5.043   5.720  10.028  1.00  0.00     0.175 C 
HETATM   25  C30 UNL     1       3.968   4.967   9.228  1.00  0.00     0.154 C 
HETATM   26  C29 UNL     1       2.758   5.846   8.960  1.00  0.00     0.095 C 
BRANCH  24  27
HETATM   27  O9  UNL     1       6.056   4.779  10.391  1.00  0.00    -0.390 OA
HETATM   28  H47 UNL     1       6.795   5.280  10.777  1.00  0.00     0.210 HD
ENDBRANCH  24  27
BRANCH  25  29
HETATM   29  O8  UNL     1       3.552   3.807   9.962  1.00  0.00    -0.393 OA
HETATM   30  H45 UNL     1       4.391   3.366  10.223  1.00  0.00     0.210 HD
ENDBRANCH  25  29
ENDBRANCH  19  20
ENDBRANCH   1  19
BRANCH  17  31
HETATM   31  O7  UNL     1       1.156   9.027  12.016  1.00  0.00    -0.389 OA
HETATM   32  H39 UNL     1       1.540   8.493  11.288  1.00  0.00     0.210 HD
ENDBRANCH  17  31
BRANCH   4  33
HETATM   33  C8  UNL     1       0.848   7.562  14.432  1.00  0.00     0.068 C 
HETATM   34  N1  UNL     1       1.931   6.884  14.613  1.00  0.00    -0.399 N 
ATOM     35  H1  UNL     1       2.244   6.162  13.965  1.00  0.00     0.158 HD
BRANCH  34  36
HETATM   36  C9  UNL     1       2.675   7.236  15.828  1.00  0.00     0.144 C 
BRANCH  36  37
HETATM   37  C10 UNL     1       3.950   7.964  15.395  1.00  0.00     0.183 C 
BRANCH  37  38
HETATM   38  O3  UNL     1       5.075   7.109  15.599  1.00  0.00    -0.399 OA
HETATM   39  H16 UNL     1       4.853   6.281  15.119  1.00  0.00     0.209 HD
ENDBRANCH  37  38
ENDBRANCH  36  37
ENDBRANCH  34  36
ENDBRANCH   4  33
BRANCH  13  40
HETATM   40  O6  UNL     1      -3.393   8.077  16.560  1.00  0.00    -0.389 OA
HETATM   41  H33 UNL     1      -3.130   9.008  16.677  1.00  0.00     0.210 HD
ENDBRANCH  13  40
BRANCH  10  42
HETATM   42  C17 UNL     1      -5.744   5.386  13.124  1.00  0.00    -0.045 A 
HETATM   43  C18 UNL     1      -7.064   5.309  13.299  1.00  0.00     0.087 A 
HETATM   44  C19 UNL     1      -7.511   4.042  12.725  1.00  0.00     0.283 A 
HETATM   45  O4  UNL     1      -8.663   3.649  12.721  1.00  0.00    -0.260 OA
HETATM   46  O5  UNL     1      -6.438   3.384  12.216  1.00  0.00    -0.314 OA
HETATM   47  C20 UNL     1      -5.258   4.155  12.452  1.00  0.00     0.213 A 
ENDBRANCH  10  42
TORSDOF 11
ENDMDL
MODEL 4
REMARK minimizedAffinity -7.19488668
REMARK CNNscore 0.522858977
REMARK CNNaffinity 5.93471909
REMARK  11 active torsions:
REMARK  status: ('A' for Active; 'I' for Inactive)
REMARK    1  A    between atoms: C3_4  and  O2_5 
REMARK    2  A    between atoms: O2_5  and  C4_6 
REMARK    3  A    between atoms: C7_9  and  C8_10 
REMARK    4  A    between atoms: N1_11  and  C9_13 
REMARK    5  A    between atoms: C9_13  and  C10_14 
REMARK    6  A    between atoms: C10_14  and  O3_15 
REMARK    7  A    between atoms: C16_21  and  C17_22 
REMARK    8  A    between atoms: C23_30  and  O6_31 
REMARK    9  A    between atoms: C27_35  and  O7_36 
REMARK   10  A    between atoms: C30_39  and  O8_40 
REMARK   11  A    between atoms: C31_41  and  O9_42 
ROOT
HETATM    1  C4  UNL     1     -13.051   8.188  24.135  1.00  0.00     0.127 C 
HETATM    2  C5  UNL     1     -14.206   8.120  25.128  1.00  0.00     0.033 C 
HETATM    3  C6  UNL     1     -15.490   7.641  24.457  1.00  0.00     0.021 C 
HETATM    4  C7  UNL     1     -15.370   6.243  23.768  1.00  0.00     0.026 C 
HETATM    5  C11 UNL     1     -15.219   5.085  24.822  1.00  0.00     0.009 C 
HETATM    6  C12 UNL     1     -16.393   4.936  25.787  1.00  0.00     0.007 C 
HETATM    7  C13 UNL     1     -16.025   4.071  26.991  1.00  0.00     0.013 C 
HETATM    8  C14 UNL     1     -15.098   2.864  26.704  1.00  0.00    -0.005 C 
HETATM    9  C15 UNL     1     -15.636   1.688  27.571  1.00  0.00     0.019 C 
HETATM   10  C16 UNL     1     -13.587   3.129  27.022  1.00  0.00     0.028 C 
HETATM   11  C21 UNL     1     -12.831   2.033  26.246  1.00  0.00     0.013 C 
HETATM   12  C22 UNL     1     -13.796   1.530  25.168  1.00  0.00     0.040 C 
HETATM   13  C23 UNL     1     -15.008   2.481  25.189  1.00  0.00     0.070 C 
HETATM   14  C24 UNL     1     -14.952   3.695  24.173  1.00  0.00     0.026 C 
HETATM   15  C25 UNL     1     -13.718   3.759  23.262  1.00  0.00     0.011 C 
HETATM   16  C26 UNL     1     -13.815   4.870  22.219  1.00  0.00     0.039 C 
HETATM   17  C27 UNL     1     -14.133   6.259  22.799  1.00  0.00     0.073 C 
HETATM   18  C28 UNL     1     -12.851   6.804  23.499  1.00  0.00     0.071 C 
ENDROOT
BRANCH   1  19
HETATM   19  O2  UNL     1     -13.284   9.103  23.057  1.00  0.00    -0.356 OA
BRANCH  19  20
HETATM   20  C3  UNL     1     -12.567  10.335  23.142  1.00  0.00     0.263 C 
HETATM   21  O1  UNL     1     -12.011  10.629  21.863  1.00  0.00    -0.354 OA
HETATM   22  C2  UNL     1     -11.272  11.853  21.854  1.00  0.00     0.151 C 
HETATM   23  C1  UNL     1     -10.840  12.102  20.411  1.00  0.00     0.042 C 
HETATM   24  C31 UNL     1     -10.063  11.754  22.800  1.00  0.00     0.175 C 
HETATM   25  C30 UNL     1     -10.536  11.347  24.205  1.00  0.00     0.154 C 
HETATM   26  C29 UNL     1     -11.442  10.129  24.154  1.00  0.00     0.095 C 
BRANCH  24  27
HETATM   27  O9  UNL     1      -9.372  13.000  22.916  1.00  0.00    -0.390 OA
HETATM   28  H47 UNL     1      -8.961  13.187  22.056  1.00  0.00     0.210 HD
ENDBRANCH  24  27
BRANCH  25  29
HETATM   29  O8  UNL     1     -11.250  12.438  24.803  1.00  0.00    -0.393 OA
HETATM   30  H45 UNL     1     -10.666  13.217  24.672  1.00  0.00     0.210 HD
ENDBRANCH  25  29
ENDBRANCH  19  20
ENDBRANCH   1  19
BRANCH  17  31
HETATM   31  O7  UNL     1     -14.407   7.106  21.668  1.00  0.00    -0.389 OA
HETATM   32  H39 UNL     1     -14.189   8.028  21.923  1.00  0.00     0.210 HD
ENDBRANCH  17  31
BRANCH   4  33
HETATM   33  C8  UNL     1     -16.698   6.090  23.009  1.00  0.00     0.068 C 
HETATM   34  N1  UNL     1     -16.824   5.356  21.956  1.00  0.00    -0.399 N 
ATOM     35  H1  UNL     1     -16.060   4.795  21.580  1.00  0.00     0.158 HD
BRANCH  34  36
HETATM   36  C9  UNL     1     -18.157   5.392  21.344  1.00  0.00     0.144 C 
BRANCH  36  37
HETATM   37  C10 UNL     1     -18.019   6.061  19.974  1.00  0.00     0.183 C 
BRANCH  37  38
HETATM   38  O3  UNL     1     -16.635   6.186  19.647  1.00  0.00    -0.399 OA
HETATM   39  H16 UNL     1     -16.272   5.277  19.734  1.00  0.00     0.209 HD
ENDBRANCH  37  38
ENDBRANCH  36  37
ENDBRANCH  34  36
ENDBRANCH   4  33
BRANCH  13  40
HETATM   40  O6  UNL     1     -16.169   1.715  24.842  1.00  0.00    -0.389 OA
HETATM   41  H33 UNL     1     -16.076   1.427  23.916  1.00  0.00     0.210 HD
ENDBRANCH  13  40
BRANCH  10  42
HETATM   42  C17 UNL     1     -13.169   3.300  28.456  1.00  0.00    -0.045 A 
HETATM   43  C18 UNL     1     -12.602   2.355  29.207  1.00  0.00     0.087 A 
HETATM   44  C19 UNL     1     -12.387   2.919  30.537  1.00  0.00     0.283 A 
HETATM   45  O4  UNL     1     -11.892   2.320  31.474  1.00  0.00    -0.260 OA
HETATM   46  O5  UNL     1     -12.837   4.200  30.552  1.00  0.00    -0.314 OA
HETATM   47  C20 UNL     1     -13.383   4.522  29.271  1.00  0.00     0.213 A 
ENDBRANCH  10  42
TORSDOF 11
ENDMDL
MODEL 5
REMARK minimizedAffinity -8.77368259
REMARK CNNscore 0.486049026
REMARK CNNaffinity 6.49736023
REMARK  11 active torsions:
REMARK  status: ('A' for Active; 'I' for Inactive)
REMARK    1  A    between atoms: C3_4  and  O2_5 
REMARK    2  A    between atoms: O2_5  and  C4_6 
REMARK    3  A    between atoms: C7_9  and  C8_10 
REMARK    4  A    between atoms: N1_11  and  C9_13 
REMARK    5  A    between atoms: C9_13  and  C10_14 
REMARK    6  A    between atoms: C10_14  and  O3_15 
REMARK    7  A    between atoms: C16_21  and  C17_22 
REMARK    8  A    between atoms: C23_30  and  O6_31 
REMARK    9  A    between atoms: C27_35  and  O7_36 
REMARK   10  A    between atoms: C30_39  and  O8_40 
REMARK   11  A    between atoms: C31_41  and  O9_42 
ROOT
HETATM    1  C4  UNL     1      -0.679   8.703  12.171  1.00  0.00     0.127 C 
HETATM    2  C5  UNL     1      -2.132   9.166  12.147  1.00  0.00     0.033 C 
HETATM    3  C6  UNL     1      -3.028   8.229  12.953  1.00  0.00     0.021 C 
HETATM    4  C7  UNL     1      -2.604   8.064  14.448  1.00  0.00     0.026 C 
HETATM    5  C11 UNL     1      -2.852   9.381  15.273  1.00  0.00     0.009 C 
HETATM    6  C12 UNL     1      -4.308   9.836  15.336  1.00  0.00     0.007 C 
HETATM    7  C13 UNL     1      -4.425  11.282  15.813  1.00  0.00     0.013 C 
HETATM    8  C14 UNL     1      -3.427  11.720  16.913  1.00  0.00    -0.005 C 
HETATM    9  C15 UNL     1      -4.231  12.618  17.897  1.00  0.00     0.019 C 
HETATM   10  C16 UNL     1      -2.175  12.491  16.370  1.00  0.00     0.028 C 
HETATM   11  C21 UNL     1      -1.142  12.401  17.510  1.00  0.00     0.013 C 
HETATM   12  C22 UNL     1      -1.583  11.232  18.395  1.00  0.00     0.040 C 
HETATM   13  C23 UNL     1      -2.730  10.525  17.646  1.00  0.00     0.070 C 
HETATM   14  C24 UNL     1      -2.309   9.304  16.730  1.00  0.00     0.026 C 
HETATM   15  C25 UNL     1      -0.816   8.944  16.725  1.00  0.00     0.011 C 
HETATM   16  C26 UNL     1      -0.522   7.671  15.935  1.00  0.00     0.039 C 
HETATM   17  C27 UNL     1      -1.084   7.668  14.504  1.00  0.00     0.073 C 
HETATM   18  C28 UNL     1      -0.203   8.611  13.628  1.00  0.00     0.071 C 
ENDROOT
BRANCH   1  19
HETATM   19  O2  UNL     1      -0.490   7.404  11.597  1.00  0.00    -0.356 OA
BRANCH  19  20
HETATM   20  C3  UNL     1       0.814   7.160  11.065  1.00  0.00     0.263 C 
HETATM   21  O1  UNL     1       0.806   7.474   9.675  1.00  0.00    -0.354 OA
HETATM   22  C2  UNL     1       2.077   7.259   9.057  1.00  0.00     0.151 C 
HETATM   23  C1  UNL     1       1.959   7.744   7.615  1.00  0.00     0.042 C 
HETATM   24  C31 UNL     1       2.459   5.770   9.127  1.00  0.00     0.175 C 
HETATM   25  C30 UNL     1       2.411   5.289  10.585  1.00  0.00     0.154 C 
HETATM   26  C29 UNL     1       1.100   5.671  11.252  1.00  0.00     0.095 C 
BRANCH  24  27
HETATM   27  O9  UNL     1       3.780   5.534   8.633  1.00  0.00    -0.390 OA
HETATM   28  H47 UNL     1       3.771   5.712   7.677  1.00  0.00     0.210 HD
ENDBRANCH  24  27
BRANCH  25  29
HETATM   29  O8  UNL     1       3.497   5.875  11.317  1.00  0.00    -0.393 OA
HETATM   30  H45 UNL     1       4.288   5.712  10.757  1.00  0.00     0.210 HD
ENDBRANCH  25  29
ENDBRANCH  19  20
ENDBRANCH   1  19
BRANCH  17  31
HETATM   31  O7  UNL     1      -0.909   6.326  14.013  1.00  0.00    -0.389 OA
HETATM   32  H39 UNL     1      -0.837   6.370  13.036  1.00  0.00     0.210 HD
ENDBRANCH  17  31
BRANCH   4  33
HETATM   33  C8  UNL     1      -3.515   6.941  14.968  1.00  0.00     0.068 C 
HETATM   34  N1  UNL     1      -4.601   7.168  15.626  1.00  0.00    -0.399 N 
ATOM     35  H1  UNL     1      -4.949   8.108  15.810  1.00  0.00     0.158 HD
BRANCH  34  36
HETATM   36  C9  UNL     1      -5.297   5.961  16.087  1.00  0.00     0.144 C 
BRANCH  36  37
HETATM   37  C10 UNL     1      -6.800   6.206  15.934  1.00  0.00     0.183 C 
BRANCH  37  38
HETATM   38  O3  UNL     1      -7.277   6.939  17.063  1.00  0.00    -0.399 OA
HETATM   39  H16 UNL     1      -6.702   7.733  17.110  1.00  0.00     0.209 HD
ENDBRANCH  37  38
ENDBRANCH  36  37
ENDBRANCH  34  36
ENDBRANCH   4  33
BRANCH  13  40
HETATM   40  O6  UNL     1      -3.634  10.002  18.629  1.00  0.00    -0.389 OA
HETATM   41  H33 UNL     1      -3.172   9.302  19.124  1.00  0.00     0.210 HD
ENDBRANCH  13  40
BRANCH  10  42
HETATM   42  C17 UNL     1      -2.369  13.864  15.789  1.00  0.00    -0.045 A 
HETATM   43  C18 UNL     1      -2.853  14.120  14.574  1.00  0.00     0.087 A 
HETATM   44  C19 UNL     1      -2.847  15.570  14.394  1.00  0.00     0.283 A 
HETATM   45  O4  UNL     1      -3.220  16.148  13.389  1.00  0.00    -0.260 OA
HETATM   46  O5  UNL     1      -2.354  16.153  15.517  1.00  0.00    -0.314 OA
HETATM   47  C20 UNL     1      -1.992  15.136  16.454  1.00  0.00     0.213 A 
ENDBRANCH  10  42
TORSDOF 11
ENDMDL
MODEL 6
REMARK minimizedAffinity -8.85254383
REMARK CNNscore 0.390683919
REMARK CNNaffinity 6.39247179
REMARK  11 active torsions:
REMARK  status: ('A' for Active; 'I' for Inactive)
REMARK    1  A    between atoms: C3_4  and  O2_5 
REMARK    2  A    between atoms: O2_5  and  C4_6 
REMARK    3  A    between atoms: C7_9  and  C8_10 
REMARK    4  A    between atoms: N1_11  and  C9_13 
REMARK    5  A    between atoms: C9_13  and  C10_14 
REMARK    6  A    between atoms: C10_14  and  O3_15 
REMARK    7  A    between atoms: C16_21  and  C17_22 
REMARK    8  A    between atoms: C23_30  and  O6_31 
REMARK    9  A    between atoms: C27_35  and  O7_36 
REMARK   10  A    between atoms: C30_39  and  O8_40 
REMARK   11  A    between atoms: C31_41  and  O9_42 
ROOT
HETATM    1  C4  UNL     1      -4.859   7.823  14.121  1.00  0.00     0.127 C 
HETATM    2  C5  UNL     1      -4.611   7.620  15.613  1.00  0.00     0.033 C 
HETATM    3  C6  UNL     1      -3.159   7.242  15.889  1.00  0.00     0.021 C 
HETATM    4  C7  UNL     1      -2.115   8.282  15.369  1.00  0.00     0.026 C 
HETATM    5  C11 UNL     1      -2.163   9.619  16.196  1.00  0.00     0.009 C 
HETATM    6  C12 UNL     1      -1.845   9.469  17.682  1.00  0.00     0.007 C 
HETATM    7  C13 UNL     1      -2.271  10.702  18.476  1.00  0.00     0.013 C 
HETATM    8  C14 UNL     1      -2.070  12.068  17.774  1.00  0.00    -0.005 C 
HETATM    9  C15 UNL     1      -1.560  13.049  18.869  1.00  0.00     0.019 C 
HETATM   10  C16 UNL     1      -3.363  12.633  17.093  1.00  0.00     0.028 C 
HETATM   11  C21 UNL     1      -2.845  13.690  16.098  1.00  0.00     0.013 C 
HETATM   12  C22 UNL     1      -1.367  13.366  15.862  1.00  0.00     0.040 C 
HETATM   13  C23 UNL     1      -1.103  12.009  16.544  1.00  0.00     0.070 C 
HETATM   14  C24 UNL     1      -1.240  10.732  15.618  1.00  0.00     0.026 C 
HETATM   15  C25 UNL     1      -1.581  10.997  14.144  1.00  0.00     0.011 C 
HETATM   16  C26 UNL     1      -1.549   9.727  13.297  1.00  0.00     0.039 C 
HETATM   17  C27 UNL     1      -2.400   8.572  13.852  1.00  0.00     0.073 C 
HETATM   18  C28 UNL     1      -3.902   8.903  13.594  1.00  0.00     0.071 C 
ENDROOT
BRANCH   1  19
HETATM   19  O2  UNL     1      -4.615   6.645  13.342  1.00  0.00    -0.356 OA
BRANCH  19  20
HETATM   20  C3  UNL     1      -5.518   5.564  13.577  1.00  0.00     0.263 C 
HETATM   21  O1  UNL     1      -5.373   4.611  12.527  1.00  0.00    -0.354 OA
HETATM   22  C2  UNL     1      -6.244   3.488  12.682  1.00  0.00     0.151 C 
HETATM   23  C1  UNL     1      -5.901   2.503  11.567  1.00  0.00     0.042 C 
HETATM   24  C31 UNL     1      -7.714   3.938  12.611  1.00  0.00     0.175 C 
HETATM   25  C30 UNL     1      -7.968   5.044  13.647  1.00  0.00     0.154 C 
HETATM   26  C29 UNL     1      -6.929   6.148  13.548  1.00  0.00     0.095 C 
BRANCH  24  27
HETATM   27  O9  UNL     1      -8.615   2.864  12.888  1.00  0.00    -0.390 OA
HETATM   28  H47 UNL     1      -8.546   2.229  12.155  1.00  0.00     0.210 HD
ENDBRANCH  24  27
BRANCH  25  29
HETATM   29  O8  UNL     1      -7.929   4.480  14.965  1.00  0.00    -0.393 OA
HETATM   30  H45 UNL     1      -8.512   3.691  14.914  1.00  0.00     0.210 HD
ENDBRANCH  25  29
ENDBRANCH  19  20
ENDBRANCH   1  19
BRANCH  17  31
HETATM   31  O7  UNL     1      -2.065   7.418  13.060  1.00  0.00    -0.389 OA
HETATM   32  H39 UNL     1      -2.838   6.814  13.065  1.00  0.00     0.210 HD
ENDBRANCH  17  31
BRANCH   4  33
HETATM   33  C8  UNL     1      -0.762   7.584  15.581  1.00  0.00     0.068 C 
HETATM   34  N1  UNL     1       0.332   7.995  15.036  1.00  0.00    -0.399 N 
ATOM     35  H1  UNL     1       0.380   8.836  14.461  1.00  0.00     0.158 HD
BRANCH  34  36
HETATM   36  C9  UNL     1       1.504   7.156  15.313  1.00  0.00     0.144 C 
BRANCH  36  37
HETATM   37  C10 UNL     1       2.609   8.068  15.851  1.00  0.00     0.183 C 
BRANCH  37  38
HETATM   38  O3  UNL     1       2.196   8.628  17.097  1.00  0.00    -0.399 OA
HETATM   39  H16 UNL     1       1.951   7.856  17.652  1.00  0.00     0.209 HD
ENDBRANCH  37  38
ENDBRANCH  36  37
ENDBRANCH  34  36
ENDBRANCH   4  33
BRANCH  13  40
HETATM   40  O6  UNL     1       0.248  12.019  17.024  1.00  0.00    -0.389 OA
HETATM   41  H33 UNL     1       0.844  12.048  16.253  1.00  0.00     0.210 HD
ENDBRANCH  13  40
BRANCH  10  42
HETATM   42  C17 UNL     1      -4.501  13.082  17.967  1.00  0.00    -0.045 A 
HETATM   43  C18 UNL     1      -4.602  12.846  19.276  1.00  0.00     0.087 A 
HETATM   44  C19 UNL     1      -5.865  13.422  19.731  1.00  0.00     0.283 A 
HETATM   45  O4  UNL     1      -6.275  13.379  20.877  1.00  0.00    -0.260 OA
HETATM   46  O5  UNL     1      -6.497  13.993  18.674  1.00  0.00    -0.314 OA
HETATM   47  C20 UNL     1      -5.713  13.799  17.495  1.00  0.00     0.213 A 
ENDBRANCH  10  42
TORSDOF 11
ENDMDL
MODEL 7
REMARK minimizedAffinity -7.78090763
REMARK CNNscore 0.256873816
REMARK CNNaffinity 5.74845695
REMARK  11 active torsions:
REMARK  status: ('A' for Active; 'I' for Inactive)
REMARK    1  A    between atoms: C3_4  and  O2_5 
REMARK    2  A    between atoms: O2_5  and  C4_6 
REMARK    3  A    between atoms: C7_9  and  C8_10 
REMARK    4  A    between atoms: N1_11  and  C9_13 
REMARK    5  A    between atoms: C9_13  and  C10_14 
REMARK    6  A    between atoms: C10_14  and  O3_15 
REMARK    7  A    between atoms: C16_21  and  C17_22 
REMARK    8  A    between atoms: C23_30  and  O6_31 
REMARK    9  A    between atoms: C27_35  and  O7_36 
REMARK   10  A    between atoms: C30_39  and  O8_40 
REMARK   11  A    between atoms: C31_41  and  O9_42 
ROOT
HETATM    1  C4  UNL     1      -2.976  11.423  14.736  1.00  0.00     0.127 C 
HETATM    2  C5  UNL     1      -1.592  11.967  14.394  1.00  0.00     0.033 C 
HETATM    3  C6  UNL     1      -0.614  11.762  15.547  1.00  0.00     0.021 C 
HETATM    4  C7  UNL     1      -0.446  10.272  15.990  1.00  0.00     0.026 C 
HETATM    5  C11 UNL     1       0.306   9.423  14.900  1.00  0.00     0.009 C 
HETATM    6  C12 UNL     1       1.725   9.890  14.585  1.00  0.00     0.007 C 
HETATM    7  C13 UNL     1       2.244   9.278  13.286  1.00  0.00     0.013 C 
HETATM    8  C14 UNL     1       1.832   7.811  13.012  1.00  0.00    -0.005 C 
HETATM    9  C15 UNL     1       3.085   7.113  12.407  1.00  0.00     0.019 C 
HETATM   10  C16 UNL     1       0.606   7.661  12.047  1.00  0.00     0.028 C 
HETATM   11  C21 UNL     1       0.095   6.227  12.293  1.00  0.00     0.013 C 
HETATM   12  C22 UNL     1       0.655   5.802  13.654  1.00  0.00     0.040 C 
HETATM   13  C23 UNL     1       1.295   7.058  14.276  1.00  0.00     0.070 C 
HETATM   14  C24 UNL     1       0.366   7.904  15.239  1.00  0.00     0.026 C 
HETATM   15  C25 UNL     1      -1.049   7.353  15.471  1.00  0.00     0.011 C 
HETATM   16  C26 UNL     1      -1.823   8.146  16.521  1.00  0.00     0.039 C 
HETATM   17  C27 UNL     1      -1.867   9.662  16.268  1.00  0.00     0.073 C 
HETATM   18  C28 UNL     1      -2.858   9.935  15.095  1.00  0.00     0.071 C 
ENDROOT
BRANCH   1  19
HETATM   19  O2  UNL     1      -3.575  12.070  15.866  1.00  0.00    -0.356 OA
BRANCH  19  20
HETATM   20  C3  UNL     1      -4.664  12.941  15.559  1.00  0.00     0.263 C 
HETATM   21  O1  UNL     1      -4.139  14.180  15.088  1.00  0.00    -0.354 OA
HETATM   22  C2  UNL     1      -5.164  15.119  14.754  1.00  0.00     0.151 C 
HETATM   23  C1  UNL     1      -4.471  16.341  14.158  1.00  0.00     0.042 C 
HETATM   24  C31 UNL     1      -5.983  15.483  16.005  1.00  0.00     0.175 C 
HETATM   25  C30 UNL     1      -6.528  14.204  16.659  1.00  0.00     0.154 C 
HETATM   26  C29 UNL     1      -5.431  13.171  16.859  1.00  0.00     0.095 C 
BRANCH  24  27
HETATM   27  O9  UNL     1      -7.096  16.321  15.689  1.00  0.00    -0.390 OA
HETATM   28  H47 UNL     1      -6.743  17.180  15.402  1.00  0.00     0.210 HD
ENDBRANCH  24  27
BRANCH  25  29
HETATM   29  O8  UNL     1      -7.554  13.643  15.827  1.00  0.00    -0.393 OA
HETATM   30  H45 UNL     1      -8.147  14.399  15.623  1.00  0.00     0.210 HD
ENDBRANCH  25  29
ENDBRANCH  19  20
ENDBRANCH   1  19
BRANCH  17  31
HETATM   31  O7  UNL     1      -2.427  10.246  17.458  1.00  0.00    -0.389 OA
HETATM   32  H39 UNL     1      -2.864  11.087  17.204  1.00  0.00     0.210 HD
ENDBRANCH  17  31
BRANCH   4  33
HETATM   33  C8  UNL     1       0.407  10.360  17.265  1.00  0.00     0.068 C 
HETATM   34  N1  UNL     1       0.253  11.287  18.149  1.00  0.00    -0.399 N 
ATOM     35  H1  UNL     1      -0.471  12.002  18.079  1.00  0.00     0.158 HD
BRANCH  34  36
HETATM   36  C9  UNL     1       1.206  11.231  19.263  1.00  0.00     0.144 C 
BRANCH  36  37
HETATM   37  C10 UNL     1       2.420  10.425  18.793  1.00  0.00     0.183 C 
BRANCH  37  38
HETATM   38  O3  UNL     1       2.903   9.625  19.873  1.00  0.00    -0.399 OA
HETATM   39  H16 UNL     1       2.123   9.113  20.177  1.00  0.00     0.209 HD
ENDBRANCH  37  38
ENDBRANCH  36  37
ENDBRANCH  34  36
ENDBRANCH   4  33
BRANCH  13  40
HETATM   40  O6  UNL     1       2.415   6.632  15.063  1.00  0.00    -0.389 OA
HETATM   41  H33 UNL     1       2.076   6.110  15.813  1.00  0.00     0.210 HD
ENDBRANCH  13  40
BRANCH  10  42
HETATM   42  C17 UNL     1       0.773   8.040  10.602  1.00  0.00    -0.045 A 
HETATM   43  C18 UNL     1       1.900   7.911   9.902  1.00  0.00     0.087 A 
HETATM   44  C19 UNL     1       1.644   8.423   8.558  1.00  0.00     0.283 A 
HETATM   45  O4  UNL     1       2.466   8.461   7.660  1.00  0.00    -0.260 OA
HETATM   46  O5  UNL     1       0.357   8.850   8.485  1.00  0.00    -0.314 OA
HETATM   47  C20 UNL     1      -0.270   8.673   9.757  1.00  0.00     0.213 A 
ENDBRANCH  10  42
TORSDOF 11
ENDMDL
MODEL 8
REMARK minimizedAffinity -7.20501232
REMARK CNNscore 0.241767451
REMARK CNNaffinity 5.94539881
REMARK  11 active torsions:
REMARK  status: ('A' for Active; 'I' for Inactive)
REMARK    1  A    between atoms: C3_4  and  O2_5 
REMARK    2  A    between atoms: O2_5  and  C4_6 
REMARK    3  A    between atoms: C7_9  and  C8_10 
REMARK    4  A    between atoms: N1_11  and  C9_13 
REMARK    5  A    between atoms: C9_13  and  C10_14 
REMARK    6  A    between atoms: C10_14  and  O3_15 
REMARK    7  A    between atoms: C16_21  and  C17_22 
REMARK    8  A    between atoms: C23_30  and  O6_31 
REMARK    9  A    between atoms: C27_35  and  O7_36 
REMARK   10  A    between atoms: C30_39  and  O8_40 
REMARK   11  A    between atoms: C31_41  and  O9_42 
ROOT
HETATM    1  C4  UNL     1     -10.247   7.796  15.484  1.00  0.00     0.127 C 
HETATM    2  C5  UNL     1      -9.370   8.743  16.297  1.00  0.00     0.033 C 
HETATM    3  C6  UNL     1      -9.250  10.107  15.624  1.00  0.00     0.021 C 
HETATM    4  C7  UNL     1     -10.618  10.821  15.372  1.00  0.00     0.026 C 
HETATM    5  C11 UNL     1     -11.287  11.289  16.716  1.00  0.00     0.009 C 
HETATM    6  C12 UNL     1     -10.472  12.297  17.524  1.00  0.00     0.007 C 
HETATM    7  C13 UNL     1     -10.985  12.416  18.957  1.00  0.00     0.013 C 
HETATM    8  C14 UNL     1     -12.520  12.335  19.141  1.00  0.00    -0.005 C 
HETATM    9  C15 UNL     1     -12.885  13.393  20.222  1.00  0.00     0.019 C 
HETATM   10  C16 UNL     1     -13.039  10.918  19.567  1.00  0.00     0.028 C 
HETATM   11  C21 UNL     1     -14.543  10.941  19.231  1.00  0.00     0.013 C 
HETATM   12  C22 UNL     1     -14.738  12.074  18.220  1.00  0.00     0.040 C 
HETATM   13  C23 UNL     1     -13.328  12.547  17.816  1.00  0.00     0.070 C 
HETATM   14  C24 UNL     1     -12.716  11.874  16.520  1.00  0.00     0.026 C 
HETATM   15  C25 UNL     1     -13.614  10.860  15.796  1.00  0.00     0.011 C 
HETATM   16  C26 UNL     1     -13.007  10.372  14.483  1.00  0.00     0.039 C 
HETATM   17  C27 UNL     1     -11.572   9.834  14.607  1.00  0.00     0.073 C 
HETATM   18  C28 UNL     1     -11.630   8.433  15.289  1.00  0.00     0.071 C 
ENDROOT
BRANCH   1  19
HETATM   19  O2  UNL     1      -9.731   7.532  14.173  1.00  0.00    -0.356 OA
BRANCH  19  20
HETATM   20  C3  UNL     1      -8.937   6.350  14.061  1.00  0.00     0.263 C 
HETATM   21  O1  UNL     1      -7.575   6.690  14.306  1.00  0.00    -0.354 OA
HETATM   22  C2  UNL     1      -6.702   5.561  14.215  1.00  0.00     0.151 C 
HETATM   23  C1  UNL     1      -5.310   6.041  14.614  1.00  0.00     0.042 C 
HETATM   24  C31 UNL     1      -6.719   4.988  12.787  1.00  0.00     0.175 C 
HETATM   25  C30 UNL     1      -8.164   4.668  12.373  1.00  0.00     0.154 C 
HETATM   26  C29 UNL     1      -9.088   5.846  12.628  1.00  0.00     0.095 C 
BRANCH  24  27
HETATM   27  O9  UNL     1      -5.958   3.782  12.686  1.00  0.00    -0.390 OA
HETATM   28  H47 UNL     1      -5.023   4.015  12.817  1.00  0.00     0.210 HD
ENDBRANCH  24  27
BRANCH  25  29
HETATM   29  O8  UNL     1      -8.633   3.534  13.117  1.00  0.00    -0.393 OA
HETATM   30  H45 UNL     1      -7.919   2.865  13.023  1.00  0.00     0.210 HD
ENDBRANCH  25  29
ENDBRANCH  19  20
ENDBRANCH   1  19
BRANCH  17  31
HETATM   31  O7  UNL     1     -11.103   9.644  13.260  1.00  0.00    -0.389 OA
HETATM   32  H39 UNL     1     -10.423   8.937  13.274  1.00  0.00     0.210 HD
ENDBRANCH  17  31
BRANCH   4  33
HETATM   33  C8  UNL     1     -10.245  12.043  14.519  1.00  0.00     0.068 C 
HETATM   34  N1  UNL     1      -9.306  12.866  14.846  1.00  0.00    -0.399 N 
ATOM     35  H1  UNL     1      -8.722  12.737  15.672  1.00  0.00     0.158 HD
BRANCH  34  36
HETATM   36  C9  UNL     1      -9.147  14.003  13.931  1.00  0.00     0.144 C 
BRANCH  36  37
HETATM   37  C10 UNL     1     -10.498  14.715  13.839  1.00  0.00     0.183 C 
BRANCH  37  38
HETATM   38  O3  UNL     1     -10.853  14.881  12.466  1.00  0.00    -0.399 OA
HETATM   39  H16 UNL     1     -10.801  13.980  12.081  1.00  0.00     0.209 HD
ENDBRANCH  37  38
ENDBRANCH  36  37
ENDBRANCH  34  36
ENDBRANCH   4  33
BRANCH  13  40
HETATM   40  O6  UNL     1     -13.401  13.954  17.548  1.00  0.00    -0.389 OA
HETATM   41  H33 UNL     1     -13.958  14.083  16.759  1.00  0.00     0.210 HD
ENDBRANCH  13  40
BRANCH  10  42
HETATM   42  C17 UNL     1     -12.698  10.407  20.939  1.00  0.00    -0.045 A 
HETATM   43  C18 UNL     1     -13.563  10.278  21.946  1.00  0.00     0.087 A 
HETATM   44  C19 UNL     1     -12.821   9.781  23.102  1.00  0.00     0.283 A 
HETATM   45  O4  UNL     1     -13.308   9.558  24.196  1.00  0.00    -0.260 OA
HETATM   46  O5  UNL     1     -11.517   9.624  22.758  1.00  0.00    -0.314 OA
HETATM   47  C20 UNL     1     -11.338  10.029  21.399  1.00  0.00     0.213 A 
ENDBRANCH  10  42
TORSDOF 11
ENDMDL
MODEL 9
REMARK minimizedAffinity -7.36565781
REMARK CNNscore 0.224900618
REMARK CNNaffinity 5.79475832
REMARK  11 active torsions:
REMARK  status: ('A' for Active; 'I' for Inactive)
REMARK    1  A    between atoms: C3_4  and  O2_5 
REMARK    2  A    between atoms: O2_5  and  C4_6 
REMARK    3  A    between atoms: C7_9  and  C8_10 
REMARK    4  A    between atoms: N1_11  and  C9_13 
REMARK    5  A    between atoms: C9_13  and  C10_14 
REMARK    6  A    between atoms: C10_14  and  O3_15 
REMARK    7  A    between atoms: C16_21  and  C17_22 
REMARK    8  A    between atoms: C23_30  and  O6_31 
REMARK    9  A    between atoms: C27_35  and  O7_36 
REMARK   10  A    between atoms: C30_39  and  O8_40 
REMARK   11  A    between atoms: C31_41  and  O9_42 
ROOT
HETATM    1  C4  UNL     1       7.950  10.712  17.068  1.00  0.00     0.127 C 
HETATM    2  C5  UNL     1       8.406  10.652  18.522  1.00  0.00     0.033 C 
HETATM    3  C6  UNL     1       8.912  12.010  19.003  1.00  0.00     0.021 C 
HETATM    4  C7  UNL     1       7.867  13.165  18.877  1.00  0.00     0.026 C 
HETATM    5  C11 UNL     1       6.681  12.991  19.896  1.00  0.00     0.009 C 
HETATM    6  C12 UNL     1       7.089  13.003  21.367  1.00  0.00     0.007 C 
HETATM    7  C13 UNL     1       5.977  12.462  22.264  1.00  0.00     0.013 C 
HETATM    8  C14 UNL     1       4.531  12.837  21.857  1.00  0.00    -0.005 C 
HETATM    9  C15 UNL     1       3.773  13.145  23.181  1.00  0.00     0.019 C 
HETATM   10  C16 UNL     1       3.785  11.720  21.049  1.00  0.00     0.028 C 
HETATM   11  C21 UNL     1       2.614  12.455  20.367  1.00  0.00     0.013 C 
HETATM   12  C22 UNL     1       2.985  13.941  20.366  1.00  0.00     0.040 C 
HETATM   13  C23 UNL     1       4.448  14.027  20.843  1.00  0.00     0.070 C 
HETATM   14  C24 UNL     1       5.548  14.041  19.704  1.00  0.00     0.026 C 
HETATM   15  C25 UNL     1       5.027  14.007  18.260  1.00  0.00     0.011 C 
HETATM   16  C26 UNL     1       6.142  14.171  17.230  1.00  0.00     0.039 C 
HETATM   17  C27 UNL     1       7.318  13.195  17.405  1.00  0.00     0.073 C 
HETATM   18  C28 UNL     1       6.859  11.784  16.926  1.00  0.00     0.071 C 
ENDROOT
BRANCH   1  19
HETATM   19  O2  UNL     1       8.998  11.073  16.160  1.00  0.00    -0.356 OA
BRANCH  19  20
HETATM   20  C3  UNL     1       9.079  10.275  14.978  1.00  0.00     0.263 C 
HETATM   21  O1  UNL     1       7.887  10.463  14.219  1.00  0.00    -0.354 OA
HETATM   22  C2  UNL     1       7.880   9.699  13.011  1.00  0.00     0.151 C 
HETATM   23  C1  UNL     1       6.615  10.083  12.248  1.00  0.00     0.042 C 
HETATM   24  C31 UNL     1       7.915   8.194  13.331  1.00  0.00     0.175 C 
HETATM   25  C30 UNL     1       9.120   7.884  14.233  1.00  0.00     0.154 C 
HETATM   26  C29 UNL     1       9.175   8.820  15.428  1.00  0.00     0.095 C 
BRANCH  24  27
HETATM   27  O9  UNL     1       8.038   7.399  12.149  1.00  0.00    -0.390 OA
HETATM   28  H47 UNL     1       7.212   7.496  11.646  1.00  0.00     0.210 HD
ENDBRANCH  24  27
BRANCH  25  29
HETATM   29  O8  UNL     1      10.331   8.020  13.475  1.00  0.00    -0.393 OA
HETATM   30  H45 UNL     1      10.167   7.506  12.653  1.00  0.00     0.210 HD
ENDBRANCH  25  29
ENDBRANCH  19  20
ENDBRANCH   1  19
BRANCH  17  31
HETATM   31  O7  UNL     1       8.346  13.649  16.507  1.00  0.00    -0.389 OA
HETATM   32  H39 UNL     1       8.895  12.873  16.261  1.00  0.00     0.210 HD
ENDBRANCH  17  31
BRANCH   4  33
HETATM   33  C8  UNL     1       8.671  14.429  19.221  1.00  0.00     0.068 C 
HETATM   34  N1  UNL     1       8.159  15.441  19.835  1.00  0.00    -0.399 N 
ATOM     35  H1  UNL     1       7.195  15.454  20.168  1.00  0.00     0.158 HD
BRANCH  34  36
HETATM   36  C9  UNL     1       9.075  16.573  20.014  1.00  0.00     0.144 C 
BRANCH  36  37
HETATM   37  C10 UNL     1       9.172  16.856  21.515  1.00  0.00     0.183 C 
BRANCH  37  38
HETATM   38  O3  UNL     1      10.286  16.148  22.059  1.00  0.00    -0.399 OA
HETATM   39  H16 UNL     1      11.051  16.420  21.508  1.00  0.00     0.209 HD
ENDBRANCH  37  38
ENDBRANCH  36  37
ENDBRANCH  34  36
ENDBRANCH   4  33
BRANCH  13  40
HETATM   40  O6  UNL     1       4.598  15.255  21.568  1.00  0.00    -0.389 OA
HETATM   41  H33 UNL     1       4.481  15.992  20.941  1.00  0.00     0.210 HD
ENDBRANCH  13  40
BRANCH  10  42
HETATM   42  C17 UNL     1       3.415  10.444  21.753  1.00  0.00    -0.045 A 
HETATM   43  C18 UNL     1       2.316   9.728  21.514  1.00  0.00     0.087 A 
HETATM   44  C19 UNL     1       2.325   8.589  22.429  1.00  0.00     0.283 A 
HETATM   45  O4  UNL     1       1.459   7.735  22.483  1.00  0.00    -0.260 OA
HETATM   46  O5  UNL     1       3.440   8.651  23.202  1.00  0.00    -0.314 OA
HETATM   47  C20 UNL     1       4.184   9.823  22.861  1.00  0.00     0.213 A 
ENDBRANCH  10  42
TORSDOF 11
ENDMDL
