MODEL 1
REMARK minimizedAffinity -6.33758783
REMARK CNNscore 0.580750525
REMARK CNNaffinity 6.52745771
REMARK  9 active torsions:
REMARK  status: ('A' for Active; 'I' for Inactive)
REMARK    1  A    between atoms: C2_2  and  C3_3 
REMARK    2  A    between atoms: C3_3  and  C5_5 
REMARK    3  A    between atoms: C3_3  and  C6_7 
REMARK    4  A    between atoms: C5_5  and  O1_6 
REMARK    5  A    between atoms: C7_8  and  O2_9 
REMARK    6  A    between atoms: C18_22  and  O5_23 
REMARK    7  A    between atoms: O5_23  and  C19_24 
REMARK    8  A    between atoms: C19_24  and  C20_26 
REMARK    9  A    between atoms: C29_36  and  O8_37 
ROOT
HETATM    1  C6  UNL     1      -1.614  51.801 -12.816  1.00  0.00     0.023 A 
HETATM    2  C7  UNL     1      -2.458  52.582 -12.002  1.00  0.00     0.076 A 
HETATM    3  C8  UNL     1      -1.953  53.501 -11.076  1.00  0.00     0.053 A 
HETATM    4  C9  UNL     1      -0.575  53.646 -10.902  1.00  0.00     0.034 A 
HETATM    5  C10 UNL     1      -0.077  54.670  -9.967  1.00  0.00     0.192 A 
HETATM    6  O3  UNL     1      -0.865  55.445  -9.442  1.00  0.00    -0.287 OA
HETATM    7  C11 UNL     1       1.389  54.779  -9.733  1.00  0.00     0.035 A 
HETATM    8  C12 UNL     1       2.234  54.027 -10.459  1.00  0.00     0.131 A 
HETATM    9  O4  UNL     1       3.604  54.198 -10.420  1.00  0.00    -0.336 OA
HETATM   10  C13 UNL     1       4.064  55.509 -10.058  1.00  0.00     0.065 C 
HETATM   11  C14 UNL     1       5.598  55.405 -10.009  1.00  0.00     0.046 C 
HETATM   12  C15 UNL     1       3.732  56.510 -11.191  1.00  0.00     0.046 C 
HETATM   13  C16 UNL     1       3.433  55.953  -8.706  1.00  0.00     0.031 C 
HETATM   14  C17 UNL     1       4.031  55.261  -7.455  1.00  0.00     0.041 C 
HETATM   15  C18 UNL     1       3.253  54.027  -7.002  1.00  0.00     0.136 C 
HETATM   16  C23 UNL     1       1.829  54.419  -6.568  1.00  0.00     0.012 C 
HETATM   17  C24 UNL     1       0.883  53.217  -6.691  1.00  0.00     0.012 C 
HETATM   18  C25 UNL     1       1.313  55.659  -7.320  1.00  0.00     0.017 C 
HETATM   19  C26 UNL     1       1.873  55.831  -8.750  1.00  0.00     0.033 C 
HETATM   20  C27 UNL     1       1.746  52.969 -11.392  1.00  0.00     0.219 A 
HETATM   21  O7  UNL     1       2.519  52.212 -11.970  1.00  0.00    -0.284 OA
HETATM   22  C28 UNL     1       0.296  52.839 -11.616  1.00  0.00     0.065 A 
HETATM   23  C29 UNL     1      -0.221  51.913 -12.547  1.00  0.00     0.091 A 
ENDROOT
BRANCH   1  24
HETATM   24  C3  UNL     1      -2.130  50.837 -13.935  1.00  0.00     0.027 C 
HETATM   25  C4  UNL     1      -3.334  51.371 -14.756  1.00  0.00     0.027 C 
BRANCH  24  26
HETATM   26  C2  UNL     1      -1.052  50.676 -15.025  1.00  0.00    -0.021 C 
HETATM   27  C1  UNL     1      -1.109  49.926 -16.136  1.00  0.00     0.008 C 
ENDBRANCH  24  26
BRANCH  24  28
HETATM   28  C5  UNL     1      -2.569  49.510 -13.228  1.00  0.00     0.182 C 
BRANCH  28  29
HETATM   29  O1  UNL     1      -3.942  49.463 -12.838  1.00  0.00    -0.399 OA
HETATM   30  H9  UNL     1      -4.094  50.164 -12.186  1.00  0.00     0.209 HD
ENDBRANCH  28  29
ENDBRANCH  24  28
ENDBRANCH   1  24
BRANCH   2  31
HETATM   31  O2  UNL     1      -3.815  52.453 -12.074  1.00  0.00    -0.360 OA
HETATM   32  H10 UNL     1      -4.228  52.878 -11.302  1.00  0.00     0.217 HD
ENDBRANCH   2  31
BRANCH  23  33
HETATM   33  O8  UNL     1       0.625  51.066 -13.217  1.00  0.00    -0.359 OA
HETATM   34  H36 UNL     1       1.558  51.210 -12.931  1.00  0.00     0.217 HD
ENDBRANCH  23  33
BRANCH  15  35
HETATM   35  O5  UNL     1       3.937  53.491  -5.848  1.00  0.00    -0.315 OA
BRANCH  35  36
HETATM   36  C19 UNL     1       5.019  52.688  -6.064  1.00  0.00     0.262 C 
HETATM   37  O6  UNL     1       4.995  51.620  -6.658  1.00  0.00    -0.265 OA
BRANCH  36  38
HETATM   38  C20 UNL     1       6.255  53.320  -5.443  1.00  0.00     0.077 C 
HETATM   39  C21 UNL     1       7.326  52.266  -5.174  1.00  0.00     0.020 C 
HETATM   40  C22 UNL     1       5.875  54.057  -4.165  1.00  0.00     0.020 C 
ENDBRANCH  36  38
ENDBRANCH  35  36
ENDBRANCH  15  35
TORSDOF 9
ENDMDL
MODEL 2
REMARK minimizedAffinity -6.64252281
REMARK CNNscore 0.553951561
REMARK CNNaffinity 6.46485281
REMARK  9 active torsions:
REMARK  status: ('A' for Active; 'I' for Inactive)
REMARK    1  A    between atoms: C2_2  and  C3_3 
REMARK    2  A    between atoms: C3_3  and  C5_5 
REMARK    3  A    between atoms: C3_3  and  C6_7 
REMARK    4  A    between atoms: C5_5  and  O1_6 
REMARK    5  A    between atoms: C7_8  and  O2_9 
REMARK    6  A    between atoms: C18_22  and  O5_23 
REMARK    7  A    between atoms: O5_23  and  C19_24 
REMARK    8  A    between atoms: C19_24  and  C20_26 
REMARK    9  A    between atoms: C29_36  and  O8_37 
ROOT
HETATM    1  C6  UNL     1      -2.539  52.435 -11.776  1.00  0.00     0.023 A 
HETATM    2  C7  UNL     1      -3.184  53.348 -10.920  1.00  0.00     0.076 A 
HETATM    3  C8  UNL     1      -2.470  54.245 -10.118  1.00  0.00     0.053 A 
HETATM    4  C9  UNL     1      -1.074  54.235 -10.116  1.00  0.00     0.034 A 
HETATM    5  C10 UNL     1      -0.354  55.238  -9.311  1.00  0.00     0.192 A 
HETATM    6  O3  UNL     1      -0.981  56.125  -8.747  1.00  0.00    -0.287 OA
HETATM    7  C11 UNL     1       1.132  55.185  -9.258  1.00  0.00     0.035 A 
HETATM    8  C12 UNL     1       1.793  54.305 -10.028  1.00  0.00     0.131 A 
HETATM    9  O4  UNL     1       3.167  54.315 -10.161  1.00  0.00    -0.336 OA
HETATM   10  C13 UNL     1       3.811  55.579  -9.937  1.00  0.00     0.065 C 
HETATM   11  C14 UNL     1       5.318  55.298 -10.061  1.00  0.00     0.046 C 
HETATM   12  C15 UNL     1       3.455  56.556 -11.084  1.00  0.00     0.046 C 
HETATM   13  C16 UNL     1       3.405  56.158  -8.551  1.00  0.00     0.031 C 
HETATM   14  C17 UNL     1       4.072  55.463  -7.338  1.00  0.00     0.041 C 
HETATM   15  C18 UNL     1       3.224  54.352  -6.721  1.00  0.00     0.136 C 
HETATM   16  C23 UNL     1       1.917  54.930  -6.149  1.00  0.00     0.012 C 
HETATM   17  C24 UNL     1       0.835  53.842  -6.086  1.00  0.00     0.012 C 
HETATM   18  C25 UNL     1       1.452  56.183  -6.911  1.00  0.00     0.017 C 
HETATM   19  C26 UNL     1       1.847  56.219  -8.405  1.00  0.00     0.033 C 
HETATM   20  C27 UNL     1       1.080  53.268 -10.831  1.00  0.00     0.219 A 
HETATM   21  O7  UNL     1       1.687  52.398 -11.447  1.00  0.00    -0.284 OA
HETATM   22  C28 UNL     1      -0.392  53.298 -10.875  1.00  0.00     0.065 A 
HETATM   23  C29 UNL     1      -1.120  52.396 -11.680  1.00  0.00     0.091 A 
ENDROOT
BRANCH   1  24
HETATM   24  C3  UNL     1      -3.293  51.486 -12.766  1.00  0.00     0.027 C 
HETATM   25  C4  UNL     1      -2.381  50.709 -13.752  1.00  0.00     0.027 C 
BRANCH  24  26
HETATM   26  C2  UNL     1      -3.962  50.337 -11.983  1.00  0.00    -0.021 C 
HETATM   27  C1  UNL     1      -3.754  49.982 -10.706  1.00  0.00     0.008 C 
ENDBRANCH  24  26
BRANCH  24  28
HETATM   28  C5  UNL     1      -4.270  52.381 -13.602  1.00  0.00     0.182 C 
BRANCH  28  29
HETATM   29  O1  UNL     1      -4.068  53.788 -13.457  1.00  0.00    -0.399 OA
HETATM   30  H9  UNL     1      -4.235  54.021 -12.531  1.00  0.00     0.209 HD
ENDBRANCH  28  29
ENDBRANCH  24  28
ENDBRANCH   1  24
BRANCH   2  31
HETATM   31  O2  UNL     1      -4.546  53.376 -10.825  1.00  0.00    -0.360 OA
HETATM   32  H10 UNL     1      -4.811  53.884 -10.038  1.00  0.00     0.217 HD
ENDBRANCH   2  31
BRANCH  23  33
HETATM   33  O8  UNL     1      -0.462  51.424 -12.391  1.00  0.00    -0.359 OA
HETATM   34  H36 UNL     1       0.509  51.470 -12.225  1.00  0.00     0.217 HD
ENDBRANCH  23  33
BRANCH  15  35
HETATM   35  O5  UNL     1       3.981  53.796  -5.624  1.00  0.00    -0.315 OA
BRANCH  35  36
HETATM   36  C19 UNL     1       4.466  54.659  -4.684  1.00  0.00     0.262 C 
HETATM   37  O6  UNL     1       3.827  55.558  -4.157  1.00  0.00    -0.265 OA
BRANCH  36  38
HETATM   38  C20 UNL     1       5.926  54.340  -4.403  1.00  0.00     0.077 C 
HETATM   39  C21 UNL     1       6.799  55.578  -4.592  1.00  0.00     0.020 C 
HETATM   40  C22 UNL     1       6.389  53.198  -5.301  1.00  0.00     0.020 C 
ENDBRANCH  36  38
ENDBRANCH  35  36
ENDBRANCH  15  35
TORSDOF 9
ENDMDL
MODEL 3
REMARK minimizedAffinity -6.69616175
REMARK CNNscore 0.485875964
REMARK CNNaffinity 5.83565474
REMARK  9 active torsions:
REMARK  status: ('A' for Active; 'I' for Inactive)
REMARK    1  A    between atoms: C2_2  and  C3_3 
REMARK    2  A    between atoms: C3_3  and  C5_5 
REMARK    3  A    between atoms: C3_3  and  C6_7 
REMARK    4  A    between atoms: C5_5  and  O1_6 
REMARK    5  A    between atoms: C7_8  and  O2_9 
REMARK    6  A    between atoms: C18_22  and  O5_23 
REMARK    7  A    between atoms: O5_23  and  C19_24 
REMARK    8  A    between atoms: C19_24  and  C20_26 
REMARK    9  A    between atoms: C29_36  and  O8_37 
ROOT
HETATM    1  C6  UNL     1      -8.671  46.510 -28.516  1.00  0.00     0.023 A 
HETATM    2  C7  UNL     1      -8.366  45.249 -27.967  1.00  0.00     0.076 A 
HETATM    3  C8  UNL     1      -9.132  44.681 -26.942  1.00  0.00     0.053 A 
HETATM    4  C9  UNL     1     -10.215  45.376 -26.401  1.00  0.00     0.034 A 
HETATM    5  C10 UNL     1     -11.040  44.721 -25.370  1.00  0.00     0.192 A 
HETATM    6  O3  UNL     1     -10.833  43.549 -25.084  1.00  0.00    -0.287 OA
HETATM    7  C11 UNL     1     -12.154  45.486 -24.747  1.00  0.00     0.035 A 
HETATM    8  C12 UNL     1     -12.460  46.709 -25.211  1.00  0.00     0.131 A 
HETATM    9  O4  UNL     1     -13.582  47.402 -24.802  1.00  0.00    -0.336 OA
HETATM   10  C13 UNL     1     -14.679  46.602 -24.334  1.00  0.00     0.065 C 
HETATM   11  C14 UNL     1     -15.748  47.606 -23.869  1.00  0.00     0.046 C 
HETATM   12  C15 UNL     1     -15.300  45.825 -25.520  1.00  0.00     0.046 C 
HETATM   13  C16 UNL     1     -14.208  45.638 -23.207  1.00  0.00     0.031 C 
HETATM   14  C17 UNL     1     -13.957  46.317 -21.837  1.00  0.00     0.041 C 
HETATM   15  C18 UNL     1     -12.501  46.721 -21.607  1.00  0.00     0.136 C 
HETATM   16  C23 UNL     1     -11.597  45.476 -21.580  1.00  0.00     0.012 C 
HETATM   17  C24 UNL     1     -10.156  45.854 -21.950  1.00  0.00     0.012 C 
HETATM   18  C25 UNL     1     -12.151  44.334 -22.449  1.00  0.00     0.017 C 
HETATM   19  C26 UNL     1     -12.976  44.792 -23.674  1.00  0.00     0.033 C 
HETATM   20  C27 UNL     1     -11.621  47.396 -26.237  1.00  0.00     0.219 A 
HETATM   21  O7  UNL     1     -11.840  48.554 -26.579  1.00  0.00    -0.284 OA
HETATM   22  C28 UNL     1     -10.503  46.656 -26.846  1.00  0.00     0.065 A 
HETATM   23  C29 UNL     1      -9.725  47.222 -27.879  1.00  0.00     0.091 A 
ENDROOT
BRANCH   1  24
HETATM   24  C3  UNL     1      -7.909  47.140 -29.729  1.00  0.00     0.027 C 
HETATM   25  C4  UNL     1      -7.272  46.116 -30.706  1.00  0.00     0.027 C 
BRANCH  24  26
HETATM   26  C2  UNL     1      -8.906  47.875 -30.649  1.00  0.00    -0.021 C 
HETATM   27  C1  UNL     1      -9.634  47.361 -31.651  1.00  0.00     0.008 C 
ENDBRANCH  24  26
BRANCH  24  28
HETATM   28  C5  UNL     1      -6.765  48.031 -29.136  1.00  0.00     0.182 C 
BRANCH  28  29
HETATM   29  O1  UNL     1      -5.442  47.620 -29.486  1.00  0.00    -0.399 OA
HETATM   30  H9  UNL     1      -5.295  46.735 -29.117  1.00  0.00     0.209 HD
ENDBRANCH  28  29
ENDBRANCH  24  28
ENDBRANCH   1  24
BRANCH   2  31
HETATM   31  O2  UNL     1      -7.287  44.538 -28.405  1.00  0.00    -0.360 OA
HETATM   32  H10 UNL     1      -7.087  43.822 -27.776  1.00  0.00     0.217 HD
ENDBRANCH   2  31
BRANCH  23  33
HETATM   33  O8  UNL     1      -9.961  48.510 -28.289  1.00  0.00    -0.359 OA
HETATM   34  H36 UNL     1     -10.688  48.915 -27.761  1.00  0.00     0.217 HD
ENDBRANCH  23  33
BRANCH  15  35
HETATM   35  O5  UNL     1     -12.433  47.348 -20.308  1.00  0.00    -0.315 OA
BRANCH  35  36
HETATM   36  C19 UNL     1     -13.465  48.161 -19.938  1.00  0.00     0.262 C 
HETATM   37  O6  UNL     1     -13.818  49.167 -20.537  1.00  0.00    -0.265 OA
BRANCH  36  38
HETATM   38  C20 UNL     1     -14.100  47.631 -18.662  1.00  0.00     0.077 C 
HETATM   39  C21 UNL     1     -15.070  48.652 -18.074  1.00  0.00     0.020 C 
HETATM   40  C22 UNL     1     -13.015  47.261 -17.658  1.00  0.00     0.020 C 
ENDBRANCH  36  38
ENDBRANCH  35  36
ENDBRANCH  15  35
TORSDOF 9
ENDMDL
MODEL 4
REMARK minimizedAffinity -6.35911417
REMARK CNNscore 0.437690586
REMARK CNNaffinity 5.83225965
REMARK  9 active torsions:
REMARK  status: ('A' for Active; 'I' for Inactive)
REMARK    1  A    between atoms: C2_2  and  C3_3 
REMARK    2  A    between atoms: C3_3  and  C5_5 
REMARK    3  A    between atoms: C3_3  and  C6_7 
REMARK    4  A    between atoms: C5_5  and  O1_6 
REMARK    5  A    between atoms: C7_8  and  O2_9 
REMARK    6  A    between atoms: C18_22  and  O5_23 
REMARK    7  A    between atoms: O5_23  and  C19_24 
REMARK    8  A    between atoms: C19_24  and  C20_26 
REMARK    9  A    between atoms: C29_36  and  O8_37 
ROOT
HETATM    1  C6  UNL     1      -6.212  47.886 -23.249  1.00  0.00     0.023 A 
HETATM    2  C7  UNL     1      -6.400  46.727 -22.471  1.00  0.00     0.076 A 
HETATM    3  C8  UNL     1      -7.215  45.672 -22.896  1.00  0.00     0.053 A 
HETATM    4  C9  UNL     1      -7.906  45.755 -24.107  1.00  0.00     0.034 A 
HETATM    5  C10 UNL     1      -8.702  44.598 -24.555  1.00  0.00     0.192 A 
HETATM    6  O3  UNL     1      -8.660  43.552 -23.921  1.00  0.00    -0.287 OA
HETATM    7  C11 UNL     1      -9.490  44.712 -25.812  1.00  0.00     0.035 A 
HETATM    8  C12 UNL     1      -9.373  45.814 -26.571  1.00  0.00     0.131 A 
HETATM    9  O4  UNL     1      -9.936  45.917 -27.828  1.00  0.00    -0.336 OA
HETATM   10  C13 UNL     1     -10.145  44.679 -28.526  1.00  0.00     0.065 C 
HETATM   11  C14 UNL     1     -10.847  45.064 -29.839  1.00  0.00     0.046 C 
HETATM   12  C15 UNL     1      -8.780  44.068 -28.926  1.00  0.00     0.046 C 
HETATM   13  C16 UNL     1     -10.973  43.694 -27.650  1.00  0.00     0.031 C 
HETATM   14  C17 UNL     1     -12.481  44.034 -27.544  1.00  0.00     0.041 C 
HETATM   15  C18 UNL     1     -12.841  44.866 -26.314  1.00  0.00     0.136 C 
HETATM   16  C23 UNL     1     -12.543  44.077 -25.027  1.00  0.00     0.012 C 
HETATM   17  C24 UNL     1     -12.317  45.038 -23.851  1.00  0.00     0.012 C 
HETATM   18  C25 UNL     1     -11.383  43.082 -25.209  1.00  0.00     0.017 C 
HETATM   19  C26 UNL     1     -10.315  43.511 -26.241  1.00  0.00     0.033 C 
HETATM   20  C27 UNL     1      -8.591  47.003 -26.121  1.00  0.00     0.219 A 
HETATM   21  O7  UNL     1      -8.575  48.047 -26.765  1.00  0.00    -0.284 OA
HETATM   22  C28 UNL     1      -7.823  46.909 -24.868  1.00  0.00     0.065 A 
HETATM   23  C29 UNL     1      -7.000  47.970 -24.431  1.00  0.00     0.091 A 
ENDROOT
BRANCH   1  24
HETATM   24  C3  UNL     1      -5.232  49.044 -22.866  1.00  0.00     0.027 C 
HETATM   25  C4  UNL     1      -4.875  49.128 -21.358  1.00  0.00     0.027 C 
BRANCH  24  26
HETATM   26  C2  UNL     1      -3.851  48.795 -23.504  1.00  0.00    -0.021 C 
HETATM   27  C1  UNL     1      -2.706  48.470 -22.886  1.00  0.00     0.008 C 
ENDBRANCH  24  26
BRANCH  24  28
HETATM   28  C5  UNL     1      -5.928  50.385 -23.281  1.00  0.00     0.182 C 
BRANCH  28  29
HETATM   29  O1  UNL     1      -7.093  50.717 -22.524  1.00  0.00    -0.399 OA
HETATM   30  H9  UNL     1      -7.757  50.026 -22.675  1.00  0.00     0.209 HD
ENDBRANCH  28  29
ENDBRANCH  24  28
ENDBRANCH   1  24
BRANCH   2  31
HETATM   31  O2  UNL     1      -5.804  46.600 -21.249  1.00  0.00    -0.360 OA
HETATM   32  H10 UNL     1      -6.216  45.869 -20.756  1.00  0.00     0.217 HD
ENDBRANCH   2  31
BRANCH  23  33
HETATM   33  O8  UNL     1      -6.954  49.142 -25.143  1.00  0.00    -0.359 OA
HETATM   34  H36 UNL     1      -7.560  49.100 -25.920  1.00  0.00     0.217 HD
ENDBRANCH  23  33
BRANCH  15  35
HETATM   35  O5  UNL     1     -14.263  45.111 -26.365  1.00  0.00    -0.315 OA
BRANCH  35  36
HETATM   36  C19 UNL     1     -14.726  46.285 -25.845  1.00  0.00     0.262 C 
HETATM   37  O6  UNL     1     -14.118  47.345 -25.850  1.00  0.00    -0.265 OA
BRANCH  36  38
HETATM   38  C20 UNL     1     -16.107  46.069 -25.248  1.00  0.00     0.077 C 
HETATM   39  C21 UNL     1     -16.525  47.265 -24.396  1.00  0.00     0.020 C 
HETATM   40  C22 UNL     1     -16.125  44.781 -24.434  1.00  0.00     0.020 C 
ENDBRANCH  36  38
ENDBRANCH  35  36
ENDBRANCH  15  35
TORSDOF 9
ENDMDL
MODEL 5
REMARK minimizedAffinity -7.07417583
REMARK CNNscore 0.3810969
REMARK CNNaffinity 5.64038134
REMARK  9 active torsions:
REMARK  status: ('A' for Active; 'I' for Inactive)
REMARK    1  A    between atoms: C2_2  and  C3_3 
REMARK    2  A    between atoms: C3_3  and  C5_5 
REMARK    3  A    between atoms: C3_3  and  C6_7 
REMARK    4  A    between atoms: C5_5  and  O1_6 
REMARK    5  A    between atoms: C7_8  and  O2_9 
REMARK    6  A    between atoms: C18_22  and  O5_23 
REMARK    7  A    between atoms: O5_23  and  C19_24 
REMARK    8  A    between atoms: C19_24  and  C20_26 
REMARK    9  A    between atoms: C29_36  and  O8_37 
ROOT
HETATM    1  C6  UNL     1      -5.360  48.245 -23.411  1.00  0.00     0.023 A 
HETATM    2  C7  UNL     1      -5.257  47.542 -22.195  1.00  0.00     0.076 A 
HETATM    3  C8  UNL     1      -6.330  46.819 -21.662  1.00  0.00     0.053 A 
HETATM    4  C9  UNL     1      -7.566  46.805 -22.313  1.00  0.00     0.034 A 
HETATM    5  C10 UNL     1      -8.654  45.979 -21.760  1.00  0.00     0.192 A 
HETATM    6  O3  UNL     1      -8.431  45.241 -20.810  1.00  0.00    -0.287 OA
HETATM    7  C11 UNL     1      -9.989  46.016 -22.417  1.00  0.00     0.035 A 
HETATM    8  C12 UNL     1     -10.148  46.704 -23.560  1.00  0.00     0.131 A 
HETATM    9  O4  UNL     1     -11.304  46.642 -24.313  1.00  0.00    -0.336 OA
HETATM   10  C13 UNL     1     -12.079  45.441 -24.176  1.00  0.00     0.065 C 
HETATM   11  C14 UNL     1     -13.332  45.663 -25.040  1.00  0.00     0.046 C 
HETATM   12  C15 UNL     1     -11.318  44.253 -24.812  1.00  0.00     0.046 C 
HETATM   13  C16 UNL     1     -12.404  45.171 -22.678  1.00  0.00     0.031 C 
HETATM   14  C17 UNL     1     -13.494  46.092 -22.075  1.00  0.00     0.041 C 
HETATM   15  C18 UNL     1     -12.936  47.322 -21.361  1.00  0.00     0.136 C 
HETATM   16  C23 UNL     1     -12.089  46.900 -20.147  1.00  0.00     0.012 C 
HETATM   17  C24 UNL     1     -11.072  47.996 -19.798  1.00  0.00     0.012 C 
HETATM   18  C25 UNL     1     -11.431  45.523 -20.347  1.00  0.00     0.017 C 
HETATM   19  C26 UNL     1     -11.097  45.169 -21.814  1.00  0.00     0.033 C 
HETATM   20  C27 UNL     1      -9.064  47.563 -24.120  1.00  0.00     0.219 A 
HETATM   21  O7  UNL     1      -9.247  48.275 -25.103  1.00  0.00    -0.284 OA
HETATM   22  C28 UNL     1      -7.744  47.551 -23.467  1.00  0.00     0.065 A 
HETATM   23  C29 UNL     1      -6.657  48.278 -23.997  1.00  0.00     0.091 A 
ENDROOT
BRANCH   1  24
HETATM   24  C3  UNL     1      -4.161  48.981 -24.098  1.00  0.00     0.027 C 
HETATM   25  C4  UNL     1      -2.755  48.507 -23.644  1.00  0.00     0.027 C 
BRANCH  24  26
HETATM   26  C2  UNL     1      -4.136  48.648 -25.603  1.00  0.00    -0.021 C 
HETATM   27  C1  UNL     1      -3.063  48.469 -26.388  1.00  0.00     0.008 C 
ENDBRANCH  24  26
BRANCH  24  28
HETATM   28  C5  UNL     1      -4.302  50.502 -23.752  1.00  0.00     0.182 C 
BRANCH  28  29
HETATM   29  O1  UNL     1      -4.906  51.296 -24.774  1.00  0.00    -0.399 OA
HETATM   30  H9  UNL     1      -4.336  51.263 -25.558  1.00  0.00     0.209 HD
ENDBRANCH  28  29
ENDBRANCH  24  28
ENDBRANCH   1  24
BRANCH   2  31
HETATM   31  O2  UNL     1      -4.099  47.559 -21.473  1.00  0.00    -0.360 OA
HETATM   32  H10 UNL     1      -4.267  47.231 -20.572  1.00  0.00     0.217 HD
ENDBRANCH   2  31
BRANCH  23  33
HETATM   33  O8  UNL     1      -6.833  49.069 -25.104  1.00  0.00    -0.359 OA
HETATM   34  H36 UNL     1      -7.772  49.041 -25.405  1.00  0.00     0.217 HD
ENDBRANCH  23  33
BRANCH  15  35
HETATM   35  O5  UNL     1     -14.064  48.081 -20.873  1.00  0.00    -0.315 OA
BRANCH  35  36
HETATM   36  C19 UNL     1     -15.266  47.441 -20.774  1.00  0.00     0.262 C 
HETATM   37  O6  UNL     1     -15.934  47.049 -21.719  1.00  0.00    -0.265 OA
BRANCH  36  38
HETATM   38  C20 UNL     1     -15.651  47.304 -19.310  1.00  0.00     0.077 C 
HETATM   39  C21 UNL     1     -17.168  47.255 -19.149  1.00  0.00     0.020 C 
HETATM   40  C22 UNL     1     -15.050  48.450 -18.505  1.00  0.00     0.020 C 
ENDBRANCH  36  38
ENDBRANCH  35  36
ENDBRANCH  15  35
TORSDOF 9
ENDMDL
MODEL 6
REMARK minimizedAffinity -6.22812271
REMARK CNNscore 0.379972935
REMARK CNNaffinity 5.66348267
REMARK  9 active torsions:
REMARK  status: ('A' for Active; 'I' for Inactive)
REMARK    1  A    between atoms: C2_2  and  C3_3 
REMARK    2  A    between atoms: C3_3  and  C5_5 
REMARK    3  A    between atoms: C3_3  and  C6_7 
REMARK    4  A    between atoms: C5_5  and  O1_6 
REMARK    5  A    between atoms: C7_8  and  O2_9 
REMARK    6  A    between atoms: C18_22  and  O5_23 
REMARK    7  A    between atoms: O5_23  and  C19_24 
REMARK    8  A    between atoms: C19_24  and  C20_26 
REMARK    9  A    between atoms: C29_36  and  O8_37 
ROOT
HETATM    1  C6  UNL     1     -16.318  46.027 -22.120  1.00  0.00     0.023 A 
HETATM    2  C7  UNL     1     -17.083  46.271 -23.277  1.00  0.00     0.076 A 
HETATM    3  C8  UNL     1     -16.560  46.095 -24.563  1.00  0.00     0.053 A 
HETATM    4  C9  UNL     1     -15.231  45.703 -24.739  1.00  0.00     0.034 A 
HETATM    5  C10 UNL     1     -14.732  45.462 -26.105  1.00  0.00     0.192 A 
HETATM    6  O3  UNL     1     -15.510  45.503 -27.049  1.00  0.00    -0.287 OA
HETATM    7  C11 UNL     1     -13.299  45.109 -26.295  1.00  0.00     0.035 A 
HETATM    8  C12 UNL     1     -12.519  44.902 -25.221  1.00  0.00     0.131 A 
HETATM    9  O4  UNL     1     -11.233  44.406 -25.318  1.00  0.00    -0.336 OA
HETATM   10  C13 UNL     1     -10.957  43.600 -26.475  1.00  0.00     0.065 C 
HETATM   11  C14 UNL     1      -9.461  43.253 -26.382  1.00  0.00     0.046 C 
HETATM   12  C15 UNL     1     -11.722  42.259 -26.371  1.00  0.00     0.046 C 
HETATM   13  C16 UNL     1     -11.331  44.370 -27.775  1.00  0.00     0.031 C 
HETATM   14  C17 UNL     1     -10.342  45.495 -28.169  1.00  0.00     0.041 C 
HETATM   15  C18 UNL     1     -10.749  46.878 -27.661  1.00  0.00     0.136 C 
HETATM   16  C23 UNL     1     -12.082  47.311 -28.296  1.00  0.00     0.012 C 
HETATM   17  C24 UNL     1     -12.789  48.343 -27.405  1.00  0.00     0.012 C 
HETATM   18  C25 UNL     1     -12.981  46.111 -28.640  1.00  0.00     0.017 C 
HETATM   19  C26 UNL     1     -12.808  44.884 -27.715  1.00  0.00     0.033 C 
HETATM   20  C27 UNL     1     -13.001  45.165 -23.833  1.00  0.00     0.219 A 
HETATM   21  O7  UNL     1     -12.253  45.080 -22.863  1.00  0.00    -0.284 OA
HETATM   22  C28 UNL     1     -14.412  45.535 -23.634  1.00  0.00     0.065 A 
HETATM   23  C29 UNL     1     -14.947  45.716 -22.340  1.00  0.00     0.091 A 
ENDROOT
BRANCH   1  24
HETATM   24  C3  UNL     1     -16.888  46.110 -20.665  1.00  0.00     0.027 C 
HETATM   25  C4  UNL     1     -16.101  47.040 -19.704  1.00  0.00     0.027 C 
BRANCH  24  26
HETATM   26  C2  UNL     1     -18.277  46.779 -20.684  1.00  0.00    -0.021 C 
HETATM   27  C1  UNL     1     -18.870  47.473 -19.701  1.00  0.00     0.008 C 
ENDBRANCH  24  26
BRANCH  24  28
HETATM   28  C5  UNL     1     -16.855  44.657 -20.079  1.00  0.00     0.182 C 
BRANCH  28  29
HETATM   29  O1  UNL     1     -15.889  44.448 -19.047  1.00  0.00    -0.399 OA
HETATM   30  H9  UNL     1     -15.008  44.592 -19.427  1.00  0.00     0.209 HD
ENDBRANCH  28  29
ENDBRANCH  24  28
ENDBRANCH   1  24
BRANCH   2  31
HETATM   31  O2  UNL     1     -18.371  46.713 -23.185  1.00  0.00    -0.360 OA
HETATM   32  H10 UNL     1     -18.667  47.048 -24.049  1.00  0.00     0.217 HD
ENDBRANCH   2  31
BRANCH  23  33
HETATM   33  O8  UNL     1     -14.134  45.611 -21.240  1.00  0.00    -0.359 OA
HETATM   34  H36 UNL     1     -13.205  45.425 -21.511  1.00  0.00     0.217 HD
ENDBRANCH  23  33
BRANCH  15  35
HETATM   35  O5  UNL     1      -9.730  47.807 -28.091  1.00  0.00    -0.315 OA
BRANCH  35  36
HETATM   36  C19 UNL     1      -9.053  47.523 -29.242  1.00  0.00     0.262 C 
HETATM   37  O6  UNL     1      -8.090  46.775 -29.325  1.00  0.00    -0.265 OA
BRANCH  36  38
HETATM   38  C20 UNL     1      -9.673  48.287 -30.400  1.00  0.00     0.077 C 
HETATM   39  C21 UNL     1     -10.234  47.328 -31.447  1.00  0.00     0.020 C 
HETATM   40  C22 UNL     1      -8.643  49.228 -31.013  1.00  0.00     0.020 C 
ENDBRANCH  36  38
ENDBRANCH  35  36
ENDBRANCH  15  35
TORSDOF 9
ENDMDL
MODEL 7
REMARK minimizedAffinity -6.2760334
REMARK CNNscore 0.368744612
REMARK CNNaffinity 6.58650017
REMARK  9 active torsions:
REMARK  status: ('A' for Active; 'I' for Inactive)
REMARK    1  A    between atoms: C2_2  and  C3_3 
REMARK    2  A    between atoms: C3_3  and  C5_5 
REMARK    3  A    between atoms: C3_3  and  C6_7 
REMARK    4  A    between atoms: C5_5  and  O1_6 
REMARK    5  A    between atoms: C7_8  and  O2_9 
REMARK    6  A    between atoms: C18_22  and  O5_23 
REMARK    7  A    between atoms: O5_23  and  C19_24 
REMARK    8  A    between atoms: C19_24  and  C20_26 
REMARK    9  A    between atoms: C29_36  and  O8_37 
ROOT
HETATM    1  C6  UNL     1      -4.900  48.855 -10.331  1.00  0.00     0.023 A 
HETATM    2  C7  UNL     1      -5.567  50.094 -10.294  1.00  0.00     0.076 A 
HETATM    3  C8  UNL     1      -4.886  51.309 -10.434  1.00  0.00     0.053 A 
HETATM    4  C9  UNL     1      -3.497  51.328 -10.578  1.00  0.00     0.034 A 
HETATM    5  C10 UNL     1      -2.819  52.619 -10.790  1.00  0.00     0.192 A 
HETATM    6  O3  UNL     1      -3.485  53.634 -10.944  1.00  0.00    -0.287 OA
HETATM    7  C11 UNL     1      -1.334  52.645 -10.878  1.00  0.00     0.035 A 
HETATM    8  C12 UNL     1      -0.649  51.490 -10.879  1.00  0.00     0.131 A 
HETATM    9  O4  UNL     1       0.708  51.428 -11.129  1.00  0.00    -0.336 OA
HETATM   10  C13 UNL     1       1.249  52.494 -11.927  1.00  0.00     0.065 C 
HETATM   11  C14 UNL     1       2.764  52.234 -11.983  1.00  0.00     0.046 C 
HETATM   12  C15 UNL     1       0.732  52.371 -13.381  1.00  0.00     0.046 C 
HETATM   13  C16 UNL     1       0.883  53.875 -11.308  1.00  0.00     0.031 C 
HETATM   14  C17 UNL     1       1.688  54.249 -10.039  1.00  0.00     0.041 C 
HETATM   15  C18 UNL     1       0.985  53.881  -8.733  1.00  0.00     0.136 C 
HETATM   16  C23 UNL     1      -0.329  54.670  -8.591  1.00  0.00     0.012 C 
HETATM   17  C24 UNL     1      -1.302  53.925  -7.666  1.00  0.00     0.012 C 
HETATM   18  C25 UNL     1      -0.953  55.014  -9.954  1.00  0.00     0.017 C 
HETATM   19  C26 UNL     1      -0.661  53.993 -11.078  1.00  0.00     0.033 C 
HETATM   20  C27 UNL     1      -1.317  50.176 -10.641  1.00  0.00     0.219 A 
HETATM   21  O7  UNL     1      -0.675  49.136 -10.535  1.00  0.00    -0.284 OA
HETATM   22  C28 UNL     1      -2.785  50.140 -10.533  1.00  0.00     0.065 A 
HETATM   23  C29 UNL     1      -3.480  48.920 -10.390  1.00  0.00     0.091 A 
ENDROOT
BRANCH   1  24
HETATM   24  C3  UNL     1      -5.628  47.470 -10.282  1.00  0.00     0.027 C 
HETATM   25  C4  UNL     1      -4.689  46.237 -10.225  1.00  0.00     0.027 C 
BRANCH  24  26
HETATM   26  C2  UNL     1      -6.408  47.335  -8.959  1.00  0.00    -0.021 C 
HETATM   27  C1  UNL     1      -5.911  47.180  -7.723  1.00  0.00     0.008 C 
ENDBRANCH  24  26
BRANCH  24  28
HETATM   28  C5  UNL     1      -6.496  47.366 -11.583  1.00  0.00     0.182 C 
BRANCH  28  29
HETATM   29  O1  UNL     1      -5.751  47.352 -12.802  1.00  0.00    -0.399 OA
HETATM   30  H9  UNL     1      -5.279  48.195 -12.876  1.00  0.00     0.209 HD
ENDBRANCH  28  29
ENDBRANCH  24  28
ENDBRANCH   1  24
BRANCH   2  31
HETATM   31  O2  UNL     1      -6.917  50.157 -10.097  1.00  0.00    -0.360 OA
HETATM   32  H10 UNL     1      -7.174  51.067  -9.868  1.00  0.00     0.217 HD
ENDBRANCH   2  31
BRANCH  23  33
HETATM   33  O8  UNL     1      -2.784  47.742 -10.284  1.00  0.00    -0.359 OA
HETATM   34  H36 UNL     1      -1.813  47.909 -10.306  1.00  0.00     0.217 HD
ENDBRANCH  23  33
BRANCH  15  35
HETATM   35  O5  UNL     1       1.858  54.275  -7.652  1.00  0.00    -0.315 OA
BRANCH  35  36
HETATM   36  C19 UNL     1       2.957  55.024  -7.962  1.00  0.00     0.262 C 
HETATM   37  O6  UNL     1       4.061  54.576  -8.232  1.00  0.00    -0.265 OA
BRANCH  36  38
HETATM   38  C20 UNL     1       2.598  56.500  -7.908  1.00  0.00     0.077 C 
HETATM   39  C21 UNL     1       3.833  57.368  -8.139  1.00  0.00     0.020 C 
HETATM   40  C22 UNL     1       1.940  56.826  -6.573  1.00  0.00     0.020 C 
ENDBRANCH  36  38
ENDBRANCH  35  36
ENDBRANCH  15  35
TORSDOF 9
ENDMDL
MODEL 8
REMARK minimizedAffinity -6.83811951
REMARK CNNscore 0.324693143
REMARK CNNaffinity 5.89495087
REMARK  9 active torsions:
REMARK  status: ('A' for Active; 'I' for Inactive)
REMARK    1  A    between atoms: C2_2  and  C3_3 
REMARK    2  A    between atoms: C3_3  and  C5_5 
REMARK    3  A    between atoms: C3_3  and  C6_7 
REMARK    4  A    between atoms: C5_5  and  O1_6 
REMARK    5  A    between atoms: C7_8  and  O2_9 
REMARK    6  A    between atoms: C18_22  and  O5_23 
REMARK    7  A    between atoms: O5_23  and  C19_24 
REMARK    8  A    between atoms: C19_24  and  C20_26 
REMARK    9  A    between atoms: C29_36  and  O8_37 
ROOT
HETATM    1  C6  UNL     1      -7.266  47.591 -23.385  1.00  0.00     0.023 A 
HETATM    2  C7  UNL     1      -7.222  46.201 -23.164  1.00  0.00     0.076 A 
HETATM    3  C8  UNL     1      -7.691  45.283 -24.111  1.00  0.00     0.053 A 
HETATM    4  C9  UNL     1      -8.259  45.729 -25.306  1.00  0.00     0.034 A 
HETATM    5  C10 UNL     1      -8.681  44.735 -26.310  1.00  0.00     0.192 A 
HETATM    6  O3  UNL     1      -8.431  43.550 -26.131  1.00  0.00    -0.287 OA
HETATM    7  C11 UNL     1      -9.347  45.208 -27.554  1.00  0.00     0.035 A 
HETATM    8  C12 UNL     1      -9.447  46.526 -27.793  1.00  0.00     0.131 A 
HETATM    9  O4  UNL     1      -9.893  47.033 -28.998  1.00  0.00    -0.336 OA
HETATM   10  C13 UNL     1      -9.706  46.187 -30.143  1.00  0.00     0.065 C 
HETATM   11  C14 UNL     1     -10.354  46.941 -31.317  1.00  0.00     0.046 C 
HETATM   12  C15 UNL     1      -8.198  46.082 -30.474  1.00  0.00     0.046 C 
HETATM   13  C16 UNL     1     -10.332  44.784 -29.891  1.00  0.00     0.031 C 
HETATM   14  C17 UNL     1     -11.879  44.744 -29.958  1.00  0.00     0.041 C 
HETATM   15  C18 UNL     1     -12.559  44.896 -28.598  1.00  0.00     0.136 C 
HETATM   16  C23 UNL     1     -12.192  43.715 -27.681  1.00  0.00     0.012 C 
HETATM   17  C24 UNL     1     -12.338  44.118 -26.207  1.00  0.00     0.012 C 
HETATM   18  C25 UNL     1     -10.802  43.137 -28.002  1.00  0.00     0.017 C 
HETATM   19  C26 UNL     1      -9.788  44.161 -28.562  1.00  0.00     0.033 C 
HETATM   20  C27 UNL     1      -9.047  47.545 -26.778  1.00  0.00     0.219 A 
HETATM   21  O7  UNL     1      -9.240  48.743 -26.956  1.00  0.00    -0.284 OA
HETATM   22  C28 UNL     1      -8.405  47.087 -25.534  1.00  0.00     0.065 A 
HETATM   23  C29 UNL     1      -7.931  48.006 -24.573  1.00  0.00     0.091 A 
ENDROOT
BRANCH   1  24
HETATM   24  C3  UNL     1      -6.662  48.650 -22.404  1.00  0.00     0.027 C 
HETATM   25  C4  UNL     1      -6.747  48.274 -20.901  1.00  0.00     0.027 C 
BRANCH  24  26
HETATM   26  C2  UNL     1      -5.138  48.752 -22.618  1.00  0.00    -0.021 C 
HETATM   27  C1  UNL     1      -4.438  48.437 -23.718  1.00  0.00     0.008 C 
ENDBRANCH  24  26
BRANCH  24  28
HETATM   28  C5  UNL     1      -7.458  49.981 -22.623  1.00  0.00     0.182 C 
BRANCH  28  29
HETATM   29  O1  UNL     1      -6.661  51.098 -23.021  1.00  0.00    -0.399 OA
HETATM   30  H9  UNL     1      -6.033  51.289 -22.308  1.00  0.00     0.209 HD
ENDBRANCH  28  29
ENDBRANCH  24  28
ENDBRANCH   1  24
BRANCH   2  31
HETATM   31  O2  UNL     1      -6.734  45.693 -21.994  1.00  0.00    -0.360 OA
HETATM   32  H10 UNL     1      -6.988  44.757 -21.910  1.00  0.00     0.217 HD
ENDBRANCH   2  31
BRANCH  23  33
HETATM   33  O8  UNL     1      -8.122  49.352 -24.757  1.00  0.00    -0.359 OA
HETATM   34  H36 UNL     1      -8.618  49.522 -25.591  1.00  0.00     0.217 HD
ENDBRANCH  23  33
BRANCH  15  35
HETATM   35  O5  UNL     1     -13.984  44.854 -28.826  1.00  0.00    -0.315 OA
BRANCH  35  36
HETATM   36  C19 UNL     1     -14.796  45.433 -27.893  1.00  0.00     0.262 C 
HETATM   37  O6  UNL     1     -14.619  46.533 -27.391  1.00  0.00    -0.265 OA
BRANCH  36  38
HETATM   38  C20 UNL     1     -15.945  44.493 -27.564  1.00  0.00     0.077 C 
HETATM   39  C21 UNL     1     -16.594  43.962 -28.840  1.00  0.00     0.020 C 
HETATM   40  C22 UNL     1     -16.964  45.206 -26.684  1.00  0.00     0.020 C 
ENDBRANCH  36  38
ENDBRANCH  35  36
ENDBRANCH  15  35
TORSDOF 9
ENDMDL
MODEL 9
REMARK minimizedAffinity -8.09658527
REMARK CNNscore 0.321339339
REMARK CNNaffinity 5.94174051
REMARK  9 active torsions:
REMARK  status: ('A' for Active; 'I' for Inactive)
REMARK    1  A    between atoms: C2_2  and  C3_3 
REMARK    2  A    between atoms: C3_3  and  C5_5 
REMARK    3  A    between atoms: C3_3  and  C6_7 
REMARK    4  A    between atoms: C5_5  and  O1_6 
REMARK    5  A    between atoms: C7_8  and  O2_9 
REMARK    6  A    between atoms: C18_22  and  O5_23 
REMARK    7  A    between atoms: O5_23  and  C19_24 
REMARK    8  A    between atoms: C19_24  and  C20_26 
REMARK    9  A    between atoms: C29_36  and  O8_37 
ROOT
HETATM    1  C6  UNL     1      -4.600  48.654 -25.646  1.00  0.00     0.023 A 
HETATM    2  C7  UNL     1      -3.672  49.193 -26.558  1.00  0.00     0.076 A 
HETATM    3  C8  UNL     1      -3.888  49.167 -27.940  1.00  0.00     0.053 A 
HETATM    4  C9  UNL     1      -5.032  48.563 -28.466  1.00  0.00     0.034 A 
HETATM    5  C10 UNL     1      -5.260  48.612 -29.921  1.00  0.00     0.192 A 
HETATM    6  O3  UNL     1      -4.509  49.269 -30.630  1.00  0.00    -0.287 OA
HETATM    7  C11 UNL     1      -6.445  47.912 -30.487  1.00  0.00     0.035 A 
HETATM    8  C12 UNL     1      -7.341  47.349 -29.659  1.00  0.00     0.131 A 
HETATM    9  O4  UNL     1      -8.544  46.836 -30.101  1.00  0.00    -0.336 OA
HETATM   10  C13 UNL     1      -9.063  47.405 -31.314  1.00  0.00     0.065 C 
HETATM   11  C14 UNL     1     -10.344  46.611 -31.623  1.00  0.00     0.046 C 
HETATM   12  C15 UNL     1      -9.507  48.865 -31.056  1.00  0.00     0.046 C 
HETATM   13  C16 UNL     1      -8.000  47.326 -32.449  1.00  0.00     0.031 C 
HETATM   14  C17 UNL     1      -7.800  45.913 -33.051  1.00  0.00     0.041 C 
HETATM   15  C18 UNL     1      -6.654  45.128 -32.413  1.00  0.00     0.136 C 
HETATM   16  C23 UNL     1      -5.312  45.838 -32.668  1.00  0.00     0.012 C 
HETATM   17  C24 UNL     1      -4.288  45.446 -31.592  1.00  0.00     0.012 C 
HETATM   18  C25 UNL     1      -5.475  47.362 -32.803  1.00  0.00     0.017 C 
HETATM   19  C26 UNL     1      -6.646  47.964 -31.992  1.00  0.00     0.033 C 
HETATM   20  C27 UNL     1      -7.113  47.269 -28.186  1.00  0.00     0.219 A 
HETATM   21  O7  UNL     1      -7.879  46.659 -27.447  1.00  0.00    -0.284 OA
HETATM   22  C28 UNL     1      -5.933  47.941 -27.617  1.00  0.00     0.065 A 
HETATM   23  C29 UNL     1      -5.707  47.971 -26.224  1.00  0.00     0.091 A 
ENDROOT
BRANCH   1  24
HETATM   24  C3  UNL     1      -4.453  48.751 -24.091  1.00  0.00     0.027 C 
HETATM   25  C4  UNL     1      -5.357  47.782 -23.286  1.00  0.00     0.027 C 
BRANCH  24  26
HETATM   26  C2  UNL     1      -3.043  48.290 -23.670  1.00  0.00    -0.021 C 
HETATM   27  C1  UNL     1      -2.319  48.710 -22.621  1.00  0.00     0.008 C 
ENDBRANCH  24  26
BRANCH  24  28
HETATM   28  C5  UNL     1      -4.824  50.219 -23.688  1.00  0.00     0.182 C 
BRANCH  28  29
HETATM   29  O1  UNL     1      -6.143  50.626 -24.056  1.00  0.00    -0.399 OA
HETATM   30  H9  UNL     1      -6.207  50.602 -25.023  1.00  0.00     0.209 HD
ENDBRANCH  28  29
ENDBRANCH  24  28
ENDBRANCH   1  24
BRANCH   2  31
HETATM   31  O2  UNL     1      -2.503  49.747 -26.121  1.00  0.00    -0.360 OA
HETATM   32  H10 UNL     1      -1.889  49.852 -26.868  1.00  0.00     0.217 HD
ENDBRANCH   2  31
BRANCH  23  33
HETATM   33  O8  UNL     1      -6.559  47.309 -25.376  1.00  0.00    -0.359 OA
HETATM   34  H36 UNL     1      -7.266  46.848 -25.884  1.00  0.00     0.217 HD
ENDBRANCH  23  33
BRANCH  15  35
HETATM   35  O5  UNL     1      -6.605  43.840 -33.064  1.00  0.00    -0.315 OA
BRANCH  35  36
HETATM   36  C19 UNL     1      -6.189  42.769 -32.326  1.00  0.00     0.262 C 
HETATM   37  O6  UNL     1      -6.442  42.587 -31.145  1.00  0.00    -0.265 OA
BRANCH  36  38
HETATM   38  C20 UNL     1      -5.351  41.845 -33.196  1.00  0.00     0.077 C 
HETATM   39  C21 UNL     1      -5.733  40.386 -32.963  1.00  0.00     0.020 C 
HETATM   40  C22 UNL     1      -3.870  42.077 -32.924  1.00  0.00     0.020 C 
ENDBRANCH  36  38
ENDBRANCH  35  36
ENDBRANCH  15  35
TORSDOF 9
ENDMDL
