MODEL 1
REMARK minimizedAffinity -8.57310009
REMARK CNNscore 0.742081761
REMARK CNNaffinity 7.23273849
REMARK  19 active torsions:
REMARK  status: ('A' for Active; 'I' for Inactive)
REMARK    1  A    between atoms: C19_20  and  O2_21 
REMARK    2  A    between atoms: C19_20  and  C20_22 
REMARK    3  A    between atoms: C20_22  and  C21_24 
REMARK    4  A    between atoms: C21_24  and  O4_25 
REMARK    5  A    between atoms: O4_25  and  C22_26 
REMARK    6  A    between atoms: C22_26  and  C23_28 
REMARK    7  A    between atoms: C23_28  and  C24_29 
REMARK    8  A    between atoms: C24_29  and  C25_30 
REMARK       I    between atoms: C25_30  and  N1_32 
REMARK    9  A    between atoms: N1_32  and  C26_33 
REMARK   10  A    between atoms: C26_33  and  C27_34 
REMARK   11  A    between atoms: C27_34  and  C28_35 
REMARK   12  A    between atoms: C28_35  and  C29_36 
REMARK   13  A    between atoms: C29_36  and  C30_37 
REMARK   14  A    between atoms: C30_37  and  C31_38 
REMARK       I    between atoms: C31_38  and  N2_40 
REMARK   15  A    between atoms: N2_40  and  C32_41 
REMARK   16  A    between atoms: C32_41  and  C33_42 
REMARK   17  A    between atoms: C33_42  and  C34_43 
REMARK   18  A    between atoms: C37_46  and  O8_47 
REMARK   19  A    between atoms: C38_48  and  O9_49 
ROOT
HETATM    1  C22 UNL     1      -4.040   3.837  11.667  1.00  0.00     0.259 C 
HETATM    2  O5  UNL     1      -3.838   3.685  10.470  1.00  0.00    -0.265 OA
ENDROOT
BRANCH   1   3
HETATM    3  O4  UNL     1      -3.202   4.474  12.524  1.00  0.00    -0.314 OA
BRANCH   3   4
HETATM    4  C21 UNL     1      -3.703   5.565  13.284  1.00  0.00     0.260 C 
BRANCH   4   5
HETATM    5  C20 UNL     1      -3.186   7.020  13.269  1.00  0.00     0.185 C 
HETATM    6  O3  UNL     1      -3.947   7.923  12.900  1.00  0.00    -0.292 OA
BRANCH   5   7
HETATM    7  C19 UNL     1      -1.765   7.326  13.835  1.00  0.00     0.128 C 
HETATM    8  C14 UNL     1      -0.781   7.982  12.807  1.00  0.00    -0.002 C 
HETATM    9  C13 UNL     1       0.471   8.576  13.525  1.00  0.00     0.013 C 
HETATM   10  C15 UNL     1      -1.454   9.099  11.990  1.00  0.00     0.019 C 
HETATM   11  C16 UNL     1      -0.386   6.780  11.927  1.00  0.00     0.002 C 
HETATM   12  C12 UNL     1       1.831   8.242  12.896  1.00  0.00     0.007 C 
HETATM   13  C11 UNL     1       1.787   8.137  11.365  1.00  0.00     0.002 C 
HETATM   14  C2  UNL     1       3.186   7.990  10.653  1.00  0.00    -0.016 C 
HETATM   15  C10 UNL     1       0.762   7.044  10.919  1.00  0.00    -0.004 C 
HETATM   16  C1  UNL     1       3.002   8.313   9.141  1.00  0.00     0.020 C 
HETATM   17  C3  UNL     1       4.232   8.990  11.223  1.00  0.00     0.022 C 
HETATM   18  C7  UNL     1       3.750   6.580  10.807  1.00  0.00    -0.068 C 
HETATM   19  C4  UNL     1       5.614   8.835  10.592  1.00  0.00     0.084 C 
HETATM   20  C5  UNL     1       6.079   7.398  10.639  1.00  0.00     0.149 C 
HETATM   21  O1  UNL     1       7.264   7.095  10.525  1.00  0.00    -0.293 OA
HETATM   22  C6  UNL     1       5.070   6.322  10.796  1.00  0.00     0.053 C 
HETATM   23  C8  UNL     1       2.773   5.449  11.000  1.00  0.00     0.035 C 
HETATM   24  C9  UNL     1       1.404   5.740  10.398  1.00  0.00     0.010 C 
HETATM   25  C17 UNL     1      -0.198   5.640  12.946  1.00  0.00     0.009 C 
HETATM   26  C18 UNL     1      -1.062   5.990  14.163  1.00  0.00     0.047 C 
BRANCH   7  27
HETATM   27  O2  UNL     1      -1.853   8.117  15.013  1.00  0.00    -0.381 OA
HETATM   28  H27 UNL     1      -2.143   7.507  15.724  1.00  0.00     0.211 HD
ENDBRANCH   7  27
ENDBRANCH   5   7
ENDBRANCH   4   5
ENDBRANCH   3   4
ENDBRANCH   1   3
BRANCH   1  29
HETATM   29  C23 UNL     1      -5.211   3.254  12.421  1.00  0.00     0.120 C 
BRANCH  29  30
HETATM   30  C24 UNL     1      -6.516   3.964  12.085  1.00  0.00     0.112 C 
BRANCH  30  31
HETATM   31  C25 UNL     1      -7.478   3.979  13.257  1.00  0.00     0.217 C 
HETATM   32  O6  UNL     1      -8.566   3.417  13.248  1.00  0.00    -0.274 OA
HETATM   33  N1  UNL     1      -6.996   4.687  14.338  1.00  0.00    -0.361 N 
HETATM   34  H34 UNL     1      -6.211   5.308  14.186  1.00  0.00     0.162 HD
BRANCH  33  35
HETATM   35  C26 UNL     1      -7.819   4.916  15.508  1.00  0.00     0.122 C 
BRANCH  35  36
HETATM   36  C27 UNL     1      -7.543   6.272  16.153  1.00  0.00     0.020 C 
BRANCH  36  37
HETATM   37  C28 UNL     1      -8.768   7.189  16.255  1.00  0.00     0.002 C 
BRANCH  37  38
HETATM   38  C29 UNL     1      -8.891   8.269  15.170  1.00  0.00     0.009 C 
BRANCH  38  39
HETATM   39  C30 UNL     1     -10.325   8.666  14.817  1.00  0.00     0.103 C 
BRANCH  39  40
HETATM   40  C31 UNL     1     -11.096   7.571  14.101  1.00  0.00     0.217 C 
HETATM   41  O7  UNL     1     -10.825   7.167  12.977  1.00  0.00    -0.274 OA
HETATM   42  N2  UNL     1     -12.166   7.103  14.835  1.00  0.00    -0.361 N 
HETATM   43  H45 UNL     1     -12.205   7.329  15.822  1.00  0.00     0.162 HD
BRANCH  42  44
HETATM   44  C32 UNL     1     -12.983   5.999  14.368  1.00  0.00     0.127 C 
BRANCH  44  45
HETATM   45  C33 UNL     1     -14.473   6.346  14.261  1.00  0.00     0.058 C 
BRANCH  45  46
HETATM   46  C34 UNL     1     -15.373   5.246  14.778  1.00  0.00    -0.054 A 
HETATM   47  C35 UNL     1     -16.628   5.567  15.325  1.00  0.00     0.010 A 
HETATM   48  C36 UNL     1     -17.487   4.565  15.777  1.00  0.00     0.040 A 
HETATM   49  C37 UNL     1     -17.089   3.242  15.682  1.00  0.00     0.098 A 
HETATM   50  C38 UNL     1     -15.846   2.907  15.148  1.00  0.00     0.099 A 
HETATM   51  C39 UNL     1     -14.983   3.900  14.693  1.00  0.00     0.046 A 
BRANCH  49  52
HETATM   52  O8  UNL     1     -17.933   2.258  16.113  1.00  0.00    -0.358 OA
HETATM   53  H52 UNL     1     -17.449   1.426  15.936  1.00  0.00     0.217 HD
ENDBRANCH  49  52
BRANCH  50  54
HETATM   54  O9  UNL     1     -15.519   1.581  15.086  1.00  0.00    -0.358 OA
HETATM   55  H53 UNL     1     -14.618   1.505  14.726  1.00  0.00     0.217 HD
ENDBRANCH  50  54
ENDBRANCH  45  46
ENDBRANCH  44  45
ENDBRANCH  42  44
ENDBRANCH  39  40
ENDBRANCH  38  39
ENDBRANCH  37  38
ENDBRANCH  36  37
ENDBRANCH  35  36
ENDBRANCH  33  35
ENDBRANCH  30  31
ENDBRANCH  29  30
ENDBRANCH   1  29
TORSDOF 19
ENDMDL
MODEL 2
REMARK minimizedAffinity -8.79916668
REMARK CNNscore 0.673969805
REMARK CNNaffinity 7.30870056
REMARK  19 active torsions:
REMARK  status: ('A' for Active; 'I' for Inactive)
REMARK    1  A    between atoms: C19_20  and  O2_21 
REMARK    2  A    between atoms: C19_20  and  C20_22 
REMARK    3  A    between atoms: C20_22  and  C21_24 
REMARK    4  A    between atoms: C21_24  and  O4_25 
REMARK    5  A    between atoms: O4_25  and  C22_26 
REMARK    6  A    between atoms: C22_26  and  C23_28 
REMARK    7  A    between atoms: C23_28  and  C24_29 
REMARK    8  A    between atoms: C24_29  and  C25_30 
REMARK       I    between atoms: C25_30  and  N1_32 
REMARK    9  A    between atoms: N1_32  and  C26_33 
REMARK   10  A    between atoms: C26_33  and  C27_34 
REMARK   11  A    between atoms: C27_34  and  C28_35 
REMARK   12  A    between atoms: C28_35  and  C29_36 
REMARK   13  A    between atoms: C29_36  and  C30_37 
REMARK   14  A    between atoms: C30_37  and  C31_38 
REMARK       I    between atoms: C31_38  and  N2_40 
REMARK   15  A    between atoms: N2_40  and  C32_41 
REMARK   16  A    between atoms: C32_41  and  C33_42 
REMARK   17  A    between atoms: C33_42  and  C34_43 
REMARK   18  A    between atoms: C37_46  and  O8_47 
REMARK   19  A    between atoms: C38_48  and  O9_49 
ROOT
HETATM    1  C22 UNL     1      -4.006   3.875  11.610  1.00  0.00     0.259 C 
HETATM    2  O5  UNL     1      -3.708   3.941  10.425  1.00  0.00    -0.265 OA
ENDROOT
BRANCH   1   3
HETATM    3  O4  UNL     1      -3.297   4.435  12.623  1.00  0.00    -0.314 OA
BRANCH   3   4
HETATM    4  C21 UNL     1      -3.830   5.577  13.280  1.00  0.00     0.260 C 
BRANCH   4   5
HETATM    5  C20 UNL     1      -3.273   7.016  13.234  1.00  0.00     0.185 C 
HETATM    6  O3  UNL     1      -4.003   7.930  12.831  1.00  0.00    -0.292 OA
BRANCH   5   7
HETATM    7  C19 UNL     1      -1.851   7.298  13.812  1.00  0.00     0.128 C 
HETATM    8  C14 UNL     1      -0.858   7.969  12.804  1.00  0.00    -0.002 C 
HETATM    9  C13 UNL     1       0.396   8.537  13.539  1.00  0.00     0.013 C 
HETATM   10  C15 UNL     1      -1.519   9.110  12.010  1.00  0.00     0.019 C 
HETATM   11  C16 UNL     1      -0.469   6.785  11.898  1.00  0.00     0.002 C 
HETATM   12  C12 UNL     1       1.756   8.206  12.908  1.00  0.00     0.007 C 
HETATM   13  C11 UNL     1       1.717   8.137  11.376  1.00  0.00     0.002 C 
HETATM   14  C2  UNL     1       3.117   7.994  10.666  1.00  0.00    -0.016 C 
HETATM   15  C10 UNL     1       0.685   7.062  10.901  1.00  0.00    -0.004 C 
HETATM   16  C1  UNL     1       2.942   8.353   9.161  1.00  0.00     0.020 C 
HETATM   17  C3  UNL     1       4.169   8.972  11.263  1.00  0.00     0.022 C 
HETATM   18  C7  UNL     1       3.669   6.577  10.790  1.00  0.00    -0.068 C 
HETATM   19  C4  UNL     1       5.552   8.820  10.633  1.00  0.00     0.084 C 
HETATM   20  C5  UNL     1       6.006   7.379  10.650  1.00  0.00     0.149 C 
HETATM   21  O1  UNL     1       7.188   7.069  10.533  1.00  0.00    -0.293 OA
HETATM   22  C6  UNL     1       4.987   6.308  10.778  1.00  0.00     0.053 C 
HETATM   23  C8  UNL     1       2.683   5.449  10.953  1.00  0.00     0.035 C 
HETATM   24  C9  UNL     1       1.319   5.765  10.353  1.00  0.00     0.010 C 
HETATM   25  C17 UNL     1      -0.294   5.620  12.891  1.00  0.00     0.009 C 
HETATM   26  C18 UNL     1      -1.161   5.949  14.113  1.00  0.00     0.047 C 
BRANCH   7  27
HETATM   27  O2  UNL     1      -1.938   8.063  15.008  1.00  0.00    -0.381 OA
HETATM   28  H27 UNL     1      -2.236   7.439  15.703  1.00  0.00     0.211 HD
ENDBRANCH   7  27
ENDBRANCH   5   7
ENDBRANCH   4   5
ENDBRANCH   3   4
ENDBRANCH   1   3
BRANCH   1  29
HETATM   29  C23 UNL     1      -5.158   3.074  12.162  1.00  0.00     0.120 C 
BRANCH  29  30
HETATM   30  C24 UNL     1      -6.505   3.695  11.813  1.00  0.00     0.112 C 
BRANCH  30  31
HETATM   31  C25 UNL     1      -7.454   3.709  12.996  1.00  0.00     0.217 C 
HETATM   32  O6  UNL     1      -8.541   3.145  12.999  1.00  0.00    -0.274 OA
HETATM   33  N1  UNL     1      -6.959   4.415  14.073  1.00  0.00    -0.361 N 
HETATM   34  H34 UNL     1      -6.177   5.037  13.913  1.00  0.00     0.162 HD
BRANCH  33  35
HETATM   35  C26 UNL     1      -7.770   4.641  15.252  1.00  0.00     0.122 C 
BRANCH  35  36
HETATM   36  C27 UNL     1      -7.415   5.950  15.955  1.00  0.00     0.020 C 
BRANCH  36  37
HETATM   37  C28 UNL     1      -8.590   6.920  16.125  1.00  0.00     0.002 C 
BRANCH  37  38
HETATM   38  C29 UNL     1      -8.708   8.025  15.065  1.00  0.00     0.009 C 
BRANCH  38  39
HETATM   39  C30 UNL     1     -10.134   8.503  14.789  1.00  0.00     0.103 C 
BRANCH  39  40
HETATM   40  C31 UNL     1     -10.996   7.461  14.097  1.00  0.00     0.217 C 
HETATM   41  O7  UNL     1     -10.814   7.074  12.950  1.00  0.00    -0.274 OA
HETATM   42  N2  UNL     1     -12.040   7.022  14.886  1.00  0.00    -0.361 N 
HETATM   43  H45 UNL     1     -12.008   7.225  15.879  1.00  0.00     0.162 HD
BRANCH  42  44
HETATM   44  C32 UNL     1     -12.933   5.967  14.446  1.00  0.00     0.127 C 
BRANCH  44  45
HETATM   45  C33 UNL     1     -14.410   6.257  14.741  1.00  0.00     0.058 C 
BRANCH  45  46
HETATM   46  C34 UNL     1     -14.918   7.500  14.043  1.00  0.00    -0.054 A 
HETATM   47  C35 UNL     1     -15.042   8.704  14.758  1.00  0.00     0.010 A 
HETATM   48  C36 UNL     1     -15.476   9.869  14.125  1.00  0.00     0.040 A 
HETATM   49  C37 UNL     1     -15.787   9.827  12.776  1.00  0.00     0.098 A 
HETATM   50  C38 UNL     1     -15.674   8.641  12.054  1.00  0.00     0.099 A 
HETATM   51  C39 UNL     1     -15.241   7.474  12.677  1.00  0.00     0.046 A 
BRANCH  49  52
HETATM   52  O8  UNL     1     -16.201  10.969  12.151  1.00  0.00    -0.358 OA
HETATM   53  H52 UNL     1     -16.345  10.701  11.221  1.00  0.00     0.217 HD
ENDBRANCH  49  52
BRANCH  50  54
HETATM   54  O9  UNL     1     -15.999   8.673  10.726  1.00  0.00    -0.358 OA
HETATM   55  H53 UNL     1     -15.905   7.774  10.367  1.00  0.00     0.217 HD
ENDBRANCH  50  54
ENDBRANCH  45  46
ENDBRANCH  44  45
ENDBRANCH  42  44
ENDBRANCH  39  40
ENDBRANCH  38  39
ENDBRANCH  37  38
ENDBRANCH  36  37
ENDBRANCH  35  36
ENDBRANCH  33  35
ENDBRANCH  30  31
ENDBRANCH  29  30
ENDBRANCH   1  29
TORSDOF 19
ENDMDL
MODEL 3
REMARK minimizedAffinity -9.39212608
REMARK CNNscore 0.611431062
REMARK CNNaffinity 7.53834772
REMARK  19 active torsions:
REMARK  status: ('A' for Active; 'I' for Inactive)
REMARK    1  A    between atoms: C19_20  and  O2_21 
REMARK    2  A    between atoms: C19_20  and  C20_22 
REMARK    3  A    between atoms: C20_22  and  C21_24 
REMARK    4  A    between atoms: C21_24  and  O4_25 
REMARK    5  A    between atoms: O4_25  and  C22_26 
REMARK    6  A    between atoms: C22_26  and  C23_28 
REMARK    7  A    between atoms: C23_28  and  C24_29 
REMARK    8  A    between atoms: C24_29  and  C25_30 
REMARK       I    between atoms: C25_30  and  N1_32 
REMARK    9  A    between atoms: N1_32  and  C26_33 
REMARK   10  A    between atoms: C26_33  and  C27_34 
REMARK   11  A    between atoms: C27_34  and  C28_35 
REMARK   12  A    between atoms: C28_35  and  C29_36 
REMARK   13  A    between atoms: C29_36  and  C30_37 
REMARK   14  A    between atoms: C30_37  and  C31_38 
REMARK       I    between atoms: C31_38  and  N2_40 
REMARK   15  A    between atoms: N2_40  and  C32_41 
REMARK   16  A    between atoms: C32_41  and  C33_42 
REMARK   17  A    between atoms: C33_42  and  C34_43 
REMARK   18  A    between atoms: C37_46  and  O8_47 
REMARK   19  A    between atoms: C38_48  and  O9_49 
ROOT
HETATM    1  C22 UNL     1       0.346   8.542   9.037  1.00  0.00     0.259 C 
HETATM    2  O5  UNL     1      -0.676   9.154   8.758  1.00  0.00    -0.265 OA
ENDROOT
BRANCH   1   3
HETATM    3  O4  UNL     1       0.999   8.617  10.225  1.00  0.00    -0.314 OA
BRANCH   3   4
HETATM    4  C21 UNL     1       0.334   8.169  11.398  1.00  0.00     0.260 C 
BRANCH   4   5
HETATM    5  C20 UNL     1       0.629   6.879  12.194  1.00  0.00     0.185 C 
HETATM    6  O3  UNL     1       1.499   6.103  11.779  1.00  0.00    -0.292 OA
BRANCH   5   7
HETATM    7  C19 UNL     1      -0.090   6.649  13.559  1.00  0.00     0.128 C 
HETATM    8  C14 UNL     1      -1.546   6.083  13.444  1.00  0.00    -0.002 C 
HETATM    9  C13 UNL     1      -2.056   5.552  14.819  1.00  0.00     0.013 C 
HETATM   10  C15 UNL     1      -1.648   4.947  12.410  1.00  0.00     0.019 C 
HETATM   11  C16 UNL     1      -2.342   7.330  13.012  1.00  0.00     0.002 C 
HETATM   12  C12 UNL     1      -3.470   5.988  15.229  1.00  0.00     0.007 C 
HETATM   13  C11 UNL     1      -4.434   6.129  14.043  1.00  0.00     0.002 C 
HETATM   14  C2  UNL     1      -5.943   6.384  14.419  1.00  0.00    -0.016 C 
HETATM   15  C10 UNL     1      -3.884   7.166  13.010  1.00  0.00    -0.004 C 
HETATM   16  C1  UNL     1      -6.817   6.088  13.165  1.00  0.00     0.020 C 
HETATM   17  C3  UNL     1      -6.421   5.438  15.559  1.00  0.00     0.022 C 
HETATM   18  C7  UNL     1      -6.175   7.822  14.874  1.00  0.00    -0.068 C 
HETATM   19  C4  UNL     1      -7.865   5.697  15.984  1.00  0.00     0.084 C 
HETATM   20  C5  UNL     1      -8.090   7.158  16.293  1.00  0.00     0.149 C 
HETATM   21  O1  UNL     1      -9.037   7.539  16.977  1.00  0.00    -0.293 OA
HETATM   22  C6  UNL     1      -7.159   8.164  15.726  1.00  0.00     0.053 C 
HETATM   23  C8  UNL     1      -5.241   8.883  14.354  1.00  0.00     0.035 C 
HETATM   24  C9  UNL     1      -4.624   8.521  13.008  1.00  0.00     0.010 C 
HETATM   25  C17 UNL     1      -1.743   8.453  13.878  1.00  0.00     0.009 C 
HETATM   26  C18 UNL     1      -0.317   8.018  14.238  1.00  0.00     0.047 C 
BRANCH   7  27
HETATM   27  O2  UNL     1       0.698   5.824  14.408  1.00  0.00    -0.381 OA
HETATM   28  H27 UNL     1       1.422   6.396  14.741  1.00  0.00     0.211 HD
ENDBRANCH   7  27
ENDBRANCH   5   7
ENDBRANCH   4   5
ENDBRANCH   3   4
ENDBRANCH   1   3
BRANCH   1  29
HETATM   29  C23 UNL     1       1.117   7.675   8.073  1.00  0.00     0.120 C 
BRANCH  29  30
HETATM   30  C24 UNL     1       2.623   7.835   8.240  1.00  0.00     0.112 C 
BRANCH  30  31
HETATM   31  C25 UNL     1       3.241   6.680   9.003  1.00  0.00     0.217 C 
HETATM   32  O6  UNL     1       2.964   5.505   8.797  1.00  0.00    -0.274 OA
HETATM   33  N1  UNL     1       4.157   7.091   9.949  1.00  0.00    -0.361 N 
HETATM   34  H34 UNL     1       4.156   8.067  10.218  1.00  0.00     0.162 HD
BRANCH  33  35
HETATM   35  C26 UNL     1       4.766   6.143  10.860  1.00  0.00     0.122 C 
BRANCH  35  36
HETATM   36  C27 UNL     1       6.038   6.693  11.502  1.00  0.00     0.020 C 
BRANCH  36  37
HETATM   37  C28 UNL     1       5.797   7.745  12.592  1.00  0.00     0.002 C 
BRANCH  37  38
HETATM   38  C29 UNL     1       6.702   7.651  13.828  1.00  0.00     0.009 C 
BRANCH  38  39
HETATM   39  C30 UNL     1       8.080   8.294  13.669  1.00  0.00     0.103 C 
BRANCH  39  40
HETATM   40  C31 UNL     1       8.188   9.660  14.324  1.00  0.00     0.217 C 
HETATM   41  O7  UNL     1       8.461  10.689  13.718  1.00  0.00    -0.274 OA
HETATM   42  N2  UNL     1       7.988   9.616  15.688  1.00  0.00    -0.361 N 
HETATM   43  H45 UNL     1       7.568   8.782  16.083  1.00  0.00     0.162 HD
BRANCH  42  44
HETATM   44  C32 UNL     1       7.966  10.824  16.492  1.00  0.00     0.127 C 
BRANCH  44  45
HETATM   45  C33 UNL     1       7.904  10.550  18.000  1.00  0.00     0.058 C 
BRANCH  45  46
HETATM   46  C34 UNL     1       9.178  10.931  18.721  1.00  0.00    -0.054 A 
HETATM   47  C35 UNL     1      10.416  10.455  18.253  1.00  0.00     0.010 A 
HETATM   48  C36 UNL     1      11.606  10.822  18.883  1.00  0.00     0.040 A 
HETATM   49  C37 UNL     1      11.555  11.663  19.982  1.00  0.00     0.098 A 
HETATM   50  C38 UNL     1      10.336  12.139  20.461  1.00  0.00     0.099 A 
HETATM   51  C39 UNL     1       9.145  11.781  19.838  1.00  0.00     0.046 A 
BRANCH  49  52
HETATM   52  O8  UNL     1      12.719  12.033  20.593  1.00  0.00    -0.358 OA
HETATM   53  H52 UNL     1      12.438  12.626  21.318  1.00  0.00     0.217 HD
ENDBRANCH  49  52
BRANCH  50  54
HETATM   54  O9  UNL     1      10.363  12.966  21.550  1.00  0.00    -0.358 OA
HETATM   55  H53 UNL     1       9.446  13.186  21.787  1.00  0.00     0.217 HD
ENDBRANCH  50  54
ENDBRANCH  45  46
ENDBRANCH  44  45
ENDBRANCH  42  44
ENDBRANCH  39  40
ENDBRANCH  38  39
ENDBRANCH  37  38
ENDBRANCH  36  37
ENDBRANCH  35  36
ENDBRANCH  33  35
ENDBRANCH  30  31
ENDBRANCH  29  30
ENDBRANCH   1  29
TORSDOF 19
ENDMDL
MODEL 4
REMARK minimizedAffinity -8.47250271
REMARK CNNscore 0.57908082
REMARK CNNaffinity 7.60603142
REMARK  19 active torsions:
REMARK  status: ('A' for Active; 'I' for Inactive)
REMARK    1  A    between atoms: C19_20  and  O2_21 
REMARK    2  A    between atoms: C19_20  and  C20_22 
REMARK    3  A    between atoms: C20_22  and  C21_24 
REMARK    4  A    between atoms: C21_24  and  O4_25 
REMARK    5  A    between atoms: O4_25  and  C22_26 
REMARK    6  A    between atoms: C22_26  and  C23_28 
REMARK    7  A    between atoms: C23_28  and  C24_29 
REMARK    8  A    between atoms: C24_29  and  C25_30 
REMARK       I    between atoms: C25_30  and  N1_32 
REMARK    9  A    between atoms: N1_32  and  C26_33 
REMARK   10  A    between atoms: C26_33  and  C27_34 
REMARK   11  A    between atoms: C27_34  and  C28_35 
REMARK   12  A    between atoms: C28_35  and  C29_36 
REMARK   13  A    between atoms: C29_36  and  C30_37 
REMARK   14  A    between atoms: C30_37  and  C31_38 
REMARK       I    between atoms: C31_38  and  N2_40 
REMARK   15  A    between atoms: N2_40  and  C32_41 
REMARK   16  A    between atoms: C32_41  and  C33_42 
REMARK   17  A    between atoms: C33_42  and  C34_43 
REMARK   18  A    between atoms: C37_46  and  O8_47 
REMARK   19  A    between atoms: C38_48  and  O9_49 
ROOT
HETATM    1  C22 UNL     1       1.639   7.795   9.392  1.00  0.00     0.259 C 
HETATM    2  O5  UNL     1       0.739   7.329   8.706  1.00  0.00    -0.265 OA
ENDROOT
BRANCH   1   3
HETATM    3  O4  UNL     1       1.463   8.654  10.428  1.00  0.00    -0.314 OA
BRANCH   3   4
HETATM    4  C21 UNL     1       1.159   8.123  11.710  1.00  0.00     0.260 C 
BRANCH   4   5
HETATM    5  C20 UNL     1       0.561   6.734  12.020  1.00  0.00     0.185 C 
HETATM    6  O3  UNL     1       0.733   5.812  11.213  1.00  0.00    -0.292 OA
BRANCH   5   7
HETATM    7  C19 UNL     1      -0.136   6.498  13.396  1.00  0.00     0.128 C 
HETATM    8  C14 UNL     1      -1.611   5.979  13.300  1.00  0.00    -0.002 C 
HETATM    9  C13 UNL     1      -2.109   5.435  14.675  1.00  0.00     0.013 C 
HETATM   10  C15 UNL     1      -1.769   4.869  12.246  1.00  0.00     0.019 C 
HETATM   11  C16 UNL     1      -2.377   7.259  12.911  1.00  0.00     0.002 C 
HETATM   12  C12 UNL     1      -3.500   5.906  15.124  1.00  0.00     0.007 C 
HETATM   13  C11 UNL     1      -4.483   6.101  13.962  1.00  0.00     0.002 C 
HETATM   14  C2  UNL     1      -5.975   6.394  14.376  1.00  0.00    -0.016 C 
HETATM   15  C10 UNL     1      -3.923   7.142  12.939  1.00  0.00    -0.004 C 
HETATM   16  C1  UNL     1      -6.884   6.152  13.134  1.00  0.00     0.020 C 
HETATM   17  C3  UNL     1      -6.459   5.439  15.505  1.00  0.00     0.022 C 
HETATM   18  C7  UNL     1      -6.153   7.828  14.864  1.00  0.00    -0.068 C 
HETATM   19  C4  UNL     1      -7.885   5.733  15.967  1.00  0.00     0.084 C 
HETATM   20  C5  UNL     1      -8.058   7.194  16.310  1.00  0.00     0.149 C 
HETATM   21  O1  UNL     1      -8.978   7.590  17.022  1.00  0.00    -0.293 OA
HETATM   22  C6  UNL     1      -7.108   8.182  15.744  1.00  0.00     0.053 C 
HETATM   23  C8  UNL     1      -5.197   8.871  14.346  1.00  0.00     0.035 C 
HETATM   24  C9  UNL     1      -4.620   8.519  12.981  1.00  0.00     0.010 C 
HETATM   25  C17 UNL     1      -1.724   8.345  13.787  1.00  0.00     0.009 C 
HETATM   26  C18 UNL     1      -0.306   7.858  14.107  1.00  0.00     0.047 C 
BRANCH   7  27
HETATM   27  O2  UNL     1       0.644   5.631  14.211  1.00  0.00    -0.381 OA
HETATM   28  H27 UNL     1       1.391   6.173  14.540  1.00  0.00     0.211 HD
ENDBRANCH   7  27
ENDBRANCH   5   7
ENDBRANCH   4   5
ENDBRANCH   3   4
ENDBRANCH   1   3
BRANCH   1  29
HETATM   29  C23 UNL     1       3.111   7.575   9.142  1.00  0.00     0.120 C 
BRANCH  29  30
HETATM   30  C24 UNL     1       3.769   6.786  10.266  1.00  0.00     0.112 C 
BRANCH  30  31
HETATM   31  C25 UNL     1       5.084   7.402  10.705  1.00  0.00     0.217 C 
HETATM   32  O6  UNL     1       5.436   8.535  10.400  1.00  0.00    -0.274 OA
HETATM   33  N1  UNL     1       5.836   6.556  11.493  1.00  0.00    -0.361 N 
HETATM   34  H34 UNL     1       5.590   5.574  11.503  1.00  0.00     0.162 HD
BRANCH  33  35
HETATM   35  C26 UNL     1       7.175   6.920  11.912  1.00  0.00     0.122 C 
BRANCH  35  36
HETATM   36  C27 UNL     1       7.174   7.741  13.199  1.00  0.00     0.020 C 
BRANCH  36  37
HETATM   37  C28 UNL     1       7.664   9.185  13.033  1.00  0.00     0.002 C 
BRANCH  37  38
HETATM   38  C29 UNL     1       8.406   9.785  14.235  1.00  0.00     0.009 C 
BRANCH  38  39
HETATM   39  C30 UNL     1       9.368   8.829  14.941  1.00  0.00     0.103 C 
BRANCH  39  40
HETATM   40  C31 UNL     1       9.264   8.877  16.456  1.00  0.00     0.217 C 
HETATM   41  O7  UNL     1       9.009   7.905  17.156  1.00  0.00    -0.274 OA
HETATM   42  N2  UNL     1       9.448  10.146  16.964  1.00  0.00    -0.361 N 
HETATM   43  H45 UNL     1       9.855  10.850  16.358  1.00  0.00     0.162 HD
BRANCH  42  44
HETATM   44  C32 UNL     1       9.471  10.397  18.393  1.00  0.00     0.127 C 
BRANCH  44  45
HETATM   45  C33 UNL     1       9.686  11.874  18.749  1.00  0.00     0.058 C 
BRANCH  45  46
HETATM   46  C34 UNL     1      11.139  12.291  18.675  1.00  0.00    -0.054 A 
HETATM   47  C35 UNL     1      11.633  12.900  17.508  1.00  0.00     0.010 A 
HETATM   48  C36 UNL     1      12.961  13.324  17.432  1.00  0.00     0.040 A 
HETATM   49  C37 UNL     1      13.792  13.135  18.523  1.00  0.00     0.098 A 
HETATM   50  C38 UNL     1      13.319  12.528  19.685  1.00  0.00     0.099 A 
HETATM   51  C39 UNL     1      11.996  12.105  19.771  1.00  0.00     0.046 A 
BRANCH  49  52
HETATM   52  O8  UNL     1      15.089  13.559  18.456  1.00  0.00    -0.358 OA
HETATM   53  H52 UNL     1      15.466  13.335  19.330  1.00  0.00     0.217 HD
ENDBRANCH  49  52
BRANCH  50  54
HETATM   54  O9  UNL     1      14.196  12.374  20.723  1.00  0.00    -0.358 OA
HETATM   55  H53 UNL     1      13.737  11.910  21.443  1.00  0.00     0.217 HD
ENDBRANCH  50  54
ENDBRANCH  45  46
ENDBRANCH  44  45
ENDBRANCH  42  44
ENDBRANCH  39  40
ENDBRANCH  38  39
ENDBRANCH  37  38
ENDBRANCH  36  37
ENDBRANCH  35  36
ENDBRANCH  33  35
ENDBRANCH  30  31
ENDBRANCH  29  30
ENDBRANCH   1  29
TORSDOF 19
ENDMDL
MODEL 5
REMARK minimizedAffinity -8.48933506
REMARK CNNscore 0.435964167
REMARK CNNaffinity 6.27012014
REMARK  19 active torsions:
REMARK  status: ('A' for Active; 'I' for Inactive)
REMARK    1  A    between atoms: C19_20  and  O2_21 
REMARK    2  A    between atoms: C19_20  and  C20_22 
REMARK    3  A    between atoms: C20_22  and  C21_24 
REMARK    4  A    between atoms: C21_24  and  O4_25 
REMARK    5  A    between atoms: O4_25  and  C22_26 
REMARK    6  A    between atoms: C22_26  and  C23_28 
REMARK    7  A    between atoms: C23_28  and  C24_29 
REMARK    8  A    between atoms: C24_29  and  C25_30 
REMARK       I    between atoms: C25_30  and  N1_32 
REMARK    9  A    between atoms: N1_32  and  C26_33 
REMARK   10  A    between atoms: C26_33  and  C27_34 
REMARK   11  A    between atoms: C27_34  and  C28_35 
REMARK   12  A    between atoms: C28_35  and  C29_36 
REMARK   13  A    between atoms: C29_36  and  C30_37 
REMARK   14  A    between atoms: C30_37  and  C31_38 
REMARK       I    between atoms: C31_38  and  N2_40 
REMARK   15  A    between atoms: N2_40  and  C32_41 
REMARK   16  A    between atoms: C32_41  and  C33_42 
REMARK   17  A    between atoms: C33_42  and  C34_43 
REMARK   18  A    between atoms: C37_46  and  O8_47 
REMARK   19  A    between atoms: C38_48  and  O9_49 
ROOT
HETATM    1  C22 UNL     1       4.050   7.197  11.318  1.00  0.00     0.259 C 
HETATM    2  O5  UNL     1       4.568   6.698  10.328  1.00  0.00    -0.265 OA
ENDROOT
BRANCH   1   3
HETATM    3  O4  UNL     1       4.652   7.329  12.527  1.00  0.00    -0.314 OA
BRANCH   3   4
HETATM    4  C21 UNL     1       5.417   8.498  12.785  1.00  0.00     0.260 C 
BRANCH   4   5
HETATM    5  C20 UNL     1       6.957   8.609  12.817  1.00  0.00     0.185 C 
HETATM    6  O3  UNL     1       7.543   9.116  11.853  1.00  0.00    -0.292 OA
BRANCH   5   7
HETATM    7  C19 UNL     1       7.720   8.193  14.113  1.00  0.00     0.128 C 
HETATM    8  C14 UNL     1       7.814   9.314  15.204  1.00  0.00    -0.002 C 
HETATM    9  C13 UNL     1       8.262   8.727  16.579  1.00  0.00     0.013 C 
HETATM   10  C15 UNL     1       6.477  10.051  15.396  1.00  0.00     0.019 C 
HETATM   11  C16 UNL     1       8.905  10.236  14.623  1.00  0.00     0.002 C 
HETATM   12  C12 UNL     1       9.371   9.496  17.311  1.00  0.00     0.007 C 
HETATM   13  C11 UNL     1       9.307  11.014  17.096  1.00  0.00     0.002 C 
HETATM   14  C2  UNL     1      10.298  11.868  17.976  1.00  0.00    -0.016 C 
HETATM   15  C10 UNL     1       9.401  11.356  15.574  1.00  0.00    -0.004 C 
HETATM   16  C1  UNL     1       9.825  13.351  17.946  1.00  0.00     0.020 C 
HETATM   17  C3  UNL     1      10.297  11.404  19.461  1.00  0.00     0.022 C 
HETATM   18  C7  UNL     1      11.730  11.780  17.457  1.00  0.00    -0.068 C 
HETATM   19  C4  UNL     1      11.287  12.177  20.330  1.00  0.00     0.084 C 
HETATM   20  C5  UNL     1      12.666  12.184  19.712  1.00  0.00     0.149 C 
HETATM   21  O1  UNL     1      13.673  12.423  20.374  1.00  0.00    -0.293 OA
HETATM   22  C6  UNL     1      12.802  11.929  18.257  1.00  0.00     0.053 C 
HETATM   23  C8  UNL     1      11.931  11.492  15.992  1.00  0.00     0.035 C 
HETATM   24  C9  UNL     1      10.758  11.947  15.133  1.00  0.00     0.010 C 
HETATM   25  C17 UNL     1       9.950   9.248  14.072  1.00  0.00     0.009 C 
HETATM   26  C18 UNL     1       9.203   7.946  13.759  1.00  0.00     0.047 C 
BRANCH   7  27
HETATM   27  O2  UNL     1       7.160   7.008  14.666  1.00  0.00    -0.381 OA
HETATM   28  H27 UNL     1       7.471   6.274  14.095  1.00  0.00     0.211 HD
ENDBRANCH   7  27
ENDBRANCH   5   7
ENDBRANCH   4   5
ENDBRANCH   3   4
ENDBRANCH   1   3
BRANCH   1  29
HETATM   29  C23 UNL     1       2.617   7.662  11.395  1.00  0.00     0.120 C 
BRANCH  29  30
HETATM   30  C24 UNL     1       1.753   6.712  12.215  1.00  0.00     0.112 C 
BRANCH  30  31
HETATM   31  C25 UNL     1       0.813   5.898  11.347  1.00  0.00     0.217 C 
HETATM   32  O6  UNL     1       0.505   6.211  10.204  1.00  0.00    -0.274 OA
HETATM   33  N1  UNL     1       0.349   4.762  11.977  1.00  0.00    -0.361 N 
HETATM   34  H34 UNL     1       0.458   4.699  12.982  1.00  0.00     0.162 HD
BRANCH  33  35
HETATM   35  C26 UNL     1      -0.651   3.919  11.354  1.00  0.00     0.122 C 
BRANCH  35  36
HETATM   36  C27 UNL     1      -2.057   4.206  11.877  1.00  0.00     0.020 C 
BRANCH  36  37
HETATM   37  C28 UNL     1      -3.176   3.465  11.135  1.00  0.00     0.002 C 
BRANCH  37  38
HETATM   38  C29 UNL     1      -3.947   2.420  11.954  1.00  0.00     0.009 C 
BRANCH  38  39
HETATM   39  C30 UNL     1      -5.250   1.937  11.317  1.00  0.00     0.103 C 
BRANCH  39  40
HETATM   40  C31 UNL     1      -6.494   2.442  12.028  1.00  0.00     0.217 C 
HETATM   41  O7  UNL     1      -7.369   1.713  12.478  1.00  0.00    -0.274 OA
HETATM   42  N2  UNL     1      -6.557   3.819  12.080  1.00  0.00    -0.361 N 
HETATM   43  H45 UNL     1      -5.714   4.345  11.878  1.00  0.00     0.162 HD
BRANCH  42  44
HETATM   44  C32 UNL     1      -7.622   4.505  12.788  1.00  0.00     0.127 C 
BRANCH  44  45
HETATM   45  C33 UNL     1      -7.369   6.008  12.960  1.00  0.00     0.058 C 
BRANCH  45  46
HETATM   46  C34 UNL     1      -8.099   6.596  14.148  1.00  0.00    -0.054 A 
HETATM   47  C35 UNL     1      -7.374   7.008  15.280  1.00  0.00     0.010 A 
HETATM   48  C36 UNL     1      -8.023   7.583  16.373  1.00  0.00     0.040 A 
HETATM   49  C37 UNL     1      -9.398   7.743  16.332  1.00  0.00     0.098 A 
HETATM   50  C38 UNL     1     -10.132   7.335  15.220  1.00  0.00     0.099 A 
HETATM   51  C39 UNL     1      -9.492   6.762  14.125  1.00  0.00     0.046 A 
BRANCH  49  52
HETATM   52  O8  UNL     1     -10.035   8.317  17.396  1.00  0.00    -0.358 OA
HETATM   53  H52 UNL     1     -10.978   8.335  17.136  1.00  0.00     0.217 HD
ENDBRANCH  49  52
BRANCH  50  54
HETATM   54  O9  UNL     1     -11.486   7.524  15.249  1.00  0.00    -0.358 OA
HETATM   55  H53 UNL     1     -11.862   7.163  14.428  1.00  0.00     0.217 HD
ENDBRANCH  50  54
ENDBRANCH  45  46
ENDBRANCH  44  45
ENDBRANCH  42  44
ENDBRANCH  39  40
ENDBRANCH  38  39
ENDBRANCH  37  38
ENDBRANCH  36  37
ENDBRANCH  35  36
ENDBRANCH  33  35
ENDBRANCH  30  31
ENDBRANCH  29  30
ENDBRANCH   1  29
TORSDOF 19
ENDMDL
MODEL 6
REMARK minimizedAffinity -8.96615982
REMARK CNNscore 0.422460616
REMARK CNNaffinity 7.53672981
REMARK  19 active torsions:
REMARK  status: ('A' for Active; 'I' for Inactive)
REMARK    1  A    between atoms: C19_20  and  O2_21 
REMARK    2  A    between atoms: C19_20  and  C20_22 
REMARK    3  A    between atoms: C20_22  and  C21_24 
REMARK    4  A    between atoms: C21_24  and  O4_25 
REMARK    5  A    between atoms: O4_25  and  C22_26 
REMARK    6  A    between atoms: C22_26  and  C23_28 
REMARK    7  A    between atoms: C23_28  and  C24_29 
REMARK    8  A    between atoms: C24_29  and  C25_30 
REMARK       I    between atoms: C25_30  and  N1_32 
REMARK    9  A    between atoms: N1_32  and  C26_33 
REMARK   10  A    between atoms: C26_33  and  C27_34 
REMARK   11  A    between atoms: C27_34  and  C28_35 
REMARK   12  A    between atoms: C28_35  and  C29_36 
REMARK   13  A    between atoms: C29_36  and  C30_37 
REMARK   14  A    between atoms: C30_37  and  C31_38 
REMARK       I    between atoms: C31_38  and  N2_40 
REMARK   15  A    between atoms: N2_40  and  C32_41 
REMARK   16  A    between atoms: C32_41  and  C33_42 
REMARK   17  A    between atoms: C33_42  and  C34_43 
REMARK   18  A    between atoms: C37_46  and  O8_47 
REMARK   19  A    between atoms: C38_48  and  O9_49 
ROOT
HETATM    1  C22 UNL     1       1.921   6.743   9.283  1.00  0.00     0.259 C 
HETATM    2  O5  UNL     1       1.406   7.819   9.013  1.00  0.00    -0.265 OA
ENDROOT
BRANCH   1   3
HETATM    3  O4  UNL     1       1.290   5.711   9.900  1.00  0.00    -0.314 OA
BRANCH   3   4
HETATM    4  C21 UNL     1       1.190   5.722  11.317  1.00  0.00     0.260 C 
BRANCH   4   5
HETATM    5  C20 UNL     1       0.799   6.920  12.209  1.00  0.00     0.185 C 
HETATM    6  O3  UNL     1       0.985   8.069  11.789  1.00  0.00    -0.292 OA
BRANCH   5   7
HETATM    7  C19 UNL     1       0.070   6.652  13.562  1.00  0.00     0.128 C 
HETATM    8  C14 UNL     1      -1.389   6.099  13.420  1.00  0.00    -0.002 C 
HETATM    9  C13 UNL     1      -1.911   5.528  14.774  1.00  0.00     0.013 C 
HETATM   10  C15 UNL     1      -1.490   4.997  12.350  1.00  0.00     0.019 C 
HETATM   11  C16 UNL     1      -2.174   7.364  13.022  1.00  0.00     0.002 C 
HETATM   12  C12 UNL     1      -3.325   5.959  15.189  1.00  0.00     0.007 C 
HETATM   13  C11 UNL     1      -4.280   6.144  14.001  1.00  0.00     0.002 C 
HETATM   14  C2  UNL     1      -5.790   6.396  14.376  1.00  0.00    -0.016 C 
HETATM   15  C10 UNL     1      -3.717   7.209  13.005  1.00  0.00    -0.004 C 
HETATM   16  C1  UNL     1      -6.657   6.146  13.107  1.00  0.00     0.020 C 
HETATM   17  C3  UNL     1      -6.282   5.418  15.481  1.00  0.00     0.022 C 
HETATM   18  C7  UNL     1      -6.016   7.820  14.874  1.00  0.00    -0.068 C 
HETATM   19  C4  UNL     1      -7.727   5.672  15.905  1.00  0.00     0.084 C 
HETATM   20  C5  UNL     1      -7.945   7.125  16.259  1.00  0.00     0.149 C 
HETATM   21  O1  UNL     1      -8.894   7.490  16.948  1.00  0.00    -0.293 OA
HETATM   22  C6  UNL     1      -7.004   8.141  15.730  1.00  0.00     0.053 C 
HETATM   23  C8  UNL     1      -5.072   8.892  14.394  1.00  0.00     0.035 C 
HETATM   24  C9  UNL     1      -4.449   8.569  13.042  1.00  0.00     0.010 C 
HETATM   25  C17 UNL     1      -1.573   8.455  13.928  1.00  0.00     0.009 C 
HETATM   26  C18 UNL     1      -0.153   8.000  14.283  1.00  0.00     0.047 C 
BRANCH   7  27
HETATM   27  O2  UNL     1       0.847   5.795  14.390  1.00  0.00    -0.381 OA
HETATM   28  H27 UNL     1       1.572   6.351  14.745  1.00  0.00     0.211 HD
ENDBRANCH   7  27
ENDBRANCH   5   7
ENDBRANCH   4   5
ENDBRANCH   3   4
ENDBRANCH   1   3
BRANCH   1  29
HETATM   29  C23 UNL     1       3.378   6.410   9.070  1.00  0.00     0.120 C 
BRANCH  29  30
HETATM   30  C24 UNL     1       4.052   5.948  10.355  1.00  0.00     0.112 C 
BRANCH  30  31
HETATM   31  C25 UNL     1       4.759   7.081  11.072  1.00  0.00     0.217 C 
HETATM   32  O6  UNL     1       5.366   7.974  10.494  1.00  0.00    -0.274 OA
HETATM   33  N1  UNL     1       4.638   7.006  12.444  1.00  0.00    -0.361 N 
HETATM   34  H34 UNL     1       4.331   6.129  12.846  1.00  0.00     0.162 HD
BRANCH  33  35
HETATM   35  C26 UNL     1       5.344   7.932  13.307  1.00  0.00     0.122 C 
BRANCH  35  36
HETATM   36  C27 UNL     1       6.546   7.283  13.990  1.00  0.00     0.020 C 
BRANCH  36  37
HETATM   37  C28 UNL     1       7.764   8.202  14.143  1.00  0.00     0.002 C 
BRANCH  37  38
HETATM   38  C29 UNL     1       8.861   7.710  15.099  1.00  0.00     0.009 C 
BRANCH  38  39
HETATM   39  C30 UNL     1       8.708   8.176  16.547  1.00  0.00     0.103 C 
BRANCH  39  40
HETATM   40  C31 UNL     1       9.170   9.605  16.774  1.00  0.00     0.217 C 
HETATM   41  O7  UNL     1       9.973  10.186  16.055  1.00  0.00    -0.274 OA
HETATM   42  N2  UNL     1       8.621  10.171  17.906  1.00  0.00    -0.361 N 
HETATM   43  H45 UNL     1       7.820   9.716  18.328  1.00  0.00     0.162 HD
BRANCH  42  44
HETATM   44  C32 UNL     1       8.867  11.557  18.258  1.00  0.00     0.127 C 
BRANCH  44  45
HETATM   45  C33 UNL     1       7.664  12.239  18.923  1.00  0.00     0.058 C 
BRANCH  45  46
HETATM   46  C34 UNL     1       7.982  12.784  20.298  1.00  0.00    -0.054 A 
HETATM   47  C35 UNL     1       7.422  12.179  21.437  1.00  0.00     0.010 A 
HETATM   48  C36 UNL     1       7.730  12.645  22.716  1.00  0.00     0.040 A 
HETATM   49  C37 UNL     1       8.595  13.717  22.854  1.00  0.00     0.098 A 
HETATM   50  C38 UNL     1       9.154  14.331  21.734  1.00  0.00     0.099 A 
HETATM   51  C39 UNL     1       8.855  13.873  20.455  1.00  0.00     0.046 A 
BRANCH  49  52
HETATM   52  O8  UNL     1       8.906  14.167  24.105  1.00  0.00    -0.358 OA
HETATM   53  H52 UNL     1       9.530  14.905  23.952  1.00  0.00     0.217 HD
ENDBRANCH  49  52
BRANCH  50  54
HETATM   54  O9  UNL     1       9.999  15.385  21.946  1.00  0.00    -0.358 OA
HETATM   55  H53 UNL     1      10.280  15.729  21.080  1.00  0.00     0.217 HD
ENDBRANCH  50  54
ENDBRANCH  45  46
ENDBRANCH  44  45
ENDBRANCH  42  44
ENDBRANCH  39  40
ENDBRANCH  38  39
ENDBRANCH  37  38
ENDBRANCH  36  37
ENDBRANCH  35  36
ENDBRANCH  33  35
ENDBRANCH  30  31
ENDBRANCH  29  30
ENDBRANCH   1  29
TORSDOF 19
ENDMDL
MODEL 7
REMARK minimizedAffinity -8.23165703
REMARK CNNscore 0.348557234
REMARK CNNaffinity 6.64131403
REMARK  19 active torsions:
REMARK  status: ('A' for Active; 'I' for Inactive)
REMARK    1  A    between atoms: C19_20  and  O2_21 
REMARK    2  A    between atoms: C19_20  and  C20_22 
REMARK    3  A    between atoms: C20_22  and  C21_24 
REMARK    4  A    between atoms: C21_24  and  O4_25 
REMARK    5  A    between atoms: O4_25  and  C22_26 
REMARK    6  A    between atoms: C22_26  and  C23_28 
REMARK    7  A    between atoms: C23_28  and  C24_29 
REMARK    8  A    between atoms: C24_29  and  C25_30 
REMARK       I    between atoms: C25_30  and  N1_32 
REMARK    9  A    between atoms: N1_32  and  C26_33 
REMARK   10  A    between atoms: C26_33  and  C27_34 
REMARK   11  A    between atoms: C27_34  and  C28_35 
REMARK   12  A    between atoms: C28_35  and  C29_36 
REMARK   13  A    between atoms: C29_36  and  C30_37 
REMARK   14  A    between atoms: C30_37  and  C31_38 
REMARK       I    between atoms: C31_38  and  N2_40 
REMARK   15  A    between atoms: N2_40  and  C32_41 
REMARK   16  A    between atoms: C32_41  and  C33_42 
REMARK   17  A    between atoms: C33_42  and  C34_43 
REMARK   18  A    between atoms: C37_46  and  O8_47 
REMARK   19  A    between atoms: C38_48  and  O9_49 
ROOT
HETATM    1  C22 UNL     1       2.817   5.221  10.019  1.00  0.00     0.259 C 
HETATM    2  O5  UNL     1       3.118   4.106   9.617  1.00  0.00    -0.265 OA
ENDROOT
BRANCH   1   3
HETATM    3  O4  UNL     1       1.601   5.568  10.514  1.00  0.00    -0.314 OA
BRANCH   3   4
HETATM    4  C21 UNL     1       1.486   5.854  11.901  1.00  0.00     0.260 C 
BRANCH   4   5
HETATM    5  C20 UNL     1       0.809   7.086  12.539  1.00  0.00     0.185 C 
HETATM    6  O3  UNL     1       0.817   8.161  11.926  1.00  0.00    -0.292 OA
BRANCH   5   7
HETATM    7  C19 UNL     1       0.029   6.914  13.880  1.00  0.00     0.128 C 
HETATM    8  C14 UNL     1      -1.386   6.258  13.733  1.00  0.00    -0.002 C 
HETATM    9  C13 UNL     1      -1.942   5.798  15.116  1.00  0.00     0.013 C 
HETATM   10  C15 UNL     1      -1.370   5.048  12.782  1.00  0.00     0.019 C 
HETATM   11  C16 UNL     1      -2.223   7.424  13.169  1.00  0.00     0.002 C 
HETATM   12  C12 UNL     1      -3.397   6.181  15.420  1.00  0.00     0.007 C 
HETATM   13  C11 UNL     1      -4.301   6.181  14.179  1.00  0.00     0.002 C 
HETATM   14  C2  UNL     1      -5.840   6.376  14.458  1.00  0.00    -0.016 C 
HETATM   15  C10 UNL     1      -3.751   7.172  13.101  1.00  0.00    -0.004 C 
HETATM   16  C1  UNL     1      -6.626   5.942  13.186  1.00  0.00     0.020 C 
HETATM   17  C3  UNL     1      -6.329   5.487  15.639  1.00  0.00     0.022 C 
HETATM   18  C7  UNL     1      -6.173   7.827  14.792  1.00  0.00    -0.068 C 
HETATM   19  C4  UNL     1      -7.805   5.693  15.970  1.00  0.00     0.084 C 
HETATM   20  C5  UNL     1      -8.125   7.158  16.157  1.00  0.00     0.149 C 
HETATM   21  O1  UNL     1      -9.127   7.532  16.762  1.00  0.00    -0.293 OA
HETATM   22  C6  UNL     1      -7.218   8.171  15.565  1.00  0.00     0.053 C 
HETATM   23  C8  UNL     1      -5.269   8.900  14.243  1.00  0.00     0.035 C 
HETATM   24  C9  UNL     1      -4.561   8.479  12.961  1.00  0.00     0.010 C 
HETATM   25  C17 UNL     1      -1.732   8.638  13.979  1.00  0.00     0.009 C 
HETATM   26  C18 UNL     1      -0.307   8.312  14.443  1.00  0.00     0.047 C 
BRANCH   7  27
HETATM   27  O2  UNL     1       0.812   6.197  14.827  1.00  0.00    -0.381 OA
HETATM   28  H27 UNL     1       1.485   6.832  15.152  1.00  0.00     0.211 HD
ENDBRANCH   7  27
ENDBRANCH   5   7
ENDBRANCH   4   5
ENDBRANCH   3   4
ENDBRANCH   1   3
BRANCH   1  29
HETATM   29  C23 UNL     1       3.713   6.433   9.942  1.00  0.00     0.120 C 
BRANCH  29  30
HETATM   30  C24 UNL     1       5.034   6.213  10.667  1.00  0.00     0.112 C 
BRANCH  30  31
HETATM   31  C25 UNL     1       5.176   7.108  11.884  1.00  0.00     0.217 C 
HETATM   32  O6  UNL     1       4.589   8.174  12.012  1.00  0.00    -0.274 OA
HETATM   33  N1  UNL     1       6.031   6.589  12.834  1.00  0.00    -0.361 N 
HETATM   34  H34 UNL     1       6.647   5.835  12.557  1.00  0.00     0.162 HD
BRANCH  33  35
HETATM   35  C26 UNL     1       6.387   7.352  14.013  1.00  0.00     0.122 C 
BRANCH  35  36
HETATM   36  C27 UNL     1       7.714   8.088  13.845  1.00  0.00     0.020 C 
BRANCH  36  37
HETATM   37  C28 UNL     1       8.576   8.144  15.113  1.00  0.00     0.002 C 
BRANCH  37  38
HETATM   38  C29 UNL     1       8.544   9.468  15.889  1.00  0.00     0.009 C 
BRANCH  38  39
HETATM   39  C30 UNL     1       9.810  10.317  15.767  1.00  0.00     0.103 C 
BRANCH  39  40
HETATM   40  C31 UNL     1      10.445  10.649  17.106  1.00  0.00     0.217 C 
HETATM   41  O7  UNL     1      10.013  10.259  18.184  1.00  0.00    -0.274 OA
HETATM   42  N2  UNL     1      11.543  11.476  16.987  1.00  0.00    -0.361 N 
HETATM   43  H45 UNL     1      11.961  11.587  16.070  1.00  0.00     0.162 HD
BRANCH  42  44
HETATM   44  C32 UNL     1      12.344  11.846  18.138  1.00  0.00     0.127 C 
BRANCH  44  45
HETATM   45  C33 UNL     1      13.853  11.826  17.862  1.00  0.00     0.058 C 
BRANCH  45  46
HETATM   46  C34 UNL     1      14.609  12.882  18.639  1.00  0.00    -0.054 A 
HETATM   47  C35 UNL     1      14.918  14.111  18.031  1.00  0.00     0.010 A 
HETATM   48  C36 UNL     1      15.583  15.111  18.742  1.00  0.00     0.040 A 
HETATM   49  C37 UNL     1      15.942  14.878  20.059  1.00  0.00     0.098 A 
HETATM   50  C38 UNL     1      15.647  13.662  20.674  1.00  0.00     0.099 A 
HETATM   51  C39 UNL     1      14.982  12.661  19.975  1.00  0.00     0.046 A 
BRANCH  49  52
HETATM   52  O8  UNL     1      16.583  15.859  20.760  1.00  0.00    -0.358 OA
HETATM   53  H52 UNL     1      16.717  15.476  21.650  1.00  0.00     0.217 HD
ENDBRANCH  49  52
BRANCH  50  54
HETATM   54  O9  UNL     1      16.032  13.502  21.977  1.00  0.00    -0.358 OA
HETATM   55  H53 UNL     1      15.792  12.602  22.257  1.00  0.00     0.217 HD
ENDBRANCH  50  54
ENDBRANCH  45  46
ENDBRANCH  44  45
ENDBRANCH  42  44
ENDBRANCH  39  40
ENDBRANCH  38  39
ENDBRANCH  37  38
ENDBRANCH  36  37
ENDBRANCH  35  36
ENDBRANCH  33  35
ENDBRANCH  30  31
ENDBRANCH  29  30
ENDBRANCH   1  29
TORSDOF 19
ENDMDL
MODEL 8
REMARK minimizedAffinity -8.70922661
REMARK CNNscore 0.302845001
REMARK CNNaffinity 6.42680168
REMARK  19 active torsions:
REMARK  status: ('A' for Active; 'I' for Inactive)
REMARK    1  A    between atoms: C19_20  and  O2_21 
REMARK    2  A    between atoms: C19_20  and  C20_22 
REMARK    3  A    between atoms: C20_22  and  C21_24 
REMARK    4  A    between atoms: C21_24  and  O4_25 
REMARK    5  A    between atoms: O4_25  and  C22_26 
REMARK    6  A    between atoms: C22_26  and  C23_28 
REMARK    7  A    between atoms: C23_28  and  C24_29 
REMARK    8  A    between atoms: C24_29  and  C25_30 
REMARK       I    between atoms: C25_30  and  N1_32 
REMARK    9  A    between atoms: N1_32  and  C26_33 
REMARK   10  A    between atoms: C26_33  and  C27_34 
REMARK   11  A    between atoms: C27_34  and  C28_35 
REMARK   12  A    between atoms: C28_35  and  C29_36 
REMARK   13  A    between atoms: C29_36  and  C30_37 
REMARK   14  A    between atoms: C30_37  and  C31_38 
REMARK       I    between atoms: C31_38  and  N2_40 
REMARK   15  A    between atoms: N2_40  and  C32_41 
REMARK   16  A    between atoms: C32_41  and  C33_42 
REMARK   17  A    between atoms: C33_42  and  C34_43 
REMARK   18  A    between atoms: C37_46  and  O8_47 
REMARK   19  A    between atoms: C38_48  and  O9_49 
ROOT
HETATM    1  C22 UNL     1       3.802   7.750  10.361  1.00  0.00     0.259 C 
HETATM    2  O5  UNL     1       4.504   6.896   9.838  1.00  0.00    -0.265 OA
ENDROOT
BRANCH   1   3
HETATM    3  O4  UNL     1       4.247   8.709  11.213  1.00  0.00    -0.314 OA
BRANCH   3   4
HETATM    4  C21 UNL     1       5.029   8.318  12.332  1.00  0.00     0.260 C 
BRANCH   4   5
HETATM    5  C20 UNL     1       6.562   8.429  12.476  1.00  0.00     0.185 C 
HETATM    6  O3  UNL     1       7.217   8.936  11.556  1.00  0.00    -0.292 OA
BRANCH   5   7
HETATM    7  C19 UNL     1       7.230   8.013  13.823  1.00  0.00     0.128 C 
HETATM    8  C14 UNL     1       7.298   9.151  14.897  1.00  0.00    -0.002 C 
HETATM    9  C13 UNL     1       7.641   8.577  16.307  1.00  0.00     0.013 C 
HETATM   10  C15 UNL     1       5.979   9.938  14.994  1.00  0.00     0.019 C 
HETATM   11  C16 UNL     1       8.454  10.023  14.368  1.00  0.00     0.002 C 
HETATM   12  C12 UNL     1       8.730   9.321  17.093  1.00  0.00     0.007 C 
HETATM   13  C11 UNL     1       8.734  10.836  16.846  1.00  0.00     0.002 C 
HETATM   14  C2  UNL     1       9.699  11.672  17.770  1.00  0.00    -0.016 C 
HETATM   15  C10 UNL     1       8.932  11.144  15.327  1.00  0.00    -0.004 C 
HETATM   16  C1  UNL     1       9.282  13.170  17.685  1.00  0.00     0.020 C 
HETATM   17  C3  UNL     1       9.591  11.239  19.261  1.00  0.00     0.022 C 
HETATM   18  C7  UNL     1      11.156  11.525  17.342  1.00  0.00    -0.068 C 
HETATM   19  C4  UNL     1      10.555  11.994  20.174  1.00  0.00     0.084 C 
HETATM   20  C5  UNL     1      11.967  11.942  19.642  1.00  0.00     0.149 C 
HETATM   21  O1  UNL     1      12.941  12.158  20.359  1.00  0.00    -0.293 OA
HETATM   22  C6  UNL     1      12.182  11.653  18.203  1.00  0.00     0.053 C 
HETATM   23  C8  UNL     1      11.435  11.201  15.896  1.00  0.00     0.035 C 
HETATM   24  C9  UNL     1      10.333  11.679  14.960  1.00  0.00     0.010 C 
HETATM   25  C17 UNL     1       9.494   8.989  13.900  1.00  0.00     0.009 C 
HETATM   26  C18 UNL     1       8.722   7.707  13.565  1.00  0.00     0.047 C 
BRANCH   7  27
HETATM   27  O2  UNL     1       6.596   6.859  14.361  1.00  0.00    -0.381 OA
HETATM   28  H27 UNL     1       6.914   6.103  13.824  1.00  0.00     0.211 HD
ENDBRANCH   7  27
ENDBRANCH   5   7
ENDBRANCH   4   5
ENDBRANCH   3   4
ENDBRANCH   1   3
BRANCH   1  29
HETATM   29  C23 UNL     1       2.300   7.825  10.231  1.00  0.00     0.120 C 
BRANCH  29  30
HETATM   30  C24 UNL     1       1.720   6.573   9.585  1.00  0.00     0.112 C 
BRANCH  30  31
HETATM   31  C25 UNL     1       1.357   5.515  10.609  1.00  0.00     0.217 C 
HETATM   32  O6  UNL     1       1.969   4.463  10.742  1.00  0.00    -0.274 OA
HETATM   33  N1  UNL     1       0.270   5.866  11.382  1.00  0.00    -0.361 N 
HETATM   34  H34 UNL     1      -0.314   6.628  11.059  1.00  0.00     0.162 HD
BRANCH  33  35
HETATM   35  C26 UNL     1      -0.301   4.935  12.333  1.00  0.00     0.122 C 
BRANCH  35  36
HETATM   36  C27 UNL     1      -0.427   5.540  13.730  1.00  0.00     0.020 C 
BRANCH  36  37
HETATM   37  C28 UNL     1       0.053   6.993  13.839  1.00  0.00     0.002 C 
BRANCH  37  38
HETATM   38  C29 UNL     1      -0.945   7.985  14.455  1.00  0.00     0.009 C 
BRANCH  38  39
HETATM   39  C30 UNL     1      -1.821   7.409  15.569  1.00  0.00     0.103 C 
BRANCH  39  40
HETATM   40  C31 UNL     1      -3.134   6.834  15.067  1.00  0.00     0.217 C 
HETATM   41  O7  UNL     1      -3.716   5.896  15.597  1.00  0.00    -0.274 OA
HETATM   42  N2  UNL     1      -3.586   7.453  13.921  1.00  0.00    -0.361 N 
HETATM   43  H45 UNL     1      -3.171   8.341  13.661  1.00  0.00     0.162 HD
BRANCH  42  44
HETATM   44  C32 UNL     1      -4.864   7.110  13.325  1.00  0.00     0.127 C 
BRANCH  44  45
HETATM   45  C33 UNL     1      -5.612   6.006  14.082  1.00  0.00     0.058 C 
BRANCH  45  46
HETATM   46  C34 UNL     1      -5.771   4.739  13.270  1.00  0.00    -0.054 A 
HETATM   47  C35 UNL     1      -4.714   4.291  12.457  1.00  0.00     0.010 A 
HETATM   48  C36 UNL     1      -4.827   3.108  11.727  1.00  0.00     0.040 A 
HETATM   49  C37 UNL     1      -6.000   2.375  11.809  1.00  0.00     0.098 A 
HETATM   50  C38 UNL     1      -7.058   2.808  12.605  1.00  0.00     0.099 A 
HETATM   51  C39 UNL     1      -6.953   3.985  13.338  1.00  0.00     0.046 A 
BRANCH  49  52
HETATM   52  O8  UNL     1      -6.109   1.210  11.104  1.00  0.00    -0.358 OA
HETATM   53  H52 UNL     1      -6.999   0.872  11.326  1.00  0.00     0.217 HD
ENDBRANCH  49  52
BRANCH  50  54
HETATM   54  O9  UNL     1      -8.185   2.034  12.637  1.00  0.00    -0.358 OA
HETATM   55  H53 UNL     1      -8.843   2.476  13.201  1.00  0.00     0.217 HD
ENDBRANCH  50  54
ENDBRANCH  45  46
ENDBRANCH  44  45
ENDBRANCH  42  44
ENDBRANCH  39  40
ENDBRANCH  38  39
ENDBRANCH  37  38
ENDBRANCH  36  37
ENDBRANCH  35  36
ENDBRANCH  33  35
ENDBRANCH  30  31
ENDBRANCH  29  30
ENDBRANCH   1  29
TORSDOF 19
ENDMDL
MODEL 9
REMARK minimizedAffinity -8.30395603
REMARK CNNscore 0.268394172
REMARK CNNaffinity 6.71179008
REMARK  19 active torsions:
REMARK  status: ('A' for Active; 'I' for Inactive)
REMARK    1  A    between atoms: C19_20  and  O2_21 
REMARK    2  A    between atoms: C19_20  and  C20_22 
REMARK    3  A    between atoms: C20_22  and  C21_24 
REMARK    4  A    between atoms: C21_24  and  O4_25 
REMARK    5  A    between atoms: O4_25  and  C22_26 
REMARK    6  A    between atoms: C22_26  and  C23_28 
REMARK    7  A    between atoms: C23_28  and  C24_29 
REMARK    8  A    between atoms: C24_29  and  C25_30 
REMARK       I    between atoms: C25_30  and  N1_32 
REMARK    9  A    between atoms: N1_32  and  C26_33 
REMARK   10  A    between atoms: C26_33  and  C27_34 
REMARK   11  A    between atoms: C27_34  and  C28_35 
REMARK   12  A    between atoms: C28_35  and  C29_36 
REMARK   13  A    between atoms: C29_36  and  C30_37 
REMARK   14  A    between atoms: C30_37  and  C31_38 
REMARK       I    between atoms: C31_38  and  N2_40 
REMARK   15  A    between atoms: N2_40  and  C32_41 
REMARK   16  A    between atoms: C32_41  and  C33_42 
REMARK   17  A    between atoms: C33_42  and  C34_43 
REMARK   18  A    between atoms: C37_46  and  O8_47 
REMARK   19  A    between atoms: C38_48  and  O9_49 
ROOT
HETATM    1  C22 UNL     1     -11.791   8.215  12.962  1.00  0.00     0.259 C 
HETATM    2  O5  UNL     1     -11.738   9.391  13.295  1.00  0.00    -0.265 OA
ENDROOT
BRANCH   1   3
HETATM    3  O4  UNL     1     -12.843   7.630  12.335  1.00  0.00    -0.314 OA
BRANCH   3   4
HETATM    4  C21 UNL     1     -13.930   7.159  13.120  1.00  0.00     0.260 C 
BRANCH   4   5
HETATM    5  C20 UNL     1     -15.394   6.984  12.665  1.00  0.00     0.185 C 
HETATM    6  O3  UNL     1     -15.661   7.056  11.459  1.00  0.00    -0.292 OA
BRANCH   5   7
HETATM    7  C19 UNL     1     -16.476   6.600  13.722  1.00  0.00     0.128 C 
HETATM    8  C14 UNL     1     -16.303   5.174  14.346  1.00  0.00    -0.002 C 
HETATM    9  C13 UNL     1     -17.185   5.005  15.622  1.00  0.00     0.013 C 
HETATM   10  C15 UNL     1     -14.840   4.875  14.716  1.00  0.00     0.019 C 
HETATM   11  C16 UNL     1     -16.810   4.263  13.210  1.00  0.00     0.002 C 
HETATM   12  C12 UNL     1     -18.002   3.708  15.712  1.00  0.00     0.007 C 
HETATM   13  C11 UNL     1     -17.296   2.497  15.087  1.00  0.00     0.002 C 
HETATM   14  C2  UNL     1     -17.998   1.105  15.321  1.00  0.00    -0.016 C 
HETATM   15  C10 UNL     1     -16.973   2.767  13.582  1.00  0.00    -0.004 C 
HETATM   16  C1  UNL     1     -16.971  -0.021  15.002  1.00  0.00     0.020 C 
HETATM   17  C3  UNL     1     -18.446   0.926  16.801  1.00  0.00     0.022 C 
HETATM   18  C7  UNL     1     -19.228   0.939  14.434  1.00  0.00    -0.068 C 
HETATM   19  C4  UNL     1     -19.179  -0.390  17.049  1.00  0.00     0.084 C 
HETATM   20  C5  UNL     1     -20.305  -0.584  16.060  1.00  0.00     0.149 C 
HETATM   21  O1  UNL     1     -21.231  -1.362  16.275  1.00  0.00    -0.293 OA
HETATM   22  C6  UNL     1     -20.272   0.164  14.780  1.00  0.00     0.053 C 
HETATM   23  C8  UNL     1     -19.265   1.699  13.133  1.00  0.00     0.035 C 
HETATM   24  C9  UNL     1     -17.876   2.005  12.587  1.00  0.00     0.010 C 
HETATM   25  C17 UNL     1     -18.048   5.009  12.680  1.00  0.00     0.009 C 
HETATM   26  C18 UNL     1     -17.845   6.492  13.015  1.00  0.00     0.047 C 
BRANCH   7  27
HETATM   27  O2  UNL     1     -16.548   7.585  14.746  1.00  0.00    -0.381 OA
HETATM   28  H27 UNL     1     -17.022   8.347  14.351  1.00  0.00     0.211 HD
ENDBRANCH   7  27
ENDBRANCH   5   7
ENDBRANCH   4   5
ENDBRANCH   3   4
ENDBRANCH   1   3
BRANCH   1  29
HETATM   29  C23 UNL     1     -10.736   7.184  13.281  1.00  0.00     0.120 C 
BRANCH  29  30
HETATM   30  C24 UNL     1     -10.058   7.456  14.617  1.00  0.00     0.112 C 
BRANCH  30  31
HETATM   31  C25 UNL     1      -8.642   6.915  14.663  1.00  0.00     0.217 C 
HETATM   32  O6  UNL     1      -7.649   7.624  14.769  1.00  0.00    -0.274 OA
HETATM   33  N1  UNL     1      -8.590   5.539  14.582  1.00  0.00    -0.361 N 
HETATM   34  H34 UNL     1      -9.419   5.051  14.264  1.00  0.00     0.162 HD
BRANCH  33  35
HETATM   35  C26 UNL     1      -7.323   4.844  14.489  1.00  0.00     0.122 C 
BRANCH  35  36
HETATM   36  C27 UNL     1      -7.421   3.571  13.652  1.00  0.00     0.020 C 
BRANCH  36  37
HETATM   37  C28 UNL     1      -6.793   3.677  12.256  1.00  0.00     0.002 C 
BRANCH  37  38
HETATM   38  C29 UNL     1      -5.402   3.047  12.096  1.00  0.00     0.009 C 
BRANCH  38  39
HETATM   39  C30 UNL     1      -4.237   3.941  12.523  1.00  0.00     0.103 C 
BRANCH  39  40
HETATM   40  C31 UNL     1      -3.099   3.972  11.518  1.00  0.00     0.217 C 
HETATM   41  O7  UNL     1      -3.249   3.827  10.311  1.00  0.00    -0.274 OA
HETATM   42  N2  UNL     1      -1.865   4.138  12.112  1.00  0.00    -0.361 N 
HETATM   43  H45 UNL     1      -1.837   4.455  13.075  1.00  0.00     0.162 HD
BRANCH  42  44
HETATM   44  C32 UNL     1      -0.655   4.278  11.324  1.00  0.00     0.127 C 
BRANCH  44  45
HETATM   45  C33 UNL     1       0.247   5.427  11.792  1.00  0.00     0.058 C 
BRANCH  45  46
HETATM   46  C34 UNL     1       0.774   6.265  10.647  1.00  0.00    -0.054 A 
HETATM   47  C35 UNL     1       1.990   5.922  10.031  1.00  0.00     0.010 A 
HETATM   48  C36 UNL     1       2.476   6.662   8.952  1.00  0.00     0.040 A 
HETATM   49  C37 UNL     1       1.745   7.746   8.493  1.00  0.00     0.098 A 
HETATM   50  C38 UNL     1       0.541   8.101   9.098  1.00  0.00     0.099 A 
HETATM   51  C39 UNL     1       0.047   7.369  10.172  1.00  0.00     0.046 A 
BRANCH  49  52
HETATM   52  O8  UNL     1       2.213   8.464   7.430  1.00  0.00    -0.358 OA
HETATM   53  H52 UNL     1       1.536   9.155   7.284  1.00  0.00     0.217 HD
ENDBRANCH  49  52
BRANCH  50  54
HETATM   54  O9  UNL     1      -0.126   9.183   8.592  1.00  0.00    -0.358 OA
HETATM   55  H53 UNL     1      -0.922   9.329   9.131  1.00  0.00     0.217 HD
ENDBRANCH  50  54
ENDBRANCH  45  46
ENDBRANCH  44  45
ENDBRANCH  42  44
ENDBRANCH  39  40
ENDBRANCH  38  39
ENDBRANCH  37  38
ENDBRANCH  36  37
ENDBRANCH  35  36
ENDBRANCH  33  35
ENDBRANCH  30  31
ENDBRANCH  29  30
ENDBRANCH   1  29
TORSDOF 19
ENDMDL
