MODEL 1
REMARK minimizedAffinity -6.96968222
REMARK CNNscore 0.43043673
REMARK CNNaffinity 5.89927816
REMARK  20 active torsions:
REMARK  status: ('A' for Active; 'I' for Inactive)
REMARK    1  A    between atoms: C2_2  and  C18_24 
REMARK    2  A    between atoms: C3_3  and  C4_4 
REMARK    3  A    between atoms: C4_4  and  O2_6 
REMARK    4  A    between atoms: O2_6  and  C5_7 
REMARK    5  A    between atoms: C5_7  and  C6_8 
REMARK    6  A    between atoms: C6_8  and  C7_9 
REMARK    7  A    between atoms: C7_9  and  C8_10 
REMARK    8  A    between atoms: C8_10  and  C9_11 
REMARK    9  A    between atoms: C9_11  and  C10_12 
REMARK   10  A    between atoms: C10_12  and  C11_13 
REMARK   11  A    between atoms: C11_13  and  C12_14 
REMARK       I    between atoms: C12_14  and  N1_16 
REMARK   12  A    between atoms: N1_16  and  C13_17 
REMARK   13  A    between atoms: C18_24  and  C19_25 
REMARK   14  A    between atoms: C21_28  and  C22_29 
REMARK   15  A    between atoms: C22_29  and  C23_30 
REMARK   16  A    between atoms: C24_31  and  C25_32 
REMARK   17  A    between atoms: C25_32  and  C27_34 
REMARK   18  A    between atoms: C27_34  and  O6_36 
REMARK   19  A    between atoms: C29_37  and  O7_38 
REMARK   20  A    between atoms: C30_39  and  O8_40 
ROOT
HETATM    1  C1  UNL     1      -4.890  48.112 -28.553  1.00  0.00     0.043 C 
HETATM    2  C2  UNL     1      -5.611  47.994 -27.236  1.00  0.00    -0.075 C 
HETATM    3  C3  UNL     1      -6.761  47.312 -27.051  1.00  0.00     0.084 C 
ENDROOT
BRANCH   3   4
HETATM    4  C4  UNL     1      -7.558  46.643 -28.111  1.00  0.00     0.283 C 
HETATM    5  O1  UNL     1      -7.260  45.616 -28.693  1.00  0.00    -0.260 OA
BRANCH   4   6
HETATM    6  O2  UNL     1      -8.668  47.397 -28.321  1.00  0.00    -0.318 OA
BRANCH   6   7
HETATM    7  C5  UNL     1      -9.405  47.082 -29.514  1.00  0.00     0.179 C 
BRANCH   7   8
HETATM    8  C6  UNL     1     -10.769  46.501 -29.145  1.00  0.00     0.027 C 
BRANCH   8   9
HETATM    9  C7  UNL     1     -11.948  47.321 -29.673  1.00  0.00     0.002 C 
BRANCH   9  10
HETATM   10  C8  UNL     1     -13.295  46.851 -29.116  1.00  0.00     0.000 C 
BRANCH  10  11
HETATM   11  C9  UNL     1     -13.309  46.703 -27.592  1.00  0.00     0.000 C 
BRANCH  11  12
HETATM   12  C10 UNL     1     -14.651  46.217 -27.042  1.00  0.00     0.009 C 
BRANCH  12  13
HETATM   13  C11 UNL     1     -15.292  45.190 -27.976  1.00  0.00     0.103 C 
BRANCH  13  14
HETATM   14  C12 UNL     1     -16.681  44.785 -27.516  1.00  0.00     0.218 C 
HETATM   15  O3  UNL     1     -17.491  44.204 -28.229  1.00  0.00    -0.274 OA
HETATM   16  N1  UNL     1     -16.952  45.173 -26.221  1.00  0.00    -0.348 N 
HETATM   17  H19 UNL     1     -16.163  45.390 -25.622  1.00  0.00     0.163 HD
BRANCH  16  18
HETATM   18  C13 UNL     1     -18.188  44.755 -25.557  1.00  0.00     0.176 C 
HETATM   19  C14 UNL     1     -19.236  45.871 -25.522  1.00  0.00     0.036 C 
HETATM   20  C15 UNL     1     -18.905  46.913 -24.459  1.00  0.00     0.022 C 
HETATM   21  C16 UNL     1     -18.837  46.235 -23.101  1.00  0.00     0.122 C 
HETATM   22  N2  UNL     1     -17.941  45.104 -23.101  1.00  0.00    -0.359 N 
HETATM   23  C17 UNL     1     -17.808  44.241 -24.157  1.00  0.00     0.240 C 
HETATM   24  H27 UNL     1     -17.692  44.686 -22.212  1.00  0.00     0.162 HD
HETATM   25  O4  UNL     1     -17.243  43.159 -23.985  1.00  0.00    -0.271 OA
ENDBRANCH  16  18
ENDBRANCH  13  14
ENDBRANCH  12  13
ENDBRANCH  11  12
ENDBRANCH  10  11
ENDBRANCH   9  10
ENDBRANCH   8   9
ENDBRANCH   7   8
ENDBRANCH   6   7
ENDBRANCH   4   6
ENDBRANCH   3   4
BRANCH   2  26
HETATM   26  C18 UNL     1      -4.948  48.693 -26.059  1.00  0.00     0.068 C 
BRANCH  26  27
HETATM   27  C19 UNL     1      -3.437  48.920 -26.270  1.00  0.00     0.156 C 
HETATM   28  O5  UNL     1      -2.625  48.486 -25.167  1.00  0.00    -0.382 OA
HETATM   29  C20 UNL     1      -2.752  49.258 -23.974  1.00  0.00     0.175 C 
HETATM   30  C21 UNL     1      -2.350  50.719 -24.193  1.00  0.00     0.044 C 
HETATM   31  C29 UNL     1      -3.181  51.287 -25.358  1.00  0.00     0.155 C 
HETATM   32  C30 UNL     1      -3.098  50.382 -26.599  1.00  0.00     0.176 C 
BRANCH  30  33
HETATM   33  C22 UNL     1      -2.524  51.506 -22.877  1.00  0.00     0.036 C 
BRANCH  33  34
HETATM   34  C23 UNL     1      -1.277  51.555 -22.036  1.00  0.00    -0.030 C 
HETATM   35  C24 UNL     1      -0.502  52.647 -21.920  1.00  0.00    -0.024 C 
BRANCH  35  36
HETATM   36  C25 UNL     1       0.764  52.806 -21.096  1.00  0.00     0.032 C 
HETATM   37  C26 UNL     1       1.496  54.085 -21.536  1.00  0.00     0.017 C 
BRANCH  36  38
HETATM   38  C27 UNL     1       0.618  52.734 -19.552  1.00  0.00     0.121 C 
HETATM   39  C28 UNL     1      -0.496  51.814 -19.056  1.00  0.00     0.040 C 
BRANCH  38  40
HETATM   40  O6  UNL     1       0.347  54.042 -19.032  1.00  0.00    -0.395 OA
HETATM   41  H46 UNL     1       1.117  54.598 -19.237  1.00  0.00     0.210 HD
ENDBRANCH  38  40
ENDBRANCH  36  38
ENDBRANCH  35  36
ENDBRANCH  33  34
ENDBRANCH  30  33
BRANCH  31  42
HETATM   42  O7  UNL     1      -2.717  52.589 -25.723  1.00  0.00    -0.392 OA
HETATM   43  H48 UNL     1      -1.965  52.440 -26.337  1.00  0.00     0.210 HD
ENDBRANCH  31  42
BRANCH  32  44
HETATM   44  O8  UNL     1      -1.747  50.460 -27.102  1.00  0.00    -0.390 OA
HETATM   45  H50 UNL     1      -1.235  49.771 -26.633  1.00  0.00     0.210 HD
ENDBRANCH  32  44
ENDBRANCH  26  27
ENDBRANCH   2  26
TORSDOF 20
ENDMDL
MODEL 2
REMARK minimizedAffinity -7.79826212
REMARK CNNscore 0.425821006
REMARK CNNaffinity 6.58291292
REMARK  20 active torsions:
REMARK  status: ('A' for Active; 'I' for Inactive)
REMARK    1  A    between atoms: C2_2  and  C18_24 
REMARK    2  A    between atoms: C3_3  and  C4_4 
REMARK    3  A    between atoms: C4_4  and  O2_6 
REMARK    4  A    between atoms: O2_6  and  C5_7 
REMARK    5  A    between atoms: C5_7  and  C6_8 
REMARK    6  A    between atoms: C6_8  and  C7_9 
REMARK    7  A    between atoms: C7_9  and  C8_10 
REMARK    8  A    between atoms: C8_10  and  C9_11 
REMARK    9  A    between atoms: C9_11  and  C10_12 
REMARK   10  A    between atoms: C10_12  and  C11_13 
REMARK   11  A    between atoms: C11_13  and  C12_14 
REMARK       I    between atoms: C12_14  and  N1_16 
REMARK   12  A    between atoms: N1_16  and  C13_17 
REMARK   13  A    between atoms: C18_24  and  C19_25 
REMARK   14  A    between atoms: C21_28  and  C22_29 
REMARK   15  A    between atoms: C22_29  and  C23_30 
REMARK   16  A    between atoms: C24_31  and  C25_32 
REMARK   17  A    between atoms: C25_32  and  C27_34 
REMARK   18  A    between atoms: C27_34  and  O6_36 
REMARK   19  A    between atoms: C29_37  and  O7_38 
REMARK   20  A    between atoms: C30_39  and  O8_40 
ROOT
HETATM    1  C1  UNL     1      -2.018  51.721 -21.184  1.00  0.00     0.043 C 
HETATM    2  C2  UNL     1      -0.879  51.964 -22.138  1.00  0.00    -0.075 C 
HETATM    3  C3  UNL     1       0.244  52.647 -21.831  1.00  0.00     0.084 C 
ENDROOT
BRANCH   3   4
HETATM    4  C4  UNL     1       0.515  53.349 -20.551  1.00  0.00     0.283 C 
HETATM    5  O1  UNL     1       1.216  54.334 -20.406  1.00  0.00    -0.260 OA
BRANCH   4   6
HETATM    6  O2  UNL     1      -0.149  52.680 -19.572  1.00  0.00    -0.318 OA
BRANCH   6   7
HETATM    7  C5  UNL     1       0.654  51.774 -18.798  1.00  0.00     0.179 C 
BRANCH   7   8
HETATM    8  C6  UNL     1       1.092  52.447 -17.498  1.00  0.00     0.027 C 
BRANCH   8   9
HETATM    9  C7  UNL     1       0.993  51.537 -16.272  1.00  0.00     0.002 C 
BRANCH   9  10
HETATM   10  C8  UNL     1       2.201  51.663 -15.340  1.00  0.00     0.000 C 
BRANCH  10  11
HETATM   11  C9  UNL     1       2.075  50.833 -14.059  1.00  0.00     0.000 C 
BRANCH  11  12
HETATM   12  C10 UNL     1       1.555  51.635 -12.866  1.00  0.00     0.009 C 
BRANCH  12  13
HETATM   13  C11 UNL     1       0.296  52.421 -13.234  1.00  0.00     0.103 C 
BRANCH  13  14
HETATM   14  C12 UNL     1      -0.666  52.544 -12.066  1.00  0.00     0.218 C 
HETATM   15  O3  UNL     1      -0.804  53.566 -11.404  1.00  0.00    -0.274 OA
HETATM   16  N1  UNL     1      -1.342  51.372 -11.801  1.00  0.00    -0.348 N 
HETATM   17  H19 UNL     1      -1.383  50.679 -12.540  1.00  0.00     0.163 HD
BRANCH  16  18
HETATM   18  C13 UNL     1      -2.408  51.333 -10.800  1.00  0.00     0.176 C 
HETATM   19  C14 UNL     1      -3.786  51.618 -11.405  1.00  0.00     0.036 C 
HETATM   20  C15 UNL     1      -3.975  53.105 -11.685  1.00  0.00     0.022 C 
HETATM   21  C16 UNL     1      -3.817  53.881 -10.389  1.00  0.00     0.122 C 
HETATM   22  N2  UNL     1      -2.578  53.572  -9.716  1.00  0.00    -0.359 N 
HETATM   23  C17 UNL     1      -2.026  52.318  -9.680  1.00  0.00     0.240 C 
HETATM   24  H27 UNL     1      -2.296  54.153  -8.935  1.00  0.00     0.162 HD
HETATM   25  O4  UNL     1      -1.131  52.076  -8.869  1.00  0.00    -0.271 OA
ENDBRANCH  16  18
ENDBRANCH  13  14
ENDBRANCH  12  13
ENDBRANCH  11  12
ENDBRANCH  10  11
ENDBRANCH   9  10
ENDBRANCH   8   9
ENDBRANCH   7   8
ENDBRANCH   6   7
ENDBRANCH   4   6
ENDBRANCH   3   4
BRANCH   2  26
HETATM   26  C18 UNL     1      -1.043  51.363 -23.526  1.00  0.00     0.068 C 
BRANCH  26  27
HETATM   27  C19 UNL     1      -2.205  51.996 -24.319  1.00  0.00     0.156 C 
HETATM   28  O5  UNL     1      -3.460  51.313 -24.156  1.00  0.00    -0.382 OA
HETATM   29  C20 UNL     1      -3.530  50.017 -24.747  1.00  0.00     0.175 C 
HETATM   30  C21 UNL     1      -3.316  50.067 -26.263  1.00  0.00     0.044 C 
HETATM   31  C29 UNL     1      -1.978  50.775 -26.546  1.00  0.00     0.155 C 
HETATM   32  C30 UNL     1      -1.896  52.128 -25.818  1.00  0.00     0.176 C 
BRANCH  30  33
HETATM   33  C22 UNL     1      -3.386  48.639 -26.843  1.00  0.00     0.036 C 
BRANCH  33  34
HETATM   34  C23 UNL     1      -4.757  48.255 -27.331  1.00  0.00    -0.030 C 
HETATM   35  C24 UNL     1      -5.109  48.253 -28.628  1.00  0.00    -0.024 C 
BRANCH  35  36
HETATM   36  C25 UNL     1      -6.453  47.877 -29.227  1.00  0.00     0.032 C 
HETATM   37  C26 UNL     1      -6.329  46.517 -29.935  1.00  0.00     0.017 C 
BRANCH  36  38
HETATM   38  C27 UNL     1      -7.686  47.920 -28.283  1.00  0.00     0.121 C 
HETATM   39  C28 UNL     1      -8.636  46.732 -28.417  1.00  0.00     0.040 C 
BRANCH  38  40
HETATM   40  O6  UNL     1      -8.451  49.103 -28.543  1.00  0.00    -0.395 OA
HETATM   41  H46 UNL     1      -7.884  49.865 -28.334  1.00  0.00     0.210 HD
ENDBRANCH  38  40
ENDBRANCH  36  38
ENDBRANCH  35  36
ENDBRANCH  33  34
ENDBRANCH  30  33
BRANCH  31  42
HETATM   42  O7  UNL     1      -1.818  51.012 -27.947  1.00  0.00    -0.392 OA
HETATM   43  H48 UNL     1      -2.296  51.849 -28.131  1.00  0.00     0.210 HD
ENDBRANCH  31  42
BRANCH  32  44
HETATM   44  O8  UNL     1      -2.861  53.010 -26.432  1.00  0.00    -0.390 OA
HETATM   45  H50 UNL     1      -3.706  52.869 -25.959  1.00  0.00     0.210 HD
ENDBRANCH  32  44
ENDBRANCH  26  27
ENDBRANCH   2  26
TORSDOF 20
ENDMDL
MODEL 3
REMARK minimizedAffinity -7.06090593
REMARK CNNscore 0.384667337
REMARK CNNaffinity 5.844069
REMARK  20 active torsions:
REMARK  status: ('A' for Active; 'I' for Inactive)
REMARK    1  A    between atoms: C2_2  and  C18_24 
REMARK    2  A    between atoms: C3_3  and  C4_4 
REMARK    3  A    between atoms: C4_4  and  O2_6 
REMARK    4  A    between atoms: O2_6  and  C5_7 
REMARK    5  A    between atoms: C5_7  and  C6_8 
REMARK    6  A    between atoms: C6_8  and  C7_9 
REMARK    7  A    between atoms: C7_9  and  C8_10 
REMARK    8  A    between atoms: C8_10  and  C9_11 
REMARK    9  A    between atoms: C9_11  and  C10_12 
REMARK   10  A    between atoms: C10_12  and  C11_13 
REMARK   11  A    between atoms: C11_13  and  C12_14 
REMARK       I    between atoms: C12_14  and  N1_16 
REMARK   12  A    between atoms: N1_16  and  C13_17 
REMARK   13  A    between atoms: C18_24  and  C19_25 
REMARK   14  A    between atoms: C21_28  and  C22_29 
REMARK   15  A    between atoms: C22_29  and  C23_30 
REMARK   16  A    between atoms: C24_31  and  C25_32 
REMARK   17  A    between atoms: C25_32  and  C27_34 
REMARK   18  A    between atoms: C27_34  and  O6_36 
REMARK   19  A    between atoms: C29_37  and  O7_38 
REMARK   20  A    between atoms: C30_39  and  O8_40 
ROOT
HETATM    1  C1  UNL     1      -6.965  47.473 -27.681  1.00  0.00     0.043 C 
HETATM    2  C2  UNL     1      -5.542  47.942 -27.833  1.00  0.00    -0.075 C 
HETATM    3  C3  UNL     1      -4.846  47.911 -28.990  1.00  0.00     0.084 C 
ENDROOT
BRANCH   3   4
HETATM    4  C4  UNL     1      -5.316  47.337 -30.276  1.00  0.00     0.283 C 
HETATM    5  O1  UNL     1      -4.792  47.489 -31.364  1.00  0.00    -0.260 OA
BRANCH   4   6
HETATM    6  O2  UNL     1      -6.445  46.627 -30.015  1.00  0.00    -0.318 OA
BRANCH   6   7
HETATM    7  C5  UNL     1      -6.558  45.379 -30.718  1.00  0.00     0.179 C 
BRANCH   7   8
HETATM    8  C6  UNL     1      -8.007  44.894 -30.688  1.00  0.00     0.027 C 
BRANCH   8   9
HETATM    9  C7  UNL     1      -8.229  43.579 -31.438  1.00  0.00     0.002 C 
BRANCH   9  10
HETATM   10  C8  UNL     1      -8.977  43.768 -32.761  1.00  0.00     0.000 C 
BRANCH  10  11
HETATM   11  C9  UNL     1     -10.475  43.464 -32.666  1.00  0.00     0.000 C 
BRANCH  11  12
HETATM   12  C10 UNL     1     -11.355  44.555 -33.276  1.00  0.00     0.009 C 
BRANCH  12  13
HETATM   13  C11 UNL     1     -10.685  45.191 -34.494  1.00  0.00     0.103 C 
BRANCH  13  14
HETATM   14  C12 UNL     1     -11.574  45.155 -35.723  1.00  0.00     0.218 C 
HETATM   15  O3  UNL     1     -12.069  44.129 -36.175  1.00  0.00    -0.274 OA
HETATM   16  N1  UNL     1     -11.739  46.395 -36.304  1.00  0.00    -0.348 N 
HETATM   17  H19 UNL     1     -11.539  47.209 -35.733  1.00  0.00     0.163 HD
BRANCH  16  18
HETATM   18  C13 UNL     1     -12.670  46.583 -37.418  1.00  0.00     0.176 C 
HETATM   19  C14 UNL     1     -11.996  46.386 -38.779  1.00  0.00     0.036 C 
HETATM   20  C15 UNL     1     -11.147  47.595 -39.160  1.00  0.00     0.022 C 
HETATM   21  C16 UNL     1     -12.029  48.830 -39.202  1.00  0.00     0.122 C 
HETATM   22  N2  UNL     1     -12.775  49.010 -37.979  1.00  0.00    -0.359 N 
HETATM   23  C17 UNL     1     -13.307  47.975 -37.256  1.00  0.00     0.240 C 
HETATM   24  H27 UNL     1     -13.261  49.887 -37.836  1.00  0.00     0.162 HD
HETATM   25  O4  UNL     1     -14.152  48.214 -36.391  1.00  0.00    -0.271 OA
ENDBRANCH  16  18
ENDBRANCH  13  14
ENDBRANCH  12  13
ENDBRANCH  11  12
ENDBRANCH  10  11
ENDBRANCH   9  10
ENDBRANCH   8   9
ENDBRANCH   7   8
ENDBRANCH   6   7
ENDBRANCH   4   6
ENDBRANCH   3   4
BRANCH   2  26
HETATM   26  C18 UNL     1      -4.894  48.495 -26.574  1.00  0.00     0.068 C 
BRANCH  26  27
HETATM   27  C19 UNL     1      -3.429  48.926 -26.794  1.00  0.00     0.156 C 
HETATM   28  O5  UNL     1      -2.547  48.560 -25.720  1.00  0.00    -0.382 OA
HETATM   29  C20 UNL     1      -2.754  49.261 -24.495  1.00  0.00     0.175 C 
HETATM   30  C21 UNL     1      -2.550  50.770 -24.660  1.00  0.00     0.044 C 
HETATM   31  C29 UNL     1      -3.468  51.269 -25.790  1.00  0.00     0.155 C 
HETATM   32  C30 UNL     1      -3.289  50.431 -27.068  1.00  0.00     0.176 C 
BRANCH  30  33
HETATM   33  C22 UNL     1      -2.801  51.476 -23.310  1.00  0.00     0.036 C 
BRANCH  33  34
HETATM   34  C23 UNL     1      -1.588  52.176 -22.762  1.00  0.00    -0.030 C 
HETATM   35  C24 UNL     1      -0.744  51.616 -21.879  1.00  0.00    -0.024 C 
BRANCH  35  36
HETATM   36  C25 UNL     1       0.508  52.226 -21.271  1.00  0.00     0.032 C 
HETATM   37  C26 UNL     1       0.960  53.418 -22.134  1.00  0.00     0.017 C 
BRANCH  36  38
HETATM   38  C27 UNL     1       0.454  52.598 -19.765  1.00  0.00     0.121 C 
HETATM   39  C28 UNL     1      -0.852  52.238 -19.062  1.00  0.00     0.040 C 
BRANCH  38  40
HETATM   40  O6  UNL     1       0.640  54.011 -19.611  1.00  0.00    -0.395 OA
HETATM   41  H46 UNL     1       1.528  54.223 -19.943  1.00  0.00     0.210 HD
ENDBRANCH  38  40
ENDBRANCH  36  38
ENDBRANCH  35  36
ENDBRANCH  33  34
ENDBRANCH  30  33
BRANCH  31  42
HETATM   42  O7  UNL     1      -3.183  52.634 -26.108  1.00  0.00    -0.392 OA
HETATM   43  H48 UNL     1      -2.430  52.609 -26.736  1.00  0.00     0.210 HD
ENDBRANCH  31  42
BRANCH  32  44
HETATM   44  O8  UNL     1      -1.969  50.705 -27.584  1.00  0.00    -0.390 OA
HETATM   45  H50 UNL     1      -1.363  50.071 -27.149  1.00  0.00     0.210 HD
ENDBRANCH  32  44
ENDBRANCH  26  27
ENDBRANCH   2  26
TORSDOF 20
ENDMDL
MODEL 4
REMARK minimizedAffinity -8.05165672
REMARK CNNscore 0.370640486
REMARK CNNaffinity 6.86249113
REMARK  20 active torsions:
REMARK  status: ('A' for Active; 'I' for Inactive)
REMARK    1  A    between atoms: C2_2  and  C18_24 
REMARK    2  A    between atoms: C3_3  and  C4_4 
REMARK    3  A    between atoms: C4_4  and  O2_6 
REMARK    4  A    between atoms: O2_6  and  C5_7 
REMARK    5  A    between atoms: C5_7  and  C6_8 
REMARK    6  A    between atoms: C6_8  and  C7_9 
REMARK    7  A    between atoms: C7_9  and  C8_10 
REMARK    8  A    between atoms: C8_10  and  C9_11 
REMARK    9  A    between atoms: C9_11  and  C10_12 
REMARK   10  A    between atoms: C10_12  and  C11_13 
REMARK   11  A    between atoms: C11_13  and  C12_14 
REMARK       I    between atoms: C12_14  and  N1_16 
REMARK   12  A    between atoms: N1_16  and  C13_17 
REMARK   13  A    between atoms: C18_24  and  C19_25 
REMARK   14  A    between atoms: C21_28  and  C22_29 
REMARK   15  A    between atoms: C22_29  and  C23_30 
REMARK   16  A    between atoms: C24_31  and  C25_32 
REMARK   17  A    between atoms: C25_32  and  C27_34 
REMARK   18  A    between atoms: C27_34  and  O6_36 
REMARK   19  A    between atoms: C29_37  and  O7_38 
REMARK   20  A    between atoms: C30_39  and  O8_40 
ROOT
HETATM    1  C1  UNL     1       1.045  54.064 -23.777  1.00  0.00     0.043 C 
HETATM    2  C2  UNL     1       0.416  52.711 -23.574  1.00  0.00    -0.075 C 
HETATM    3  C3  UNL     1       0.246  52.118 -22.374  1.00  0.00     0.084 C 
ENDROOT
BRANCH   3   4
HETATM    4  C4  UNL     1       0.722  52.641 -21.068  1.00  0.00     0.283 C 
HETATM    5  O1  UNL     1       1.845  53.041 -20.821  1.00  0.00    -0.260 OA
BRANCH   4   6
HETATM    6  O2  UNL     1      -0.320  52.573 -20.199  1.00  0.00    -0.318 OA
BRANCH   6   7
HETATM    7  C5  UNL     1      -0.079  51.791 -19.017  1.00  0.00     0.179 C 
BRANCH   7   8
HETATM    8  C6  UNL     1      -0.670  50.392 -19.190  1.00  0.00     0.027 C 
BRANCH   8   9
HETATM    9  C7  UNL     1      -0.823  49.625 -17.875  1.00  0.00     0.002 C 
BRANCH   9  10
HETATM   10  C8  UNL     1       0.303  49.919 -16.880  1.00  0.00     0.000 C 
BRANCH  10  11
HETATM   11  C9  UNL     1      -0.142  50.766 -15.684  1.00  0.00     0.000 C 
BRANCH  11  12
HETATM   12  C10 UNL     1       0.872  50.778 -14.539  1.00  0.00     0.009 C 
BRANCH  12  13
HETATM   13  C11 UNL     1       0.940  52.154 -13.875  1.00  0.00     0.103 C 
BRANCH  13  14
HETATM   14  C12 UNL     1       0.558  52.102 -12.407  1.00  0.00     0.218 C 
HETATM   15  O3  UNL     1       1.334  51.786 -11.513  1.00  0.00    -0.274 OA
HETATM   16  N1  UNL     1      -0.768  52.411 -12.186  1.00  0.00    -0.348 N 
HETATM   17  H19 UNL     1      -1.257  52.919 -12.915  1.00  0.00     0.163 HD
BRANCH  16  18
HETATM   18  C13 UNL     1      -1.288  52.545 -10.825  1.00  0.00     0.176 C 
HETATM   19  C14 UNL     1      -2.610  51.796 -10.631  1.00  0.00     0.036 C 
HETATM   20  C15 UNL     1      -3.777  52.556 -11.254  1.00  0.00     0.022 C 
HETATM   21  C16 UNL     1      -3.873  53.932 -10.618  1.00  0.00     0.122 C 
HETATM   22  N2  UNL     1      -2.621  54.647 -10.676  1.00  0.00    -0.359 N 
HETATM   23  C17 UNL     1      -1.398  54.050 -10.519  1.00  0.00     0.240 C 
HETATM   24  H27 UNL     1      -2.617  55.632 -10.435  1.00  0.00     0.162 HD
HETATM   25  O4  UNL     1      -0.406  54.751 -10.306  1.00  0.00    -0.271 OA
ENDBRANCH  16  18
ENDBRANCH  13  14
ENDBRANCH  12  13
ENDBRANCH  11  12
ENDBRANCH  10  11
ENDBRANCH   9  10
ENDBRANCH   8   9
ENDBRANCH   7   8
ENDBRANCH   6   7
ENDBRANCH   4   6
ENDBRANCH   3   4
BRANCH   2  26
HETATM   26  C18 UNL     1      -0.062  52.012 -24.838  1.00  0.00     0.068 C 
BRANCH  26  27
HETATM   27  C19 UNL     1      -1.358  52.626 -25.409  1.00  0.00     0.156 C 
HETATM   28  O5  UNL     1      -2.541  52.274 -24.673  1.00  0.00    -0.382 OA
HETATM   29  C20 UNL     1      -2.936  50.907 -24.772  1.00  0.00     0.175 C 
HETATM   30  C21 UNL     1      -3.251  50.506 -26.216  1.00  0.00     0.044 C 
HETATM   31  C29 UNL     1      -2.028  50.834 -27.094  1.00  0.00     0.155 C 
HETATM   32  C30 UNL     1      -1.569  52.288 -26.892  1.00  0.00     0.176 C 
BRANCH  30  33
HETATM   33  C22 UNL     1      -3.655  49.017 -26.264  1.00  0.00     0.036 C 
BRANCH  33  34
HETATM   34  C23 UNL     1      -3.840  48.488 -27.660  1.00  0.00    -0.030 C 
HETATM   35  C24 UNL     1      -5.033  48.137 -28.170  1.00  0.00    -0.024 C 
BRANCH  35  36
HETATM   36  C25 UNL     1      -5.330  47.603 -29.560  1.00  0.00     0.032 C 
HETATM   37  C26 UNL     1      -6.579  46.706 -29.501  1.00  0.00     0.017 C 
BRANCH  36  38
HETATM   38  C27 UNL     1      -5.425  48.641 -30.711  1.00  0.00     0.121 C 
HETATM   39  C28 UNL     1      -5.027  48.110 -32.086  1.00  0.00     0.040 C 
BRANCH  38  40
HETATM   40  O6  UNL     1      -4.570  49.755 -30.426  1.00  0.00    -0.395 OA
HETATM   41  H46 UNL     1      -4.903  50.174 -29.615  1.00  0.00     0.210 HD
ENDBRANCH  38  40
ENDBRANCH  36  38
ENDBRANCH  35  36
ENDBRANCH  33  34
ENDBRANCH  30  33
BRANCH  31  42
HETATM   42  O7  UNL     1      -2.335  50.651 -28.477  1.00  0.00    -0.392 OA
HETATM   43  H48 UNL     1      -2.763  51.485 -28.768  1.00  0.00     0.210 HD
ENDBRANCH  31  42
BRANCH  32  44
HETATM   44  O8  UNL     1      -2.594  53.146 -27.439  1.00  0.00    -0.390 OA
HETATM   45  H50 UNL     1      -3.236  53.307 -26.717  1.00  0.00     0.210 HD
ENDBRANCH  32  44
ENDBRANCH  26  27
ENDBRANCH   2  26
TORSDOF 20
ENDMDL
MODEL 5
REMARK minimizedAffinity -7.63033342
REMARK CNNscore 0.365507662
REMARK CNNaffinity 6.49495173
REMARK  20 active torsions:
REMARK  status: ('A' for Active; 'I' for Inactive)
REMARK    1  A    between atoms: C2_2  and  C18_24 
REMARK    2  A    between atoms: C3_3  and  C4_4 
REMARK    3  A    between atoms: C4_4  and  O2_6 
REMARK    4  A    between atoms: O2_6  and  C5_7 
REMARK    5  A    between atoms: C5_7  and  C6_8 
REMARK    6  A    between atoms: C6_8  and  C7_9 
REMARK    7  A    between atoms: C7_9  and  C8_10 
REMARK    8  A    between atoms: C8_10  and  C9_11 
REMARK    9  A    between atoms: C9_11  and  C10_12 
REMARK   10  A    between atoms: C10_12  and  C11_13 
REMARK   11  A    between atoms: C11_13  and  C12_14 
REMARK       I    between atoms: C12_14  and  N1_16 
REMARK   12  A    between atoms: N1_16  and  C13_17 
REMARK   13  A    between atoms: C18_24  and  C19_25 
REMARK   14  A    between atoms: C21_28  and  C22_29 
REMARK   15  A    between atoms: C22_29  and  C23_30 
REMARK   16  A    between atoms: C24_31  and  C25_32 
REMARK   17  A    between atoms: C25_32  and  C27_34 
REMARK   18  A    between atoms: C27_34  and  O6_36 
REMARK   19  A    between atoms: C29_37  and  O7_38 
REMARK   20  A    between atoms: C30_39  and  O8_40 
ROOT
HETATM    1  C1  UNL     1      -1.513  51.760 -21.268  1.00  0.00     0.043 C 
HETATM    2  C2  UNL     1      -0.545  52.018 -22.392  1.00  0.00    -0.075 C 
HETATM    3  C3  UNL     1       0.553  52.796 -22.292  1.00  0.00     0.084 C 
ENDROOT
BRANCH   3   4
HETATM    4  C4  UNL     1       0.950  53.597 -21.106  1.00  0.00     0.283 C 
HETATM    5  O1  UNL     1       1.605  54.623 -21.119  1.00  0.00    -0.260 OA
BRANCH   4   6
HETATM    6  O2  UNL     1       0.462  52.964 -20.007  1.00  0.00    -0.318 OA
BRANCH   6   7
HETATM    7  C5  UNL     1       1.382  52.850 -18.909  1.00  0.00     0.179 C 
BRANCH   7   8
HETATM    8  C6  UNL     1       0.614  52.601 -17.611  1.00  0.00     0.027 C 
BRANCH   8   9
HETATM    9  C7  UNL     1      -0.142  51.271 -17.592  1.00  0.00     0.002 C 
BRANCH   9  10
HETATM   10  C8  UNL     1       0.608  50.171 -16.836  1.00  0.00     0.000 C 
BRANCH  10  11
HETATM   11  C9  UNL     1      -0.307  49.078 -16.278  1.00  0.00     0.000 C 
BRANCH  11  12
HETATM   12  C10 UNL     1      -0.649  49.270 -14.800  1.00  0.00     0.009 C 
BRANCH  12  13
HETATM   13  C11 UNL     1      -0.795  50.752 -14.454  1.00  0.00     0.103 C 
BRANCH  13  14
HETATM   14  C12 UNL     1      -0.930  50.981 -12.959  1.00  0.00     0.218 C 
HETATM   15  O3  UNL     1      -0.026  50.784 -12.156  1.00  0.00    -0.274 OA
HETATM   16  N1  UNL     1      -2.192  51.399 -12.592  1.00  0.00    -0.348 N 
HETATM   17  H19 UNL     1      -2.782  51.796 -13.315  1.00  0.00     0.163 HD
BRANCH  16  18
HETATM   18  C13 UNL     1      -2.477  51.800 -11.214  1.00  0.00     0.176 C 
HETATM   19  C14 UNL     1      -2.221  50.668 -10.214  1.00  0.00     0.036 C 
HETATM   20  C15 UNL     1      -3.342  49.634 -10.245  1.00  0.00     0.022 C 
HETATM   21  C16 UNL     1      -4.659  50.315  -9.918  1.00  0.00     0.122 C 
HETATM   22  N2  UNL     1      -4.905  51.460 -10.762  1.00  0.00    -0.359 N 
HETATM   23  C17 UNL     1      -3.925  52.322 -11.175  1.00  0.00     0.240 C 
HETATM   24  H27 UNL     1      -5.826  51.883 -10.743  1.00  0.00     0.162 HD
HETATM   25  O4  UNL     1      -4.242  53.413 -11.655  1.00  0.00    -0.271 OA
ENDBRANCH  16  18
ENDBRANCH  13  14
ENDBRANCH  12  13
ENDBRANCH  11  12
ENDBRANCH  10  11
ENDBRANCH   9  10
ENDBRANCH   8   9
ENDBRANCH   7   8
ENDBRANCH   6   7
ENDBRANCH   4   6
ENDBRANCH   3   4
BRANCH   2  26
HETATM   26  C18 UNL     1      -0.860  51.318 -23.705  1.00  0.00     0.068 C 
BRANCH  26  27
HETATM   27  C19 UNL     1      -2.074  51.930 -24.435  1.00  0.00     0.156 C 
HETATM   28  O5  UNL     1      -3.305  51.226 -24.204  1.00  0.00    -0.382 OA
HETATM   29  C20 UNL     1      -3.385  49.929 -24.790  1.00  0.00     0.175 C 
HETATM   30  C21 UNL     1      -3.254  49.981 -26.315  1.00  0.00     0.044 C 
HETATM   31  C29 UNL     1      -1.946  50.711 -26.671  1.00  0.00     0.155 C 
HETATM   32  C30 UNL     1      -1.847  52.066 -25.948  1.00  0.00     0.176 C 
BRANCH  30  33
HETATM   33  C22 UNL     1      -3.331  48.551 -26.890  1.00  0.00     0.036 C 
BRANCH  33  34
HETATM   34  C23 UNL     1      -4.447  48.360 -27.882  1.00  0.00    -0.030 C 
HETATM   35  C24 UNL     1      -5.614  47.766 -27.582  1.00  0.00    -0.024 C 
BRANCH  35  36
HETATM   36  C25 UNL     1      -6.802  47.532 -28.498  1.00  0.00     0.032 C 
HETATM   37  C26 UNL     1      -6.926  46.027 -28.792  1.00  0.00     0.017 C 
BRANCH  36  38
HETATM   38  C27 UNL     1      -8.162  48.144 -28.065  1.00  0.00     0.121 C 
HETATM   39  C28 UNL     1      -9.368  47.229 -28.262  1.00  0.00     0.040 C 
BRANCH  38  40
HETATM   40  O6  UNL     1      -8.413  49.340 -28.815  1.00  0.00    -0.395 OA
HETATM   41  H46 UNL     1      -7.711  49.974 -28.590  1.00  0.00     0.210 HD
ENDBRANCH  38  40
ENDBRANCH  36  38
ENDBRANCH  35  36
ENDBRANCH  33  34
ENDBRANCH  30  33
BRANCH  31  42
HETATM   42  O7  UNL     1      -1.866  50.949 -28.078  1.00  0.00    -0.392 OA
HETATM   43  H48 UNL     1      -2.367  51.778 -28.237  1.00  0.00     0.210 HD
ENDBRANCH  31  42
BRANCH  32  44
HETATM   44  O8  UNL     1      -2.859  52.930 -26.509  1.00  0.00    -0.390 OA
HETATM   45  H50 UNL     1      -3.675  52.776 -25.991  1.00  0.00     0.210 HD
ENDBRANCH  32  44
ENDBRANCH  26  27
ENDBRANCH   2  26
TORSDOF 20
ENDMDL
MODEL 6
REMARK minimizedAffinity -7.9464221
REMARK CNNscore 0.365129888
REMARK CNNaffinity 6.35440207
REMARK  20 active torsions:
REMARK  status: ('A' for Active; 'I' for Inactive)
REMARK    1  A    between atoms: C2_2  and  C18_24 
REMARK    2  A    between atoms: C3_3  and  C4_4 
REMARK    3  A    between atoms: C4_4  and  O2_6 
REMARK    4  A    between atoms: O2_6  and  C5_7 
REMARK    5  A    between atoms: C5_7  and  C6_8 
REMARK    6  A    between atoms: C6_8  and  C7_9 
REMARK    7  A    between atoms: C7_9  and  C8_10 
REMARK    8  A    between atoms: C8_10  and  C9_11 
REMARK    9  A    between atoms: C9_11  and  C10_12 
REMARK   10  A    between atoms: C10_12  and  C11_13 
REMARK   11  A    between atoms: C11_13  and  C12_14 
REMARK       I    between atoms: C12_14  and  N1_16 
REMARK   12  A    between atoms: N1_16  and  C13_17 
REMARK   13  A    between atoms: C18_24  and  C19_25 
REMARK   14  A    between atoms: C21_28  and  C22_29 
REMARK   15  A    between atoms: C22_29  and  C23_30 
REMARK   16  A    between atoms: C24_31  and  C25_32 
REMARK   17  A    between atoms: C25_32  and  C27_34 
REMARK   18  A    between atoms: C27_34  and  O6_36 
REMARK   19  A    between atoms: C29_37  and  O7_38 
REMARK   20  A    between atoms: C30_39  and  O8_40 
ROOT
HETATM    1  C1  UNL     1      -0.234  50.980 -20.527  1.00  0.00     0.043 C 
HETATM    2  C2  UNL     1       0.205  51.992 -19.502  1.00  0.00    -0.075 C 
HETATM    3  C3  UNL     1       0.727  53.202 -19.796  1.00  0.00     0.084 C 
ENDROOT
BRANCH   3   4
HETATM    4  C4  UNL     1       1.044  53.708 -21.155  1.00  0.00     0.283 C 
HETATM    5  O1  UNL     1       1.852  54.578 -21.428  1.00  0.00    -0.260 OA
BRANCH   4   6
HETATM    6  O2  UNL     1       0.255  53.036 -22.033  1.00  0.00    -0.318 OA
BRANCH   6   7
HETATM    7  C5  UNL     1       0.668  53.112 -23.408  1.00  0.00     0.179 C 
BRANCH   7   8
HETATM    8  C6  UNL     1      -0.531  52.873 -24.325  1.00  0.00     0.027 C 
BRANCH   8   9
HETATM    9  C7  UNL     1      -0.412  51.603 -25.171  1.00  0.00     0.002 C 
BRANCH   9  10
HETATM   10  C8  UNL     1      -1.716  50.801 -25.225  1.00  0.00     0.000 C 
BRANCH  10  11
HETATM   11  C9  UNL     1      -1.797  49.845 -26.419  1.00  0.00     0.000 C 
BRANCH  11  12
HETATM   12  C10 UNL     1      -3.120  49.937 -27.180  1.00  0.00     0.009 C 
BRANCH  12  13
HETATM   13  C11 UNL     1      -4.008  48.726 -26.895  1.00  0.00     0.103 C 
BRANCH  13  14
HETATM   14  C12 UNL     1      -4.897  48.376 -28.075  1.00  0.00     0.218 C 
HETATM   15  O3  UNL     1      -4.635  48.669 -29.235  1.00  0.00    -0.274 OA
HETATM   16  N1  UNL     1      -6.054  47.725 -27.700  1.00  0.00    -0.348 N 
HETATM   17  H19 UNL     1      -6.067  47.282 -26.788  1.00  0.00     0.163 HD
BRANCH  16  18
HETATM   18  C13 UNL     1      -6.971  47.189 -28.707  1.00  0.00     0.176 C 
HETATM   19  C14 UNL     1      -6.257  46.301 -29.731  1.00  0.00     0.036 C 
HETATM   20  C15 UNL     1      -5.479  47.134 -30.745  1.00  0.00     0.022 C 
HETATM   21  C16 UNL     1      -6.438  48.069 -31.461  1.00  0.00     0.122 C 
HETATM   22  N2  UNL     1      -7.219  48.860 -30.541  1.00  0.00    -0.359 N 
HETATM   23  C17 UNL     1      -7.699  48.383 -29.350  1.00  0.00     0.240 C 
HETATM   24  H27 UNL     1      -7.764  49.631 -30.910  1.00  0.00     0.162 HD
HETATM   25  O4  UNL     1      -8.576  49.015 -28.756  1.00  0.00    -0.271 OA
ENDBRANCH  16  18
ENDBRANCH  13  14
ENDBRANCH  12  13
ENDBRANCH  11  12
ENDBRANCH  10  11
ENDBRANCH   9  10
ENDBRANCH   8   9
ENDBRANCH   7   8
ENDBRANCH   6   7
ENDBRANCH   4   6
ENDBRANCH   3   4
BRANCH   2  26
HETATM   26  C18 UNL     1       0.008  51.585 -18.050  1.00  0.00     0.068 C 
BRANCH  26  27
HETATM   27  C19 UNL     1      -1.075  50.500 -17.873  1.00  0.00     0.156 C 
HETATM   28  O5  UNL     1      -2.125  50.871 -16.965  1.00  0.00    -0.382 OA
HETATM   29  C20 UNL     1      -1.743  50.962 -15.594  1.00  0.00     0.175 C 
HETATM   30  C21 UNL     1      -1.226  49.624 -15.055  1.00  0.00     0.044 C 
HETATM   31  C29 UNL     1      -0.077  49.142 -15.960  1.00  0.00     0.155 C 
HETATM   32  C30 UNL     1      -0.491  49.146 -17.441  1.00  0.00     0.176 C 
BRANCH  30  33
HETATM   33  C22 UNL     1      -0.813  49.787 -13.577  1.00  0.00     0.036 C 
BRANCH  33  34
HETATM   34  C23 UNL     1      -1.647  50.790 -12.827  1.00  0.00    -0.030 C 
HETATM   35  C24 UNL     1      -2.959  50.631 -12.584  1.00  0.00    -0.024 C 
BRANCH  35  36
HETATM   36  C25 UNL     1      -3.887  51.570 -11.833  1.00  0.00     0.032 C 
HETATM   37  C26 UNL     1      -4.046  51.076 -10.385  1.00  0.00     0.017 C 
BRANCH  36  38
HETATM   38  C27 UNL     1      -3.555  53.086 -11.886  1.00  0.00     0.121 C 
HETATM   39  C28 UNL     1      -3.932  53.869 -10.631  1.00  0.00     0.040 C 
BRANCH  38  40
HETATM   40  O6  UNL     1      -4.246  53.693 -12.986  1.00  0.00    -0.395 OA
HETATM   41  H46 UNL     1      -3.910  53.281 -13.800  1.00  0.00     0.210 HD
ENDBRANCH  38  40
ENDBRANCH  36  38
ENDBRANCH  35  36
ENDBRANCH  33  34
ENDBRANCH  30  33
BRANCH  31  42
HETATM   42  O7  UNL     1       0.318  47.814 -15.611  1.00  0.00    -0.392 OA
HETATM   43  H48 UNL     1      -0.301  47.218 -16.086  1.00  0.00     0.210 HD
ENDBRANCH  31  42
BRANCH  32  44
HETATM   44  O8  UNL     1      -1.489  48.117 -17.615  1.00  0.00    -0.390 OA
HETATM   45  H50 UNL     1      -2.355  48.534 -17.428  1.00  0.00     0.210 HD
ENDBRANCH  32  44
ENDBRANCH  26  27
ENDBRANCH   2  26
TORSDOF 20
ENDMDL
MODEL 7
REMARK minimizedAffinity -7.65544271
REMARK CNNscore 0.316594154
REMARK CNNaffinity 6.19483519
REMARK  20 active torsions:
REMARK  status: ('A' for Active; 'I' for Inactive)
REMARK    1  A    between atoms: C2_2  and  C18_24 
REMARK    2  A    between atoms: C3_3  and  C4_4 
REMARK    3  A    between atoms: C4_4  and  O2_6 
REMARK    4  A    between atoms: O2_6  and  C5_7 
REMARK    5  A    between atoms: C5_7  and  C6_8 
REMARK    6  A    between atoms: C6_8  and  C7_9 
REMARK    7  A    between atoms: C7_9  and  C8_10 
REMARK    8  A    between atoms: C8_10  and  C9_11 
REMARK    9  A    between atoms: C9_11  and  C10_12 
REMARK   10  A    between atoms: C10_12  and  C11_13 
REMARK   11  A    between atoms: C11_13  and  C12_14 
REMARK       I    between atoms: C12_14  and  N1_16 
REMARK   12  A    between atoms: N1_16  and  C13_17 
REMARK   13  A    between atoms: C18_24  and  C19_25 
REMARK   14  A    between atoms: C21_28  and  C22_29 
REMARK   15  A    between atoms: C22_29  and  C23_30 
REMARK   16  A    between atoms: C24_31  and  C25_32 
REMARK   17  A    between atoms: C25_32  and  C27_34 
REMARK   18  A    between atoms: C27_34  and  O6_36 
REMARK   19  A    between atoms: C29_37  and  O7_38 
REMARK   20  A    between atoms: C30_39  and  O8_40 
ROOT
HETATM    1  C1  UNL     1       0.580  52.885 -20.658  1.00  0.00     0.043 C 
HETATM    2  C2  UNL     1      -0.444  51.950 -21.245  1.00  0.00    -0.075 C 
HETATM    3  C3  UNL     1      -1.414  51.336 -20.536  1.00  0.00     0.084 C 
ENDROOT
BRANCH   3   4
HETATM    4  C4  UNL     1      -1.589  51.396 -19.063  1.00  0.00     0.283 C 
HETATM    5  O1  UNL     1      -2.429  52.045 -18.465  1.00  0.00    -0.260 OA
BRANCH   4   6
HETATM    6  O2  UNL     1      -0.631  50.609 -18.507  1.00  0.00    -0.318 OA
BRANCH   6   7
HETATM    7  C5  UNL     1      -0.290  50.928 -17.148  1.00  0.00     0.179 C 
BRANCH   7   8
HETATM    8  C6  UNL     1       0.992  51.758 -17.114  1.00  0.00     0.027 C 
BRANCH   8   9
HETATM    9  C7  UNL     1       1.330  52.308 -15.727  1.00  0.00     0.002 C 
BRANCH   9  10
HETATM   10  C8  UNL     1       0.973  51.335 -14.599  1.00  0.00     0.000 C 
BRANCH  10  11
HETATM   11  C9  UNL     1      -0.244  51.770 -13.778  1.00  0.00     0.000 C 
BRANCH  11  12
HETATM   12  C10 UNL     1       0.117  52.647 -12.578  1.00  0.00     0.009 C 
BRANCH  12  13
HETATM   13  C11 UNL     1       1.460  52.235 -11.975  1.00  0.00     0.103 C 
BRANCH  13  14
HETATM   14  C12 UNL     1       1.985  53.262 -10.988  1.00  0.00     0.218 C 
HETATM   15  O3  UNL     1       2.594  52.972  -9.965  1.00  0.00    -0.274 OA
HETATM   16  N1  UNL     1       1.672  54.557 -11.342  1.00  0.00    -0.348 N 
HETATM   17  H19 UNL     1       1.422  54.730 -12.310  1.00  0.00     0.163 HD
BRANCH  16  18
HETATM   18  C13 UNL     1       2.207  55.690 -10.586  1.00  0.00     0.176 C 
HETATM   19  C14 UNL     1       3.630  56.058 -11.017  1.00  0.00     0.036 C 
HETATM   20  C15 UNL     1       4.653  55.077 -10.453  1.00  0.00     0.022 C 
HETATM   21  C16 UNL     1       4.562  55.078  -8.937  1.00  0.00     0.122 C 
HETATM   22  N2  UNL     1       3.217  54.842  -8.471  1.00  0.00    -0.359 N 
HETATM   23  C17 UNL     1       2.101  55.338  -9.091  1.00  0.00     0.240 C 
HETATM   24  H27 UNL     1       3.074  54.656  -7.484  1.00  0.00     0.162 HD
HETATM   25  O4  UNL     1       1.023  55.330  -8.493  1.00  0.00    -0.271 OA
ENDBRANCH  16  18
ENDBRANCH  13  14
ENDBRANCH  12  13
ENDBRANCH  11  12
ENDBRANCH  10  11
ENDBRANCH   9  10
ENDBRANCH   8   9
ENDBRANCH   7   8
ENDBRANCH   6   7
ENDBRANCH   4   6
ENDBRANCH   3   4
BRANCH   2  26
HETATM   26  C18 UNL     1      -0.348  51.729 -22.747  1.00  0.00     0.068 C 
BRANCH  26  27
HETATM   27  C19 UNL     1      -0.416  53.044 -23.551  1.00  0.00     0.156 C 
HETATM   28  O5  UNL     1      -1.667  53.245 -24.231  1.00  0.00    -0.382 OA
HETATM   29  C20 UNL     1      -1.917  52.360 -25.321  1.00  0.00     0.175 C 
HETATM   30  C21 UNL     1      -0.859  52.492 -26.420  1.00  0.00     0.044 C 
HETATM   31  C29 UNL     1       0.530  52.278 -25.791  1.00  0.00     0.155 C 
HETATM   32  C30 UNL     1       0.733  53.180 -24.561  1.00  0.00     0.176 C 
BRANCH  30  33
HETATM   33  C22 UNL     1      -1.172  51.502 -27.562  1.00  0.00     0.036 C 
BRANCH  33  34
HETATM   34  C23 UNL     1      -2.215  50.479 -27.202  1.00  0.00    -0.030 C 
HETATM   35  C24 UNL     1      -2.103  49.639 -26.159  1.00  0.00    -0.024 C 
BRANCH  35  36
HETATM   36  C25 UNL     1      -3.094  48.582 -25.705  1.00  0.00     0.032 C 
HETATM   37  C26 UNL     1      -3.061  48.483 -24.170  1.00  0.00     0.017 C 
BRANCH  36  38
HETATM   38  C27 UNL     1      -4.548  48.698 -26.239  1.00  0.00     0.121 C 
HETATM   39  C28 UNL     1      -5.619  48.136 -25.308  1.00  0.00     0.040 C 
BRANCH  38  40
HETATM   40  O6  UNL     1      -4.660  47.996 -27.484  1.00  0.00    -0.395 OA
HETATM   41  H46 UNL     1      -4.070  48.436 -28.118  1.00  0.00     0.210 HD
ENDBRANCH  38  40
ENDBRANCH  36  38
ENDBRANCH  35  36
ENDBRANCH  33  34
ENDBRANCH  30  33
BRANCH  31  42
HETATM   42  O7  UNL     1       1.563  52.572 -26.735  1.00  0.00    -0.392 OA
HETATM   43  H48 UNL     1       1.697  53.543 -26.689  1.00  0.00     0.210 HD
ENDBRANCH  31  42
BRANCH  32  44
HETATM   44  O8  UNL     1       0.801  54.544 -25.031  1.00  0.00    -0.390 OA
HETATM   45  H50 UNL     1      -0.120  54.876 -25.055  1.00  0.00     0.210 HD
ENDBRANCH  32  44
ENDBRANCH  26  27
ENDBRANCH   2  26
TORSDOF 20
ENDMDL
MODEL 8
REMARK minimizedAffinity -7.53540611
REMARK CNNscore 0.313158005
REMARK CNNaffinity 7.07846308
REMARK  20 active torsions:
REMARK  status: ('A' for Active; 'I' for Inactive)
REMARK    1  A    between atoms: C2_2  and  C18_24 
REMARK    2  A    between atoms: C3_3  and  C4_4 
REMARK    3  A    between atoms: C4_4  and  O2_6 
REMARK    4  A    between atoms: O2_6  and  C5_7 
REMARK    5  A    between atoms: C5_7  and  C6_8 
REMARK    6  A    between atoms: C6_8  and  C7_9 
REMARK    7  A    between atoms: C7_9  and  C8_10 
REMARK    8  A    between atoms: C8_10  and  C9_11 
REMARK    9  A    between atoms: C9_11  and  C10_12 
REMARK   10  A    between atoms: C10_12  and  C11_13 
REMARK   11  A    between atoms: C11_13  and  C12_14 
REMARK       I    between atoms: C12_14  and  N1_16 
REMARK   12  A    between atoms: N1_16  and  C13_17 
REMARK   13  A    between atoms: C18_24  and  C19_25 
REMARK   14  A    between atoms: C21_28  and  C22_29 
REMARK   15  A    between atoms: C22_29  and  C23_30 
REMARK   16  A    between atoms: C24_31  and  C25_32 
REMARK   17  A    between atoms: C25_32  and  C27_34 
REMARK   18  A    between atoms: C27_34  and  O6_36 
REMARK   19  A    between atoms: C29_37  and  O7_38 
REMARK   20  A    between atoms: C30_39  and  O8_40 
ROOT
HETATM    1  C1  UNL     1      -1.939  47.715 -18.877  1.00  0.00     0.043 C 
HETATM    2  C2  UNL     1      -2.022  47.774 -20.380  1.00  0.00    -0.075 C 
HETATM    3  C3  UNL     1      -2.924  47.098 -21.123  1.00  0.00     0.084 C 
ENDROOT
BRANCH   3   4
HETATM    4  C4  UNL     1      -3.919  46.122 -20.611  1.00  0.00     0.283 C 
HETATM    5  O1  UNL     1      -3.824  44.908 -20.658  1.00  0.00    -0.260 OA
BRANCH   4   6
HETATM    6  O2  UNL     1      -4.958  46.831 -20.099  1.00  0.00    -0.318 OA
BRANCH   6   7
HETATM    7  C5  UNL     1      -5.518  47.818 -20.981  1.00  0.00     0.179 C 
BRANCH   7   8
HETATM    8  C6  UNL     1      -5.905  47.169 -22.309  1.00  0.00     0.027 C 
BRANCH   8   9
HETATM    9  C7  UNL     1      -5.836  48.125 -23.502  1.00  0.00     0.002 C 
BRANCH   9  10
HETATM   10  C8  UNL     1      -4.399  48.451 -23.921  1.00  0.00     0.000 C 
BRANCH  10  11
HETATM   11  C9  UNL     1      -4.288  49.688 -24.817  1.00  0.00     0.000 C 
BRANCH  11  12
HETATM   12  C10 UNL     1      -4.930  50.936 -24.210  1.00  0.00     0.009 C 
BRANCH  12  13
HETATM   13  C11 UNL     1      -3.917  52.075 -24.087  1.00  0.00     0.103 C 
BRANCH  13  14
HETATM   14  C12 UNL     1      -2.927  52.089 -25.237  1.00  0.00     0.218 C 
HETATM   15  O3  UNL     1      -3.010  52.846 -26.197  1.00  0.00    -0.274 OA
HETATM   16  N1  UNL     1      -1.940  51.134 -25.109  1.00  0.00    -0.348 N 
HETATM   17  H19 UNL     1      -1.779  50.749 -24.184  1.00  0.00     0.163 HD
BRANCH  16  18
HETATM   18  C13 UNL     1      -0.820  51.083 -26.049  1.00  0.00     0.176 C 
HETATM   19  C14 UNL     1       0.338  51.991 -25.624  1.00  0.00     0.036 C 
HETATM   20  C15 UNL     1       0.034  53.456 -25.918  1.00  0.00     0.022 C 
HETATM   21  C16 UNL     1      -0.225  53.623 -27.405  1.00  0.00     0.122 C 
HETATM   22  N2  UNL     1      -1.238  52.714 -27.888  1.00  0.00    -0.359 N 
HETATM   23  C17 UNL     1      -1.374  51.425 -27.444  1.00  0.00     0.240 C 
HETATM   24  H27 UNL     1      -1.606  52.855 -28.821  1.00  0.00     0.162 HD
HETATM   25  O4  UNL     1      -2.068  50.635 -28.087  1.00  0.00    -0.271 OA
ENDBRANCH  16  18
ENDBRANCH  13  14
ENDBRANCH  12  13
ENDBRANCH  11  12
ENDBRANCH  10  11
ENDBRANCH   9  10
ENDBRANCH   8   9
ENDBRANCH   7   8
ENDBRANCH   6   7
ENDBRANCH   4   6
ENDBRANCH   3   4
BRANCH   2  26
HETATM   26  C18 UNL     1      -1.011  48.685 -21.059  1.00  0.00     0.068 C 
BRANCH  26  27
HETATM   27  C19 UNL     1      -1.643  49.988 -21.592  1.00  0.00     0.156 C 
HETATM   28  O5  UNL     1      -0.694  50.896 -22.176  1.00  0.00    -0.382 OA
HETATM   29  C20 UNL     1       0.212  51.504 -21.258  1.00  0.00     0.175 C 
HETATM   30  C21 UNL     1      -0.518  52.339 -20.201  1.00  0.00     0.044 C 
HETATM   31  C29 UNL     1      -1.558  51.445 -19.502  1.00  0.00     0.155 C 
HETATM   32  C30 UNL     1      -2.459  50.730 -20.524  1.00  0.00     0.176 C 
BRANCH  30  33
HETATM   33  C22 UNL     1       0.510  52.957 -19.229  1.00  0.00     0.036 C 
BRANCH  33  34
HETATM   34  C23 UNL     1       0.793  52.098 -18.027  1.00  0.00    -0.030 C 
HETATM   35  C24 UNL     1       1.193  52.588 -16.842  1.00  0.00    -0.024 C 
BRANCH  35  36
HETATM   36  C25 UNL     1       1.495  51.817 -15.569  1.00  0.00     0.032 C 
HETATM   37  C26 UNL     1       1.052  50.354 -15.747  1.00  0.00     0.017 C 
BRANCH  36  38
HETATM   38  C27 UNL     1       2.941  51.912 -15.010  1.00  0.00     0.121 C 
HETATM   39  C28 UNL     1       4.008  52.248 -16.048  1.00  0.00     0.040 C 
BRANCH  38  40
HETATM   40  O6  UNL     1       3.310  50.662 -14.414  1.00  0.00    -0.395 OA
HETATM   41  H46 UNL     1       2.707  50.510 -13.667  1.00  0.00     0.210 HD
ENDBRANCH  38  40
ENDBRANCH  36  38
ENDBRANCH  35  36
ENDBRANCH  33  34
ENDBRANCH  30  33
BRANCH  31  42
HETATM   42  O7  UNL     1      -2.391  52.220 -18.637  1.00  0.00    -0.392 OA
HETATM   43  H48 UNL     1      -3.099  52.588 -19.209  1.00  0.00     0.210 HD
ENDBRANCH  31  42
BRANCH  32  44
HETATM   44  O8  UNL     1      -3.277  51.736 -21.158  1.00  0.00    -0.390 OA
HETATM   45  H50 UNL     1      -2.766  52.069 -21.924  1.00  0.00     0.210 HD
ENDBRANCH  32  44
ENDBRANCH  26  27
ENDBRANCH   2  26
TORSDOF 20
ENDMDL
MODEL 9
REMARK minimizedAffinity -8.12210178
REMARK CNNscore 0.287331939
REMARK CNNaffinity 6.54520798
REMARK  20 active torsions:
REMARK  status: ('A' for Active; 'I' for Inactive)
REMARK    1  A    between atoms: C2_2  and  C18_24 
REMARK    2  A    between atoms: C3_3  and  C4_4 
REMARK    3  A    between atoms: C4_4  and  O2_6 
REMARK    4  A    between atoms: O2_6  and  C5_7 
REMARK    5  A    between atoms: C5_7  and  C6_8 
REMARK    6  A    between atoms: C6_8  and  C7_9 
REMARK    7  A    between atoms: C7_9  and  C8_10 
REMARK    8  A    between atoms: C8_10  and  C9_11 
REMARK    9  A    between atoms: C9_11  and  C10_12 
REMARK   10  A    between atoms: C10_12  and  C11_13 
REMARK   11  A    between atoms: C11_13  and  C12_14 
REMARK       I    between atoms: C12_14  and  N1_16 
REMARK   12  A    between atoms: N1_16  and  C13_17 
REMARK   13  A    between atoms: C18_24  and  C19_25 
REMARK   14  A    between atoms: C21_28  and  C22_29 
REMARK   15  A    between atoms: C22_29  and  C23_30 
REMARK   16  A    between atoms: C24_31  and  C25_32 
REMARK   17  A    between atoms: C25_32  and  C27_34 
REMARK   18  A    between atoms: C27_34  and  O6_36 
REMARK   19  A    between atoms: C29_37  and  O7_38 
REMARK   20  A    between atoms: C30_39  and  O8_40 
ROOT
HETATM    1  C1  UNL     1      -0.865  51.226 -22.332  1.00  0.00     0.043 C 
HETATM    2  C2  UNL     1       0.149  52.201 -22.870  1.00  0.00    -0.075 C 
HETATM    3  C3  UNL     1       0.831  53.089 -22.116  1.00  0.00     0.084 C 
ENDROOT
BRANCH   3   4
HETATM    4  C4  UNL     1       0.643  53.325 -20.662  1.00  0.00     0.283 C 
HETATM    5  O1  UNL     1       0.920  54.346 -20.058  1.00  0.00    -0.260 OA
BRANCH   4   6
HETATM    6  O2  UNL     1       0.123  52.189 -20.130  1.00  0.00    -0.318 OA
BRANCH   6   7
HETATM    7  C5  UNL     1      -0.118  52.232 -18.713  1.00  0.00     0.179 C 
BRANCH   7   8
HETATM    8  C6  UNL     1       0.233  50.884 -18.085  1.00  0.00     0.027 C 
BRANCH   8   9
HETATM    9  C7  UNL     1      -0.911  50.267 -17.279  1.00  0.00     0.002 C 
BRANCH   9  10
HETATM   10  C8  UNL     1      -0.419  49.436 -16.090  1.00  0.00     0.000 C 
BRANCH  10  11
HETATM   11  C9  UNL     1       0.811  50.028 -15.396  1.00  0.00     0.000 C 
BRANCH  11  12
HETATM   12  C10 UNL     1       0.491  50.689 -14.055  1.00  0.00     0.009 C 
BRANCH  12  13
HETATM   13  C11 UNL     1      -0.937  50.375 -13.609  1.00  0.00     0.103 C 
BRANCH  13  14
HETATM   14  C12 UNL     1      -1.478  51.412 -12.641  1.00  0.00     0.218 C 
HETATM   15  O3  UNL     1      -2.184  52.354 -12.979  1.00  0.00    -0.274 OA
HETATM   16  N1  UNL     1      -1.060  51.205 -11.343  1.00  0.00    -0.348 N 
HETATM   17  H19 UNL     1      -0.723  50.279 -11.103  1.00  0.00     0.163 HD
BRANCH  16  18
HETATM   18  C13 UNL     1      -1.586  52.021 -10.249  1.00  0.00     0.176 C 
HETATM   19  C14 UNL     1      -2.942  51.517  -9.746  1.00  0.00     0.036 C 
HETATM   20  C15 UNL     1      -4.068  51.903 -10.700  1.00  0.00     0.022 C 
HETATM   21  C16 UNL     1      -4.106  53.414 -10.841  1.00  0.00     0.122 C 
HETATM   22  N2  UNL     1      -2.822  53.960 -11.211  1.00  0.00    -0.359 N 
HETATM   23  C17 UNL     1      -1.629  53.479 -10.740  1.00  0.00     0.240 C 
HETATM   24  H27 UNL     1      -2.775  54.932 -11.495  1.00  0.00     0.162 HD
HETATM   25  O4  UNL     1      -0.608  54.157 -10.877  1.00  0.00    -0.271 OA
ENDBRANCH  16  18
ENDBRANCH  13  14
ENDBRANCH  12  13
ENDBRANCH  11  12
ENDBRANCH  10  11
ENDBRANCH   9  10
ENDBRANCH   8   9
ENDBRANCH   7   8
ENDBRANCH   6   7
ENDBRANCH   4   6
ENDBRANCH   3   4
BRANCH   2  26
HETATM   26  C18 UNL     1       0.399  52.130 -24.368  1.00  0.00     0.068 C 
BRANCH  26  27
HETATM   27  C19 UNL     1      -0.283  53.274 -25.145  1.00  0.00     0.156 C 
HETATM   28  O5  UNL     1      -1.717  53.272 -25.043  1.00  0.00    -0.382 OA
HETATM   29  C20 UNL     1      -2.374  52.193 -25.707  1.00  0.00     0.175 C 
HETATM   30  C21 UNL     1      -2.097  52.196 -27.214  1.00  0.00     0.044 C 
HETATM   31  C29 UNL     1      -0.573  52.186 -27.433  1.00  0.00     0.155 C 
HETATM   32  C30 UNL     1       0.116  53.302 -26.628  1.00  0.00     0.176 C 
BRANCH  30  33
HETATM   33  C22 UNL     1      -2.817  51.002 -27.874  1.00  0.00     0.036 C 
BRANCH  33  34
HETATM   34  C23 UNL     1      -2.971  49.814 -26.964  1.00  0.00    -0.030 C 
HETATM   35  C24 UNL     1      -3.976  49.679 -26.082  1.00  0.00    -0.024 C 
BRANCH  35  36
HETATM   36  C25 UNL     1      -4.229  48.524 -25.129  1.00  0.00     0.032 C 
HETATM   37  C26 UNL     1      -3.154  48.532 -24.028  1.00  0.00     0.017 C 
BRANCH  36  38
HETATM   38  C27 UNL     1      -5.657  48.398 -24.533  1.00  0.00     0.121 C 
HETATM   39  C28 UNL     1      -6.652  47.639 -25.407  1.00  0.00     0.040 C 
BRANCH  38  40
HETATM   40  O6  UNL     1      -6.203  49.705 -24.311  1.00  0.00    -0.395 OA
HETATM   41  H46 UNL     1      -5.639  50.145 -23.653  1.00  0.00     0.210 HD
ENDBRANCH  38  40
ENDBRANCH  36  38
ENDBRANCH  35  36
ENDBRANCH  33  34
ENDBRANCH  30  33
BRANCH  31  42
HETATM   42  O7  UNL     1      -0.259  52.374 -28.815  1.00  0.00    -0.392 OA
HETATM   43  H48 UNL     1      -0.270  53.344 -28.961  1.00  0.00     0.210 HD
ENDBRANCH  31  42
BRANCH  32  44
HETATM   44  O8  UNL     1      -0.283  54.563 -27.209  1.00  0.00    -0.390 OA
HETATM   45  H50 UNL     1      -1.112  54.827 -26.760  1.00  0.00     0.210 HD
ENDBRANCH  32  44
ENDBRANCH  26  27
ENDBRANCH   2  26
TORSDOF 20
ENDMDL
