MODEL 1
REMARK minimizedAffinity -10.1716909
REMARK  8 active torsions:
REMARK  status: ('A' for Active; 'I' for Inactive)
REMARK    1  A    between atoms: C2_2  and  C3_3 
REMARK    2  A    between atoms: C2_2  and  C27_30 
REMARK    3  A    between atoms: C3_3  and  C4_4 
REMARK    4  A    between atoms: C4_4  and  C5_5 
REMARK    5  A    between atoms: C5_5  and  C7_7 
REMARK    6  A    between atoms: C26_28  and  O3_29 
REMARK    7  A    between atoms: C27_30  and  C29_32 
REMARK    8  A    between atoms: C29_32  and  O5_34 
ROOT
HETATM    1  C7  UNL     1       1.136   6.431  11.707  1.00  0.00    -0.002 C 
HETATM    2  C8  UNL     1       1.273   4.932  11.318  1.00  0.00     0.006 C 
HETATM    3  C9  UNL     1      -0.097   4.286  11.573  1.00  0.00     0.010 C 
HETATM    4  C10 UNL     1      -1.031   5.473  11.816  1.00  0.00     0.027 C 
HETATM    5  C11 UNL     1      -2.398   5.273  12.430  1.00  0.00    -0.036 C 
HETATM    6  C12 UNL     1      -3.016   6.279  13.097  1.00  0.00     0.002 C 
HETATM    7  C13 UNL     1      -2.279   7.598  13.267  1.00  0.00     0.157 C 
HETATM    8  O1  UNL     1      -2.792   8.538  13.873  1.00  0.00    -0.293 OA
HETATM    9  C14 UNL     1      -0.896   7.775  12.658  1.00  0.00     0.093 C 
HETATM   10  C15 UNL     1      -0.131   6.454  12.613  1.00  0.00    -0.026 C 
HETATM   11  C16 UNL     1       0.159   5.976  14.055  1.00  0.00     0.016 C 
HETATM   12  C17 UNL     1      -4.429   6.150  13.711  1.00  0.00    -0.008 C 
HETATM   13  C18 UNL     1      -4.228   6.022  15.246  1.00  0.00     0.021 C 
HETATM   14  C19 UNL     1      -5.327   7.396  13.415  1.00  0.00     0.022 C 
HETATM   15  C20 UNL     1      -6.825   7.120  13.274  1.00  0.00     0.080 C 
HETATM   16  C21 UNL     1      -7.262   5.927  14.083  1.00  0.00     0.131 C 
HETATM   17  O2  UNL     1      -8.223   5.988  14.851  1.00  0.00    -0.298 OA
HETATM   18  C22 UNL     1      -6.516   4.622  13.847  1.00  0.00     0.056 C 
HETATM   19  C23 UNL     1      -7.429   3.680  13.063  1.00  0.00     0.018 C 
HETATM   20  C24 UNL     1      -5.177   4.901  13.122  1.00  0.00     0.012 C 
HETATM   21  C25 UNL     1      -4.262   3.669  13.101  1.00  0.00     0.042 C 
HETATM   22  C26 UNL     1      -3.044   3.926  12.215  1.00  0.00     0.148 C 
ENDROOT
BRANCH   1  23
HETATM   23  C5  UNL     1       2.488   7.082  12.110  1.00  0.00    -0.014 C 
HETATM   24  C6  UNL     1       2.451   8.583  12.429  1.00  0.00     0.010 C 
BRANCH  23  25
HETATM   25  C4  UNL     1       3.653   6.829  11.123  1.00  0.00     0.009 C 
BRANCH  25  26
HETATM   26  C3  UNL     1       3.587   7.566   9.773  1.00  0.00     0.034 C 
BRANCH  26  27
HETATM   27  C2  UNL     1       2.882   6.905   8.592  1.00  0.00    -0.075 C 
HETATM   28  C1  UNL     1       2.986   5.592   8.313  1.00  0.00     0.015 C 
BRANCH  27  29
HETATM   29  C27 UNL     1       2.091   7.889   7.718  1.00  0.00     0.107 C 
HETATM   30  C28 UNL     1       1.745   7.394   6.311  1.00  0.00     0.026 C 
BRANCH  29  31
HETATM   31  C29 UNL     1       0.802   8.329   8.413  1.00  0.00     0.147 C 
HETATM   32  O4  UNL     1       0.670   8.815   9.525  1.00  0.00    -0.650 OA
BRANCH  31  33
HETATM   33  O5  UNL     1      -0.288   8.131   7.637  1.00  0.00    -0.776 OA
HETATM   34  H42 UNL     1      -1.033   8.442   8.192  1.00  0.00     0.167 HD
ENDBRANCH  31  33
ENDBRANCH  29  31
ENDBRANCH  27  29
ENDBRANCH  26  27
ENDBRANCH  25  26
ENDBRANCH  23  25
ENDBRANCH   1  23
BRANCH  22  35
HETATM   35  O3  UNL     1      -3.468   3.854  10.856  1.00  0.00    -0.391 OA
HETATM   36  H37 UNL     1      -2.680   3.923  10.292  1.00  0.00     0.210 HD
ENDBRANCH  22  35
TORSDOF 8
ENDMDL
MODEL 2
REMARK minimizedAffinity -10.1475363
REMARK  8 active torsions:
REMARK  status: ('A' for Active; 'I' for Inactive)
REMARK    1  A    between atoms: C2_2  and  C3_3 
REMARK    2  A    between atoms: C2_2  and  C27_30 
REMARK    3  A    between atoms: C3_3  and  C4_4 
REMARK    4  A    between atoms: C4_4  and  C5_5 
REMARK    5  A    between atoms: C5_5  and  C7_7 
REMARK    6  A    between atoms: C26_28  and  O3_29 
REMARK    7  A    between atoms: C27_30  and  C29_32 
REMARK    8  A    between atoms: C29_32  and  O5_34 
ROOT
HETATM    1  C7  UNL     1       1.248   6.922  13.404  1.00  0.00    -0.002 C 
HETATM    2  C8  UNL     1       0.389   8.047  14.048  1.00  0.00     0.006 C 
HETATM    3  C9  UNL     1      -1.074   7.595  13.943  1.00  0.00     0.010 C 
HETATM    4  C10 UNL     1      -0.984   6.129  13.517  1.00  0.00     0.027 C 
HETATM    5  C11 UNL     1      -2.194   5.399  12.982  1.00  0.00    -0.036 C 
HETATM    6  C12 UNL     1      -2.055   4.326  12.163  1.00  0.00     0.002 C 
HETATM    7  C13 UNL     1      -0.655   3.908  11.746  1.00  0.00     0.157 C 
HETATM    8  O1  UNL     1      -0.476   2.949  10.996  1.00  0.00    -0.293 OA
HETATM    9  C14 UNL     1       0.551   4.665  12.280  1.00  0.00     0.093 C 
HETATM   10  C15 UNL     1       0.220   6.134  12.539  1.00  0.00    -0.026 C 
HETATM   11  C16 UNL     1      -0.092   6.838  11.197  1.00  0.00     0.016 C 
HETATM   12  C17 UNL     1      -3.251   3.514  11.615  1.00  0.00    -0.008 C 
HETATM   13  C18 UNL     1      -3.405   3.915  10.122  1.00  0.00     0.021 C 
HETATM   14  C19 UNL     1      -3.021   1.970  11.708  1.00  0.00     0.022 C 
HETATM   15  C20 UNL     1      -4.272   1.121  11.932  1.00  0.00     0.080 C 
HETATM   16  C21 UNL     1      -5.507   1.765  11.356  1.00  0.00     0.131 C 
HETATM   17  O2  UNL     1      -6.268   1.145  10.612  1.00  0.00    -0.298 OA
HETATM   18  C22 UNL     1      -5.814   3.187  11.800  1.00  0.00     0.056 C 
HETATM   19  C23 UNL     1      -7.003   3.146  12.759  1.00  0.00     0.018 C 
HETATM   20  C24 UNL     1      -4.556   3.828  12.432  1.00  0.00     0.012 C 
HETATM   21  C25 UNL     1      -4.721   5.339  12.648  1.00  0.00     0.042 C 
HETATM   22  C26 UNL     1      -3.542   5.894  13.446  1.00  0.00     0.148 C 
ENDROOT
BRANCH   1  23
HETATM   23  C5  UNL     1       2.612   7.432  12.861  1.00  0.00    -0.014 C 
HETATM   24  C6  UNL     1       3.534   8.120  13.878  1.00  0.00     0.010 C 
BRANCH  23  25
HETATM   25  C4  UNL     1       2.518   8.336  11.608  1.00  0.00     0.009 C 
BRANCH  25  26
HETATM   26  C3  UNL     1       3.472   8.007  10.447  1.00  0.00     0.034 C 
BRANCH  26  27
HETATM   27  C2  UNL     1       3.937   6.568  10.244  1.00  0.00    -0.075 C 
HETATM   28  C1  UNL     1       5.115   6.103  10.702  1.00  0.00     0.015 C 
BRANCH  27  29
HETATM   29  C27 UNL     1       2.962   5.716   9.419  1.00  0.00     0.107 C 
HETATM   30  C28 UNL     1       2.543   6.308   8.070  1.00  0.00     0.026 C 
BRANCH  29  31
HETATM   31  C29 UNL     1       3.520   4.312   9.184  1.00  0.00     0.147 C 
HETATM   32  O4  UNL     1       4.283   3.938   8.307  1.00  0.00    -0.650 OA
BRANCH  31  33
HETATM   33  O5  UNL     1       3.075   3.426  10.104  1.00  0.00    -0.776 OA
HETATM   34  H42 UNL     1       3.495   2.581   9.840  1.00  0.00     0.167 HD
ENDBRANCH  31  33
ENDBRANCH  29  31
ENDBRANCH  27  29
ENDBRANCH  26  27
ENDBRANCH  25  26
ENDBRANCH  23  25
ENDBRANCH   1  23
BRANCH  22  35
HETATM   35  O3  UNL     1      -3.710   5.503  14.805  1.00  0.00    -0.391 OA
HETATM   36  H37 UNL     1      -3.014   5.933  15.329  1.00  0.00     0.210 HD
ENDBRANCH  22  35
TORSDOF 8
ENDMDL
MODEL 3
REMARK minimizedAffinity -9.93168926
REMARK  8 active torsions:
REMARK  status: ('A' for Active; 'I' for Inactive)
REMARK    1  A    between atoms: C2_2  and  C3_3 
REMARK    2  A    between atoms: C2_2  and  C27_30 
REMARK    3  A    between atoms: C3_3  and  C4_4 
REMARK    4  A    between atoms: C4_4  and  C5_5 
REMARK    5  A    between atoms: C5_5  and  C7_7 
REMARK    6  A    between atoms: C26_28  and  O3_29 
REMARK    7  A    between atoms: C27_30  and  C29_32 
REMARK    8  A    between atoms: C29_32  and  O5_34 
ROOT
HETATM    1  C7  UNL     1       1.224   6.672  11.840  1.00  0.00    -0.002 C 
HETATM    2  C8  UNL     1       1.442   5.182  11.452  1.00  0.00     0.006 C 
HETATM    3  C9  UNL     1       0.097   4.473  11.661  1.00  0.00     0.010 C 
HETATM    4  C10 UNL     1      -0.899   5.615  11.877  1.00  0.00     0.027 C 
HETATM    5  C11 UNL     1      -2.274   5.350  12.446  1.00  0.00    -0.036 C 
HETATM    6  C12 UNL     1      -2.959   6.325  13.096  1.00  0.00     0.002 C 
HETATM    7  C13 UNL     1      -2.289   7.675  13.292  1.00  0.00     0.157 C 
HETATM    8  O1  UNL     1      -2.864   8.588  13.884  1.00  0.00    -0.293 OA
HETATM    9  C14 UNL     1      -0.897   7.918  12.728  1.00  0.00     0.093 C 
HETATM   10  C15 UNL     1      -0.071   6.633  12.705  1.00  0.00    -0.026 C 
HETATM   11  C16 UNL     1       0.195   6.164  14.154  1.00  0.00     0.016 C 
HETATM   12  C17 UNL     1      -4.383   6.129  13.664  1.00  0.00    -0.008 C 
HETATM   13  C18 UNL     1      -4.225   6.004  15.204  1.00  0.00     0.021 C 
HETATM   14  C19 UNL     1      -5.328   7.332  13.343  1.00  0.00     0.022 C 
HETATM   15  C20 UNL     1      -6.806   6.988  13.152  1.00  0.00     0.080 C 
HETATM   16  C21 UNL     1      -7.213   5.774  13.945  1.00  0.00     0.131 C 
HETATM   17  O2  UNL     1      -8.200   5.788  14.682  1.00  0.00    -0.298 OA
HETATM   18  C22 UNL     1      -6.401   4.505  13.730  1.00  0.00     0.056 C 
HETATM   19  C23 UNL     1      -7.244   3.525  12.915  1.00  0.00     0.018 C 
HETATM   20  C24 UNL     1      -5.054   4.848  13.049  1.00  0.00     0.012 C 
HETATM   21  C25 UNL     1      -4.083   3.659  13.054  1.00  0.00     0.042 C 
HETATM   22  C26 UNL     1      -2.850   3.976  12.208  1.00  0.00     0.148 C 
ENDROOT
BRANCH   1  23
HETATM   23  C5  UNL     1       2.531   7.383  12.287  1.00  0.00    -0.014 C 
HETATM   24  C6  UNL     1       2.482   8.916  12.352  1.00  0.00     0.010 C 
BRANCH  23  25
HETATM   25  C4  UNL     1       3.798   6.975  11.496  1.00  0.00     0.009 C 
BRANCH  25  26
HETATM   26  C3  UNL     1       3.572   6.265  10.150  1.00  0.00     0.034 C 
BRANCH  26  27
HETATM   27  C2  UNL     1       3.200   7.089   8.921  1.00  0.00    -0.075 C 
HETATM   28  C1  UNL     1       3.520   8.390   8.781  1.00  0.00     0.015 C 
BRANCH  27  29
HETATM   29  C27 UNL     1       2.375   6.312   7.885  1.00  0.00     0.107 C 
HETATM   30  C28 UNL     1       2.008   7.086   6.616  1.00  0.00     0.026 C 
BRANCH  29  31
HETATM   31  C29 UNL     1       3.078   5.016   7.482  1.00  0.00     0.147 C 
HETATM   32  O4  UNL     1       3.771   4.285   8.171  1.00  0.00    -0.650 OA
BRANCH  31  33
HETATM   33  O5  UNL     1       2.855   4.697   6.187  1.00  0.00    -0.776 OA
HETATM   34  H42 UNL     1       3.358   3.866   6.058  1.00  0.00     0.167 HD
ENDBRANCH  31  33
ENDBRANCH  29  31
ENDBRANCH  27  29
ENDBRANCH  26  27
ENDBRANCH  25  26
ENDBRANCH  23  25
ENDBRANCH   1  23
BRANCH  22  35
HETATM   35  O3  UNL     1      -3.227   3.890  10.836  1.00  0.00    -0.391 OA
HETATM   36  H37 UNL     1      -2.425   3.997  10.298  1.00  0.00     0.210 HD
ENDBRANCH  22  35
TORSDOF 8
ENDMDL
MODEL 4
REMARK minimizedAffinity -9.52510452
REMARK  8 active torsions:
REMARK  status: ('A' for Active; 'I' for Inactive)
REMARK    1  A    between atoms: C2_2  and  C3_3 
REMARK    2  A    between atoms: C2_2  and  C27_30 
REMARK    3  A    between atoms: C3_3  and  C4_4 
REMARK    4  A    between atoms: C4_4  and  C5_5 
REMARK    5  A    between atoms: C5_5  and  C7_7 
REMARK    6  A    between atoms: C26_28  and  O3_29 
REMARK    7  A    between atoms: C27_30  and  C29_32 
REMARK    8  A    between atoms: C29_32  and  O5_34 
ROOT
HETATM    1  C7  UNL     1      -5.931   6.411  13.477  1.00  0.00    -0.002 C 
HETATM    2  C8  UNL     1      -5.967   7.854  14.056  1.00  0.00     0.006 C 
HETATM    3  C9  UNL     1      -4.546   8.418  13.915  1.00  0.00     0.010 C 
HETATM    4  C10 UNL     1      -3.830   7.410  13.015  1.00  0.00     0.027 C 
HETATM    5  C11 UNL     1      -2.324   7.409  12.893  1.00  0.00    -0.036 C 
HETATM    6  C12 UNL     1      -1.654   6.284  12.537  1.00  0.00     0.002 C 
HETATM    7  C13 UNL     1      -2.447   5.005  12.319  1.00  0.00     0.157 C 
HETATM    8  O1  UNL     1      -1.885   3.957  12.005  1.00  0.00    -0.293 OA
HETATM    9  C14 UNL     1      -3.961   5.021  12.463  1.00  0.00     0.093 C 
HETATM   10  C15 UNL     1      -4.414   6.055  13.493  1.00  0.00    -0.026 C 
HETATM   11  C16 UNL     1      -3.915   5.640  14.896  1.00  0.00     0.016 C 
HETATM   12  C17 UNL     1      -0.119   6.229  12.356  1.00  0.00    -0.008 C 
HETATM   13  C18 UNL     1       0.440   5.483  13.599  1.00  0.00     0.021 C 
HETATM   14  C19 UNL     1       0.305   5.459  11.063  1.00  0.00     0.022 C 
HETATM   15  C20 UNL     1       1.588   5.945  10.388  1.00  0.00     0.080 C 
HETATM   16  C21 UNL     1       2.553   6.554  11.372  1.00  0.00     0.131 C 
HETATM   17  O2  UNL     1       3.732   6.203  11.418  1.00  0.00    -0.298 OA
HETATM   18  C22 UNL     1       2.025   7.679  12.250  1.00  0.00     0.056 C 
HETATM   19  C23 UNL     1       2.619   8.997  11.754  1.00  0.00     0.018 C 
HETATM   20  C24 UNL     1       0.477   7.678  12.238  1.00  0.00     0.012 C 
HETATM   21  C25 UNL     1      -0.111   8.606  13.309  1.00  0.00     0.042 C 
HETATM   22  C26 UNL     1      -1.625   8.724  13.137  1.00  0.00     0.148 C 
ENDROOT
BRANCH   1  23
HETATM   23  C5  UNL     1      -7.033   5.489  14.069  1.00  0.00    -0.014 C 
HETATM   24  C6  UNL     1      -7.526   4.352  13.163  1.00  0.00     0.010 C 
BRANCH  23  25
HETATM   25  C4  UNL     1      -8.271   6.231  14.628  1.00  0.00     0.009 C 
BRANCH  25  26
HETATM   26  C3  UNL     1      -9.425   6.487  13.643  1.00  0.00     0.034 C 
BRANCH  26  27
HETATM   27  C2  UNL     1     -10.367   7.663  13.882  1.00  0.00    -0.075 C 
HETATM   28  C1  UNL     1     -10.135   8.618  14.802  1.00  0.00     0.015 C 
BRANCH  27  29
HETATM   29  C27 UNL     1     -11.634   7.623  13.015  1.00  0.00     0.107 C 
HETATM   30  C28 UNL     1     -12.821   6.859  13.611  1.00  0.00     0.026 C 
BRANCH  29  31
HETATM   31  C29 UNL     1     -12.096   9.033  12.649  1.00  0.00     0.147 C 
HETATM   32  O4  UNL     1     -12.814   9.784  13.290  1.00  0.00    -0.650 OA
BRANCH  31  33
HETATM   33  O5  UNL     1     -11.604   9.437  11.456  1.00  0.00    -0.776 OA
HETATM   34  H42 UNL     1     -11.974  10.337  11.340  1.00  0.00     0.167 HD
ENDBRANCH  31  33
ENDBRANCH  29  31
ENDBRANCH  27  29
ENDBRANCH  26  27
ENDBRANCH  25  26
ENDBRANCH  23  25
ENDBRANCH   1  23
BRANCH  22  35
HETATM   35  O3  UNL     1      -1.874   9.568  12.017  1.00  0.00    -0.391 OA
HETATM   36  H37 UNL     1      -2.832   9.721  11.964  1.00  0.00     0.210 HD
ENDBRANCH  22  35
TORSDOF 8
ENDMDL
MODEL 5
REMARK minimizedAffinity -9.35659122
REMARK  8 active torsions:
REMARK  status: ('A' for Active; 'I' for Inactive)
REMARK    1  A    between atoms: C2_2  and  C3_3 
REMARK    2  A    between atoms: C2_2  and  C27_30 
REMARK    3  A    between atoms: C3_3  and  C4_4 
REMARK    4  A    between atoms: C4_4  and  C5_5 
REMARK    5  A    between atoms: C5_5  and  C7_7 
REMARK    6  A    between atoms: C26_28  and  O3_29 
REMARK    7  A    between atoms: C27_30  and  C29_32 
REMARK    8  A    between atoms: C29_32  and  O5_34 
ROOT
HETATM    1  C7  UNL     1       1.044   6.972  13.569  1.00  0.00    -0.002 C 
HETATM    2  C8  UNL     1       0.151   8.065  14.221  1.00  0.00     0.006 C 
HETATM    3  C9  UNL     1      -1.300   7.579  14.094  1.00  0.00     0.010 C 
HETATM    4  C10 UNL     1      -1.168   6.122  13.645  1.00  0.00     0.027 C 
HETATM    5  C11 UNL     1      -2.354   5.371  13.084  1.00  0.00    -0.036 C 
HETATM    6  C12 UNL     1      -2.180   4.316  12.249  1.00  0.00     0.002 C 
HETATM    7  C13 UNL     1      -0.765   3.939  11.841  1.00  0.00     0.157 C 
HETATM    8  O1  UNL     1      -0.554   2.998  11.078  1.00  0.00    -0.293 OA
HETATM    9  C14 UNL     1       0.416   4.718  12.401  1.00  0.00     0.093 C 
HETATM   10  C15 UNL     1       0.045   6.173  12.680  1.00  0.00    -0.026 C 
HETATM   11  C16 UNL     1      -0.269   6.891  11.346  1.00  0.00     0.016 C 
HETATM   12  C17 UNL     1      -3.349   3.483  11.675  1.00  0.00    -0.008 C 
HETATM   13  C18 UNL     1      -3.496   3.905  10.188  1.00  0.00     0.021 C 
HETATM   14  C19 UNL     1      -3.081   1.944  11.746  1.00  0.00     0.022 C 
HETATM   15  C20 UNL     1      -4.313   1.061  11.942  1.00  0.00     0.080 C 
HETATM   16  C21 UNL     1      -5.557   1.683  11.363  1.00  0.00     0.131 C 
HETATM   17  O2  UNL     1      -6.294   1.056  10.601  1.00  0.00    -0.298 OA
HETATM   18  C22 UNL     1      -5.905   3.089  11.827  1.00  0.00     0.056 C 
HETATM   19  C23 UNL     1      -7.103   3.003  12.772  1.00  0.00     0.018 C 
HETATM   20  C24 UNL     1      -4.670   3.752  12.483  1.00  0.00     0.012 C 
HETATM   21  C25 UNL     1      -4.875   5.254  12.722  1.00  0.00     0.042 C 
HETATM   22  C26 UNL     1      -3.719   5.825  13.541  1.00  0.00     0.148 C 
ENDROOT
BRANCH   1  23
HETATM   23  C5  UNL     1       2.400   7.525  13.050  1.00  0.00    -0.014 C 
HETATM   24  C6  UNL     1       3.402   7.984  14.119  1.00  0.00     0.010 C 
BRANCH  23  25
HETATM   25  C4  UNL     1       2.284   8.644  11.987  1.00  0.00     0.009 C 
BRANCH  25  26
HETATM   26  C3  UNL     1       2.633   8.260  10.538  1.00  0.00     0.034 C 
BRANCH  26  27
HETATM   27  C2  UNL     1       3.707   7.206  10.281  1.00  0.00    -0.075 C 
HETATM   28  C1  UNL     1       3.429   5.902  10.094  1.00  0.00     0.015 C 
BRANCH  27  29
HETATM   29  C27 UNL     1       5.137   7.764  10.314  1.00  0.00     0.107 C 
HETATM   30  C28 UNL     1       5.297   9.139  10.970  1.00  0.00     0.026 C 
BRANCH  29  31
HETATM   31  C29 UNL     1       6.095   6.784  10.991  1.00  0.00     0.147 C 
HETATM   32  O4  UNL     1       7.207   6.438  10.626  1.00  0.00    -0.650 OA
BRANCH  31  33
HETATM   33  O5  UNL     1       5.583   6.282  12.138  1.00  0.00    -0.776 OA
HETATM   34  H42 UNL     1       6.280   5.675  12.462  1.00  0.00     0.167 HD
ENDBRANCH  31  33
ENDBRANCH  29  31
ENDBRANCH  27  29
ENDBRANCH  26  27
ENDBRANCH  25  26
ENDBRANCH  23  25
ENDBRANCH   1  23
BRANCH  22  35
HETATM   35  O3  UNL     1      -3.891   5.407  14.892  1.00  0.00    -0.391 OA
HETATM   36  H37 UNL     1      -3.212   5.846  15.431  1.00  0.00     0.210 HD
ENDBRANCH  22  35
TORSDOF 8
ENDMDL
MODEL 6
REMARK minimizedAffinity -9.28562355
REMARK  8 active torsions:
REMARK  status: ('A' for Active; 'I' for Inactive)
REMARK    1  A    between atoms: C2_2  and  C3_3 
REMARK    2  A    between atoms: C2_2  and  C27_30 
REMARK    3  A    between atoms: C3_3  and  C4_4 
REMARK    4  A    between atoms: C4_4  and  C5_5 
REMARK    5  A    between atoms: C5_5  and  C7_7 
REMARK    6  A    between atoms: C26_28  and  O3_29 
REMARK    7  A    between atoms: C27_30  and  C29_32 
REMARK    8  A    between atoms: C29_32  and  O5_34 
ROOT
HETATM    1  C7  UNL     1      -2.301   5.470  12.721  1.00  0.00    -0.002 C 
HETATM    2  C8  UNL     1      -2.896   4.166  12.118  1.00  0.00     0.006 C 
HETATM    3  C9  UNL     1      -4.403   4.197  12.412  1.00  0.00     0.010 C 
HETATM    4  C10 UNL     1      -4.660   5.621  12.905  1.00  0.00     0.027 C 
HETATM    5  C11 UNL     1      -5.946   5.979  13.614  1.00  0.00    -0.036 C 
HETATM    6  C12 UNL     1      -6.002   7.030  14.470  1.00  0.00     0.002 C 
HETATM    7  C13 UNL     1      -4.726   7.808  14.749  1.00  0.00     0.157 C 
HETATM    8  O1  UNL     1      -4.722   8.762  15.525  1.00  0.00    -0.293 OA
HETATM    9  C14 UNL     1      -3.436   7.422  14.040  1.00  0.00     0.093 C 
HETATM   10  C15 UNL     1      -3.388   5.925  13.739  1.00  0.00    -0.026 C 
HETATM   11  C16 UNL     1      -3.329   5.134  15.067  1.00  0.00     0.016 C 
HETATM   12  C17 UNL     1      -7.296   7.470  15.194  1.00  0.00    -0.008 C 
HETATM   13  C18 UNL     1      -7.148   7.008  16.670  1.00  0.00     0.021 C 
HETATM   14  C19 UNL     1      -7.504   9.019  15.161  1.00  0.00     0.022 C 
HETATM   15  C20 UNL     1      -8.956   9.496  15.127  1.00  0.00     0.080 C 
HETATM   16  C21 UNL     1      -9.890   8.525  15.803  1.00  0.00     0.131 C 
HETATM   17  O2  UNL     1     -10.691   8.896  16.661  1.00  0.00    -0.298 OA
HETATM   18  C22 UNL     1      -9.854   7.083  15.318  1.00  0.00     0.056 C 
HETATM   19  C23 UNL     1     -11.119   6.818  14.503  1.00  0.00     0.018 C 
HETATM   20  C24 UNL     1      -8.557   6.827  14.513  1.00  0.00     0.012 C 
HETATM   21  C25 UNL     1      -8.335   5.334  14.234  1.00  0.00     0.042 C 
HETATM   22  C26 UNL     1      -7.157   5.142  13.279  1.00  0.00     0.148 C 
ENDROOT
BRANCH   1  23
HETATM   23  C5  UNL     1      -0.794   5.343  13.078  1.00  0.00    -0.014 C 
HETATM   24  C6  UNL     1      -0.181   6.509  13.867  1.00  0.00     0.010 C 
BRANCH  23  25
HETATM   25  C4  UNL     1       0.136   5.032  11.879  1.00  0.00     0.009 C 
BRANCH  25  26
HETATM   26  C3  UNL     1       1.394   5.906  11.737  1.00  0.00     0.034 C 
BRANCH  26  27
HETATM   27  C2  UNL     1       1.570   6.768  10.491  1.00  0.00    -0.075 C 
HETATM   28  C1  UNL     1       1.175   8.053  10.421  1.00  0.00     0.015 C 
BRANCH  27  29
HETATM   29  C27 UNL     1       2.188   6.015   9.304  1.00  0.00     0.107 C 
HETATM   30  C28 UNL     1       2.518   6.869   8.076  1.00  0.00     0.026 C 
BRANCH  29  31
HETATM   31  C29 UNL     1       3.448   5.259   9.726  1.00  0.00     0.147 C 
HETATM   32  O4  UNL     1       4.521   5.719  10.085  1.00  0.00    -0.650 OA
BRANCH  31  33
HETATM   33  O5  UNL     1       3.279   3.918   9.678  1.00  0.00    -0.776 OA
HETATM   34  H42 UNL     1       4.146   3.561   9.961  1.00  0.00     0.167 HD
ENDBRANCH  31  33
ENDBRANCH  29  31
ENDBRANCH  27  29
ENDBRANCH  26  27
ENDBRANCH  25  26
ENDBRANCH  23  25
ENDBRANCH   1  23
BRANCH  22  35
HETATM   35  O3  UNL     1      -7.592   5.503  11.971  1.00  0.00    -0.391 OA
HETATM   36  H37 UNL     1      -6.876   5.292  11.348  1.00  0.00     0.210 HD
ENDBRANCH  22  35
TORSDOF 8
ENDMDL
MODEL 7
REMARK minimizedAffinity -9.21047783
REMARK  8 active torsions:
REMARK  status: ('A' for Active; 'I' for Inactive)
REMARK    1  A    between atoms: C2_2  and  C3_3 
REMARK    2  A    between atoms: C2_2  and  C27_30 
REMARK    3  A    between atoms: C3_3  and  C4_4 
REMARK    4  A    between atoms: C4_4  and  C5_5 
REMARK    5  A    between atoms: C5_5  and  C7_7 
REMARK    6  A    between atoms: C26_28  and  O3_29 
REMARK    7  A    between atoms: C27_30  and  C29_32 
REMARK    8  A    between atoms: C29_32  and  O5_34 
ROOT
HETATM    1  C7  UNL     1      -0.707  10.428  18.163  1.00  0.00    -0.002 C 
HETATM    2  C8  UNL     1      -2.228  10.502  18.480  1.00  0.00     0.006 C 
HETATM    3  C9  UNL     1      -2.922   9.524  17.520  1.00  0.00     0.010 C 
HETATM    4  C10 UNL     1      -1.773   8.727  16.901  1.00  0.00     0.027 C 
HETATM    5  C11 UNL     1      -1.987   7.889  15.662  1.00  0.00    -0.036 C 
HETATM    6  C12 UNL     1      -0.955   7.595  14.831  1.00  0.00     0.002 C 
HETATM    7  C13 UNL     1       0.415   8.177  15.142  1.00  0.00     0.157 C 
HETATM    8  O1  UNL     1       1.380   7.950  14.414  1.00  0.00    -0.293 OA
HETATM    9  C14 UNL     1       0.608   9.034  16.384  1.00  0.00     0.093 C 
HETATM   10  C15 UNL     1      -0.665   9.801  16.738  1.00  0.00    -0.026 C 
HETATM   11  C16 UNL     1      -0.975  10.830  15.626  1.00  0.00     0.016 C 
HETATM   12  C17 UNL     1      -1.102   6.710  13.572  1.00  0.00    -0.008 C 
HETATM   13  C18 UNL     1      -1.061   7.673  12.355  1.00  0.00     0.021 C 
HETATM   14  C19 UNL     1       0.053   5.664  13.436  1.00  0.00     0.022 C 
HETATM   15  C20 UNL     1      -0.322   4.339  12.772  1.00  0.00     0.080 C 
HETATM   16  C21 UNL     1      -1.449   4.497  11.785  1.00  0.00     0.131 C 
HETATM   17  O2  UNL     1      -1.365   4.058  10.637  1.00  0.00    -0.298 OA
HETATM   18  C22 UNL     1      -2.727   5.149  12.294  1.00  0.00     0.056 C 
HETATM   19  C23 UNL     1      -3.795   4.066  12.441  1.00  0.00     0.018 C 
HETATM   20  C24 UNL     1      -2.447   5.899  13.619  1.00  0.00     0.012 C 
HETATM   21  C25 UNL     1      -3.619   6.796  14.036  1.00  0.00     0.042 C 
HETATM   22  C26 UNL     1      -3.384   7.364  15.435  1.00  0.00     0.148 C 
ENDROOT
BRANCH   1  23
HETATM   23  C5  UNL     1       0.059  11.723  18.552  1.00  0.00    -0.014 C 
HETATM   24  C6  UNL     1       1.234  12.115  17.645  1.00  0.00     0.010 C 
BRANCH  23  25
HETATM   25  C4  UNL     1       0.545  11.778  20.020  1.00  0.00     0.009 C 
BRANCH  25  26
HETATM   26  C3  UNL     1       1.497  10.657  20.474  1.00  0.00     0.034 C 
BRANCH  26  27
HETATM   27  C2  UNL     1       2.475  10.922  21.615  1.00  0.00    -0.075 C 
HETATM   28  C1  UNL     1       2.649  12.136  22.170  1.00  0.00     0.015 C 
BRANCH  27  29
HETATM   29  C27 UNL     1       3.284   9.685  22.031  1.00  0.00     0.107 C 
HETATM   30  C28 UNL     1       4.508   9.959  22.911  1.00  0.00     0.026 C 
BRANCH  29  31
HETATM   31  C29 UNL     1       2.397   8.657  22.734  1.00  0.00     0.147 C 
HETATM   32  O4  UNL     1       1.729   7.766  22.235  1.00  0.00    -0.650 OA
BRANCH  31  33
HETATM   33  O5  UNL     1       2.406   8.811  24.078  1.00  0.00    -0.776 OA
HETATM   34  H42 UNL     1       1.804   8.108  24.400  1.00  0.00     0.167 HD
ENDBRANCH  31  33
ENDBRANCH  29  31
ENDBRANCH  27  29
ENDBRANCH  26  27
ENDBRANCH  25  26
ENDBRANCH  23  25
ENDBRANCH   1  23
BRANCH  22  35
HETATM   35  O3  UNL     1      -3.619   6.319  16.375  1.00  0.00    -0.391 OA
HETATM   36  H37 UNL     1      -3.562   6.701  17.267  1.00  0.00     0.210 HD
ENDBRANCH  22  35
TORSDOF 8
ENDMDL
MODEL 8
REMARK minimizedAffinity -9.10856724
REMARK  8 active torsions:
REMARK  status: ('A' for Active; 'I' for Inactive)
REMARK    1  A    between atoms: C2_2  and  C3_3 
REMARK    2  A    between atoms: C2_2  and  C27_30 
REMARK    3  A    between atoms: C3_3  and  C4_4 
REMARK    4  A    between atoms: C4_4  and  C5_5 
REMARK    5  A    between atoms: C5_5  and  C7_7 
REMARK    6  A    between atoms: C26_28  and  O3_29 
REMARK    7  A    between atoms: C27_30  and  C29_32 
REMARK    8  A    between atoms: C29_32  and  O5_34 
ROOT
HETATM    1  C7  UNL     1       1.307   6.448  11.556  1.00  0.00    -0.002 C 
HETATM    2  C8  UNL     1       1.420   4.955  11.135  1.00  0.00     0.006 C 
HETATM    3  C9  UNL     1       0.051   4.317  11.414  1.00  0.00     0.010 C 
HETATM    4  C10 UNL     1      -0.865   5.507  11.704  1.00  0.00     0.027 C 
HETATM    5  C11 UNL     1      -2.217   5.308  12.349  1.00  0.00    -0.036 C 
HETATM    6  C12 UNL     1      -2.809   6.307  13.052  1.00  0.00     0.002 C 
HETATM    7  C13 UNL     1      -2.055   7.616  13.227  1.00  0.00     0.157 C 
HETATM    8  O1  UNL     1      -2.543   8.548  13.864  1.00  0.00    -0.293 OA
HETATM    9  C14 UNL     1      -0.687   7.792  12.585  1.00  0.00     0.093 C 
HETATM   10  C15 UNL     1       0.064   6.465  12.495  1.00  0.00    -0.026 C 
HETATM   11  C16 UNL     1       0.388   5.957  13.920  1.00  0.00     0.016 C 
HETATM   12  C17 UNL     1      -4.206   6.179  13.700  1.00  0.00    -0.008 C 
HETATM   13  C18 UNL     1      -3.966   6.020  15.226  1.00  0.00     0.021 C 
HETATM   14  C19 UNL     1      -5.100   7.438  13.452  1.00  0.00     0.022 C 
HETATM   15  C20 UNL     1      -6.603   7.178  13.344  1.00  0.00     0.080 C 
HETATM   16  C21 UNL     1      -7.030   5.973  14.142  1.00  0.00     0.131 C 
HETATM   17  O2  UNL     1      -7.970   6.029  14.937  1.00  0.00    -0.298 OA
HETATM   18  C22 UNL     1      -6.303   4.667  13.862  1.00  0.00     0.056 C 
HETATM   19  C23 UNL     1      -7.245   3.748  13.085  1.00  0.00     0.018 C 
HETATM   20  C24 UNL     1      -4.981   4.947  13.108  1.00  0.00     0.012 C 
HETATM   21  C25 UNL     1      -4.079   3.708  13.039  1.00  0.00     0.042 C 
HETATM   22  C26 UNL     1      -2.882   3.971  12.127  1.00  0.00     0.148 C 
ENDROOT
BRANCH   1  23
HETATM   23  C5  UNL     1       2.675   7.079  11.935  1.00  0.00    -0.014 C 
HETATM   24  C6  UNL     1       2.721   8.612  12.002  1.00  0.00     0.010 C 
BRANCH  23  25
HETATM   25  C4  UNL     1       3.874   6.599  11.081  1.00  0.00     0.009 C 
BRANCH  25  26
HETATM   26  C3  UNL     1       5.076   7.554  10.980  1.00  0.00     0.034 C 
BRANCH  26  27
HETATM   27  C2  UNL     1       6.433   7.109  11.515  1.00  0.00    -0.075 C 
HETATM   28  C1  UNL     1       7.099   6.040  11.040  1.00  0.00     0.015 C 
BRANCH  27  29
HETATM   29  C27 UNL     1       6.942   7.961  12.687  1.00  0.00     0.107 C 
HETATM   30  C28 UNL     1       7.034   9.467  12.420  1.00  0.00     0.026 C 
BRANCH  29  31
HETATM   31  C29 UNL     1       6.095   7.738  13.939  1.00  0.00     0.147 C 
HETATM   32  O4  UNL     1       5.377   8.537  14.520  1.00  0.00    -0.650 OA
BRANCH  31  33
HETATM   33  O5  UNL     1       6.197   6.472  14.405  1.00  0.00    -0.776 OA
HETATM   34  H42 UNL     1       5.621   6.465  15.198  1.00  0.00     0.167 HD
ENDBRANCH  31  33
ENDBRANCH  29  31
ENDBRANCH  27  29
ENDBRANCH  26  27
ENDBRANCH  25  26
ENDBRANCH  23  25
ENDBRANCH   1  23
BRANCH  22  35
HETATM   35  O3  UNL     1      -3.342   3.929  10.779  1.00  0.00    -0.391 OA
HETATM   36  H37 UNL     1      -2.568   4.002  10.195  1.00  0.00     0.210 HD
ENDBRANCH  22  35
TORSDOF 8
ENDMDL
MODEL 9
REMARK minimizedAffinity -9.10832596
REMARK  8 active torsions:
REMARK  status: ('A' for Active; 'I' for Inactive)
REMARK    1  A    between atoms: C2_2  and  C3_3 
REMARK    2  A    between atoms: C2_2  and  C27_30 
REMARK    3  A    between atoms: C3_3  and  C4_4 
REMARK    4  A    between atoms: C4_4  and  C5_5 
REMARK    5  A    between atoms: C5_5  and  C7_7 
REMARK    6  A    between atoms: C26_28  and  O3_29 
REMARK    7  A    between atoms: C27_30  and  C29_32 
REMARK    8  A    between atoms: C29_32  and  O5_34 
ROOT
HETATM    1  C7  UNL     1      -5.131   4.108  13.206  1.00  0.00    -0.002 C 
HETATM    2  C8  UNL     1      -4.982   3.602  11.744  1.00  0.00     0.006 C 
HETATM    3  C9  UNL     1      -3.597   4.059  11.261  1.00  0.00     0.010 C 
HETATM    4  C10 UNL     1      -2.900   4.546  12.533  1.00  0.00     0.027 C 
HETATM    5  C11 UNL     1      -1.644   5.383  12.458  1.00  0.00    -0.036 C 
HETATM    6  C12 UNL     1      -1.300   6.217  13.472  1.00  0.00     0.002 C 
HETATM    7  C13 UNL     1      -2.238   6.337  14.662  1.00  0.00     0.157 C 
HETATM    8  O1  UNL     1      -1.977   7.087  15.602  1.00  0.00    -0.293 OA
HETATM    9  C14 UNL     1      -3.507   5.499  14.712  1.00  0.00     0.093 C 
HETATM   10  C15 UNL     1      -4.054   5.229  13.312  1.00  0.00    -0.026 C 
HETATM   11  C16 UNL     1      -4.515   6.559  12.671  1.00  0.00     0.016 C 
HETATM   12  C17 UNL     1      -0.009   7.068  13.473  1.00  0.00    -0.008 C 
HETATM   13  C18 UNL     1      -0.450   8.529  13.181  1.00  0.00     0.021 C 
HETATM   14  C19 UNL     1       0.737   7.024  14.846  1.00  0.00     0.022 C 
HETATM   15  C20 UNL     1       2.260   7.139  14.781  1.00  0.00     0.080 C 
HETATM   16  C21 UNL     1       2.720   7.934  13.587  1.00  0.00     0.131 C 
HETATM   17  O2  UNL     1       3.516   8.866  13.704  1.00  0.00    -0.298 OA
HETATM   18  C22 UNL     1       2.222   7.480  12.223  1.00  0.00     0.056 C 
HETATM   19  C23 UNL     1       3.382   6.815  11.483  1.00  0.00     0.018 C 
HETATM   20  C24 UNL     1       1.001   6.544  12.390  1.00  0.00     0.012 C 
HETATM   21  C25 UNL     1       0.291   6.275  11.056  1.00  0.00     0.042 C 
HETATM   22  C26 UNL     1      -0.782   5.201  11.232  1.00  0.00     0.148 C 
ENDROOT
BRANCH   1  23
HETATM   23  C5  UNL     1      -6.612   4.300  13.636  1.00  0.00    -0.014 C 
HETATM   24  C6  UNL     1      -7.503   3.051  13.580  1.00  0.00     0.010 C 
BRANCH  23  25
HETATM   25  C4  UNL     1      -7.354   5.454  12.921  1.00  0.00     0.009 C 
BRANCH  25  26
HETATM   26  C3  UNL     1      -7.549   6.752  13.724  1.00  0.00     0.034 C 
BRANCH  26  27
HETATM   27  C2  UNL     1      -8.115   6.679  15.139  1.00  0.00    -0.075 C 
HETATM   28  C1  UNL     1      -7.689   5.792  16.058  1.00  0.00     0.015 C 
BRANCH  27  29
HETATM   29  C27 UNL     1      -9.256   7.674  15.398  1.00  0.00     0.107 C 
HETATM   30  C28 UNL     1      -8.880   9.155  15.290  1.00  0.00     0.026 C 
BRANCH  29  31
HETATM   31  C29 UNL     1     -10.443   7.402  14.475  1.00  0.00     0.147 C 
HETATM   32  O4  UNL     1     -10.749   7.982  13.445  1.00  0.00    -0.650 OA
BRANCH  31  33
HETATM   33  O5  UNL     1     -11.204   6.373  14.913  1.00  0.00    -0.776 OA
HETATM   34  H42 UNL     1     -11.921   6.310  14.247  1.00  0.00     0.167 HD
ENDBRANCH  31  33
ENDBRANCH  29  31
ENDBRANCH  27  29
ENDBRANCH  26  27
ENDBRANCH  25  26
ENDBRANCH  23  25
ENDBRANCH   1  23
BRANCH  22  35
HETATM   35  O3  UNL     1      -0.126   3.941  11.339  1.00  0.00    -0.391 OA
HETATM   36  H37 UNL     1      -0.808   3.248  11.356  1.00  0.00     0.210 HD
ENDBRANCH  22  35
TORSDOF 8
ENDMDL
