MODEL 1
REMARK minimizedAffinity -8.19250965
REMARK CNNscore 0.478879571
REMARK CNNaffinity 6.49949074
REMARK  12 active torsions:
REMARK  status: ('A' for Active; 'I' for Inactive)
REMARK    1  A    between atoms: C3_4  and  O2_5 
REMARK    2  A    between atoms: O2_5  and  C4_6 
REMARK    3  A    between atoms: C7_9  and  C8_10 
REMARK    4  A    between atoms: N1_11  and  C9_13 
REMARK    5  A    between atoms: C9_13  and  C10_14 
REMARK    6  A    between atoms: C10_14  and  C11_15 
REMARK    7  A    between atoms: C11_15  and  O3_16 
REMARK    8  A    between atoms: C17_22  and  C18_23 
REMARK    9  A    between atoms: C24_31  and  O6_32 
REMARK   10  A    between atoms: C28_36  and  O7_37 
REMARK   11  A    between atoms: C31_40  and  O8_41 
REMARK   12  A    between atoms: C32_42  and  O9_43 
ROOT
HETATM    1  C4  UNL     1      -0.696   8.520  12.183  1.00  0.00     0.127 C 
HETATM    2  C5  UNL     1      -2.207   8.259  12.203  1.00  0.00     0.033 C 
HETATM    3  C6  UNL     1      -2.911   9.109  13.254  1.00  0.00     0.021 C 
HETATM    4  C7  UNL     1      -2.383   8.904  14.715  1.00  0.00     0.026 C 
HETATM    5  C12 UNL     1      -2.276  10.328  15.399  1.00  0.00     0.009 C 
HETATM    6  C13 UNL     1      -3.614  11.097  15.461  1.00  0.00     0.007 C 
HETATM    7  C14 UNL     1      -3.434  12.505  16.018  1.00  0.00     0.013 C 
HETATM    8  C15 UNL     1      -2.780  12.538  17.430  1.00  0.00    -0.005 C 
HETATM    9  C16 UNL     1      -3.806  12.006  18.450  1.00  0.00     0.019 C 
HETATM   10  C17 UNL     1      -2.323  14.015  17.715  1.00  0.00     0.028 C 
HETATM   11  C22 UNL     1      -0.864  14.095  17.205  1.00  0.00     0.013 C 
HETATM   12  C23 UNL     1      -0.476  12.698  16.716  1.00  0.00     0.040 C 
HETATM   13  C24 UNL     1      -1.448  11.739  17.420  1.00  0.00     0.070 C 
HETATM   14  C25 UNL     1      -1.561  10.323  16.776  1.00  0.00     0.026 C 
HETATM   15  C26 UNL     1      -0.189   9.635  16.652  1.00  0.00     0.011 C 
HETATM   16  C27 UNL     1      -0.309   8.230  16.083  1.00  0.00     0.039 C 
HETATM   17  C28 UNL     1      -0.995   8.166  14.710  1.00  0.00     0.073 C 
HETATM   18  C29 UNL     1      -0.095   8.725  13.589  1.00  0.00     0.071 C 
ENDROOT
BRANCH   1  19
HETATM   19  O2  UNL     1       0.021   7.448  11.551  1.00  0.00    -0.356 OA
BRANCH  19  20
HETATM   20  C3  UNL     1       1.434   7.507  11.733  1.00  0.00     0.263 C 
HETATM   21  O1  UNL     1       2.069   8.363  10.780  1.00  0.00    -0.354 OA
HETATM   22  C2  UNL     1       2.112   7.896   9.420  1.00  0.00     0.151 C 
HETATM   23  C1  UNL     1       0.770   8.010   8.705  1.00  0.00     0.042 C 
HETATM   24  C32 UNL     1       2.719   6.490   9.338  1.00  0.00     0.175 C 
HETATM   25  C31 UNL     1       2.010   5.528  10.296  1.00  0.00     0.154 C 
HETATM   26  C30 UNL     1       2.004   6.094  11.709  1.00  0.00     0.095 C 
BRANCH  24  27
HETATM   27  O9  UNL     1       4.112   6.538   9.715  1.00  0.00    -0.390 OA
HETATM   28  H49 UNL     1       4.220   7.294  10.326  1.00  0.00     0.210 HD
ENDBRANCH  24  27
BRANCH  25  29
HETATM   29  O8  UNL     1       2.693   4.272  10.303  1.00  0.00    -0.393 OA
HETATM   30  H47 UNL     1       3.650   4.485  10.273  1.00  0.00     0.210 HD
ENDBRANCH  25  29
ENDBRANCH  19  20
ENDBRANCH   1  19
BRANCH  17  31
HETATM   31  O7  UNL     1      -1.173   6.763  14.441  1.00  0.00    -0.389 OA
HETATM   32  H41 UNL     1      -0.301   6.383  14.231  1.00  0.00     0.210 HD
ENDBRANCH  17  31
BRANCH   4  33
HETATM   33  C8  UNL     1      -3.375   7.955  15.405  1.00  0.00     0.068 C 
HETATM   34  N1  UNL     1      -4.355   7.398  14.785  1.00  0.00    -0.401 N 
ATOM     35  H1  UNL     1      -4.515   7.529  13.786  1.00  0.00     0.158 HD
BRANCH  34  36
HETATM   36  C9  UNL     1      -5.227   6.561  15.617  1.00  0.00     0.121 C 
BRANCH  36  37
HETATM   37  C10 UNL     1      -6.470   6.191  14.811  1.00  0.00     0.045 C 
BRANCH  37  38
HETATM   38  C11 UNL     1      -7.372   5.225  15.571  1.00  0.00     0.165 C 
BRANCH  38  39
HETATM   39  O3  UNL     1      -8.614   5.832  15.897  1.00  0.00    -0.401 OA
HETATM   40  H18 UNL     1      -9.032   6.104  15.060  1.00  0.00     0.209 HD
ENDBRANCH  38  39
ENDBRANCH  37  38
ENDBRANCH  36  37
ENDBRANCH  34  36
ENDBRANCH   4  33
BRANCH  13  41
HETATM   41  O6  UNL     1      -0.994  11.596  18.772  1.00  0.00    -0.389 OA
HETATM   42  H35 UNL     1      -0.098  11.220  18.766  1.00  0.00     0.210 HD
ENDBRANCH  13  41
BRANCH  10  43
HETATM   43  C18 UNL     1      -2.472  14.572  19.108  1.00  0.00    -0.045 A 
HETATM   44  C19 UNL     1      -3.630  14.928  19.667  1.00  0.00     0.087 A 
HETATM   45  C20 UNL     1      -3.330  15.458  20.993  1.00  0.00     0.283 A 
HETATM   46  O4  UNL     1      -4.164  15.873  21.778  1.00  0.00    -0.260 OA
HETATM   47  O5  UNL     1      -1.988  15.423  21.193  1.00  0.00    -0.314 OA
HETATM   48  C21 UNL     1      -1.356  14.842  20.048  1.00  0.00     0.213 A 
ENDBRANCH  10  43
TORSDOF 12
ENDMDL
MODEL 2
REMARK minimizedAffinity -7.68856668
REMARK CNNscore 0.445985943
REMARK CNNaffinity 6.25906134
REMARK  12 active torsions:
REMARK  status: ('A' for Active; 'I' for Inactive)
REMARK    1  A    between atoms: C3_4  and  O2_5 
REMARK    2  A    between atoms: O2_5  and  C4_6 
REMARK    3  A    between atoms: C7_9  and  C8_10 
REMARK    4  A    between atoms: N1_11  and  C9_13 
REMARK    5  A    between atoms: C9_13  and  C10_14 
REMARK    6  A    between atoms: C10_14  and  C11_15 
REMARK    7  A    between atoms: C11_15  and  O3_16 
REMARK    8  A    between atoms: C17_22  and  C18_23 
REMARK    9  A    between atoms: C24_31  and  O6_32 
REMARK   10  A    between atoms: C28_36  and  O7_37 
REMARK   11  A    between atoms: C31_40  and  O8_41 
REMARK   12  A    between atoms: C32_42  and  O9_43 
ROOT
HETATM    1  C4  UNL     1      -1.852  13.218  16.342  1.00  0.00     0.127 C 
HETATM    2  C5  UNL     1      -0.843  12.948  15.219  1.00  0.00     0.033 C 
HETATM    3  C6  UNL     1      -1.217  11.711  14.411  1.00  0.00     0.021 C 
HETATM    4  C7  UNL     1      -1.338  10.396  15.255  1.00  0.00     0.026 C 
HETATM    5  C12 UNL     1      -2.620   9.613  14.754  1.00  0.00     0.009 C 
HETATM    6  C13 UNL     1      -2.580   9.236  13.257  1.00  0.00     0.007 C 
HETATM    7  C14 UNL     1      -3.884   8.590  12.799  1.00  0.00     0.013 C 
HETATM    8  C15 UNL     1      -4.273   7.325  13.616  1.00  0.00    -0.005 C 
HETATM    9  C16 UNL     1      -3.299   6.190  13.241  1.00  0.00     0.019 C 
HETATM   10  C17 UNL     1      -5.776   6.990  13.299  1.00  0.00     0.028 C 
HETATM   11  C22 UNL     1      -6.596   7.747  14.370  1.00  0.00     0.013 C 
HETATM   12  C23 UNL     1      -5.598   8.427  15.310  1.00  0.00     0.040 C 
HETATM   13  C24 UNL     1      -4.284   7.652  15.134  1.00  0.00     0.070 C 
HETATM   14  C25 UNL     1      -3.008   8.395  15.634  1.00  0.00     0.026 C 
HETATM   15  C26 UNL     1      -3.133   8.831  17.105  1.00  0.00     0.011 C 
HETATM   16  C27 UNL     1      -1.863   9.498  17.609  1.00  0.00     0.039 C 
HETATM   17  C28 UNL     1      -1.431  10.723  16.789  1.00  0.00     0.073 C 
HETATM   18  C29 UNL     1      -2.360  11.932  17.025  1.00  0.00     0.071 C 
ENDROOT
BRANCH   1  19
HETATM   19  O2  UNL     1      -1.301  14.067  17.360  1.00  0.00    -0.356 OA
BRANCH  19  20
HETATM   20  C3  UNL     1      -1.889  13.889  18.646  1.00  0.00     0.263 C 
HETATM   21  O1  UNL     1      -2.850  14.903  18.949  1.00  0.00    -0.354 OA
HETATM   22  C2  UNL     1      -2.339  16.224  19.199  1.00  0.00     0.151 C 
HETATM   23  C1  UNL     1      -1.901  16.946  17.930  1.00  0.00     0.042 C 
HETATM   24  C32 UNL     1      -1.254  16.201  20.282  1.00  0.00     0.175 C 
HETATM   25  C31 UNL     1      -0.167  15.174  19.950  1.00  0.00     0.154 C 
HETATM   26  C30 UNL     1      -0.787  13.807  19.697  1.00  0.00     0.095 C 
BRANCH  24  27
HETATM   27  O9  UNL     1      -1.839  15.827  21.549  1.00  0.00    -0.390 OA
HETATM   28  H49 UNL     1      -2.622  15.274  21.354  1.00  0.00     0.210 HD
ENDBRANCH  24  27
BRANCH  25  29
HETATM   29  O8  UNL     1       0.744  15.072  21.047  1.00  0.00    -0.393 OA
HETATM   30  H47 UNL     1       0.196  15.117  21.858  1.00  0.00     0.210 HD
ENDBRANCH  25  29
ENDBRANCH  19  20
ENDBRANCH   1  19
BRANCH  17  31
HETATM   31  O7  UNL     1      -0.137  11.086  17.305  1.00  0.00    -0.389 OA
HETATM   32  H41 UNL     1      -0.263  11.486  18.184  1.00  0.00     0.210 HD
ENDBRANCH  17  31
BRANCH   4  33
HETATM   33  C8  UNL     1      -0.021   9.630  15.054  1.00  0.00     0.068 C 
HETATM   34  N1  UNL     1       0.241   8.521  15.649  1.00  0.00    -0.401 N 
ATOM     35  H1  UNL     1      -0.428   8.063  16.269  1.00  0.00     0.158 HD
BRANCH  34  36
HETATM   36  C9  UNL     1       1.567   7.959  15.372  1.00  0.00     0.121 C 
BRANCH  36  37
HETATM   37  C10 UNL     1       1.544   7.296  13.996  1.00  0.00     0.045 C 
BRANCH  37  38
HETATM   38  C11 UNL     1       2.608   7.872  13.071  1.00  0.00     0.165 C 
BRANCH  38  39
HETATM   39  O3  UNL     1       3.272   6.844  12.349  1.00  0.00    -0.401 OA
HETATM   40  H18 UNL     1       2.595   6.366  11.838  1.00  0.00     0.209 HD
ENDBRANCH  38  39
ENDBRANCH  37  38
ENDBRANCH  36  37
ENDBRANCH  34  36
ENDBRANCH   4  33
BRANCH  13  41
HETATM   41  O6  UNL     1      -4.418   6.424  15.863  1.00  0.00    -0.389 OA
HETATM   42  H35 UNL     1      -4.564   6.629  16.802  1.00  0.00     0.210 HD
ENDBRANCH  13  41
BRANCH  10  43
HETATM   43  C18 UNL     1      -6.194   5.547  13.173  1.00  0.00    -0.045 A 
HETATM   44  C19 UNL     1      -7.457   5.120  13.123  1.00  0.00     0.087 A 
HETATM   45  C20 UNL     1      -7.424   3.663  13.051  1.00  0.00     0.283 A 
HETATM   46  O4  UNL     1      -8.409   2.950  12.990  1.00  0.00    -0.260 OA
HETATM   47  O5  UNL     1      -6.132   3.246  13.078  1.00  0.00    -0.314 OA
HETATM   48  C21 UNL     1      -5.269   4.386  13.127  1.00  0.00     0.213 A 
ENDBRANCH  10  43
TORSDOF 12
ENDMDL
MODEL 3
REMARK minimizedAffinity -7.18916178
REMARK CNNscore 0.434237301
REMARK CNNaffinity 6.02413511
REMARK  12 active torsions:
REMARK  status: ('A' for Active; 'I' for Inactive)
REMARK    1  A    between atoms: C3_4  and  O2_5 
REMARK    2  A    between atoms: O2_5  and  C4_6 
REMARK    3  A    between atoms: C7_9  and  C8_10 
REMARK    4  A    between atoms: N1_11  and  C9_13 
REMARK    5  A    between atoms: C9_13  and  C10_14 
REMARK    6  A    between atoms: C10_14  and  C11_15 
REMARK    7  A    between atoms: C11_15  and  O3_16 
REMARK    8  A    between atoms: C17_22  and  C18_23 
REMARK    9  A    between atoms: C24_31  and  O6_32 
REMARK   10  A    between atoms: C28_36  and  O7_37 
REMARK   11  A    between atoms: C31_40  and  O8_41 
REMARK   12  A    between atoms: C32_42  and  O9_43 
ROOT
HETATM    1  C4  UNL     1      -2.569  13.103  18.841  1.00  0.00     0.127 C 
HETATM    2  C5  UNL     1      -2.339  11.630  18.486  1.00  0.00     0.033 C 
HETATM    3  C6  UNL     1      -0.998  11.127  19.007  1.00  0.00     0.021 C 
HETATM    4  C7  UNL     1       0.243  11.931  18.487  1.00  0.00     0.026 C 
HETATM    5  C12 UNL     1       1.231  12.144  19.706  1.00  0.00     0.009 C 
HETATM    6  C13 UNL     1       1.728  10.830  20.348  1.00  0.00     0.007 C 
HETATM    7  C14 UNL     1       2.579  11.090  21.587  1.00  0.00     0.013 C 
HETATM    8  C15 UNL     1       3.809  12.003  21.317  1.00  0.00    -0.005 C 
HETATM    9  C16 UNL     1       4.833  11.204  20.488  1.00  0.00     0.019 C 
HETATM   10  C17 UNL     1       4.368  12.481  22.707  1.00  0.00     0.028 C 
HETATM   11  C22 UNL     1       3.636  13.812  23.004  1.00  0.00     0.013 C 
HETATM   12  C23 UNL     1       2.750  14.123  21.796  1.00  0.00     0.040 C 
HETATM   13  C24 UNL     1       3.355  13.322  20.633  1.00  0.00     0.070 C 
HETATM   14  C25 UNL     1       2.408  13.111  19.413  1.00  0.00     0.026 C 
HETATM   15  C26 UNL     1       1.866  14.444  18.866  1.00  0.00     0.011 C 
HETATM   16  C27 UNL     1       0.994  14.241  17.637  1.00  0.00     0.039 C 
HETATM   17  C28 UNL     1      -0.201  13.304  17.865  1.00  0.00     0.073 C 
HETATM   18  C29 UNL     1      -1.291  13.961  18.736  1.00  0.00     0.071 C 
ENDROOT
BRANCH   1  19
HETATM   19  O2  UNL     1      -3.569  13.703  18.004  1.00  0.00    -0.356 OA
BRANCH  19  20
HETATM   20  C3  UNL     1      -4.824  13.026  18.023  1.00  0.00     0.263 C 
HETATM   21  O1  UNL     1      -5.397  12.906  16.719  1.00  0.00    -0.354 OA
HETATM   22  C2  UNL     1      -5.887  14.116  16.115  1.00  0.00     0.151 C 
HETATM   23  C1  UNL     1      -4.775  15.022  15.600  1.00  0.00     0.042 C 
HETATM   24  C32 UNL     1      -6.869  14.839  17.045  1.00  0.00     0.175 C 
HETATM   25  C31 UNL     1      -6.257  15.049  18.434  1.00  0.00     0.154 C 
HETATM   26  C30 UNL     1      -5.760  13.727  19.001  1.00  0.00     0.095 C 
BRANCH  24  27
HETATM   27  O9  UNL     1      -8.063  14.042  17.208  1.00  0.00    -0.390 OA
HETATM   28  H49 UNL     1      -7.806  13.107  17.079  1.00  0.00     0.210 HD
ENDBRANCH  24  27
BRANCH  25  29
HETATM   29  O8  UNL     1      -7.246  15.588  19.314  1.00  0.00    -0.393 OA
HETATM   30  H47 UNL     1      -8.082  15.125  19.096  1.00  0.00     0.210 HD
ENDBRANCH  25  29
ENDBRANCH  19  20
ENDBRANCH   1  19
BRANCH  17  31
HETATM   31  O7  UNL     1      -0.776  13.102  16.560  1.00  0.00    -0.389 OA
HETATM   32  H41 UNL     1      -1.232  13.923  16.300  1.00  0.00     0.210 HD
ENDBRANCH  17  31
BRANCH   4  33
HETATM   33  C8  UNL     1       0.841  11.107  17.336  1.00  0.00     0.068 C 
HETATM   34  N1  UNL     1       1.999  10.551  17.402  1.00  0.00    -0.401 N 
ATOM     35  H1  UNL     1       2.580  10.598  18.239  1.00  0.00     0.158 HD
BRANCH  34  36
HETATM   36  C9  UNL     1       2.424   9.845  16.189  1.00  0.00     0.121 C 
BRANCH  36  37
HETATM   37  C10 UNL     1       1.610   8.560  16.055  1.00  0.00     0.045 C 
BRANCH  37  38
HETATM   38  C11 UNL     1       2.503   7.328  15.975  1.00  0.00     0.165 C 
BRANCH  38  39
HETATM   39  O3  UNL     1       2.168   6.524  14.852  1.00  0.00    -0.401 OA
HETATM   40  H18 UNL     1       2.275   7.077  14.058  1.00  0.00     0.209 HD
ENDBRANCH  38  39
ENDBRANCH  37  38
ENDBRANCH  36  37
ENDBRANCH  34  36
ENDBRANCH   4  33
BRANCH  13  41
HETATM   41  O6  UNL     1       4.522  14.031  20.195  1.00  0.00    -0.389 OA
HETATM   42  H35 UNL     1       4.257  14.916  19.891  1.00  0.00     0.210 HD
ENDBRANCH  13  41
BRANCH  10  43
HETATM   43  C18 UNL     1       5.859  12.595  22.897  1.00  0.00    -0.045 A 
HETATM   44  C19 UNL     1       6.690  11.561  23.039  1.00  0.00     0.087 A 
HETATM   45  C20 UNL     1       8.030  12.103  23.246  1.00  0.00     0.283 A 
HETATM   46  O4  UNL     1       9.032  11.430  23.408  1.00  0.00    -0.260 OA
HETATM   47  O5  UNL     1       7.967  13.459  23.240  1.00  0.00    -0.314 OA
HETATM   48  C21 UNL     1       6.618  13.867  22.993  1.00  0.00     0.213 A 
ENDBRANCH  10  43
TORSDOF 12
ENDMDL
MODEL 4
REMARK minimizedAffinity -7.2112093
REMARK CNNscore 0.413793862
REMARK CNNaffinity 6.2546258
REMARK  12 active torsions:
REMARK  status: ('A' for Active; 'I' for Inactive)
REMARK    1  A    between atoms: C3_4  and  O2_5 
REMARK    2  A    between atoms: O2_5  and  C4_6 
REMARK    3  A    between atoms: C7_9  and  C8_10 
REMARK    4  A    between atoms: N1_11  and  C9_13 
REMARK    5  A    between atoms: C9_13  and  C10_14 
REMARK    6  A    between atoms: C10_14  and  C11_15 
REMARK    7  A    between atoms: C11_15  and  O3_16 
REMARK    8  A    between atoms: C17_22  and  C18_23 
REMARK    9  A    between atoms: C24_31  and  O6_32 
REMARK   10  A    between atoms: C28_36  and  O7_37 
REMARK   11  A    between atoms: C31_40  and  O8_41 
REMARK   12  A    between atoms: C32_42  and  O9_43 
ROOT
HETATM    1  C4  UNL     1      -2.060  14.115  16.674  1.00  0.00     0.127 C 
HETATM    2  C5  UNL     1      -0.667  13.816  16.105  1.00  0.00     0.033 C 
HETATM    3  C6  UNL     1      -0.632  12.479  15.376  1.00  0.00     0.021 C 
HETATM    4  C7  UNL     1      -1.050  11.250  16.254  1.00  0.00     0.026 C 
HETATM    5  C12 UNL     1      -1.982  10.319  15.375  1.00  0.00     0.009 C 
HETATM    6  C13 UNL     1      -1.313   9.798  14.084  1.00  0.00     0.007 C 
HETATM    7  C14 UNL     1      -2.287   9.006  13.219  1.00  0.00     0.013 C 
HETATM    8  C15 UNL     1      -2.939   7.802  13.956  1.00  0.00    -0.005 C 
HETATM    9  C16 UNL     1      -1.862   6.717  14.157  1.00  0.00     0.019 C 
HETATM   10  C17 UNL     1      -4.163   7.316  13.098  1.00  0.00     0.028 C 
HETATM   11  C22 UNL     1      -5.378   8.107  13.637  1.00  0.00     0.013 C 
HETATM   12  C23 UNL     1      -4.883   8.957  14.809  1.00  0.00     0.040 C 
HETATM   13  C24 UNL     1      -3.590   8.277  15.284  1.00  0.00     0.070 C 
HETATM   14  C25 UNL     1      -2.661   9.168  16.164  1.00  0.00     0.026 C 
HETATM   15  C26 UNL     1      -3.399   9.737  17.389  1.00  0.00     0.011 C 
HETATM   16  C27 UNL     1      -2.476  10.553  18.280  1.00  0.00     0.039 C 
HETATM   17  C28 UNL     1      -1.782  11.720  17.562  1.00  0.00     0.073 C 
HETATM   18  C29 UNL     1      -2.764  12.867  17.245  1.00  0.00     0.071 C 
ENDROOT
BRANCH   1  19
HETATM   19  O2  UNL     1      -2.009  15.104  17.713  1.00  0.00    -0.356 OA
BRANCH  19  20
HETATM   20  C3  UNL     1      -0.907  14.953  18.606  1.00  0.00     0.263 C 
HETATM   21  O1  UNL     1      -1.313  14.486  19.895  1.00  0.00    -0.354 OA
HETATM   22  C2  UNL     1      -2.046  15.411  20.717  1.00  0.00     0.151 C 
HETATM   23  C1  UNL     1      -3.492  15.592  20.270  1.00  0.00     0.042 C 
HETATM   24  C32 UNL     1      -1.291  16.738  20.862  1.00  0.00     0.175 C 
HETATM   25  C31 UNL     1      -0.906  17.304  19.492  1.00  0.00     0.154 C 
HETATM   26  C30 UNL     1      -0.138  16.267  18.685  1.00  0.00     0.095 C 
BRANCH  24  27
HETATM   27  O9  UNL     1      -0.073  16.526  21.609  1.00  0.00    -0.390 OA
HETATM   28  H49 UNL     1       0.199  15.598  21.460  1.00  0.00     0.210 HD
ENDBRANCH  24  27
BRANCH  25  29
HETATM   29  O8  UNL     1      -0.079  18.458  19.668  1.00  0.00    -0.393 OA
HETATM   30  H47 UNL     1       0.519  18.249  20.416  1.00  0.00     0.210 HD
ENDBRANCH  25  29
ENDBRANCH  19  20
ENDBRANCH   1  19
BRANCH  17  31
HETATM   31  O7  UNL     1      -0.831  12.237  18.512  1.00  0.00    -0.389 OA
HETATM   32  H41 UNL     1      -1.324  12.712  19.205  1.00  0.00     0.210 HD
ENDBRANCH  17  31
BRANCH   4  33
HETATM   33  C8  UNL     1       0.255  10.577  16.705  1.00  0.00     0.068 C 
HETATM   34  N1  UNL     1       1.380  10.761  16.109  1.00  0.00    -0.401 N 
ATOM     35  H1  UNL     1       1.479  11.393  15.314  1.00  0.00     0.158 HD
BRANCH  34  36
HETATM   36  C9  UNL     1       2.509   9.998  16.652  1.00  0.00     0.121 C 
BRANCH  36  37
HETATM   37  C10 UNL     1       2.184   8.508  16.566  1.00  0.00     0.045 C 
BRANCH  37  38
HETATM   38  C11 UNL     1       3.061   7.794  15.545  1.00  0.00     0.165 C 
BRANCH  38  39
HETATM   39  O3  UNL     1       2.404   6.652  15.013  1.00  0.00    -0.401 OA
HETATM   40  H18 UNL     1       1.577   6.960  14.600  1.00  0.00     0.209 HD
ENDBRANCH  38  39
ENDBRANCH  37  38
ENDBRANCH  36  37
ENDBRANCH  34  36
ENDBRANCH   4  33
BRANCH  13  41
HETATM   41  O6  UNL     1      -3.974   7.122  16.041  1.00  0.00    -0.389 OA
HETATM   42  H35 UNL     1      -4.504   7.407  16.805  1.00  0.00     0.210 HD
ENDBRANCH  13  41
BRANCH  10  43
HETATM   43  C18 UNL     1      -4.444   5.838  12.994  1.00  0.00    -0.045 A 
HETATM   44  C19 UNL     1      -3.657   4.953  12.380  1.00  0.00     0.087 A 
HETATM   45  C20 UNL     1      -4.312   3.652  12.466  1.00  0.00     0.283 A 
HETATM   46  O4  UNL     1      -3.861   2.618  12.008  1.00  0.00    -0.260 OA
HETATM   47  O5  UNL     1      -5.494   3.792  13.119  1.00  0.00    -0.314 OA
HETATM   48  C21 UNL     1      -5.652   5.155  13.523  1.00  0.00     0.213 A 
ENDBRANCH  10  43
TORSDOF 12
ENDMDL
MODEL 5
REMARK minimizedAffinity -7.63888502
REMARK CNNscore 0.405845881
REMARK CNNaffinity 6.30771446
REMARK  12 active torsions:
REMARK  status: ('A' for Active; 'I' for Inactive)
REMARK    1  A    between atoms: C3_4  and  O2_5 
REMARK    2  A    between atoms: O2_5  and  C4_6 
REMARK    3  A    between atoms: C7_9  and  C8_10 
REMARK    4  A    between atoms: N1_11  and  C9_13 
REMARK    5  A    between atoms: C9_13  and  C10_14 
REMARK    6  A    between atoms: C10_14  and  C11_15 
REMARK    7  A    between atoms: C11_15  and  O3_16 
REMARK    8  A    between atoms: C17_22  and  C18_23 
REMARK    9  A    between atoms: C24_31  and  O6_32 
REMARK   10  A    between atoms: C28_36  and  O7_37 
REMARK   11  A    between atoms: C31_40  and  O8_41 
REMARK   12  A    between atoms: C32_42  and  O9_43 
ROOT
HETATM    1  C4  UNL     1      -5.331  -9.103   7.235  1.00  0.00     0.127 C 
HETATM    2  C5  UNL     1      -3.811  -9.301   7.241  1.00  0.00     0.033 C 
HETATM    3  C6  UNL     1      -3.291  -9.708   5.868  1.00  0.00     0.021 C 
HETATM    4  C7  UNL     1      -3.929 -11.019   5.294  1.00  0.00     0.026 C 
HETATM    5  C12 UNL     1      -4.234 -10.781   3.759  1.00  0.00     0.009 C 
HETATM    6  C13 UNL     1      -2.986 -10.431   2.918  1.00  0.00     0.007 C 
HETATM    7  C14 UNL     1      -3.350 -10.096   1.475  1.00  0.00     0.013 C 
HETATM    8  C15 UNL     1      -4.131 -11.230   0.751  1.00  0.00    -0.005 C 
HETATM    9  C16 UNL     1      -3.158 -12.396   0.488  1.00  0.00     0.019 C 
HETATM   10  C17 UNL     1      -4.751 -10.625  -0.562  1.00  0.00     0.028 C 
HETATM   11  C22 UNL     1      -6.157 -10.125  -0.154  1.00  0.00     0.013 C 
HETATM   12  C23 UNL     1      -6.364 -10.498   1.316  1.00  0.00     0.040 C 
HETATM   13  C24 UNL     1      -5.374 -11.641   1.587  1.00  0.00     0.070 C 
HETATM   14  C25 UNL     1      -5.068 -11.907   3.092  1.00  0.00     0.026 C 
HETATM   15  C26 UNL     1      -6.350 -12.160   3.905  1.00  0.00     0.011 C 
HETATM   16  C27 UNL     1      -6.046 -12.481   5.360  1.00  0.00     0.039 C 
HETATM   17  C28 UNL     1      -5.233 -11.398   6.084  1.00  0.00     0.073 C 
HETATM   18  C29 UNL     1      -6.076 -10.136   6.365  1.00  0.00     0.071 C 
ENDROOT
BRANCH   1  19
HETATM   19  O2  UNL     1      -5.881  -9.167   8.560  1.00  0.00    -0.356 OA
BRANCH  19  20
HETATM   20  C3  UNL     1      -7.152  -8.534   8.693  1.00  0.00     0.263 C 
HETATM   21  O1  UNL     1      -7.201  -7.643   9.810  1.00  0.00    -0.354 OA
HETATM   22  C2  UNL     1      -7.196  -8.245  11.117  1.00  0.00     0.151 C 
HETATM   23  C1  UNL     1      -5.825  -8.769  11.529  1.00  0.00     0.042 C 
HETATM   24  C32 UNL     1      -8.304  -9.296  11.245  1.00  0.00     0.175 C 
HETATM   25  C31 UNL     1      -8.234 -10.312  10.100  1.00  0.00     0.154 C 
HETATM   26  C30 UNL     1      -8.241  -9.598   8.756  1.00  0.00     0.095 C 
BRANCH  24  27
HETATM   27  O9  UNL     1      -9.596  -8.653  11.183  1.00  0.00    -0.390 OA
HETATM   28  H49 UNL     1      -9.486  -7.836  10.655  1.00  0.00     0.210 HD
ENDBRANCH  24  27
BRANCH  25  29
HETATM   29  O8  UNL     1      -9.364 -11.185  10.167  1.00  0.00    -0.393 OA
HETATM   30  H47 UNL     1     -10.127 -10.621  10.416  1.00  0.00     0.210 HD
ENDBRANCH  25  29
ENDBRANCH  19  20
ENDBRANCH   1  19
BRANCH  17  31
HETATM   31  O7  UNL     1      -4.898 -11.968   7.363  1.00  0.00    -0.389 OA
HETATM   32  H41 UNL     1      -5.707 -11.988   7.906  1.00  0.00     0.210 HD
ENDBRANCH  17  31
BRANCH   4  33
HETATM   33  C8  UNL     1      -2.918 -12.145   5.562  1.00  0.00     0.068 C 
HETATM   34  N1  UNL     1      -2.079 -12.114   6.537  1.00  0.00    -0.401 N 
ATOM     35  H1  UNL     1      -2.055 -11.351   7.213  1.00  0.00     0.158 HD
BRANCH  34  36
HETATM   36  C9  UNL     1      -1.159 -13.255   6.607  1.00  0.00     0.121 C 
BRANCH  36  37
HETATM   37  C10 UNL     1      -1.962 -14.545   6.455  1.00  0.00     0.045 C 
BRANCH  37  38
HETATM   38  C11 UNL     1      -1.193 -15.756   6.970  1.00  0.00     0.165 C 
BRANCH  38  39
HETATM   39  O3  UNL     1      -0.185 -15.368   7.894  1.00  0.00    -0.401 OA
HETATM   40  H18 UNL     1      -0.628 -14.905   8.628  1.00  0.00     0.209 HD
ENDBRANCH  38  39
ENDBRANCH  37  38
ENDBRANCH  36  37
ENDBRANCH  34  36
ENDBRANCH   4  33
BRANCH  13  41
HETATM   41  O6  UNL     1      -5.935 -12.829   1.013  1.00  0.00    -0.389 OA
HETATM   42  H35 UNL     1      -6.787 -13.015   1.442  1.00  0.00     0.210 HD
ENDBRANCH  13  41
BRANCH  10  43
HETATM   43  C18 UNL     1      -4.784 -11.468  -1.812  1.00  0.00    -0.045 A 
HETATM   44  C19 UNL     1      -5.461 -11.161  -2.920  1.00  0.00     0.087 A 
HETATM   45  C20 UNL     1      -5.268 -12.255  -3.866  1.00  0.00     0.283 A 
HETATM   46  O4  UNL     1      -5.747 -12.296  -4.985  1.00  0.00    -0.260 OA
HETATM   47  O5  UNL     1      -4.489 -13.207  -3.293  1.00  0.00    -0.314 OA
HETATM   48  C21 UNL     1      -4.105 -12.776  -1.983  1.00  0.00     0.213 A 
ENDBRANCH  10  43
TORSDOF 12
ENDMDL
MODEL 6
REMARK minimizedAffinity -7.03993845
REMARK CNNscore 0.383198082
REMARK CNNaffinity 5.99006653
REMARK  12 active torsions:
REMARK  status: ('A' for Active; 'I' for Inactive)
REMARK    1  A    between atoms: C3_4  and  O2_5 
REMARK    2  A    between atoms: O2_5  and  C4_6 
REMARK    3  A    between atoms: C7_9  and  C8_10 
REMARK    4  A    between atoms: N1_11  and  C9_13 
REMARK    5  A    between atoms: C9_13  and  C10_14 
REMARK    6  A    between atoms: C10_14  and  C11_15 
REMARK    7  A    between atoms: C11_15  and  O3_16 
REMARK    8  A    between atoms: C17_22  and  C18_23 
REMARK    9  A    between atoms: C24_31  and  O6_32 
REMARK   10  A    between atoms: C28_36  and  O7_37 
REMARK   11  A    between atoms: C31_40  and  O8_41 
REMARK   12  A    between atoms: C32_42  and  O9_43 
ROOT
HETATM    1  C4  UNL     1     -10.629 -10.189  14.302  1.00  0.00     0.127 C 
HETATM    2  C5  UNL     1     -10.779 -11.286  15.363  1.00  0.00     0.033 C 
HETATM    3  C6  UNL     1     -12.019 -11.071  16.223  1.00  0.00     0.021 C 
HETATM    4  C7  UNL     1     -12.062  -9.692  16.967  1.00  0.00     0.026 C 
HETATM    5  C12 UNL     1     -13.535  -9.124  16.856  1.00  0.00     0.009 C 
HETATM    6  C13 UNL     1     -14.613 -10.048  17.466  1.00  0.00     0.007 C 
HETATM    7  C14 UNL     1     -16.021  -9.513  17.227  1.00  0.00     0.013 C 
HETATM    8  C15 UNL     1     -16.240  -8.072  17.773  1.00  0.00    -0.005 C 
HETATM    9  C16 UNL     1     -16.266  -8.137  19.312  1.00  0.00     0.019 C 
HETATM   10  C17 UNL     1     -17.572  -7.518  17.147  1.00  0.00     0.028 C 
HETATM   11  C22 UNL     1     -17.142  -6.796  15.848  1.00  0.00     0.013 C 
HETATM   12  C23 UNL     1     -15.615  -6.869  15.771  1.00  0.00     0.040 C 
HETATM   13  C24 UNL     1     -15.149  -7.118  17.214  1.00  0.00     0.070 C 
HETATM   14  C25 UNL     1     -13.696  -7.663  17.353  1.00  0.00     0.026 C 
HETATM   15  C26 UNL     1     -12.669  -6.756  16.650  1.00  0.00     0.011 C 
HETATM   16  C27 UNL     1     -11.246  -7.255  16.841  1.00  0.00     0.039 C 
HETATM   17  C28 UNL     1     -11.016  -8.693  16.355  1.00  0.00     0.073 C 
HETATM   18  C29 UNL     1     -11.021  -8.789  14.815  1.00  0.00     0.071 C 
ENDROOT
BRANCH   1  19
HETATM   19  O2  UNL     1      -9.285 -10.114  13.802  1.00  0.00    -0.356 OA
BRANCH  19  20
HETATM   20  C3  UNL     1      -9.199  -9.895  12.396  1.00  0.00     0.263 C 
HETATM   21  O1  UNL     1      -8.815 -11.075  11.685  1.00  0.00    -0.354 OA
HETATM   22  C2  UNL     1      -7.457 -11.517  11.852  1.00  0.00     0.151 C 
HETATM   23  C1  UNL     1      -7.205 -12.184  13.200  1.00  0.00     0.042 C 
HETATM   24  C32 UNL     1      -6.467 -10.385  11.548  1.00  0.00     0.175 C 
HETATM   25  C31 UNL     1      -6.807  -9.126  12.351  1.00  0.00     0.154 C 
HETATM   26  C30 UNL     1      -8.258  -8.727  12.124  1.00  0.00     0.095 C 
BRANCH  24  27
HETATM   27  O9  UNL     1      -6.534 -10.044  10.146  1.00  0.00    -0.390 OA
HETATM   28  H49 UNL     1      -7.436 -10.264   9.838  1.00  0.00     0.210 HD
ENDBRANCH  24  27
BRANCH  25  29
HETATM   29  O8  UNL     1      -5.961  -8.052  11.935  1.00  0.00    -0.393 OA
HETATM   30  H47 UNL     1      -5.881  -8.133  10.961  1.00  0.00     0.210 HD
ENDBRANCH  25  29
ENDBRANCH  19  20
ENDBRANCH   1  19
BRANCH  17  31
HETATM   31  O7  UNL     1      -9.685  -9.030  16.788  1.00  0.00    -0.389 OA
HETATM   32  H41 UNL     1      -9.052  -8.542  16.230  1.00  0.00     0.210 HD
ENDBRANCH  17  31
BRANCH   4  33
HETATM   33  C8  UNL     1     -11.606  -9.966  18.410  1.00  0.00     0.068 C 
HETATM   34  N1  UNL     1     -10.820 -10.934  18.723  1.00  0.00    -0.401 N 
ATOM     35  H1  UNL     1     -10.424 -11.563  18.025  1.00  0.00     0.158 HD
BRANCH  34  36
HETATM   36  C9  UNL     1     -10.533 -11.069  20.155  1.00  0.00     0.121 C 
BRANCH  36  37
HETATM   37  C10 UNL     1      -9.259 -10.290  20.478  1.00  0.00     0.045 C 
BRANCH  37  38
HETATM   38  C11 UNL     1      -9.112 -10.038  21.974  1.00  0.00     0.165 C 
BRANCH  38  39
HETATM   39  O3  UNL     1      -9.723  -8.812  22.350  1.00  0.00    -0.401 OA
HETATM   40  H18 UNL     1     -10.663  -8.869  22.103  1.00  0.00     0.209 HD
ENDBRANCH  38  39
ENDBRANCH  37  38
ENDBRANCH  36  37
ENDBRANCH  34  36
ENDBRANCH   4  33
BRANCH  13  41
HETATM   41  O6  UNL     1     -15.241  -5.866  17.908  1.00  0.00    -0.389 OA
HETATM   42  H35 UNL     1     -14.658  -5.221  17.473  1.00  0.00     0.210 HD
ENDBRANCH  13  41
BRANCH  10  43
HETATM   43  C18 UNL     1     -18.482  -6.668  17.998  1.00  0.00    -0.045 A 
HETATM   44  C19 UNL     1     -19.425  -7.143  18.814  1.00  0.00     0.087 A 
HETATM   45  C20 UNL     1     -20.105  -5.996  19.408  1.00  0.00     0.283 A 
HETATM   46  O4  UNL     1     -21.022  -6.072  20.206  1.00  0.00    -0.260 OA
HETATM   47  O5  UNL     1     -19.562  -4.853  18.917  1.00  0.00    -0.314 OA
HETATM   48  C21 UNL     1     -18.493  -5.184  18.026  1.00  0.00     0.213 A 
ENDBRANCH  10  43
TORSDOF 12
ENDMDL
MODEL 7
REMARK minimizedAffinity -9.39262199
REMARK CNNscore 0.33876574
REMARK CNNaffinity 6.52495575
REMARK  12 active torsions:
REMARK  status: ('A' for Active; 'I' for Inactive)
REMARK    1  A    between atoms: C3_4  and  O2_5 
REMARK    2  A    between atoms: O2_5  and  C4_6 
REMARK    3  A    between atoms: C7_9  and  C8_10 
REMARK    4  A    between atoms: N1_11  and  C9_13 
REMARK    5  A    between atoms: C9_13  and  C10_14 
REMARK    6  A    between atoms: C10_14  and  C11_15 
REMARK    7  A    between atoms: C11_15  and  O3_16 
REMARK    8  A    between atoms: C17_22  and  C18_23 
REMARK    9  A    between atoms: C24_31  and  O6_32 
REMARK   10  A    between atoms: C28_36  and  O7_37 
REMARK   11  A    between atoms: C31_40  and  O8_41 
REMARK   12  A    between atoms: C32_42  and  O9_43 
ROOT
HETATM    1  C4  UNL     1      -5.566   7.470  13.332  1.00  0.00     0.127 C 
HETATM    2  C5  UNL     1      -5.220   8.755  14.095  1.00  0.00     0.033 C 
HETATM    3  C6  UNL     1      -3.734   9.079  14.007  1.00  0.00     0.021 C 
HETATM    4  C7  UNL     1      -2.790   7.950  14.546  1.00  0.00     0.026 C 
HETATM    5  C12 UNL     1      -1.573   7.813  13.543  1.00  0.00     0.009 C 
HETATM    6  C13 UNL     1      -0.747   9.107  13.376  1.00  0.00     0.007 C 
HETATM    7  C14 UNL     1       0.337   8.957  12.315  1.00  0.00     0.013 C 
HETATM    8  C15 UNL     1       1.316   7.779  12.587  1.00  0.00    -0.005 C 
HETATM    9  C16 UNL     1       2.207   8.159  13.786  1.00  0.00     0.019 C 
HETATM   10  C17 UNL     1       2.127   7.512  11.266  1.00  0.00     0.028 C 
HETATM   11  C22 UNL     1       1.307   6.451  10.494  1.00  0.00     0.013 C 
HETATM   12  C23 UNL     1       0.113   6.070  11.373  1.00  0.00     0.040 C 
HETATM   13  C24 UNL     1       0.521   6.462  12.801  1.00  0.00     0.070 C 
HETATM   14  C25 UNL     1      -0.658   6.589  13.813  1.00  0.00     0.026 C 
HETATM   15  C26 UNL     1      -1.505   5.305  13.876  1.00  0.00     0.011 C 
HETATM   16  C27 UNL     1      -2.616   5.408  14.909  1.00  0.00     0.039 C 
HETATM   17  C28 UNL     1      -3.568   6.592  14.690  1.00  0.00     0.073 C 
HETATM   18  C29 UNL     1      -4.492   6.372  13.474  1.00  0.00     0.071 C 
ENDROOT
BRANCH   1  19
HETATM   19  O2  UNL     1      -6.819   6.916  13.763  1.00  0.00    -0.356 OA
BRANCH  19  20
HETATM   20  C3  UNL     1      -7.079   7.083  15.155  1.00  0.00     0.263 C 
HETATM   21  O1  UNL     1      -8.142   6.243  15.613  1.00  0.00    -0.354 OA
HETATM   22  C2  UNL     1      -9.469   6.580  15.170  1.00  0.00     0.151 C 
HETATM   23  C1  UNL     1      -9.728   6.203  13.716  1.00  0.00     0.042 C 
HETATM   24  C32 UNL     1      -9.798   8.046  15.479  1.00  0.00     0.175 C 
HETATM   25  C31 UNL     1      -8.713   8.980  14.936  1.00  0.00     0.154 C 
HETATM   26  C30 UNL     1      -7.343   8.556  15.446  1.00  0.00     0.095 C 
BRANCH  24  27
HETATM   27  O9  UNL     1      -9.868   8.238  16.909  1.00  0.00    -0.390 OA
HETATM   28  H49 UNL     1      -9.286   7.567  17.319  1.00  0.00     0.210 HD
ENDBRANCH  24  27
BRANCH  25  29
HETATM   29  O8  UNL     1      -8.974  10.317  15.368  1.00  0.00    -0.393 OA
HETATM   30  H47 UNL     1      -9.289  10.245  16.294  1.00  0.00     0.210 HD
ENDBRANCH  25  29
ENDBRANCH  19  20
ENDBRANCH   1  19
BRANCH  17  31
HETATM   31  O7  UNL     1      -4.414   6.618  15.855  1.00  0.00    -0.389 OA
HETATM   32  H41 UNL     1      -5.033   5.869  15.796  1.00  0.00     0.210 HD
ENDBRANCH  17  31
BRANCH   4  33
HETATM   33  C8  UNL     1      -2.383   8.368  15.968  1.00  0.00     0.068 C 
HETATM   34  N1  UNL     1      -3.088   9.165  16.691  1.00  0.00    -0.401 N 
ATOM     35  H1  UNL     1      -3.980   9.543  16.374  1.00  0.00     0.158 HD
BRANCH  34  36
HETATM   36  C9  UNL     1      -2.517   9.489  18.003  1.00  0.00     0.121 C 
BRANCH  36  37
HETATM   37  C10 UNL     1      -3.322  10.629  18.622  1.00  0.00     0.045 C 
BRANCH  37  38
HETATM   38  C11 UNL     1      -2.756  11.993  18.245  1.00  0.00     0.165 C 
BRANCH  38  39
HETATM   39  O3  UNL     1      -1.891  11.897  17.122  1.00  0.00    -0.401 OA
HETATM   40  H18 UNL     1      -2.411  11.526  16.387  1.00  0.00     0.209 HD
ENDBRANCH  38  39
ENDBRANCH  37  38
ENDBRANCH  36  37
ENDBRANCH  34  36
ENDBRANCH   4  33
BRANCH  13  41
HETATM   41  O6  UNL     1       1.428   5.456  13.272  1.00  0.00    -0.389 OA
HETATM   42  H35 UNL     1       0.971   4.597  13.278  1.00  0.00     0.210 HD
ENDBRANCH  13  41
BRANCH  10  43
HETATM   43  C18 UNL     1       3.586   7.146  11.364  1.00  0.00    -0.045 A 
HETATM   44  C19 UNL     1       4.202   6.252  10.587  1.00  0.00     0.087 A 
HETATM   45  C20 UNL     1       5.586   6.162  11.039  1.00  0.00     0.283 A 
HETATM   46  O4  UNL     1       6.431   5.437  10.543  1.00  0.00    -0.260 OA
HETATM   47  O5  UNL     1       5.766   6.996  12.095  1.00  0.00    -0.314 OA
HETATM   48  C21 UNL     1       4.543   7.693  12.358  1.00  0.00     0.213 A 
ENDBRANCH  10  43
TORSDOF 12
ENDMDL
MODEL 8
REMARK minimizedAffinity -8.7613163
REMARK CNNscore 0.337924123
REMARK CNNaffinity 6.58352804
REMARK  12 active torsions:
REMARK  status: ('A' for Active; 'I' for Inactive)
REMARK    1  A    between atoms: C3_4  and  O2_5 
REMARK    2  A    between atoms: O2_5  and  C4_6 
REMARK    3  A    between atoms: C7_9  and  C8_10 
REMARK    4  A    between atoms: N1_11  and  C9_13 
REMARK    5  A    between atoms: C9_13  and  C10_14 
REMARK    6  A    between atoms: C10_14  and  C11_15 
REMARK    7  A    between atoms: C11_15  and  O3_16 
REMARK    8  A    between atoms: C17_22  and  C18_23 
REMARK    9  A    between atoms: C24_31  and  O6_32 
REMARK   10  A    between atoms: C28_36  and  O7_37 
REMARK   11  A    between atoms: C31_40  and  O8_41 
REMARK   12  A    between atoms: C32_42  and  O9_43 
ROOT
HETATM    1  C4  UNL     1       2.840   9.713  13.611  1.00  0.00     0.127 C 
HETATM    2  C5  UNL     1       2.641   9.103  12.218  1.00  0.00     0.033 C 
HETATM    3  C6  UNL     1       1.194   8.683  11.989  1.00  0.00     0.021 C 
HETATM    4  C7  UNL     1       0.644   7.651  13.032  1.00  0.00     0.026 C 
HETATM    5  C12 UNL     1      -0.826   8.091  13.423  1.00  0.00     0.009 C 
HETATM    6  C13 UNL     1      -1.802   8.151  12.227  1.00  0.00     0.007 C 
HETATM    7  C14 UNL     1      -3.168   8.692  12.636  1.00  0.00     0.013 C 
HETATM    8  C15 UNL     1      -3.841   7.882  13.782  1.00  0.00    -0.005 C 
HETATM    9  C16 UNL     1      -4.283   6.519  13.215  1.00  0.00     0.019 C 
HETATM   10  C17 UNL     1      -5.031   8.741  14.344  1.00  0.00     0.028 C 
HETATM   11  C22 UNL     1      -4.423   9.575  15.497  1.00  0.00     0.013 C 
HETATM   12  C23 UNL     1      -2.958   9.153  15.639  1.00  0.00     0.040 C 
HETATM   13  C24 UNL     1      -2.873   7.763  14.991  1.00  0.00     0.070 C 
HETATM   14  C25 UNL     1      -1.434   7.299  14.610  1.00  0.00     0.026 C 
HETATM   15  C26 UNL     1      -0.476   7.344  15.815  1.00  0.00     0.011 C 
HETATM   16  C27 UNL     1       0.909   6.831  15.457  1.00  0.00     0.039 C 
HETATM   17  C28 UNL     1       1.576   7.583  14.295  1.00  0.00     0.073 C 
HETATM   18  C29 UNL     1       2.024   9.001  14.709  1.00  0.00     0.071 C 
ENDROOT
BRANCH   1  19
HETATM   19  O2  UNL     1       4.220   9.694  14.008  1.00  0.00    -0.356 OA
BRANCH  19  20
HETATM   20  C3  UNL     1       4.434   9.245  15.344  1.00  0.00     0.263 C 
HETATM   21  O1  UNL     1       4.819  10.309  16.219  1.00  0.00    -0.354 OA
HETATM   22  C2  UNL     1       6.136  10.856  16.031  1.00  0.00     0.151 C 
HETATM   23  C1  UNL     1       6.241  11.756  14.805  1.00  0.00     0.042 C 
HETATM   24  C32 UNL     1       7.201   9.752  16.059  1.00  0.00     0.175 C 
HETATM   25  C31 UNL     1       6.855   8.629  15.076  1.00  0.00     0.154 C 
HETATM   26  C30 UNL     1       5.449   8.108  15.338  1.00  0.00     0.095 C 
BRANCH  24  27
HETATM   27  O9  UNL     1       7.268   9.174  17.381  1.00  0.00    -0.390 OA
HETATM   28  H49 UNL     1       6.386   9.283  17.789  1.00  0.00     0.210 HD
ENDBRANCH  24  27
BRANCH  25  29
HETATM   29  O8  UNL     1       7.784   7.554  15.235  1.00  0.00    -0.393 OA
HETATM   30  H47 UNL     1       7.941   7.473  16.199  1.00  0.00     0.210 HD
ENDBRANCH  25  29
ENDBRANCH  19  20
ENDBRANCH   1  19
BRANCH  17  31
HETATM   31  O7  UNL     1       2.772   6.839  13.999  1.00  0.00    -0.389 OA
HETATM   32  H41 UNL     1       3.413   6.998  14.715  1.00  0.00     0.210 HD
ENDBRANCH  17  31
BRANCH   4  33
HETATM   33  C8  UNL     1       0.725   6.272  12.360  1.00  0.00     0.068 C 
HETATM   34  N1  UNL     1      -0.186   5.374  12.495  1.00  0.00    -0.401 N 
ATOM     35  H1  UNL     1      -1.036   5.536  13.034  1.00  0.00     0.158 HD
BRANCH  34  36
HETATM   36  C9  UNL     1       0.086   4.101  11.818  1.00  0.00     0.121 C 
BRANCH  36  37
HETATM   37  C10 UNL     1      -1.186   3.255  11.831  1.00  0.00     0.045 C 
BRANCH  37  38
HETATM   38  C11 UNL     1      -1.153   2.165  10.767  1.00  0.00     0.165 C 
BRANCH  38  39
HETATM   39  O3  UNL     1      -0.002   1.344  10.909  1.00  0.00    -0.401 OA
HETATM   40  H18 UNL     1      -0.034   0.953  11.800  1.00  0.00     0.209 HD
ENDBRANCH  38  39
ENDBRANCH  37  38
ENDBRANCH  36  37
ENDBRANCH  34  36
ENDBRANCH   4  33
BRANCH  13  41
HETATM   41  O6  UNL     1      -3.427   6.827  15.926  1.00  0.00    -0.389 OA
HETATM   42  H35 UNL     1      -2.902   6.849  16.743  1.00  0.00     0.210 HD
ENDBRANCH  13  41
BRANCH  10  43
HETATM   43  C18 UNL     1      -6.306   8.048  14.752  1.00  0.00    -0.045 A 
HETATM   44  C19 UNL     1      -6.878   8.149  15.953  1.00  0.00     0.087 A 
HETATM   45  C20 UNL     1      -8.058   7.289  15.949  1.00  0.00     0.283 A 
HETATM   46  O4  UNL     1      -8.816   7.148  16.892  1.00  0.00    -0.260 OA
HETATM   47  O5  UNL     1      -8.157   6.676  14.742  1.00  0.00    -0.314 OA
HETATM   48  C21 UNL     1      -7.092   7.124  13.897  1.00  0.00     0.213 A 
ENDBRANCH  10  43
TORSDOF 12
ENDMDL
MODEL 9
REMARK minimizedAffinity -7.98764753
REMARK CNNscore 0.329307556
REMARK CNNaffinity 6.1529789
REMARK  12 active torsions:
REMARK  status: ('A' for Active; 'I' for Inactive)
REMARK    1  A    between atoms: C3_4  and  O2_5 
REMARK    2  A    between atoms: O2_5  and  C4_6 
REMARK    3  A    between atoms: C7_9  and  C8_10 
REMARK    4  A    between atoms: N1_11  and  C9_13 
REMARK    5  A    between atoms: C9_13  and  C10_14 
REMARK    6  A    between atoms: C10_14  and  C11_15 
REMARK    7  A    between atoms: C11_15  and  O3_16 
REMARK    8  A    between atoms: C17_22  and  C18_23 
REMARK    9  A    between atoms: C24_31  and  O6_32 
REMARK   10  A    between atoms: C28_36  and  O7_37 
REMARK   11  A    between atoms: C31_40  and  O8_41 
REMARK   12  A    between atoms: C32_42  and  O9_43 
ROOT
HETATM    1  C4  UNL     1      -3.442   6.717  13.915  1.00  0.00     0.127 C 
HETATM    2  C5  UNL     1      -2.678   6.140  15.113  1.00  0.00     0.033 C 
HETATM    3  C6  UNL     1      -2.489   7.178  16.213  1.00  0.00     0.021 C 
HETATM    4  C7  UNL     1      -1.733   8.474  15.759  1.00  0.00     0.026 C 
HETATM    5  C12 UNL     1      -2.475   9.719  16.397  1.00  0.00     0.009 C 
HETATM    6  C13 UNL     1      -2.529   9.694  17.941  1.00  0.00     0.007 C 
HETATM    7  C14 UNL     1      -3.354  10.849  18.499  1.00  0.00     0.013 C 
HETATM    8  C15 UNL     1      -2.850  12.250  18.045  1.00  0.00    -0.005 C 
HETATM    9  C16 UNL     1      -1.517  12.540  18.762  1.00  0.00     0.019 C 
HETATM   10  C17 UNL     1      -3.977  13.296  18.373  1.00  0.00     0.028 C 
HETATM   11  C22 UNL     1      -4.851  13.366  17.098  1.00  0.00     0.013 C 
HETATM   12  C23 UNL     1      -4.206  12.452  16.054  1.00  0.00     0.040 C 
HETATM   13  C24 UNL     1      -2.742  12.303  16.497  1.00  0.00     0.070 C 
HETATM   14  C25 UNL     1      -1.984  11.093  15.871  1.00  0.00     0.026 C 
HETATM   15  C26 UNL     1      -2.036  11.113  14.332  1.00  0.00     0.011 C 
HETATM   16  C27 UNL     1      -1.243   9.968  13.722  1.00  0.00     0.039 C 
HETATM   17  C28 UNL     1      -1.689   8.576  14.192  1.00  0.00     0.073 C 
HETATM   18  C29 UNL     1      -3.052   8.173  13.590  1.00  0.00     0.071 C 
ENDROOT
BRANCH   1  19
HETATM   19  O2  UNL     1      -3.240   5.934  12.729  1.00  0.00    -0.356 OA
BRANCH  19  20
HETATM   20  C3  UNL     1      -3.230   4.526  12.957  1.00  0.00     0.263 C 
HETATM   21  O1  UNL     1      -1.918   3.969  12.853  1.00  0.00    -0.354 OA
HETATM   22  C2  UNL     1      -1.341   3.912  11.537  1.00  0.00     0.151 C 
HETATM   23  C1  UNL     1      -0.861   5.268  11.034  1.00  0.00     0.042 C 
HETATM   24  C32 UNL     1      -2.282   3.206  10.552  1.00  0.00     0.175 C 
HETATM   25  C31 UNL     1      -3.681   3.829  10.585  1.00  0.00     0.154 C 
HETATM   26  C30 UNL     1      -4.218   3.855  12.009  1.00  0.00     0.095 C 
BRANCH  24  27
HETATM   27  O9  UNL     1      -2.413   1.814  10.917  1.00  0.00    -0.390 OA
HETATM   28  H49 UNL     1      -2.262   1.753  11.881  1.00  0.00     0.210 HD
ENDBRANCH  24  27
BRANCH  25  29
HETATM   29  O8  UNL     1      -4.566   3.056   9.771  1.00  0.00    -0.393 OA
HETATM   30  H47 UNL     1      -4.329   2.118   9.929  1.00  0.00     0.210 HD
ENDBRANCH  25  29
ENDBRANCH  19  20
ENDBRANCH   1  19
BRANCH  17  31
HETATM   31  O7  UNL     1      -0.712   7.664  13.656  1.00  0.00    -0.389 OA
HETATM   32  H41 UNL     1      -0.860   7.593  12.696  1.00  0.00     0.210 HD
ENDBRANCH  17  31
BRANCH   4  33
HETATM   33  C8  UNL     1      -0.277   8.310  16.223  1.00  0.00     0.068 C 
HETATM   34  N1  UNL     1       0.619   9.215  16.046  1.00  0.00    -0.401 N 
ATOM     35  H1  UNL     1       0.409  10.114  15.612  1.00  0.00     0.158 HD
BRANCH  34  36
HETATM   36  C9  UNL     1       1.965   8.862  16.512  1.00  0.00     0.121 C 
BRANCH  36  37
HETATM   37  C10 UNL     1       2.481   7.687  15.685  1.00  0.00     0.045 C 
BRANCH  37  38
HETATM   38  C11 UNL     1       3.897   7.930  15.177  1.00  0.00     0.165 C 
BRANCH  38  39
HETATM   39  O3  UNL     1       4.801   6.965  15.696  1.00  0.00    -0.401 OA
HETATM   40  H18 UNL     1       4.482   6.089  15.415  1.00  0.00     0.209 HD
ENDBRANCH  38  39
ENDBRANCH  37  38
ENDBRANCH  36  37
ENDBRANCH  34  36
ENDBRANCH   4  33
BRANCH  13  41
HETATM   41  O6  UNL     1      -2.065  13.512  16.129  1.00  0.00    -0.389 OA
HETATM   42  H35 UNL     1      -2.114  13.621  15.164  1.00  0.00     0.210 HD
ENDBRANCH  13  41
BRANCH  10  43
HETATM   43  C18 UNL     1      -3.584  14.663  18.872  1.00  0.00    -0.045 A 
HETATM   44  C19 UNL     1      -3.300  15.707  18.091  1.00  0.00     0.087 A 
HETATM   45  C20 UNL     1      -2.924  16.815  18.963  1.00  0.00     0.283 A 
HETATM   46  O4  UNL     1      -2.606  17.925  18.575  1.00  0.00    -0.260 OA
HETATM   47  O5  UNL     1      -2.975  16.402  20.255  1.00  0.00    -0.314 OA
HETATM   48  C21 UNL     1      -3.418  15.042  20.298  1.00  0.00     0.213 A 
ENDBRANCH  10  43
TORSDOF 12
ENDMDL
