MODEL 1
REMARK minimizedAffinity -10.692564
REMARK  7 active torsions:
REMARK  status: ('A' for Active; 'I' for Inactive)
REMARK    1  A    between atoms: C3_3  and  C4_4 
REMARK    2  A    between atoms: C4_4  and  O1_5 
REMARK    3  A    between atoms: C6_9  and  C7_10 
REMARK    4  A    between atoms: C7_10  and  C9_12 
REMARK    5  A    between atoms: C9_12  and  O4_13 
REMARK    6  A    between atoms: C10_14  and  O5_15 
REMARK    7  A    between atoms: C17_22  and  O6_23 
ROOT
HETATM    1  C9  UNL     1       6.233  64.123 -35.547  1.00  0.00     0.097 C 
HETATM    2  C10 UNL     1       5.325  63.969 -34.259  1.00  0.00     0.154 C 
HETATM    3  C11 UNL     1       4.071  64.835 -34.470  1.00  0.00     0.040 C 
HETATM    4  C12 UNL     1       4.185  65.336 -35.903  1.00  0.00     0.004 C 
HETATM    5  C13 UNL     1       3.345  66.564 -36.291  1.00  0.00    -0.001 C 
HETATM    6  C14 UNL     1       1.861  66.313 -36.003  1.00  0.00     0.033 C 
HETATM    7  C15 UNL     1       0.965  67.338 -36.615  1.00  0.00    -0.019 C 
HETATM    8  C16 UNL     1       1.331  68.191 -37.591  1.00  0.00    -0.035 C 
HETATM    9  C17 UNL     1       0.318  69.175 -38.133  1.00  0.00     0.171 C 
HETATM   10  C18 UNL     1       0.410  69.366 -39.608  1.00  0.00     0.013 C 
HETATM   11  C19 UNL     1       1.379  68.865 -40.382  1.00  0.00     0.050 C 
HETATM   12  C20 UNL     1       2.513  68.112 -39.785  1.00  0.00     0.162 C 
HETATM   13  O7  UNL     1       3.270  67.534 -40.563  1.00  0.00    -0.292 OA
HETATM   14  C21 UNL     1       2.727  68.166 -38.247  1.00  0.00     0.051 C 
HETATM   15  C22 UNL     1       3.483  69.473 -37.927  1.00  0.00     0.029 C 
HETATM   16  C23 UNL     1       3.556  66.891 -37.798  1.00  0.00     0.011 C 
HETATM   17  C24 UNL     1       5.069  66.956 -38.141  1.00  0.00     0.007 C 
HETATM   18  C25 UNL     1       5.872  65.737 -37.649  1.00  0.00     0.013 C 
HETATM   19  C26 UNL     1       5.714  65.504 -36.128  1.00  0.00    -0.006 C 
HETATM   20  C27 UNL     1       6.302  66.703 -35.336  1.00  0.00     0.019 C 
ENDROOT
BRANCH   1  21
HETATM   21  C7  UNL     1       7.779  63.945 -35.278  1.00  0.00     0.049 C 
HETATM   22  C8  UNL     1       8.638  64.774 -36.249  1.00  0.00     0.016 C 
BRANCH  21  23
HETATM   23  C6  UNL     1       8.250  62.446 -35.378  1.00  0.00     0.143 C 
HETATM   24  O3  UNL     1       8.183  61.774 -34.106  1.00  0.00    -0.311 OA
HETATM   25  C5  UNL     1       9.195  61.899 -33.206  1.00  0.00     0.292 C 
HETATM   26  C3  UNL     1      10.490  62.478 -33.674  1.00  0.00     0.042 C 
HETATM   27  O2  UNL     1       9.018  61.576 -32.035  1.00  0.00    -0.260 OA
HETATM   28  C2  UNL     1      10.707  62.619 -35.002  1.00  0.00    -0.067 C 
HETATM   29  C1  UNL     1      11.958  63.182 -35.615  1.00  0.00     0.044 C 
HETATM   30  C28 UNL     1       9.640  62.195 -35.970  1.00  0.00     0.067 C 
BRANCH  26  31
HETATM   31  C4  UNL     1      11.429  62.770 -32.531  1.00  0.00     0.209 C 
BRANCH  31  32
HETATM   32  O1  UNL     1      10.925  63.752 -31.635  1.00  0.00    -0.396 OA
HETATM   33  H6  UNL     1      11.636  63.942 -30.999  1.00  0.00     0.209 HD
ENDBRANCH  31  32
ENDBRANCH  26  31
ENDBRANCH  21  23
ENDBRANCH   1  21
BRANCH   1  34
HETATM   34  O4  UNL     1       5.845  63.099 -36.489  1.00  0.00    -0.386 OA
HETATM   35  H12 UNL     1       5.788  62.253 -36.009  1.00  0.00     0.210 HD
ENDBRANCH   1  34
BRANCH   2  36
HETATM   36  O5  UNL     1       5.967  64.427 -33.073  1.00  0.00    -0.392 OA
HETATM   37  H14 UNL     1       5.587  63.909 -32.334  1.00  0.00     0.210 HD
ENDBRANCH   2  36
BRANCH   9  38
HETATM   38  O6  UNL     1       0.508  70.442 -37.528  1.00  0.00    -0.387 OA
HETATM   39  H23 UNL     1       0.628  70.281 -36.577  1.00  0.00     0.210 HD
ENDBRANCH   9  38
TORSDOF 7
ENDMDL
MODEL 2
REMARK minimizedAffinity -10.2864971
REMARK  7 active torsions:
REMARK  status: ('A' for Active; 'I' for Inactive)
REMARK    1  A    between atoms: C3_3  and  C4_4 
REMARK    2  A    between atoms: C4_4  and  O1_5 
REMARK    3  A    between atoms: C6_9  and  C7_10 
REMARK    4  A    between atoms: C7_10  and  C9_12 
REMARK    5  A    between atoms: C9_12  and  O4_13 
REMARK    6  A    between atoms: C10_14  and  O5_15 
REMARK    7  A    between atoms: C17_22  and  O6_23 
ROOT
HETATM    1  C9  UNL     1      -2.783  51.790 -24.597  1.00  0.00     0.097 C 
HETATM    2  C10 UNL     1      -4.327  51.506 -24.392  1.00  0.00     0.154 C 
HETATM    3  C11 UNL     1      -4.538  51.149 -22.910  1.00  0.00     0.040 C 
HETATM    4  C12 UNL     1      -3.183  51.382 -22.259  1.00  0.00     0.004 C 
HETATM    5  C13 UNL     1      -2.925  50.709 -20.901  1.00  0.00    -0.001 C 
HETATM    6  C14 UNL     1      -4.002  51.114 -19.889  1.00  0.00     0.033 C 
HETATM    7  C15 UNL     1      -3.659  50.733 -18.487  1.00  0.00    -0.019 C 
HETATM    8  C16 UNL     1      -2.425  50.393 -18.065  1.00  0.00    -0.035 C 
HETATM    9  C17 UNL     1      -2.212  50.040 -16.609  1.00  0.00     0.171 C 
HETATM   10  C18 UNL     1      -0.931  50.562 -16.056  1.00  0.00     0.013 C 
HETATM   11  C19 UNL     1       0.031  51.143 -16.781  1.00  0.00     0.050 C 
HETATM   12  C20 UNL     1      -0.092  51.247 -18.259  1.00  0.00     0.162 C 
HETATM   13  O7  UNL     1       0.740  51.943 -18.840  1.00  0.00    -0.292 OA
HETATM   14  C21 UNL     1      -1.188  50.419 -18.985  1.00  0.00     0.051 C 
HETATM   15  C22 UNL     1      -0.643  48.988 -19.174  1.00  0.00     0.029 C 
HETATM   16  C23 UNL     1      -1.514  51.105 -20.376  1.00  0.00     0.011 C 
HETATM   17  C24 UNL     1      -0.436  50.879 -21.471  1.00  0.00     0.007 C 
HETATM   18  C25 UNL     1      -0.793  51.502 -22.834  1.00  0.00     0.013 C 
HETATM   19  C26 UNL     1      -2.158  51.008 -23.368  1.00  0.00    -0.006 C 
HETATM   20  C27 UNL     1      -2.109  49.481 -23.639  1.00  0.00     0.019 C 
ENDROOT
BRANCH   1  21
HETATM   21  C7  UNL     1      -2.251  51.471 -26.050  1.00  0.00     0.049 C 
HETATM   22  C8  UNL     1      -1.200  50.347 -26.050  1.00  0.00     0.016 C 
BRANCH  21  23
HETATM   23  C6  UNL     1      -1.616  52.724 -26.760  1.00  0.00     0.143 C 
HETATM   24  O3  UNL     1      -0.839  52.354 -27.915  1.00  0.00    -0.311 OA
HETATM   25  C5  UNL     1       0.448  51.940 -27.776  1.00  0.00     0.292 C 
HETATM   26  C3  UNL     1       1.127  52.170 -26.466  1.00  0.00     0.042 C 
HETATM   27  O2  UNL     1       1.009  51.358 -28.701  1.00  0.00    -0.260 OA
HETATM   28  C2  UNL     1       0.551  52.993 -25.560  1.00  0.00    -0.067 C 
HETATM   29  C1  UNL     1       1.119  53.318 -24.208  1.00  0.00     0.044 C 
HETATM   30  C28 UNL     1      -0.758  53.651 -25.894  1.00  0.00     0.067 C 
BRANCH  26  31
HETATM   31  C4  UNL     1       2.455  51.459 -26.380  1.00  0.00     0.209 C 
BRANCH  31  32
HETATM   32  O1  UNL     1       3.408  51.949 -27.314  1.00  0.00    -0.396 OA
HETATM   33  H6  UNL     1       4.186  51.369 -27.251  1.00  0.00     0.209 HD
ENDBRANCH  31  32
ENDBRANCH  26  31
ENDBRANCH  21  23
ENDBRANCH   1  21
BRANCH   1  34
HETATM   34  O4  UNL     1      -2.555  53.197 -24.361  1.00  0.00    -0.386 OA
HETATM   35  H12 UNL     1      -3.230  53.700 -24.851  1.00  0.00     0.210 HD
ENDBRANCH   1  34
BRANCH   2  36
HETATM   36  O5  UNL     1      -4.795  50.409 -25.168  1.00  0.00    -0.392 OA
HETATM   37  H14 UNL     1      -5.742  50.580 -25.348  1.00  0.00     0.210 HD
ENDBRANCH   2  36
BRANCH   9  38
HETATM   38  O6  UNL     1      -2.199  48.632 -16.455  1.00  0.00    -0.387 OA
HETATM   39  H23 UNL     1      -2.945  48.288 -16.975  1.00  0.00     0.210 HD
ENDBRANCH   9  38
TORSDOF 7
ENDMDL
MODEL 3
REMARK minimizedAffinity -10.1987762
REMARK  7 active torsions:
REMARK  status: ('A' for Active; 'I' for Inactive)
REMARK    1  A    between atoms: C3_3  and  C4_4 
REMARK    2  A    between atoms: C4_4  and  O1_5 
REMARK    3  A    between atoms: C6_9  and  C7_10 
REMARK    4  A    between atoms: C7_10  and  C9_12 
REMARK    5  A    between atoms: C9_12  and  O4_13 
REMARK    6  A    between atoms: C10_14  and  O5_15 
REMARK    7  A    between atoms: C17_22  and  O6_23 
ROOT
HETATM    1  C9  UNL     1      -0.687  51.028 -19.509  1.00  0.00     0.097 C 
HETATM    2  C10 UNL     1      -2.268  50.958 -19.544  1.00  0.00     0.154 C 
HETATM    3  C11 UNL     1      -2.711  51.207 -20.996  1.00  0.00     0.040 C 
HETATM    4  C12 UNL     1      -1.415  51.253 -21.792  1.00  0.00     0.004 C 
HETATM    5  C13 UNL     1      -1.459  51.916 -23.179  1.00  0.00    -0.001 C 
HETATM    6  C14 UNL     1      -2.522  51.249 -24.059  1.00  0.00     0.033 C 
HETATM    7  C15 UNL     1      -2.423  51.644 -25.495  1.00  0.00    -0.019 C 
HETATM    8  C16 UNL     1      -1.348  52.232 -26.057  1.00  0.00    -0.035 C 
HETATM    9  C17 UNL     1      -1.376  52.570 -27.531  1.00  0.00     0.171 C 
HETATM   10  C18 UNL     1      -0.077  52.323 -28.218  1.00  0.00     0.013 C 
HETATM   11  C19 UNL     1       1.062  51.993 -27.598  1.00  0.00     0.050 C 
HETATM   12  C20 UNL     1       1.124  51.919 -26.115  1.00  0.00     0.162 C 
HETATM   13  O7  UNL     1       2.146  51.444 -25.622  1.00  0.00    -0.292 OA
HETATM   14  C21 UNL     1      -0.046  52.512 -25.281  1.00  0.00     0.051 C 
HETATM   15  C22 UNL     1       0.185  54.033 -25.170  1.00  0.00     0.029 C 
HETATM   16  C23 UNL     1      -0.060  51.822 -23.854  1.00  0.00     0.011 C 
HETATM   17  C24 UNL     1       1.051  52.319 -22.889  1.00  0.00     0.007 C 
HETATM   18  C25 UNL     1       0.990  51.683 -21.487  1.00  0.00     0.013 C 
HETATM   19  C26 UNL     1      -0.386  51.883 -20.810  1.00  0.00    -0.006 C 
HETATM   20  C27 UNL     1      -0.650  53.392 -20.564  1.00  0.00     0.019 C 
ENDROOT
BRANCH   1  21
HETATM   21  C7  UNL     1      -0.087  51.509 -18.129  1.00  0.00     0.049 C 
HETATM   22  C8  UNL     1       1.149  52.406 -18.313  1.00  0.00     0.016 C 
BRANCH  21  23
HETATM   23  C6  UNL     1       0.320  50.315 -17.188  1.00  0.00     0.143 C 
HETATM   24  O3  UNL     1      -0.773  49.402 -16.971  1.00  0.00    -0.311 OA
HETATM   25  C5  UNL     1      -1.710  49.664 -16.021  1.00  0.00     0.292 C 
HETATM   26  C3  UNL     1      -1.420  50.730 -15.016  1.00  0.00     0.042 C 
HETATM   27  O2  UNL     1      -2.777  49.056 -16.028  1.00  0.00    -0.260 OA
HETATM   28  C2  UNL     1      -0.162  51.218 -14.917  1.00  0.00    -0.067 C 
HETATM   29  C1  UNL     1       0.274  52.286 -13.955  1.00  0.00     0.044 C 
HETATM   30  C28 UNL     1       0.908  50.678 -15.822  1.00  0.00     0.067 C 
BRANCH  26  31
HETATM   31  C4  UNL     1      -2.628  51.068 -14.180  1.00  0.00     0.209 C 
BRANCH  31  32
HETATM   32  O1  UNL     1      -3.688  51.636 -14.939  1.00  0.00    -0.396 OA
HETATM   33  H6  UNL     1      -4.373  51.909 -14.304  1.00  0.00     0.209 HD
ENDBRANCH  31  32
ENDBRANCH  26  31
ENDBRANCH  21  23
ENDBRANCH   1  21
BRANCH   1  34
HETATM   34  O4  UNL     1      -0.178  49.698 -19.753  1.00  0.00    -0.386 OA
HETATM   35  H12 UNL     1      -0.668  49.078 -19.185  1.00  0.00     0.210 HD
ENDBRANCH   1  34
BRANCH   2  36
HETATM   36  O5  UNL     1      -2.884  51.953 -18.732  1.00  0.00    -0.392 OA
HETATM   37  H14 UNL     1      -3.744  51.585 -18.445  1.00  0.00     0.210 HD
ENDBRANCH   2  36
BRANCH   9  38
HETATM   38  O6  UNL     1      -1.693  53.940 -27.702  1.00  0.00    -0.387 OA
HETATM   39  H23 UNL     1      -2.436  54.131 -27.105  1.00  0.00     0.210 HD
ENDBRANCH   9  38
TORSDOF 7
ENDMDL
MODEL 4
REMARK minimizedAffinity -10.0420504
REMARK  7 active torsions:
REMARK  status: ('A' for Active; 'I' for Inactive)
REMARK    1  A    between atoms: C3_3  and  C4_4 
REMARK    2  A    between atoms: C4_4  and  O1_5 
REMARK    3  A    between atoms: C6_9  and  C7_10 
REMARK    4  A    between atoms: C7_10  and  C9_12 
REMARK    5  A    between atoms: C9_12  and  O4_13 
REMARK    6  A    between atoms: C10_14  and  O5_15 
REMARK    7  A    between atoms: C17_22  and  O6_23 
ROOT
HETATM    1  C9  UNL     1      -1.636  50.881 -23.353  1.00  0.00     0.097 C 
HETATM    2  C10 UNL     1      -0.878  50.358 -22.065  1.00  0.00     0.154 C 
HETATM    3  C11 UNL     1      -1.747  49.257 -21.432  1.00  0.00     0.040 C 
HETATM    4  C12 UNL     1      -2.885  49.047 -22.421  1.00  0.00     0.004 C 
HETATM    5  C13 UNL     1      -4.153  48.350 -21.902  1.00  0.00    -0.001 C 
HETATM    6  C14 UNL     1      -3.805  46.985 -21.297  1.00  0.00     0.033 C 
HETATM    7  C15 UNL     1      -5.007  46.138 -21.038  1.00  0.00    -0.019 C 
HETATM    8  C16 UNL     1      -6.226  46.353 -21.570  1.00  0.00    -0.035 C 
HETATM    9  C17 UNL     1      -7.358  45.407 -21.234  1.00  0.00     0.171 C 
HETATM   10  C18 UNL     1      -8.247  45.113 -22.393  1.00  0.00     0.013 C 
HETATM   11  C19 UNL     1      -8.180  45.729 -23.579  1.00  0.00     0.050 C 
HETATM   12  C20 UNL     1      -7.221  46.843 -23.802  1.00  0.00     0.162 C 
HETATM   13  O7  UNL     1      -7.092  47.245 -24.958  1.00  0.00    -0.292 OA
HETATM   14  C21 UNL     1      -6.513  47.485 -22.577  1.00  0.00     0.051 C 
HETATM   15  C22 UNL     1      -7.489  48.507 -21.957  1.00  0.00     0.029 C 
HETATM   16  C23 UNL     1      -5.175  48.181 -23.064  1.00  0.00     0.011 C 
HETATM   17  C24 UNL     1      -5.386  49.527 -23.810  1.00  0.00     0.007 C 
HETATM   18  C25 UNL     1      -4.075  50.221 -24.227  1.00  0.00     0.013 C 
HETATM   19  C26 UNL     1      -3.128  50.458 -23.027  1.00  0.00    -0.006 C 
HETATM   20  C27 UNL     1      -3.780  51.435 -22.013  1.00  0.00     0.019 C 
ENDROOT
BRANCH   1  21
HETATM   21  C7  UNL     1      -1.335  52.388 -23.717  1.00  0.00     0.049 C 
HETATM   22  C8  UNL     1      -2.128  52.859 -24.949  1.00  0.00     0.016 C 
BRANCH  21  23
HETATM   23  C6  UNL     1       0.191  52.660 -23.994  1.00  0.00     0.143 C 
HETATM   24  O3  UNL     1       0.449  54.049 -24.277  1.00  0.00    -0.311 OA
HETATM   25  C5  UNL     1       0.264  54.542 -25.530  1.00  0.00     0.292 C 
HETATM   26  C3  UNL     1       0.094  53.573 -26.654  1.00  0.00     0.042 C 
HETATM   27  O2  UNL     1       0.201  55.756 -25.709  1.00  0.00    -0.260 OA
HETATM   28  C2  UNL     1       0.380  52.267 -26.447  1.00  0.00    -0.067 C 
HETATM   29  C1  UNL     1       0.258  51.185 -27.481  1.00  0.00     0.044 C 
HETATM   30  C28 UNL     1       0.855  51.825 -25.092  1.00  0.00     0.067 C 
BRANCH  26  31
HETATM   31  C4  UNL     1      -0.330  54.252 -27.932  1.00  0.00     0.209 C 
BRANCH  31  32
HETATM   32  O1  UNL     1      -1.714  54.087 -28.215  1.00  0.00    -0.396 OA
HETATM   33  H6  UNL     1      -1.866  54.468 -29.097  1.00  0.00     0.209 HD
ENDBRANCH  31  32
ENDBRANCH  26  31
ENDBRANCH  21  23
ENDBRANCH   1  21
BRANCH   1  34
HETATM   34  O4  UNL     1      -1.208  50.079 -24.477  1.00  0.00    -0.386 OA
HETATM   35  H12 UNL     1      -0.236  50.019 -24.452  1.00  0.00     0.210 HD
ENDBRANCH   1  34
BRANCH   2  36
HETATM   36  O5  UNL     1      -0.690  51.372 -21.084  1.00  0.00    -0.392 OA
HETATM   37  H14 UNL     1       0.120  51.133 -20.589  1.00  0.00     0.210 HD
ENDBRANCH   2  36
BRANCH   9  38
HETATM   38  O6  UNL     1      -8.164  45.968 -20.213  1.00  0.00    -0.387 OA
HETATM   39  H23 UNL     1      -7.556  46.321 -19.540  1.00  0.00     0.210 HD
ENDBRANCH   9  38
TORSDOF 7
ENDMDL
MODEL 5
REMARK minimizedAffinity -9.77660751
REMARK  7 active torsions:
REMARK  status: ('A' for Active; 'I' for Inactive)
REMARK    1  A    between atoms: C3_3  and  C4_4 
REMARK    2  A    between atoms: C4_4  and  O1_5 
REMARK    3  A    between atoms: C6_9  and  C7_10 
REMARK    4  A    between atoms: C7_10  and  C9_12 
REMARK    5  A    between atoms: C9_12  and  O4_13 
REMARK    6  A    between atoms: C10_14  and  O5_15 
REMARK    7  A    between atoms: C17_22  and  O6_23 
ROOT
HETATM    1  C9  UNL     1      -2.487  50.819 -19.538  1.00  0.00     0.097 C 
HETATM    2  C10 UNL     1      -1.021  51.083 -19.000  1.00  0.00     0.154 C 
HETATM    3  C11 UNL     1      -0.159  51.515 -20.199  1.00  0.00     0.040 C 
HETATM    4  C12 UNL     1      -1.143  51.651 -21.353  1.00  0.00     0.004 C 
HETATM    5  C13 UNL     1      -0.567  51.634 -22.779  1.00  0.00    -0.001 C 
HETATM    6  C14 UNL     1       0.494  52.728 -22.941  1.00  0.00     0.033 C 
HETATM    7  C15 UNL     1       0.884  52.957 -24.364  1.00  0.00    -0.019 C 
HETATM    8  C16 UNL     1       0.177  52.533 -25.430  1.00  0.00    -0.035 C 
HETATM    9  C17 UNL     1       0.680  52.844 -26.823  1.00  0.00     0.171 C 
HETATM   10  C18 UNL     1      -0.407  53.200 -27.778  1.00  0.00     0.013 C 
HETATM   11  C19 UNL     1      -1.714  53.105 -27.513  1.00  0.00     0.050 C 
HETATM   12  C20 UNL     1      -2.187  52.548 -26.218  1.00  0.00     0.162 C 
HETATM   13  O7  UNL     1      -3.389  52.651 -25.973  1.00  0.00    -0.292 OA
HETATM   14  C21 UNL     1      -1.176  51.804 -25.303  1.00  0.00     0.051 C 
HETATM   15  C22 UNL     1      -1.047  50.359 -25.827  1.00  0.00     0.029 C 
HETATM   16  C23 UNL     1      -1.713  51.835 -23.812  1.00  0.00     0.011 C 
HETATM   17  C24 UNL     1      -2.885  50.855 -23.532  1.00  0.00     0.007 C 
HETATM   18  C25 UNL     1      -3.359  50.853 -22.066  1.00  0.00     0.013 C 
HETATM   19  C26 UNL     1      -2.209  50.554 -21.076  1.00  0.00    -0.006 C 
HETATM   20  C27 UNL     1      -1.659  49.121 -21.309  1.00  0.00     0.019 C 
ENDROOT
BRANCH   1  21
HETATM   21  C7  UNL     1      -3.297  49.741 -18.716  1.00  0.00     0.049 C 
HETATM   22  C8  UNL     1      -2.439  49.077 -17.624  1.00  0.00     0.016 C 
BRANCH  21  23
HETATM   23  C6  UNL     1      -3.892  48.599 -19.621  1.00  0.00     0.143 C 
HETATM   24  O3  UNL     1      -5.088  49.021 -20.306  1.00  0.00    -0.311 OA
HETATM   25  C5  UNL     1      -6.293  48.977 -19.679  1.00  0.00     0.292 C 
HETATM   26  C3  UNL     1      -6.399  48.207 -18.404  1.00  0.00     0.042 C 
HETATM   27  O2  UNL     1      -7.248  49.594 -20.142  1.00  0.00    -0.260 OA
HETATM   28  C2  UNL     1      -5.390  47.379 -18.048  1.00  0.00    -0.067 C 
HETATM   29  C1  UNL     1      -5.362  46.543 -16.800  1.00  0.00     0.044 C 
HETATM   30  C28 UNL     1      -4.188  47.259 -18.942  1.00  0.00     0.067 C 
BRANCH  26  31
HETATM   31  C4  UNL     1      -7.717  48.437 -17.707  1.00  0.00     0.209 C 
BRANCH  31  32
HETATM   32  O1  UNL     1      -7.885  47.620 -16.555  1.00  0.00    -0.396 OA
HETATM   33  H6  UNL     1      -8.794  47.766 -16.239  1.00  0.00     0.209 HD
ENDBRANCH  31  32
ENDBRANCH  26  31
ENDBRANCH  21  23
ENDBRANCH   1  21
BRANCH   1  34
HETATM   34  O4  UNL     1      -3.222  52.060 -19.452  1.00  0.00    -0.386 OA
HETATM   35  H12 UNL     1      -3.069  52.441 -18.569  1.00  0.00     0.210 HD
ENDBRANCH   1  34
BRANCH   2  36
HETATM   36  O5  UNL     1      -0.421  49.921 -18.438  1.00  0.00    -0.392 OA
HETATM   37  H14 UNL     1       0.213  50.236 -17.762  1.00  0.00     0.210 HD
ENDBRANCH   2  36
BRANCH   9  38
HETATM   38  O6  UNL     1       1.358  51.717 -27.350  1.00  0.00    -0.387 OA
HETATM   39  H23 UNL     1       1.937  51.385 -26.644  1.00  0.00     0.210 HD
ENDBRANCH   9  38
TORSDOF 7
ENDMDL
MODEL 6
REMARK minimizedAffinity -9.69214821
REMARK  7 active torsions:
REMARK  status: ('A' for Active; 'I' for Inactive)
REMARK    1  A    between atoms: C3_3  and  C4_4 
REMARK    2  A    between atoms: C4_4  and  O1_5 
REMARK    3  A    between atoms: C6_9  and  C7_10 
REMARK    4  A    between atoms: C7_10  and  C9_12 
REMARK    5  A    between atoms: C9_12  and  O4_13 
REMARK    6  A    between atoms: C10_14  and  O5_15 
REMARK    7  A    between atoms: C17_22  and  O6_23 
ROOT
HETATM    1  C9  UNL     1      -2.237  51.547 -23.222  1.00  0.00     0.097 C 
HETATM    2  C10 UNL     1      -3.753  51.138 -23.015  1.00  0.00     0.154 C 
HETATM    3  C11 UNL     1      -3.951  50.841 -21.518  1.00  0.00     0.040 C 
HETATM    4  C12 UNL     1      -2.630  51.229 -20.869  1.00  0.00     0.004 C 
HETATM    5  C13 UNL     1      -2.331  50.655 -19.475  1.00  0.00    -0.001 C 
HETATM    6  C14 UNL     1      -3.454  51.014 -18.495  1.00  0.00     0.033 C 
HETATM    7  C15 UNL     1      -3.096  50.740 -17.071  1.00  0.00    -0.019 C 
HETATM    8  C16 UNL     1      -1.843  50.534 -16.621  1.00  0.00    -0.035 C 
HETATM    9  C17 UNL     1      -1.618  50.279 -15.147  1.00  0.00     0.171 C 
HETATM   10  C18 UNL     1      -0.396  50.941 -14.612  1.00  0.00     0.013 C 
HETATM   11  C19 UNL     1       0.520  51.567 -15.360  1.00  0.00     0.050 C 
HETATM   12  C20 UNL     1       0.408  51.582 -16.842  1.00  0.00     0.162 C 
HETATM   13  O7  UNL     1       1.182  52.317 -17.453  1.00  0.00    -0.292 OA
HETATM   14  C21 UNL     1      -0.601  50.622 -17.531  1.00  0.00     0.051 C 
HETATM   15  C22 UNL     1       0.072  49.237 -17.639  1.00  0.00     0.029 C 
HETATM   16  C23 UNL     1      -0.968  51.201 -18.960  1.00  0.00     0.011 C 
HETATM   17  C24 UNL     1       0.140  51.015 -20.032  1.00  0.00     0.007 C 
HETATM   18  C25 UNL     1      -0.252  51.531 -21.430  1.00  0.00     0.013 C 
HETATM   19  C26 UNL     1      -1.562  50.890 -21.947  1.00  0.00    -0.006 C 
HETATM   20  C27 UNL     1      -1.374  49.361 -22.136  1.00  0.00     0.019 C 
ENDROOT
BRANCH   1  21
HETATM   21  C7  UNL     1      -1.660  51.200 -24.651  1.00  0.00     0.049 C 
HETATM   22  C8  UNL     1      -1.910  49.732 -25.039  1.00  0.00     0.016 C 
BRANCH  21  23
HETATM   23  C6  UNL     1      -0.114  51.472 -24.771  1.00  0.00     0.143 C 
HETATM   24  O3  UNL     1       0.211  52.855 -24.528  1.00  0.00    -0.311 OA
HETATM   25  C5  UNL     1       0.101  53.774 -25.524  1.00  0.00     0.292 C 
HETATM   26  C3  UNL     1      -0.057  53.282 -26.925  1.00  0.00     0.042 C 
HETATM   27  O2  UNL     1       0.094  54.972 -25.256  1.00  0.00    -0.260 OA
HETATM   28  C2  UNL     1       0.167  51.975 -27.195  1.00  0.00    -0.067 C 
HETATM   29  C1  UNL     1       0.049  51.343 -28.552  1.00  0.00     0.044 C 
HETATM   30  C28 UNL     1       0.565  51.053 -26.078  1.00  0.00     0.067 C 
BRANCH  26  31
HETATM   31  C4  UNL     1      -0.398  54.394 -27.885  1.00  0.00     0.209 C 
BRANCH  31  32
HETATM   32  O1  UNL     1      -1.735  54.322 -28.366  1.00  0.00    -0.396 OA
HETATM   33  H6  UNL     1      -1.825  55.013 -29.045  1.00  0.00     0.209 HD
ENDBRANCH  31  32
ENDBRANCH  26  31
ENDBRANCH  21  23
ENDBRANCH   1  21
BRANCH   1  34
HETATM   34  O4  UNL     1      -2.138  52.979 -23.060  1.00  0.00    -0.386 OA
HETATM   35  H12 UNL     1      -2.849  53.393 -23.582  1.00  0.00     0.210 HD
ENDBRANCH   1  34
BRANCH   2  36
HETATM   36  O5  UNL     1      -4.112  49.963 -23.735  1.00  0.00    -0.392 OA
HETATM   37  H14 UNL     1      -5.067  50.040 -23.932  1.00  0.00     0.210 HD
ENDBRANCH   2  36
BRANCH   9  38
HETATM   38  O6  UNL     1      -1.483  48.887 -14.917  1.00  0.00    -0.387 OA
HETATM   39  H23 UNL     1      -2.188  48.451 -15.425  1.00  0.00     0.210 HD
ENDBRANCH   9  38
TORSDOF 7
ENDMDL
MODEL 7
REMARK minimizedAffinity -9.65825844
REMARK  7 active torsions:
REMARK  status: ('A' for Active; 'I' for Inactive)
REMARK    1  A    between atoms: C3_3  and  C4_4 
REMARK    2  A    between atoms: C4_4  and  O1_5 
REMARK    3  A    between atoms: C6_9  and  C7_10 
REMARK    4  A    between atoms: C7_10  and  C9_12 
REMARK    5  A    between atoms: C9_12  and  O4_13 
REMARK    6  A    between atoms: C10_14  and  O5_15 
REMARK    7  A    between atoms: C17_22  and  O6_23 
ROOT
HETATM    1  C9  UNL     1      -1.787  48.739 -20.140  1.00  0.00     0.097 C 
HETATM    2  C10 UNL     1      -3.109  48.024 -20.637  1.00  0.00     0.154 C 
HETATM    3  C11 UNL     1      -3.333  48.433 -22.103  1.00  0.00     0.040 C 
HETATM    4  C12 UNL     1      -2.089  49.224 -22.478  1.00  0.00     0.004 C 
HETATM    5  C13 UNL     1      -2.178  50.143 -23.707  1.00  0.00    -0.001 C 
HETATM    6  C14 UNL     1      -2.612  49.346 -24.943  1.00  0.00     0.033 C 
HETATM    7  C15 UNL     1      -2.442  50.105 -26.217  1.00  0.00    -0.019 C 
HETATM    8  C16 UNL     1      -1.688  51.213 -26.355  1.00  0.00    -0.035 C 
HETATM    9  C17 UNL     1      -1.593  51.880 -27.710  1.00  0.00     0.171 C 
HETATM   10  C18 UNL     1      -0.228  52.388 -28.023  1.00  0.00     0.013 C 
HETATM   11  C19 UNL     1       0.791  52.418 -27.157  1.00  0.00     0.050 C 
HETATM   12  C20 UNL     1       0.600  51.993 -25.746  1.00  0.00     0.162 C 
HETATM   13  O7  UNL     1       1.611  51.881 -25.055  1.00  0.00    -0.292 OA
HETATM   14  C21 UNL     1      -0.845  51.801 -25.205  1.00  0.00     0.051 C 
HETATM   15  C22 UNL     1      -1.385  53.192 -24.814  1.00  0.00     0.029 C 
HETATM   16  C23 UNL     1      -0.801  50.823 -23.959  1.00  0.00     0.011 C 
HETATM   17  C24 UNL     1      -0.261  51.470 -22.654  1.00  0.00     0.007 C 
HETATM   18  C25 UNL     1      -0.278  50.526 -21.437  1.00  0.00     0.013 C 
HETATM   19  C26 UNL     1      -1.686  49.947 -21.162  1.00  0.00    -0.006 C 
HETATM   20  C27 UNL     1      -2.671  51.085 -20.785  1.00  0.00     0.019 C 
ENDROOT
BRANCH   1  21
HETATM   21  C7  UNL     1      -1.758  49.049 -18.592  1.00  0.00     0.049 C 
HETATM   22  C8  UNL     1      -2.625  48.066 -17.785  1.00  0.00     0.016 C 
BRANCH  21  23
HETATM   23  C6  UNL     1      -2.241  50.508 -18.250  1.00  0.00     0.143 C 
HETATM   24  O3  UNL     1      -1.179  51.473 -18.386  1.00  0.00    -0.311 OA
HETATM   25  C5  UNL     1      -0.291  51.667 -17.375  1.00  0.00     0.292 C 
HETATM   26  C3  UNL     1      -0.613  51.101 -16.031  1.00  0.00     0.042 C 
HETATM   27  O2  UNL     1       0.763  52.260 -17.590  1.00  0.00    -0.260 OA
HETATM   28  C2  UNL     1      -1.865  50.646 -15.791  1.00  0.00    -0.067 C 
HETATM   29  C1  UNL     1      -2.331  50.056 -14.491  1.00  0.00     0.044 C 
HETATM   30  C28 UNL     1      -2.895  50.719 -16.882  1.00  0.00     0.067 C 
BRANCH  26  31
HETATM   31  C4  UNL     1       0.554  51.189 -15.081  1.00  0.00     0.209 C 
BRANCH  31  32
HETATM   32  O1  UNL     1       0.857  52.524 -14.697  1.00  0.00    -0.396 OA
HETATM   33  H6  UNL     1       1.675  52.486 -14.171  1.00  0.00     0.209 HD
ENDBRANCH  31  32
ENDBRANCH  26  31
ENDBRANCH  21  23
ENDBRANCH   1  21
BRANCH   1  34
HETATM   34  O4  UNL     1      -0.675  47.859 -20.418  1.00  0.00    -0.386 OA
HETATM   35  H12 UNL     1      -0.912  46.966 -20.111  1.00  0.00     0.210 HD
ENDBRANCH   1  34
BRANCH   2  36
HETATM   36  O5  UNL     1      -4.262  48.420 -19.901  1.00  0.00    -0.392 OA
HETATM   37  H14 UNL     1      -4.883  47.664 -19.930  1.00  0.00     0.210 HD
ENDBRANCH   2  36
BRANCH   9  38
HETATM   38  O6  UNL     1      -2.480  52.983 -27.764  1.00  0.00    -0.387 OA
HETATM   39  H23 UNL     1      -3.323  52.682 -27.385  1.00  0.00     0.210 HD
ENDBRANCH   9  38
TORSDOF 7
ENDMDL
MODEL 8
REMARK minimizedAffinity -9.59930325
REMARK  7 active torsions:
REMARK  status: ('A' for Active; 'I' for Inactive)
REMARK    1  A    between atoms: C3_3  and  C4_4 
REMARK    2  A    between atoms: C4_4  and  O1_5 
REMARK    3  A    between atoms: C6_9  and  C7_10 
REMARK    4  A    between atoms: C7_10  and  C9_12 
REMARK    5  A    between atoms: C9_12  and  O4_13 
REMARK    6  A    between atoms: C10_14  and  O5_15 
REMARK    7  A    between atoms: C17_22  and  O6_23 
ROOT
HETATM    1  C9  UNL     1      -2.874  50.760 -23.960  1.00  0.00     0.097 C 
HETATM    2  C10 UNL     1      -3.276  50.297 -25.419  1.00  0.00     0.154 C 
HETATM    3  C11 UNL     1      -4.590  49.504 -25.307  1.00  0.00     0.040 C 
HETATM    4  C12 UNL     1      -5.008  49.653 -23.852  1.00  0.00     0.004 C 
HETATM    5  C13 UNL     1      -6.021  48.637 -23.299  1.00  0.00    -0.001 C 
HETATM    6  C14 UNL     1      -7.296  48.633 -24.151  1.00  0.00     0.033 C 
HETATM    7  C15 UNL     1      -8.422  47.890 -23.512  1.00  0.00    -0.019 C 
HETATM    8  C16 UNL     1      -8.475  47.549 -22.210  1.00  0.00    -0.035 C 
HETATM    9  C17 UNL     1      -9.685  46.804 -21.688  1.00  0.00     0.171 C 
HETATM   10  C18 UNL     1     -10.114  47.250 -20.333  1.00  0.00     0.013 C 
HETATM   11  C19 UNL     1      -9.429  48.099 -19.558  1.00  0.00     0.050 C 
HETATM   12  C20 UNL     1      -8.105  48.620 -19.990  1.00  0.00     0.162 C 
HETATM   13  O7  UNL     1      -7.615  49.525 -19.315  1.00  0.00    -0.292 OA
HETATM   14  C21 UNL     1      -7.387  47.949 -21.193  1.00  0.00     0.051 C 
HETATM   15  C22 UNL     1      -6.670  46.689 -20.665  1.00  0.00     0.029 C 
HETATM   16  C23 UNL     1      -6.360  48.981 -21.820  1.00  0.00     0.011 C 
HETATM   17  C24 UNL     1      -5.063  49.180 -20.989  1.00  0.00     0.007 C 
HETATM   18  C25 UNL     1      -4.048  50.141 -21.638  1.00  0.00     0.013 C 
HETATM   19  C26 UNL     1      -3.663  49.710 -23.073  1.00  0.00    -0.006 C 
HETATM   20  C27 UNL     1      -2.936  48.339 -23.045  1.00  0.00     0.019 C 
ENDROOT
BRANCH   1  21
HETATM   21  C7  UNL     1      -1.319  50.927 -23.736  1.00  0.00     0.049 C 
HETATM   22  C8  UNL     1      -0.891  50.535 -22.311  1.00  0.00     0.016 C 
BRANCH  21  23
HETATM   23  C6  UNL     1      -0.815  52.394 -24.004  1.00  0.00     0.143 C 
HETATM   24  O3  UNL     1      -1.598  53.057 -25.016  1.00  0.00    -0.311 OA
HETATM   25  C5  UNL     1      -1.329  52.860 -26.334  1.00  0.00     0.292 C 
HETATM   26  C3  UNL     1      -0.038  52.205 -26.702  1.00  0.00     0.042 C 
HETATM   27  O2  UNL     1      -2.155  53.181 -27.184  1.00  0.00    -0.260 OA
HETATM   28  C2  UNL     1       0.922  52.064 -25.759  1.00  0.00    -0.067 C 
HETATM   29  C1  UNL     1       2.265  51.430 -25.986  1.00  0.00     0.044 C 
HETATM   30  C28 UNL     1       0.663  52.564 -24.367  1.00  0.00     0.067 C 
BRANCH  26  31
HETATM   31  C4  UNL     1       0.020  51.843 -28.165  1.00  0.00     0.209 C 
BRANCH  31  32
HETATM   32  O1  UNL     1       0.017  52.981 -29.019  1.00  0.00    -0.396 OA
HETATM   33  H6  UNL     1      -0.044  52.647 -29.930  1.00  0.00     0.209 HD
ENDBRANCH  31  32
ENDBRANCH  26  31
ENDBRANCH  21  23
ENDBRANCH   1  21
BRANCH   1  34
HETATM   34  O4  UNL     1      -3.479  52.050 -23.721  1.00  0.00    -0.386 OA
HETATM   35  H12 UNL     1      -3.304  52.614 -24.496  1.00  0.00     0.210 HD
ENDBRANCH   1  34
BRANCH   2  36
HETATM   36  O5  UNL     1      -2.308  49.438 -26.013  1.00  0.00    -0.392 OA
HETATM   37  H14 UNL     1      -2.374  49.572 -26.981  1.00  0.00     0.210 HD
ENDBRANCH   2  36
BRANCH   9  38
HETATM   38  O6  UNL     1      -9.399  45.420 -21.609  1.00  0.00    -0.387 OA
HETATM   39  H23 UNL     1      -8.951  45.180 -22.438  1.00  0.00     0.210 HD
ENDBRANCH   9  38
TORSDOF 7
ENDMDL
MODEL 9
REMARK minimizedAffinity -9.58045197
REMARK  7 active torsions:
REMARK  status: ('A' for Active; 'I' for Inactive)
REMARK    1  A    between atoms: C3_3  and  C4_4 
REMARK    2  A    between atoms: C4_4  and  O1_5 
REMARK    3  A    between atoms: C6_9  and  C7_10 
REMARK    4  A    between atoms: C7_10  and  C9_12 
REMARK    5  A    between atoms: C9_12  and  O4_13 
REMARK    6  A    between atoms: C10_14  and  O5_15 
REMARK    7  A    between atoms: C17_22  and  O6_23 
ROOT
HETATM    1  C9  UNL     1      -4.323  50.418 -20.881  1.00  0.00     0.097 C 
HETATM    2  C10 UNL     1      -3.116  50.494 -19.858  1.00  0.00     0.154 C 
HETATM    3  C11 UNL     1      -1.865  50.912 -20.650  1.00  0.00     0.040 C 
HETATM    4  C12 UNL     1      -2.379  51.225 -22.048  1.00  0.00     0.004 C 
HETATM    5  C13 UNL     1      -1.352  51.244 -23.192  1.00  0.00    -0.001 C 
HETATM    6  C14 UNL     1      -0.221  52.230 -22.881  1.00  0.00     0.033 C 
HETATM    7  C15 UNL     1       0.650  52.511 -24.061  1.00  0.00    -0.019 C 
HETATM    8  C16 UNL     1       0.323  52.235 -25.338  1.00  0.00    -0.035 C 
HETATM    9  C17 UNL     1       1.295  52.583 -26.444  1.00  0.00     0.171 C 
HETATM   10  C18 UNL     1       0.632  53.111 -27.669  1.00  0.00     0.013 C 
HETATM   11  C19 UNL     1      -0.690  53.135 -27.869  1.00  0.00     0.050 C 
HETATM   12  C20 UNL     1      -1.619  52.545 -26.869  1.00  0.00     0.162 C 
HETATM   13  O7  UNL     1      -2.820  52.755 -27.033  1.00  0.00    -0.292 OA
HETATM   14  C21 UNL     1      -1.042  51.642 -25.744  1.00  0.00     0.051 C 
HETATM   15  C22 UNL     1      -0.849  50.229 -26.333  1.00  0.00     0.029 C 
HETATM   16  C23 UNL     1      -2.055  51.630 -24.525  1.00  0.00     0.011 C 
HETATM   17  C24 UNL     1      -3.321  50.759 -24.752  1.00  0.00     0.007 C 
HETATM   18  C25 UNL     1      -4.269  50.709 -23.538  1.00  0.00     0.013 C 
HETATM   19  C26 UNL     1      -3.554  50.228 -22.254  1.00  0.00    -0.006 C 
HETATM   20  C27 UNL     1      -3.066  48.765 -22.426  1.00  0.00     0.019 C 
ENDROOT
BRANCH   1  21
HETATM   21  C7  UNL     1      -5.444  49.377 -20.487  1.00  0.00     0.049 C 
HETATM   22  C8  UNL     1      -5.231  48.010 -21.161  1.00  0.00     0.016 C 
BRANCH  21  23
HETATM   23  C6  UNL     1      -6.894  49.872 -20.850  1.00  0.00     0.143 C 
HETATM   24  O3  UNL     1      -7.906  49.174 -20.097  1.00  0.00    -0.311 OA
HETATM   25  C5  UNL     1      -8.355  47.959 -20.508  1.00  0.00     0.292 C 
HETATM   26  C3  UNL     1      -8.016  47.510 -21.892  1.00  0.00     0.042 C 
HETATM   27  O2  UNL     1      -8.987  47.245 -19.734  1.00  0.00    -0.260 OA
HETATM   28  C2  UNL     1      -7.508  48.406 -22.769  1.00  0.00    -0.067 C 
HETATM   29  C1  UNL     1      -7.125  48.099 -24.189  1.00  0.00     0.044 C 
HETATM   30  C28 UNL     1      -7.293  49.826 -22.327  1.00  0.00     0.067 C 
BRANCH  26  31
HETATM   31  C4  UNL     1      -8.375  46.065 -22.126  1.00  0.00     0.209 C 
BRANCH  31  32
HETATM   32  O1  UNL     1      -7.253  45.195 -22.051  1.00  0.00    -0.396 OA
HETATM   33  H6  UNL     1      -7.566  44.311 -22.312  1.00  0.00     0.209 HD
ENDBRANCH  31  32
ENDBRANCH  26  31
ENDBRANCH  21  23
ENDBRANCH   1  21
BRANCH   1  34
HETATM   34  O4  UNL     1      -4.949  51.720 -20.926  1.00  0.00    -0.386 OA
HETATM   35  H12 UNL     1      -5.081  52.024 -20.010  1.00  0.00     0.210 HD
ENDBRANCH   1  34
BRANCH   2  36
HETATM   36  O5  UNL     1      -2.834  49.241 -19.243  1.00  0.00    -0.392 OA
HETATM   37  H14 UNL     1      -2.449  49.443 -18.366  1.00  0.00     0.210 HD
ENDBRANCH   2  36
BRANCH   9  38
HETATM   38  O6  UNL     1       2.027  51.430 -26.820  1.00  0.00    -0.387 OA
HETATM   39  H23 UNL     1       2.302  50.994 -25.996  1.00  0.00     0.210 HD
ENDBRANCH   9  38
TORSDOF 7
ENDMDL
