MODEL 1
REMARK minimizedAffinity -8.29751873
REMARK  10 active torsions:
REMARK  status: ('A' for Active; 'I' for Inactive)
REMARK    1  A    between atoms: O1_1  and  C1_2 
REMARK    2  A    between atoms: C1_2  and  C2_3 
REMARK    3  A    between atoms: C3_5  and  C4_6 
REMARK    4  A    between atoms: C4_6  and  O2_7 
REMARK    5  A    between atoms: C4_6  and  C5_8 
REMARK    6  A    between atoms: C5_8  and  C6_9 
REMARK    7  A    between atoms: C6_9  and  C7_10 
REMARK    8  A    between atoms: C7_10  and  C8_11 
REMARK    9  A    between atoms: C17_22  and  O5_23 
REMARK   10  A    between atoms: C18_24  and  O6_25 
ROOT
HETATM    1  C4  UNL     1      -4.357   3.537  11.234  1.00  0.00     0.154 C 
ENDROOT
BRANCH   1   2
HETATM    2  C3  UNL     1      -5.352   3.515  12.419  1.00  0.00     0.280 C 
HETATM    3  N1  UNL     1      -5.601   4.858  13.020  1.00  0.00     0.102 N 
HETATM    4  C2  UNL     1      -6.991   4.789  13.575  1.00  0.00     0.275 C 
HETATM    5  H5  UNL     1      -5.619   5.558  12.274  1.00  0.00     0.317 HD
HETATM    6  C18 UNL     1      -7.512   3.366  13.348  1.00  0.00     0.184 C 
HETATM    7  C17 UNL     1      -6.731   2.929  12.113  1.00  0.00     0.184 C 
BRANCH   4   8
HETATM    8  C1  UNL     1      -7.006   5.184  15.055  1.00  0.00     0.202 C 
BRANCH   8   9
HETATM    9  O1  UNL     1      -7.882   4.315  15.772  1.00  0.00    -0.399 OA
HETATM   10  H1  UNL     1      -8.707   4.310  15.247  1.00  0.00     0.209 HD
ENDBRANCH   8   9
ENDBRANCH   4   8
BRANCH   6  11
HETATM   11  O6  UNL     1      -8.912   3.337  13.097  1.00  0.00    -0.391 OA
HETATM   12  H33 UNL     1      -9.204   2.415  13.211  1.00  0.00     0.210 HD
ENDBRANCH   6  11
BRANCH   7  13
HETATM   13  O5  UNL     1      -6.707   1.513  11.994  1.00  0.00    -0.391 OA
HETATM   14  H31 UNL     1      -7.571   1.242  11.637  1.00  0.00     0.210 HD
ENDBRANCH   7  13
ENDBRANCH   1   2
BRANCH   1  15
HETATM   15  O2  UNL     1      -4.977   2.839  10.142  1.00  0.00    -0.393 OA
HETATM   16  H8  UNL     1      -5.510   2.124  10.538  1.00  0.00     0.210 HD
ENDBRANCH   1  15
BRANCH   1  17
HETATM   17  C5  UNL     1      -2.996   2.875  11.509  1.00  0.00     0.034 C 
BRANCH  17  18
HETATM   18  C6  UNL     1      -1.789   3.702  11.034  1.00  0.00     0.005 C 
BRANCH  18  19
HETATM   19  C7  UNL     1      -1.488   4.935  11.894  1.00  0.00     0.032 C 
BRANCH  19  20
HETATM   20  C8  UNL     1      -0.008   5.347  11.899  1.00  0.00     0.125 C 
HETATM   21  C9  UNL     1       0.287   6.488  12.872  1.00  0.00     0.032 C 
HETATM   22  C10 UNL     1       1.784   6.793  12.902  1.00  0.00     0.008 C 
HETATM   23  C11 UNL     1       2.473   6.416  11.589  1.00  0.00     0.068 C 
HETATM   24  C12 UNL     1       1.509   6.513  10.395  1.00  0.00     0.164 C 
HETATM   25  C13 UNL     1       2.222   6.088   9.090  1.00  0.00     0.068 C 
HETATM   26  O3  UNL     1       1.058   7.876  10.329  1.00  0.00    -0.355 OA
HETATM   27  O4  UNL     1       0.388   5.637  10.556  1.00  0.00    -0.350 OA
HETATM   28  C14 UNL     1       2.835   7.282   8.372  1.00  0.00     0.007 C 
HETATM   29  C15 UNL     1       1.764   8.329   8.070  1.00  0.00     0.026 C 
HETATM   30  C16 UNL     1       0.590   8.244   9.039  1.00  0.00     0.171 C 
ENDBRANCH  19  20
ENDBRANCH  18  19
ENDBRANCH  17  18
ENDBRANCH   1  17
TORSDOF 10
ENDMDL
MODEL 2
REMARK minimizedAffinity -7.93655968
REMARK  10 active torsions:
REMARK  status: ('A' for Active; 'I' for Inactive)
REMARK    1  A    between atoms: O1_1  and  C1_2 
REMARK    2  A    between atoms: C1_2  and  C2_3 
REMARK    3  A    between atoms: C3_5  and  C4_6 
REMARK    4  A    between atoms: C4_6  and  O2_7 
REMARK    5  A    between atoms: C4_6  and  C5_8 
REMARK    6  A    between atoms: C5_8  and  C6_9 
REMARK    7  A    between atoms: C6_9  and  C7_10 
REMARK    8  A    between atoms: C7_10  and  C8_11 
REMARK    9  A    between atoms: C17_22  and  O5_23 
REMARK   10  A    between atoms: C18_24  and  O6_25 
ROOT
HETATM    1  C4  UNL     1      -0.262   5.667  11.941  1.00  0.00     0.154 C 
ENDROOT
BRANCH   1   2
HETATM    2  C3  UNL     1       0.531   5.978  10.649  1.00  0.00     0.280 C 
HETATM    3  N1  UNL     1       0.459   7.409  10.230  1.00  0.00     0.102 N 
HETATM    4  C2  UNL     1       1.740   7.669   9.498  1.00  0.00     0.275 C 
HETATM    5  H5  UNL     1       0.474   8.001  11.064  1.00  0.00     0.317 HD
HETATM    6  C18 UNL     1       2.519   6.350   9.441  1.00  0.00     0.184 C 
HETATM    7  C17 UNL     1       2.018   5.625  10.685  1.00  0.00     0.184 C 
BRANCH   4   8
HETATM    8  C1  UNL     1       1.464   8.241   8.104  1.00  0.00     0.202 C 
BRANCH   8   9
HETATM    9  O1  UNL     1       2.699   8.588   7.478  1.00  0.00    -0.399 OA
HETATM   10  H1  UNL     1       3.176   9.115   8.149  1.00  0.00     0.209 HD
ENDBRANCH   8   9
ENDBRANCH   4   8
BRANCH   6  11
HETATM   11  O6  UNL     1       3.926   6.550   9.504  1.00  0.00    -0.391 OA
HETATM   12  H33 UNL     1       4.346   5.720   9.217  1.00  0.00     0.210 HD
ENDBRANCH   6  11
BRANCH   7  13
HETATM   13  O5  UNL     1       2.248   4.225  10.592  1.00  0.00    -0.391 OA
HETATM   14  H31 UNL     1       3.189   4.076  10.792  1.00  0.00     0.210 HD
ENDBRANCH   7  13
ENDBRANCH   1   2
BRANCH   1  15
HETATM   15  O2  UNL     1       0.696   5.450  12.989  1.00  0.00    -0.393 OA
HETATM   16  H8  UNL     1       1.468   5.020  12.574  1.00  0.00     0.210 HD
ENDBRANCH   1  15
BRANCH   1  17
HETATM   17  C5  UNL     1      -1.175   4.431  11.867  1.00  0.00     0.034 C 
BRANCH  17  18
HETATM   18  C6  UNL     1      -2.511   4.593  12.612  1.00  0.00     0.005 C 
BRANCH  18  19
HETATM   19  C7  UNL     1      -3.684   3.834  11.981  1.00  0.00     0.032 C 
BRANCH  19  20
HETATM   20  C8  UNL     1      -4.982   3.897  12.801  1.00  0.00     0.125 C 
HETATM   21  C9  UNL     1      -6.235   3.939  11.926  1.00  0.00     0.032 C 
HETATM   22  C10 UNL     1      -7.493   3.909  12.791  1.00  0.00     0.008 C 
HETATM   23  C11 UNL     1      -7.246   4.489  14.185  1.00  0.00     0.068 C 
HETATM   24  C12 UNL     1      -6.133   5.549  14.168  1.00  0.00     0.164 C 
HETATM   25  C13 UNL     1      -5.878   6.088  15.595  1.00  0.00     0.068 C 
HETATM   26  O3  UNL     1      -6.561   6.594  13.280  1.00  0.00    -0.355 OA
HETATM   27  O4  UNL     1      -4.894   4.998  13.709  1.00  0.00    -0.350 OA
HETATM   28  C14 UNL     1      -6.711   7.328  15.883  1.00  0.00     0.007 C 
HETATM   29  C15 UNL     1      -6.420   8.416  14.851  1.00  0.00     0.026 C 
HETATM   30  C16 UNL     1      -5.918   7.836  13.533  1.00  0.00     0.171 C 
ENDBRANCH  19  20
ENDBRANCH  18  19
ENDBRANCH  17  18
ENDBRANCH   1  17
TORSDOF 10
ENDMDL
MODEL 3
REMARK minimizedAffinity -7.84466696
REMARK  10 active torsions:
REMARK  status: ('A' for Active; 'I' for Inactive)
REMARK    1  A    between atoms: O1_1  and  C1_2 
REMARK    2  A    between atoms: C1_2  and  C2_3 
REMARK    3  A    between atoms: C3_5  and  C4_6 
REMARK    4  A    between atoms: C4_6  and  O2_7 
REMARK    5  A    between atoms: C4_6  and  C5_8 
REMARK    6  A    between atoms: C5_8  and  C6_9 
REMARK    7  A    between atoms: C6_9  and  C7_10 
REMARK    8  A    between atoms: C7_10  and  C8_11 
REMARK    9  A    between atoms: C17_22  and  O5_23 
REMARK   10  A    between atoms: C18_24  and  O6_25 
ROOT
HETATM    1  C4  UNL     1      -2.749   4.598  12.259  1.00  0.00     0.154 C 
ENDROOT
BRANCH   1   2
HETATM    2  C3  UNL     1      -3.931   3.614  12.433  1.00  0.00     0.280 C 
HETATM    3  N1  UNL     1      -5.256   4.286  12.576  1.00  0.00     0.102 N 
HETATM    4  C2  UNL     1      -6.252   3.310  12.028  1.00  0.00     0.275 C 
HETATM    5  H5  UNL     1      -5.282   5.105  11.963  1.00  0.00     0.317 HD
HETATM    6  C18 UNL     1      -5.491   2.040  11.634  1.00  0.00     0.184 C 
HETATM    7  C17 UNL     1      -4.101   2.582  11.318  1.00  0.00     0.184 C 
BRANCH   4   8
HETATM    8  C1  UNL     1      -7.358   3.030  13.051  1.00  0.00     0.202 C 
BRANCH   8   9
HETATM    9  O1  UNL     1      -8.096   1.875  12.652  1.00  0.00    -0.399 OA
HETATM   10  H1  UNL     1      -8.312   2.034  11.712  1.00  0.00     0.209 HD
ENDBRANCH   8   9
ENDBRANCH   4   8
BRANCH   6  11
HETATM   11  O6  UNL     1      -6.056   1.404  10.494  1.00  0.00    -0.391 OA
HETATM   12  H33 UNL     1      -5.688   0.503  10.458  1.00  0.00     0.210 HD
ENDBRANCH   6  11
BRANCH   7  13
HETATM   13  O5  UNL     1      -3.122   1.553  11.375  1.00  0.00    -0.391 OA
HETATM   14  H31 UNL     1      -3.195   1.044  10.548  1.00  0.00     0.210 HD
ENDBRANCH   7  13
ENDBRANCH   1   2
BRANCH   1  15
HETATM   15  O2  UNL     1      -1.726   3.911  11.520  1.00  0.00    -0.393 OA
HETATM   16  H8  UNL     1      -1.765   2.976  11.797  1.00  0.00     0.210 HD
ENDBRANCH   1  15
BRANCH   1  17
HETATM   17  C5  UNL     1      -2.126   5.112  13.568  1.00  0.00     0.034 C 
BRANCH  17  18
HETATM   18  C6  UNL     1      -2.189   6.640  13.735  1.00  0.00     0.005 C 
BRANCH  18  19
HETATM   19  C7  UNL     1      -1.745   7.431  12.500  1.00  0.00     0.032 C 
BRANCH  19  20
HETATM   20  C8  UNL     1      -0.221   7.505  12.319  1.00  0.00     0.125 C 
HETATM   21  C9  UNL     1       0.335   8.912  12.534  1.00  0.00     0.032 C 
HETATM   22  C10 UNL     1       1.859   8.907  12.431  1.00  0.00     0.008 C 
HETATM   23  C11 UNL     1       2.372   7.772  11.543  1.00  0.00     0.068 C 
HETATM   24  C12 UNL     1       1.347   7.393  10.461  1.00  0.00     0.164 C 
HETATM   25  C13 UNL     1       1.875   6.218   9.605  1.00  0.00     0.068 C 
HETATM   26  O3  UNL     1       1.126   8.567   9.663  1.00  0.00    -0.355 OA
HETATM   27  O4  UNL     1       0.112   6.958  11.040  1.00  0.00    -0.350 OA
HETATM   28  C14 UNL     1       2.620   6.711   8.374  1.00  0.00     0.007 C 
HETATM   29  C15 UNL     1       1.718   7.612   7.531  1.00  0.00     0.026 C 
HETATM   30  C16 UNL     1       0.625   8.271   8.366  1.00  0.00     0.171 C 
ENDBRANCH  19  20
ENDBRANCH  18  19
ENDBRANCH  17  18
ENDBRANCH   1  17
TORSDOF 10
ENDMDL
MODEL 4
REMARK minimizedAffinity -7.68404198
REMARK  10 active torsions:
REMARK  status: ('A' for Active; 'I' for Inactive)
REMARK    1  A    between atoms: O1_1  and  C1_2 
REMARK    2  A    between atoms: C1_2  and  C2_3 
REMARK    3  A    between atoms: C3_5  and  C4_6 
REMARK    4  A    between atoms: C4_6  and  O2_7 
REMARK    5  A    between atoms: C4_6  and  C5_8 
REMARK    6  A    between atoms: C5_8  and  C6_9 
REMARK    7  A    between atoms: C6_9  and  C7_10 
REMARK    8  A    between atoms: C7_10  and  C8_11 
REMARK    9  A    between atoms: C17_22  and  O5_23 
REMARK   10  A    between atoms: C18_24  and  O6_25 
ROOT
HETATM    1  C4  UNL     1      -3.233   5.241  12.497  1.00  0.00     0.154 C 
ENDROOT
BRANCH   1   2
HETATM    2  C3  UNL     1      -4.237   4.067  12.591  1.00  0.00     0.280 C 
HETATM    3  N1  UNL     1      -5.654   4.499  12.772  1.00  0.00     0.102 N 
HETATM    4  C2  UNL     1      -6.478   3.415  12.149  1.00  0.00     0.275 C 
HETATM    5  H5  UNL     1      -5.816   5.345  12.220  1.00  0.00     0.317 HD
HETATM    6  C18 UNL     1      -5.520   2.320  11.670  1.00  0.00     0.184 C 
HETATM    7  C17 UNL     1      -4.240   3.104  11.404  1.00  0.00     0.184 C 
BRANCH   4   8
HETATM    8  C1  UNL     1      -7.518   2.885  13.141  1.00  0.00     0.202 C 
BRANCH   8   9
HETATM    9  O1  UNL     1      -8.161   1.735  12.590  1.00  0.00    -0.399 OA
HETATM   10  H1  UNL     1      -8.423   2.009  11.688  1.00  0.00     0.209 HD
ENDBRANCH   8   9
ENDBRANCH   4   8
BRANCH   6  11
HETATM   11  O6  UNL     1      -5.978   1.683  10.483  1.00  0.00    -0.391 OA
HETATM   12  H33 UNL     1      -5.467   0.859  10.385  1.00  0.00     0.210 HD
ENDBRANCH   6  11
BRANCH   7  13
HETATM   13  O5  UNL     1      -3.105   2.248  11.394  1.00  0.00    -0.391 OA
HETATM   14  H31 UNL     1      -3.097   1.795  10.532  1.00  0.00     0.210 HD
ENDBRANCH   7  13
ENDBRANCH   1   2
BRANCH   1  15
HETATM   15  O2  UNL     1      -1.924   4.707  12.753  1.00  0.00    -0.393 OA
HETATM   16  H8  UNL     1      -2.040   3.994  13.410  1.00  0.00     0.210 HD
ENDBRANCH   1  15
BRANCH   1  17
HETATM   17  C5  UNL     1      -3.478   6.393  13.486  1.00  0.00     0.034 C 
BRANCH  17  18
HETATM   18  C6  UNL     1      -4.729   7.232  13.174  1.00  0.00     0.005 C 
BRANCH  18  19
HETATM   19  C7  UNL     1      -5.029   8.330  14.200  1.00  0.00     0.032 C 
BRANCH  19  20
HETATM   20  C8  UNL     1      -6.149   7.972  15.190  1.00  0.00     0.125 C 
HETATM   21  C9  UNL     1      -6.058   6.532  15.694  1.00  0.00     0.032 C 
HETATM   22  C10 UNL     1      -7.139   6.262  16.739  1.00  0.00     0.008 C 
HETATM   23  C11 UNL     1      -8.361   7.163  16.549  1.00  0.00     0.068 C 
HETATM   24  C12 UNL     1      -8.545   7.563  15.076  1.00  0.00     0.164 C 
HETATM   25  C13 UNL     1      -9.762   8.504  14.920  1.00  0.00     0.068 C 
HETATM   26  O3  UNL     1      -8.721   6.348  14.330  1.00  0.00    -0.355 OA
HETATM   27  O4  UNL     1      -7.407   8.276  14.581  1.00  0.00    -0.350 OA
HETATM   28  C14 UNL     1     -11.034   7.729  14.610  1.00  0.00     0.007 C 
HETATM   29  C15 UNL     1     -10.852   6.892  13.345  1.00  0.00     0.026 C 
HETATM   30  C16 UNL     1      -9.389   6.548  13.091  1.00  0.00     0.171 C 
ENDBRANCH  19  20
ENDBRANCH  18  19
ENDBRANCH  17  18
ENDBRANCH   1  17
TORSDOF 10
ENDMDL
MODEL 5
REMARK minimizedAffinity -7.56582451
REMARK  10 active torsions:
REMARK  status: ('A' for Active; 'I' for Inactive)
REMARK    1  A    between atoms: O1_1  and  C1_2 
REMARK    2  A    between atoms: C1_2  and  C2_3 
REMARK    3  A    between atoms: C3_5  and  C4_6 
REMARK    4  A    between atoms: C4_6  and  O2_7 
REMARK    5  A    between atoms: C4_6  and  C5_8 
REMARK    6  A    between atoms: C5_8  and  C6_9 
REMARK    7  A    between atoms: C6_9  and  C7_10 
REMARK    8  A    between atoms: C7_10  and  C8_11 
REMARK    9  A    between atoms: C17_22  and  O5_23 
REMARK   10  A    between atoms: C18_24  and  O6_25 
ROOT
HETATM    1  C4  UNL     1      -4.431   2.969  11.514  1.00  0.00     0.154 C 
ENDROOT
BRANCH   1   2
HETATM    2  C3  UNL     1      -5.478   3.179  12.635  1.00  0.00     0.280 C 
HETATM    3  N1  UNL     1      -5.563   4.588  13.121  1.00  0.00     0.102 N 
HETATM    4  C2  UNL     1      -6.974   4.755  13.594  1.00  0.00     0.275 C 
HETATM    5  H5  UNL     1      -5.444   5.221  12.326  1.00  0.00     0.317 HD
HETATM    6  C18 UNL     1      -7.680   3.404  13.440  1.00  0.00     0.184 C 
HETATM    7  C17 UNL     1      -6.908   2.766  12.289  1.00  0.00     0.184 C 
BRANCH   4   8
HETATM    8  C1  UNL     1      -7.007   5.265  15.038  1.00  0.00     0.202 C 
BRANCH   8   9
HETATM    9  O1  UNL     1      -7.913   4.472  15.805  1.00  0.00    -0.399 OA
HETATM   10  H1  UNL     1      -8.729   4.441  15.266  1.00  0.00     0.209 HD
ENDBRANCH   8   9
ENDBRANCH   4   8
BRANCH   6  11
HETATM   11  O6  UNL     1      -9.056   3.548  13.107  1.00  0.00    -0.391 OA
HETATM   12  H33 UNL     1      -9.480   2.687  13.269  1.00  0.00     0.210 HD
ENDBRANCH   6  11
BRANCH   7  13
HETATM   13  O5  UNL     1      -7.080   1.355  12.275  1.00  0.00    -0.391 OA
HETATM   14  H31 UNL     1      -7.954   1.177  11.887  1.00  0.00     0.210 HD
ENDBRANCH   7  13
ENDBRANCH   1   2
BRANCH   1  15
HETATM   15  O2  UNL     1      -5.122   2.415  10.382  1.00  0.00    -0.393 OA
HETATM   16  H8  UNL     1      -5.824   1.838  10.742  1.00  0.00     0.210 HD
ENDBRANCH   1  15
BRANCH   1  17
HETATM   17  C5  UNL     1      -3.270   2.026  11.870  1.00  0.00     0.034 C 
BRANCH  17  18
HETATM   18  C6  UNL     1      -1.942   2.377  11.177  1.00  0.00     0.005 C 
BRANCH  18  19
HETATM   19  C7  UNL     1      -1.938   3.734  10.465  1.00  0.00     0.032 C 
BRANCH  19  20
HETATM   20  C8  UNL     1      -1.165   4.831  11.215  1.00  0.00     0.125 C 
HETATM   21  C9  UNL     1       0.007   4.283  12.028  1.00  0.00     0.032 C 
HETATM   22  C10 UNL     1       0.789   5.423  12.676  1.00  0.00     0.008 C 
HETATM   23  C11 UNL     1      -0.085   6.655  12.917  1.00  0.00     0.068 C 
HETATM   24  C12 UNL     1      -1.557   6.271  13.137  1.00  0.00     0.164 C 
HETATM   25  C13 UNL     1      -2.422   7.537  13.339  1.00  0.00     0.068 C 
HETATM   26  O3  UNL     1      -1.600   5.416  14.291  1.00  0.00    -0.355 OA
HETATM   27  O4  UNL     1      -2.093   5.582  12.003  1.00  0.00    -0.350 OA
HETATM   28  C14 UNL     1      -2.555   7.896  14.812  1.00  0.00     0.007 C 
HETATM   29  C15 UNL     1      -3.147   6.725  15.594  1.00  0.00     0.026 C 
HETATM   30  C16 UNL     1      -2.877   5.387  14.915  1.00  0.00     0.171 C 
ENDBRANCH  19  20
ENDBRANCH  18  19
ENDBRANCH  17  18
ENDBRANCH   1  17
TORSDOF 10
ENDMDL
MODEL 6
REMARK minimizedAffinity -7.5373044
REMARK  10 active torsions:
REMARK  status: ('A' for Active; 'I' for Inactive)
REMARK    1  A    between atoms: O1_1  and  C1_2 
REMARK    2  A    between atoms: C1_2  and  C2_3 
REMARK    3  A    between atoms: C3_5  and  C4_6 
REMARK    4  A    between atoms: C4_6  and  O2_7 
REMARK    5  A    between atoms: C4_6  and  C5_8 
REMARK    6  A    between atoms: C5_8  and  C6_9 
REMARK    7  A    between atoms: C6_9  and  C7_10 
REMARK    8  A    between atoms: C7_10  and  C8_11 
REMARK    9  A    between atoms: C17_22  and  O5_23 
REMARK   10  A    between atoms: C18_24  and  O6_25 
ROOT
HETATM    1  C4  UNL     1      -6.896   5.241  14.735  1.00  0.00     0.154 C 
ENDROOT
BRANCH   1   2
HETATM    2  C3  UNL     1      -6.681   4.534  13.375  1.00  0.00     0.280 C 
HETATM    3  N1  UNL     1      -5.246   4.311  13.034  1.00  0.00     0.102 N 
HETATM    4  C2  UNL     1      -5.233   3.088  12.170  1.00  0.00     0.275 C 
HETATM    5  H5  UNL     1      -4.734   4.073  13.887  1.00  0.00     0.317 HD
HETATM    6  C18 UNL     1      -6.686   2.651  11.961  1.00  0.00     0.184 C 
HETATM    7  C17 UNL     1      -7.366   3.176  13.221  1.00  0.00     0.184 C 
BRANCH   4   8
HETATM    8  C1  UNL     1      -4.513   3.364  10.846  1.00  0.00     0.202 C 
BRANCH   8   9
HETATM    9  O1  UNL     1      -5.358   2.993   9.757  1.00  0.00    -0.399 OA
HETATM   10  H1  UNL     1      -5.666   2.092   9.981  1.00  0.00     0.209 HD
ENDBRANCH   8   9
ENDBRANCH   4   8
BRANCH   6  11
HETATM   11  O6  UNL     1      -6.817   1.237  11.869  1.00  0.00    -0.391 OA
HETATM   12  H33 UNL     1      -7.698   1.055  11.497  1.00  0.00     0.210 HD
ENDBRANCH   6  11
BRANCH   7  13
HETATM   13  O5  UNL     1      -8.771   3.292  13.037  1.00  0.00    -0.391 OA
HETATM   14  H31 UNL     1      -9.144   2.397  13.118  1.00  0.00     0.210 HD
ENDBRANCH   7  13
ENDBRANCH   1   2
BRANCH   1  15
HETATM   15  O2  UNL     1      -7.891   4.493  15.453  1.00  0.00    -0.393 OA
HETATM   16  H8  UNL     1      -8.516   4.151  14.786  1.00  0.00     0.210 HD
ENDBRANCH   1  15
BRANCH   1  17
HETATM   17  C5  UNL     1      -7.371   6.701  14.647  1.00  0.00     0.034 C 
BRANCH  17  18
HETATM   18  C6  UNL     1      -7.662   7.349  16.012  1.00  0.00     0.005 C 
BRANCH  18  19
HETATM   19  C7  UNL     1      -9.147   7.613  16.284  1.00  0.00     0.032 C 
BRANCH  19  20
HETATM   20  C8  UNL     1      -9.881   8.311  15.129  1.00  0.00     0.125 C 
HETATM   21  C9  UNL     1     -10.320   9.733  15.477  1.00  0.00     0.032 C 
HETATM   22  C10 UNL     1     -10.961  10.407  14.265  1.00  0.00     0.008 C 
HETATM   23  C11 UNL     1     -11.585   9.391  13.306  1.00  0.00     0.068 C 
HETATM   24  C12 UNL     1     -12.052   8.127  14.046  1.00  0.00     0.164 C 
HETATM   25  C13 UNL     1     -12.642   7.103  13.047  1.00  0.00     0.068 C 
HETATM   26  O3  UNL     1     -13.032   8.543  15.011  1.00  0.00    -0.355 OA
HETATM   27  O4  UNL     1     -10.963   7.476  14.708  1.00  0.00    -0.350 OA
HETATM   28  C14 UNL     1     -14.147   7.270  12.897  1.00  0.00     0.007 C 
HETATM   29  C15 UNL     1     -14.836   7.136  14.254  1.00  0.00     0.026 C 
HETATM   30  C16 UNL     1     -13.904   7.493  15.407  1.00  0.00     0.171 C 
ENDBRANCH  19  20
ENDBRANCH  18  19
ENDBRANCH  17  18
ENDBRANCH   1  17
TORSDOF 10
ENDMDL
MODEL 7
REMARK minimizedAffinity -7.49753666
REMARK  10 active torsions:
REMARK  status: ('A' for Active; 'I' for Inactive)
REMARK    1  A    between atoms: O1_1  and  C1_2 
REMARK    2  A    between atoms: C1_2  and  C2_3 
REMARK    3  A    between atoms: C3_5  and  C4_6 
REMARK    4  A    between atoms: C4_6  and  O2_7 
REMARK    5  A    between atoms: C4_6  and  C5_8 
REMARK    6  A    between atoms: C5_8  and  C6_9 
REMARK    7  A    between atoms: C6_9  and  C7_10 
REMARK    8  A    between atoms: C7_10  and  C8_11 
REMARK    9  A    between atoms: C17_22  and  O5_23 
REMARK   10  A    between atoms: C18_24  and  O6_25 
ROOT
HETATM    1  C4  UNL     1      -1.095   6.192  12.706  1.00  0.00     0.154 C 
ENDROOT
BRANCH   1   2
HETATM    2  C3  UNL     1      -0.405   6.333  11.328  1.00  0.00     0.280 C 
HETATM    3  N1  UNL     1      -0.208   7.748  10.896  1.00  0.00     0.102 N 
HETATM    4  C2  UNL     1       1.007   7.725  10.020  1.00  0.00     0.275 C 
HETATM    5  H5  UNL     1       0.031   8.315  11.713  1.00  0.00     0.317 HD
HETATM    6  C18 UNL     1       1.465   6.268   9.897  1.00  0.00     0.184 C 
HETATM    7  C17 UNL     1       0.962   5.661  11.202  1.00  0.00     0.184 C 
BRANCH   4   8
HETATM    8  C1  UNL     1       0.707   8.356   8.657  1.00  0.00     0.202 C 
BRANCH   8   9
HETATM    9  O1  UNL     1      -0.478   9.147   8.747  1.00  0.00    -0.399 OA
HETATM   10  H1  UNL     1      -1.130   8.564   9.184  1.00  0.00     0.209 HD
ENDBRANCH   8   9
ENDBRANCH   4   8
BRANCH   6  11
HETATM   11  O6  UNL     1       2.880   6.153   9.798  1.00  0.00    -0.391 OA
HETATM   12  H33 UNL     1       3.072   5.253   9.480  1.00  0.00     0.210 HD
ENDBRANCH   6  11
BRANCH   7  13
HETATM   13  O5  UNL     1       0.867   4.246  11.108  1.00  0.00    -0.391 OA
HETATM   14  H31 UNL     1       1.769   3.892  11.202  1.00  0.00     0.210 HD
ENDBRANCH   7  13
ENDBRANCH   1   2
BRANCH   1  15
HETATM   15  O2  UNL     1      -0.381   5.186  13.442  1.00  0.00    -0.393 OA
HETATM   16  H8  UNL     1      -0.081   4.526  12.788  1.00  0.00     0.210 HD
ENDBRANCH   1  15
BRANCH   1  17
HETATM   17  C5  UNL     1      -2.577   5.784  12.658  1.00  0.00     0.034 C 
BRANCH  17  18
HETATM   18  C6  UNL     1      -2.812   4.327  12.226  1.00  0.00     0.005 C 
BRANCH  18  19
HETATM   19  C7  UNL     1      -4.148   4.084  11.516  1.00  0.00     0.032 C 
BRANCH  19  20
HETATM   20  C8  UNL     1      -5.285   3.646  12.454  1.00  0.00     0.125 C 
HETATM   21  C9  UNL     1      -6.140   2.524  11.866  1.00  0.00     0.032 C 
HETATM   22  C10 UNL     1      -7.193   2.069  12.875  1.00  0.00     0.008 C 
HETATM   23  C11 UNL     1      -7.568   3.182  13.855  1.00  0.00     0.068 C 
HETATM   24  C12 UNL     1      -7.399   4.573  13.224  1.00  0.00     0.164 C 
HETATM   25  C13 UNL     1      -7.747   5.677  14.249  1.00  0.00     0.068 C 
HETATM   26  O3  UNL     1      -8.268   4.624  12.081  1.00  0.00    -0.355 OA
HETATM   27  O4  UNL     1      -6.046   4.802  12.816  1.00  0.00    -0.350 OA
HETATM   28  C14 UNL     1      -9.209   6.087  14.157  1.00  0.00     0.007 C 
HETATM   29  C15 UNL     1      -9.541   6.560  12.742  1.00  0.00     0.026 C 
HETATM   30  C16 UNL     1      -8.609   5.950  11.701  1.00  0.00     0.171 C 
ENDBRANCH  19  20
ENDBRANCH  18  19
ENDBRANCH  17  18
ENDBRANCH   1  17
TORSDOF 10
ENDMDL
MODEL 8
REMARK minimizedAffinity -7.48415279
REMARK  10 active torsions:
REMARK  status: ('A' for Active; 'I' for Inactive)
REMARK    1  A    between atoms: O1_1  and  C1_2 
REMARK    2  A    between atoms: C1_2  and  C2_3 
REMARK    3  A    between atoms: C3_5  and  C4_6 
REMARK    4  A    between atoms: C4_6  and  O2_7 
REMARK    5  A    between atoms: C4_6  and  C5_8 
REMARK    6  A    between atoms: C5_8  and  C6_9 
REMARK    7  A    between atoms: C6_9  and  C7_10 
REMARK    8  A    between atoms: C7_10  and  C8_11 
REMARK    9  A    between atoms: C17_22  and  O5_23 
REMARK   10  A    between atoms: C18_24  and  O6_25 
ROOT
HETATM    1  C4  UNL     1      -7.201   5.280  14.859  1.00  0.00     0.154 C 
ENDROOT
BRANCH   1   2
HETATM    2  C3  UNL     1      -6.847   4.604  13.513  1.00  0.00     0.280 C 
HETATM    3  N1  UNL     1      -5.380   4.458  13.280  1.00  0.00     0.102 N 
HETATM    4  C2  UNL     1      -5.238   3.249  12.409  1.00  0.00     0.275 C 
HETATM    5  H5  UNL     1      -4.923   4.234  14.168  1.00  0.00     0.317 HD
HETATM    6  C18 UNL     1      -6.647   2.741  12.085  1.00  0.00     0.184 C 
HETATM    7  C17 UNL     1      -7.447   3.215  13.293  1.00  0.00     0.184 C 
BRANCH   4   8
HETATM    8  C1  UNL     1      -4.435   3.579  11.146  1.00  0.00     0.202 C 
BRANCH   8   9
HETATM    9  O1  UNL     1      -5.092   3.027  10.005  1.00  0.00    -0.399 OA
HETATM   10  H1  UNL     1      -5.277   2.100  10.252  1.00  0.00     0.209 HD
ENDBRANCH   8   9
ENDBRANCH   4   8
BRANCH   6  11
HETATM   11  O6  UNL     1      -6.698   1.324  11.969  1.00  0.00    -0.391 OA
HETATM   12  H33 UNL     1      -7.538   1.103  11.528  1.00  0.00     0.210 HD
ENDBRANCH   6  11
BRANCH   7  13
HETATM   13  O5  UNL     1      -8.838   3.261  13.004  1.00  0.00    -0.391 OA
HETATM   14  H31 UNL     1      -9.170   2.348  13.047  1.00  0.00     0.210 HD
ENDBRANCH   7  13
ENDBRANCH   1   2
BRANCH   1  15
HETATM   15  O2  UNL     1      -7.884   4.304  15.662  1.00  0.00    -0.393 OA
HETATM   16  H8  UNL     1      -8.407   3.756  15.045  1.00  0.00     0.210 HD
ENDBRANCH   1  15
BRANCH   1  17
HETATM   17  C5  UNL     1      -8.102   6.522  14.752  1.00  0.00     0.034 C 
BRANCH  17  18
HETATM   18  C6  UNL     1      -7.468   7.807  15.312  1.00  0.00     0.005 C 
BRANCH  18  19
HETATM   19  C7  UNL     1      -6.232   8.290  14.546  1.00  0.00     0.032 C 
BRANCH  19  20
HETATM   20  C8  UNL     1      -4.911   8.103  15.309  1.00  0.00     0.125 C 
HETATM   21  C9  UNL     1      -4.136   9.410  15.484  1.00  0.00     0.032 C 
HETATM   22  C10 UNL     1      -2.882   9.180  16.324  1.00  0.00     0.008 C 
HETATM   23  C11 UNL     1      -2.373   7.742  16.216  1.00  0.00     0.068 C 
HETATM   24  C12 UNL     1      -2.733   7.114  14.860  1.00  0.00     0.164 C 
HETATM   25  C13 UNL     1      -2.241   5.650  14.794  1.00  0.00     0.068 C 
HETATM   26  O3  UNL     1      -2.114   7.923  13.846  1.00  0.00    -0.355 OA
HETATM   27  O4  UNL     1      -4.150   7.082  14.658  1.00  0.00    -0.350 OA
HETATM   28  C14 UNL     1      -0.849   5.552  14.189  1.00  0.00     0.007 C 
HETATM   29  C15 UNL     1      -0.830   6.175  12.794  1.00  0.00     0.026 C 
HETATM   30  C16 UNL     1      -1.921   7.227  12.622  1.00  0.00     0.171 C 
ENDBRANCH  19  20
ENDBRANCH  18  19
ENDBRANCH  17  18
ENDBRANCH   1  17
TORSDOF 10
ENDMDL
MODEL 9
REMARK minimizedAffinity -7.42798233
REMARK  10 active torsions:
REMARK  status: ('A' for Active; 'I' for Inactive)
REMARK    1  A    between atoms: O1_1  and  C1_2 
REMARK    2  A    between atoms: C1_2  and  C2_3 
REMARK    3  A    between atoms: C3_5  and  C4_6 
REMARK    4  A    between atoms: C4_6  and  O2_7 
REMARK    5  A    between atoms: C4_6  and  C5_8 
REMARK    6  A    between atoms: C5_8  and  C6_9 
REMARK    7  A    between atoms: C6_9  and  C7_10 
REMARK    8  A    between atoms: C7_10  and  C8_11 
REMARK    9  A    between atoms: C17_22  and  O5_23 
REMARK   10  A    between atoms: C18_24  and  O6_25 
ROOT
HETATM    1  C4  UNL     1      -3.679   6.522  14.343  1.00  0.00     0.154 C 
ENDROOT
BRANCH   1   2
HETATM    2  C3  UNL     1      -5.193   6.244  14.183  1.00  0.00     0.280 C 
HETATM    3  N1  UNL     1      -5.500   5.055  13.334  1.00  0.00     0.102 N 
HETATM    4  C2  UNL     1      -6.807   4.533  13.847  1.00  0.00     0.275 C 
HETATM    5  H5  UNL     1      -4.803   4.328  13.516  1.00  0.00     0.317 HD
HETATM    6  C18 UNL     1      -7.283   5.478  14.955  1.00  0.00     0.184 C 
HETATM    7  C17 UNL     1      -5.969   6.042  15.485  1.00  0.00     0.184 C 
BRANCH   4   8
HETATM    8  C1  UNL     1      -7.827   4.410  12.711  1.00  0.00     0.202 C 
BRANCH   8   9
HETATM    9  O1  UNL     1      -8.763   3.378  13.019  1.00  0.00    -0.399 OA
HETATM   10  H1  UNL     1      -8.211   2.614  13.280  1.00  0.00     0.209 HD
ENDBRANCH   8   9
ENDBRANCH   4   8
BRANCH   6  11
HETATM   11  O6  UNL     1      -7.990   4.794  15.982  1.00  0.00    -0.391 OA
HETATM   12  H33 UNL     1      -8.463   5.468  16.502  1.00  0.00     0.210 HD
ENDBRANCH   6  11
BRANCH   7  13
HETATM   13  O5  UNL     1      -6.178   7.260  16.188  1.00  0.00    -0.391 OA
HETATM   14  H31 UNL     1      -6.521   7.026  17.069  1.00  0.00     0.210 HD
ENDBRANCH   7  13
ENDBRANCH   1   2
BRANCH   1  15
HETATM   15  O2  UNL     1      -3.541   7.635  15.241  1.00  0.00    -0.393 OA
HETATM   16  H8  UNL     1      -4.302   8.223  15.072  1.00  0.00     0.210 HD
ENDBRANCH   1  15
BRANCH   1  17
HETATM   17  C5  UNL     1      -2.935   6.866  13.042  1.00  0.00     0.034 C 
BRANCH  17  18
HETATM   18  C6  UNL     1      -1.934   5.791  12.588  1.00  0.00     0.005 C 
BRANCH  18  19
HETATM   19  C7  UNL     1      -0.795   5.527  13.579  1.00  0.00     0.032 C 
BRANCH  19  20
HETATM   20  C8  UNL     1       0.590   5.955  13.068  1.00  0.00     0.125 C 
HETATM   21  C9  UNL     1       1.088   7.247  13.717  1.00  0.00     0.032 C 
HETATM   22  C10 UNL     1       2.502   7.573  13.241  1.00  0.00     0.008 C 
HETATM   23  C11 UNL     1       2.791   6.993  11.855  1.00  0.00     0.068 C 
HETATM   24  C12 UNL     1       1.510   6.876  11.012  1.00  0.00     0.164 C 
HETATM   25  C13 UNL     1       1.826   6.251   9.634  1.00  0.00     0.068 C 
HETATM   26  O3  UNL     1       0.974   8.203  10.878  1.00  0.00    -0.355 OA
HETATM   27  O4  UNL     1       0.547   6.024  11.640  1.00  0.00    -0.350 OA
HETATM   28  C14 UNL     1       2.118   7.317   8.588  1.00  0.00     0.007 C 
HETATM   29  C15 UNL     1       0.941   8.284   8.470  1.00  0.00     0.026 C 
HETATM   30  C16 UNL     1       0.118   8.344   9.752  1.00  0.00     0.171 C 
ENDBRANCH  19  20
ENDBRANCH  18  19
ENDBRANCH  17  18
ENDBRANCH   1  17
TORSDOF 10
ENDMDL
