MODEL 1
REMARK minimizedAffinity -7.79973984
REMARK CNNscore 0.741511464
REMARK CNNaffinity 6.66304255
REMARK  5 active torsions:
REMARK  status: ('A' for Active; 'I' for Inactive)
REMARK    1  A    between atoms: C2_2  and  C4_4 
REMARK    2  A    between atoms: C10_11  and  O2_12 
REMARK    3  A    between atoms: C13_15  and  O3_16 
REMARK    4  A    between atoms: C32_38  and  O5_39 
REMARK    5  A    between atoms: C37_45  and  O7_46 
ROOT
HETATM    1  C4  UNL     1     -12.269  -9.702  16.536  1.00  0.00     0.181 C 
HETATM    2  O1  UNL     1     -12.988  -9.481  15.301  1.00  0.00    -0.370 OA
HETATM    3  C5  UNL     1     -12.339  -8.471  14.513  1.00  0.00     0.163 C 
HETATM    4  C6  UNL     1     -12.943  -8.433  13.102  1.00  0.00     0.036 C 
HETATM    5  C7  UNL     1     -14.212  -7.595  12.923  1.00  0.00     0.016 C 
HETATM    6  C8  UNL     1     -14.304  -6.312  13.821  1.00  0.00     0.006 C 
HETATM    7  C9  UNL     1     -15.296  -6.718  14.953  1.00  0.00     0.020 C 
HETATM    8  C10 UNL     1     -12.878  -5.955  14.457  1.00  0.00     0.102 C 
HETATM    9  C11 UNL     1     -12.875  -4.617  15.259  1.00  0.00     0.045 C 
HETATM   10  C12 UNL     1     -13.469  -3.395  14.509  1.00  0.00     0.045 C 
HETATM   11  C13 UNL     1     -14.844  -3.760  13.966  1.00  0.00     0.102 C 
HETATM   12  C14 UNL     1     -15.698  -2.676  13.166  1.00  0.00     0.194 C 
HETATM   13  O4  UNL     1     -16.274  -1.828  14.156  1.00  0.00    -0.367 OA
HETATM   14  C15 UNL     1     -16.787  -0.537  13.795  1.00  0.00     0.061 C 
HETATM   15  C16 UNL     1     -17.066   0.114  15.169  1.00  0.00     0.046 C 
HETATM   16  C17 UNL     1     -15.735   0.331  13.102  1.00  0.00     0.046 C 
HETATM   17  C18 UNL     1     -18.129  -0.666  13.053  1.00  0.00     0.060 C 
HETATM   18  C19 UNL     1     -18.932   0.611  12.731  1.00  0.00     0.023 C 
HETATM   19  C20 UNL     1     -19.436  -0.025  11.420  1.00  0.00     0.054 C 
HETATM   20  C21 UNL     1     -20.809  -0.619  11.337  1.00  0.00    -0.077 C 
HETATM   21  C22 UNL     1     -21.847  -0.033  11.969  1.00  0.00     0.015 C 
HETATM   22  C23 UNL     1     -20.955  -1.849  10.449  1.00  0.00     0.074 C 
HETATM   23  C24 UNL     1     -19.988  -2.970  10.786  1.00  0.00    -0.022 C 
HETATM   24  C25 UNL     1     -20.256  -4.316  10.501  1.00  0.00     0.043 C 
HETATM   25 CL1  UNL     1     -21.727  -4.802   9.732  1.00  0.00    -0.084 Cl
HETATM   26  C26 UNL     1     -19.334  -5.324  10.809  1.00  0.00     0.054 C 
HETATM   27  C27 UNL     1     -18.154  -4.949  11.469  1.00  0.00     0.045 A 
HETATM   28  N1  UNL     1     -17.088  -5.731  11.905  1.00  0.00    -0.357 N 
HETATM   29  C28 UNL     1     -16.173  -4.914  12.470  1.00  0.00     0.032 A 
HETATM   30  C29 UNL     1     -16.648  -3.621  12.480  1.00  0.00     0.010 A 
HETATM   31  C30 UNL     1     -17.862  -3.607  11.774  1.00  0.00     0.011 A 
HETATM   32  C31 UNL     1     -18.745  -2.596  11.350  1.00  0.00    -0.001 C 
HETATM   33  C32 UNL     1     -18.281  -1.098  11.546  1.00  0.00     0.100 C 
HETATM   34  C33 UNL     1     -14.779  -5.044  13.003  1.00  0.00     0.043 C 
HETATM   35  C34 UNL     1     -13.869  -4.733  11.762  1.00  0.00     0.026 C 
HETATM   36  C35 UNL     1     -12.392  -7.154  15.253  1.00  0.00     0.147 A 
HETATM   37  O6  UNL     1     -11.202  -6.931  16.053  1.00  0.00    -0.360 OA
HETATM   38  C36 UNL     1     -12.404  -7.183  16.773  1.00  0.00     0.194 A 
HETATM   39  C37 UNL     1     -12.528  -8.495  17.481  1.00  0.00     0.183 C 
HETATM   40  H37 UNL     1     -17.008  -6.732  11.787  1.00  0.00     0.166 HD
ENDROOT
BRANCH   1  41
HETATM   41  C2  UNL     1     -12.680 -11.041  17.149  1.00  0.00    -0.062 C 
HETATM   42  C1  UNL     1     -13.721 -11.774  16.726  1.00  0.00     0.016 C 
HETATM   43  C3  UNL     1     -11.821 -11.502  18.300  1.00  0.00     0.045 C 
ENDBRANCH   1  41
BRANCH  39  44
HETATM   44  O7  UNL     1     -13.848  -8.532  18.022  1.00  0.00    -0.390 OA
HETATM   45  H44 UNL     1     -14.442  -8.832  17.314  1.00  0.00     0.210 HD
ENDBRANCH  39  44
BRANCH   8  46
HETATM   46  O2  UNL     1     -11.925  -5.787  13.388  1.00  0.00    -0.386 OA
HETATM   47  H15 UNL     1     -11.285  -5.092  13.642  1.00  0.00     0.210 HD
ENDBRANCH   8  46
BRANCH  11  48
HETATM   48  O3  UNL     1     -15.629  -4.057  15.157  1.00  0.00    -0.386 OA
HETATM   49  H20 UNL     1     -15.867  -3.185  15.558  1.00  0.00     0.210 HD
ENDBRANCH  11  48
BRANCH  33  50
HETATM   50  O5  UNL     1     -17.172  -0.765  10.669  1.00  0.00    -0.384 OA
HETATM   51  H38 UNL     1     -16.682  -1.594  10.562  1.00  0.00     0.211 HD
ENDBRANCH  33  50
TORSDOF 5
ENDMDL
MODEL 2
REMARK minimizedAffinity -7.92153168
REMARK CNNscore 0.645673513
REMARK CNNaffinity 7.03057909
REMARK  5 active torsions:
REMARK  status: ('A' for Active; 'I' for Inactive)
REMARK    1  A    between atoms: C2_2  and  C4_4 
REMARK    2  A    between atoms: C10_11  and  O2_12 
REMARK    3  A    between atoms: C13_15  and  O3_16 
REMARK    4  A    between atoms: C32_38  and  O5_39 
REMARK    5  A    between atoms: C37_45  and  O7_46 
ROOT
HETATM    1  C4  UNL     1      -9.522  12.993  22.368  1.00  0.00     0.181 C 
HETATM    2  O1  UNL     1      -9.902  11.656  21.968  1.00  0.00    -0.370 OA
HETATM    3  C5  UNL     1     -11.301  11.603  21.650  1.00  0.00     0.163 C 
HETATM    4  C6  UNL     1     -11.640  10.266  20.976  1.00  0.00     0.036 C 
HETATM    5  C7  UNL     1     -11.923   9.083  21.905  1.00  0.00     0.016 C 
HETATM    6  C8  UNL     1     -12.621   9.444  23.262  1.00  0.00     0.006 C 
HETATM    7  C9  UNL     1     -11.466   9.383  24.307  1.00  0.00     0.020 C 
HETATM    8  C10 UNL     1     -13.228  10.926  23.217  1.00  0.00     0.102 C 
HETATM    9  C11 UNL     1     -14.046  11.300  24.491  1.00  0.00     0.045 C 
HETATM   10  C12 UNL     1     -15.131  10.269  24.906  1.00  0.00     0.045 C 
HETATM   11  C13 UNL     1     -14.501   8.885  24.988  1.00  0.00     0.102 C 
HETATM   12  C14 UNL     1     -15.388   7.631  25.418  1.00  0.00     0.194 C 
HETATM   13  O4  UNL     1     -15.500   7.703  26.838  1.00  0.00    -0.367 OA
HETATM   14  C15 UNL     1     -16.525   6.968  27.522  1.00  0.00     0.061 C 
HETATM   15  C16 UNL     1     -16.439   7.525  28.961  1.00  0.00     0.046 C 
HETATM   16  C17 UNL     1     -17.924   7.303  27.003  1.00  0.00     0.046 C 
HETATM   17  C18 UNL     1     -16.183   5.468  27.576  1.00  0.00     0.060 C 
HETATM   18  C19 UNL     1     -17.068   4.528  28.419  1.00  0.00     0.023 C 
HETATM   19  C20 UNL     1     -16.841   3.389  27.405  1.00  0.00     0.054 C 
HETATM   20  C21 UNL     1     -15.844   2.306  27.684  1.00  0.00    -0.077 C 
HETATM   21  C22 UNL     1     -15.694   1.818  28.932  1.00  0.00     0.015 C 
HETATM   22  C23 UNL     1     -15.094   1.757  26.476  1.00  0.00     0.074 C 
HETATM   23  C24 UNL     1     -14.397   2.822  25.648  1.00  0.00    -0.022 C 
HETATM   24  C25 UNL     1     -13.271   2.554  24.856  1.00  0.00     0.043 C 
HETATM   25 CL1  UNL     1     -12.590   0.968  24.761  1.00  0.00    -0.084 Cl
HETATM   26  C26 UNL     1     -12.662   3.557  24.091  1.00  0.00     0.054 C 
HETATM   27  C27 UNL     1     -13.180   4.857  24.189  1.00  0.00     0.045 A 
HETATM   28  N1  UNL     1     -12.769   6.032  23.566  1.00  0.00    -0.357 N 
HETATM   29  C28 UNL     1     -13.590   7.027  23.961  1.00  0.00     0.032 A 
HETATM   30  C29 UNL     1     -14.491   6.546  24.887  1.00  0.00     0.010 A 
HETATM   31  C30 UNL     1     -14.303   5.157  24.982  1.00  0.00     0.011 A 
HETATM   32  C31 UNL     1     -14.974   4.115  25.649  1.00  0.00    -0.001 C 
HETATM   33  C32 UNL     1     -16.337   4.470  26.367  1.00  0.00     0.100 C 
HETATM   34  C33 UNL     1     -13.816   8.463  23.598  1.00  0.00     0.043 C 
HETATM   35  C34 UNL     1     -14.902   8.401  22.466  1.00  0.00     0.026 C 
HETATM   36  C35 UNL     1     -12.104  11.897  22.897  1.00  0.00     0.147 A 
HETATM   37  O6  UNL     1     -12.445  13.303  23.006  1.00  0.00    -0.360 OA
HETATM   38  C36 UNL     1     -11.495  12.812  23.947  1.00  0.00     0.194 A 
HETATM   39  C37 UNL     1     -10.075  13.257  23.796  1.00  0.00     0.183 C 
HETATM   40  H37 UNL     1     -12.003   6.109  22.909  1.00  0.00     0.166 HD
ENDROOT
BRANCH   1  41
HETATM   41  C2  UNL     1      -8.004  13.156  22.273  1.00  0.00    -0.062 C 
HETATM   42  C1  UNL     1      -7.179  13.139  23.331  1.00  0.00     0.016 C 
HETATM   43  C3  UNL     1      -7.472  13.348  20.874  1.00  0.00     0.045 C 
ENDBRANCH   1  41
BRANCH  39  44
HETATM   44  O7  UNL     1      -9.328  12.547  24.783  1.00  0.00    -0.390 OA
HETATM   45  H44 UNL     1      -9.117  11.673  24.411  1.00  0.00     0.210 HD
ENDBRANCH  39  44
BRANCH   8  46
HETATM   46  O2  UNL     1     -14.145  11.015  22.107  1.00  0.00    -0.386 OA
HETATM   47  H15 UNL     1     -14.878  11.615  22.351  1.00  0.00     0.210 HD
ENDBRANCH   8  46
BRANCH  11  48
HETATM   48  O3  UNL     1     -13.494   9.013  26.033  1.00  0.00    -0.386 OA
HETATM   49  H20 UNL     1     -13.981   8.993  26.893  1.00  0.00     0.210 HD
ENDBRANCH  11  48
BRANCH  33  50
HETATM   50  O5  UNL     1     -17.378   4.786  25.406  1.00  0.00    -0.384 OA
HETATM   51  H38 UNL     1     -16.912   5.180  24.653  1.00  0.00     0.211 HD
ENDBRANCH  33  50
TORSDOF 5
ENDMDL
MODEL 3
REMARK minimizedAffinity -7.35356426
REMARK CNNscore 0.536140025
REMARK CNNaffinity 6.31782913
REMARK  5 active torsions:
REMARK  status: ('A' for Active; 'I' for Inactive)
REMARK    1  A    between atoms: C2_2  and  C4_4 
REMARK    2  A    between atoms: C10_11  and  O2_12 
REMARK    3  A    between atoms: C13_15  and  O3_16 
REMARK    4  A    between atoms: C32_38  and  O5_39 
REMARK    5  A    between atoms: C37_45  and  O7_46 
ROOT
HETATM    1  C4  UNL     1     -13.437  -6.389  13.713  1.00  0.00     0.181 C 
HETATM    2  O1  UNL     1     -14.743  -5.999  14.196  1.00  0.00    -0.370 OA
HETATM    3  C5  UNL     1     -15.477  -5.314  13.170  1.00  0.00     0.163 C 
HETATM    4  C6  UNL     1     -16.943  -5.143  13.593  1.00  0.00     0.036 C 
HETATM    5  C7  UNL     1     -17.265  -3.933  14.473  1.00  0.00     0.016 C 
HETATM    6  C8  UNL     1     -16.404  -2.652  14.199  1.00  0.00     0.006 C 
HETATM    7  C9  UNL     1     -15.373  -2.636  15.367  1.00  0.00     0.020 C 
HETATM    8  C10 UNL     1     -15.630  -2.771  12.801  1.00  0.00     0.102 C 
HETATM    9  C11 UNL     1     -14.854  -1.476  12.409  1.00  0.00     0.045 C 
HETATM   10  C12 UNL     1     -15.682  -0.164  12.474  1.00  0.00     0.045 C 
HETATM   11  C13 UNL     1     -16.358  -0.065  13.835  1.00  0.00     0.102 C 
HETATM   12  C14 UNL     1     -17.260   1.203  14.187  1.00  0.00     0.194 C 
HETATM   13  O4  UNL     1     -16.349   2.246  14.522  1.00  0.00    -0.367 OA
HETATM   14  C15 UNL     1     -16.783   3.615  14.523  1.00  0.00     0.061 C 
HETATM   15  C16 UNL     1     -15.456   4.391  14.684  1.00  0.00     0.046 C 
HETATM   16  C17 UNL     1     -17.378   4.034  13.178  1.00  0.00     0.046 C 
HETATM   17  C18 UNL     1     -17.657   3.914  15.754  1.00  0.00     0.060 C 
HETATM   18  C19 UNL     1     -18.081   5.370  16.035  1.00  0.00     0.023 C 
HETATM   19  C20 UNL     1     -19.426   4.878  16.606  1.00  0.00     0.054 C 
HETATM   20  C21 UNL     1     -19.640   4.786  18.085  1.00  0.00    -0.077 C 
HETATM   21  C22 UNL     1     -19.129   5.722  18.911  1.00  0.00     0.015 C 
HETATM   22  C23 UNL     1     -20.518   3.636  18.566  1.00  0.00     0.074 C 
HETATM   23  C24 UNL     1     -20.064   2.271  18.079  1.00  0.00    -0.022 C 
HETATM   24  C25 UNL     1     -20.352   1.084  18.768  1.00  0.00     0.043 C 
HETATM   25 CL1  UNL     1     -21.261   1.091  20.240  1.00  0.00    -0.084 Cl
HETATM   26  C26 UNL     1     -19.934  -0.161  18.282  1.00  0.00     0.054 C 
HETATM   27  C27 UNL     1     -19.163  -0.178  17.111  1.00  0.00     0.045 A 
HETATM   28  N1  UNL     1     -18.606  -1.254  16.424  1.00  0.00    -0.357 N 
HETATM   29  C28 UNL     1     -17.963  -0.771  15.340  1.00  0.00     0.032 A 
HETATM   30  C29 UNL     1     -18.024   0.606  15.337  1.00  0.00     0.010 A 
HETATM   31  C30 UNL     1     -18.851   0.997  16.403  1.00  0.00     0.011 A 
HETATM   32  C31 UNL     1     -19.381   2.226  16.840  1.00  0.00    -0.001 C 
HETATM   33  C32 UNL     1     -19.164   3.483  15.908  1.00  0.00     0.100 C 
HETATM   34  C33 UNL     1     -17.287  -1.341  14.130  1.00  0.00     0.043 C 
HETATM   35  C34 UNL     1     -18.433  -1.424  13.059  1.00  0.00     0.026 C 
HETATM   36  C35 UNL     1     -14.768  -4.022  12.833  1.00  0.00     0.147 A 
HETATM   37  O6  UNL     1     -13.854  -4.178  11.716  1.00  0.00    -0.360 OA
HETATM   38  C36 UNL     1     -13.257  -3.966  12.992  1.00  0.00     0.194 A 
HETATM   39  C37 UNL     1     -12.544  -5.119  13.625  1.00  0.00     0.183 C 
HETATM   40  H37 UNL     1     -18.698  -2.227  16.684  1.00  0.00     0.166 HD
ENDROOT
BRANCH   1  41
HETATM   41  C2  UNL     1     -12.847  -7.474  14.615  1.00  0.00    -0.062 C 
HETATM   42  C1  UNL     1     -13.109  -8.783  14.487  1.00  0.00     0.016 C 
HETATM   43  C3  UNL     1     -11.925  -6.968  15.697  1.00  0.00     0.045 C 
ENDBRANCH   1  41
BRANCH  39  44
HETATM   44  O7  UNL     1     -12.141  -4.675  14.920  1.00  0.00    -0.390 OA
HETATM   45  H44 UNL     1     -12.902  -4.791  15.514  1.00  0.00     0.210 HD
ENDBRANCH  39  44
BRANCH   8  46
HETATM   46  O2  UNL     1     -16.598  -2.993  11.755  1.00  0.00    -0.386 OA
HETATM   47  H15 UNL     1     -16.291  -2.547  10.940  1.00  0.00     0.210 HD
ENDBRANCH   8  46
BRANCH  11  48
HETATM   48  O3  UNL     1     -15.250  -0.015  14.780  1.00  0.00    -0.386 OA
HETATM   49  H20 UNL     1     -14.890   0.906  14.738  1.00  0.00     0.210 HD
ENDBRANCH  11  48
BRANCH  33  50
HETATM   50  O5  UNL     1     -19.927   3.372  14.677  1.00  0.00    -0.384 OA
HETATM   51  H38 UNL     1     -19.969   2.421  14.496  1.00  0.00     0.211 HD
ENDBRANCH  33  50
TORSDOF 5
ENDMDL
MODEL 4
REMARK minimizedAffinity -7.17367887
REMARK CNNscore 0.522802472
REMARK CNNaffinity 6.77135038
REMARK  5 active torsions:
REMARK  status: ('A' for Active; 'I' for Inactive)
REMARK    1  A    between atoms: C2_2  and  C4_4 
REMARK    2  A    between atoms: C10_11  and  O2_12 
REMARK    3  A    between atoms: C13_15  and  O3_16 
REMARK    4  A    between atoms: C32_38  and  O5_39 
REMARK    5  A    between atoms: C37_45  and  O7_46 
ROOT
HETATM    1  C4  UNL     1      -3.583  17.261   6.918  1.00  0.00     0.181 C 
HETATM    2  O1  UNL     1      -3.144  16.376   5.861  1.00  0.00    -0.370 OA
HETATM    3  C5  UNL     1      -2.023  15.590   6.294  1.00  0.00     0.163 C 
HETATM    4  C6  UNL     1      -1.734  14.475   5.279  1.00  0.00     0.036 C 
HETATM    5  C7  UNL     1      -0.861  14.852   4.079  1.00  0.00     0.016 C 
HETATM    6  C8  UNL     1       0.249  15.922   4.363  1.00  0.00     0.006 C 
HETATM    7  C9  UNL     1      -0.331  17.236   3.756  1.00  0.00     0.020 C 
HETATM    8  C10 UNL     1       0.473  16.111   5.938  1.00  0.00     0.102 C 
HETATM    9  C11 UNL     1       1.653  17.070   6.286  1.00  0.00     0.045 C 
HETATM   10  C12 UNL     1       2.994  16.755   5.570  1.00  0.00     0.045 C 
HETATM   11  C13 UNL     1       2.746  16.637   4.072  1.00  0.00     0.102 C 
HETATM   12  C14 UNL     1       3.962  16.338   3.085  1.00  0.00     0.194 C 
HETATM   13  O4  UNL     1       4.635  17.582   2.911  1.00  0.00    -0.367 OA
HETATM   14  C15 UNL     1       5.976  17.615   2.399  1.00  0.00     0.061 C 
HETATM   15  C16 UNL     1       6.385  19.090   2.614  1.00  0.00     0.046 C 
HETATM   16  C17 UNL     1       6.936  16.766   3.234  1.00  0.00     0.046 C 
HETATM   17  C18 UNL     1       5.995  17.337   0.885  1.00  0.00     0.060 C 
HETATM   18  C19 UNL     1       7.318  17.499   0.111  1.00  0.00     0.023 C 
HETATM   19  C20 UNL     1       6.923  16.338  -0.824  1.00  0.00     0.054 C 
HETATM   20  C21 UNL     1       6.371  16.611  -2.190  1.00  0.00    -0.077 C 
HETATM   21  C22 UNL     1       6.853  17.629  -2.933  1.00  0.00     0.015 C 
HETATM   22  C23 UNL     1       5.314  15.635  -2.694  1.00  0.00     0.074 C 
HETATM   23  C24 UNL     1       4.139  15.459  -1.748  1.00  0.00    -0.022 C 
HETATM   24  C25 UNL     1       2.865  15.067  -2.183  1.00  0.00     0.043 C 
HETATM   25 CL1  UNL     1       2.538  14.749  -3.851  1.00  0.00    -0.084 Cl
HETATM   26  C26 UNL     1       1.807  14.897  -1.282  1.00  0.00     0.054 C 
HETATM   27  C27 UNL     1       2.047  15.189   0.069  1.00  0.00     0.045 A 
HETATM   28  N1  UNL     1       1.188  15.128   1.163  1.00  0.00    -0.357 N 
HETATM   29  C28 UNL     1       1.883  15.489   2.262  1.00  0.00     0.032 A 
HETATM   30  C29 UNL     1       3.162  15.855   1.905  1.00  0.00     0.010 A 
HETATM   31  C30 UNL     1       3.313  15.593   0.533  1.00  0.00     0.011 A 
HETATM   32  C31 UNL     1       4.394  15.643  -0.367  1.00  0.00    -0.001 C 
HETATM   33  C32 UNL     1       5.830  15.912   0.235  1.00  0.00     0.100 C 
HETATM   34  C33 UNL     1       1.646  15.514   3.742  1.00  0.00     0.043 C 
HETATM   35  C34 UNL     1       2.153  14.110   4.231  1.00  0.00     0.026 C 
HETATM   36  C35 UNL     1      -0.852  16.506   6.569  1.00  0.00     0.147 A 
HETATM   37  O6  UNL     1      -0.785  16.903   7.963  1.00  0.00    -0.360 OA
HETATM   38  C36 UNL     1      -1.141  17.924   7.036  1.00  0.00     0.194 A 
HETATM   39  C37 UNL     1      -2.553  18.417   7.054  1.00  0.00     0.183 C 
HETATM   40  H37 UNL     1       0.221  14.833   1.132  1.00  0.00     0.166 HD
ENDROOT
BRANCH   1  41
HETATM   41  C2  UNL     1      -5.002  17.754   6.632  1.00  0.00    -0.062 C 
HETATM   42  C1  UNL     1      -5.770  18.394   7.526  1.00  0.00     0.016 C 
HETATM   43  C3  UNL     1      -5.506  17.464   5.239  1.00  0.00     0.045 C 
ENDBRANCH   1  41
BRANCH  39  44
HETATM   44  O7  UNL     1      -2.665  19.343   5.974  1.00  0.00    -0.390 OA
HETATM   45  H44 UNL     1      -2.831  18.826   5.167  1.00  0.00     0.210 HD
ENDBRANCH  39  44
BRANCH   8  46
HETATM   46  O2  UNL     1       0.809  14.832   6.512  1.00  0.00    -0.386 OA
HETATM   47  H15 UNL     1       1.441  14.971   7.246  1.00  0.00     0.210 HD
ENDBRANCH   8  46
BRANCH  11  48
HETATM   48  O3  UNL     1       2.259  17.954   3.686  1.00  0.00    -0.386 OA
HETATM   49  H20 UNL     1       3.052  18.543   3.647  1.00  0.00     0.210 HD
ENDBRANCH  11  48
BRANCH  33  50
HETATM   50  O5  UNL     1       6.293  14.788   1.030  1.00  0.00    -0.384 OA
HETATM   51  H38 UNL     1       5.488  14.398   1.403  1.00  0.00     0.211 HD
ENDBRANCH  33  50
TORSDOF 5
ENDMDL
MODEL 5
REMARK minimizedAffinity -8.35782146
REMARK CNNscore 0.518388748
REMARK CNNaffinity 6.61591721
REMARK  5 active torsions:
REMARK  status: ('A' for Active; 'I' for Inactive)
REMARK    1  A    between atoms: C2_2  and  C4_4 
REMARK    2  A    between atoms: C10_11  and  O2_12 
REMARK    3  A    between atoms: C13_15  and  O3_16 
REMARK    4  A    between atoms: C32_38  and  O5_39 
REMARK    5  A    between atoms: C37_45  and  O7_46 
ROOT
HETATM    1  C4  UNL     1      -2.342  17.021   7.087  1.00  0.00     0.181 C 
HETATM    2  O1  UNL     1      -2.393  16.116   5.960  1.00  0.00    -0.370 OA
HETATM    3  C5  UNL     1      -1.291  15.196   6.000  1.00  0.00     0.163 C 
HETATM    4  C6  UNL     1      -1.496  14.079   4.967  1.00  0.00     0.036 C 
HETATM    5  C7  UNL     1      -1.044  14.380   3.536  1.00  0.00     0.016 C 
HETATM    6  C8  UNL     1       0.213  15.308   3.406  1.00  0.00     0.006 C 
HETATM    7  C9  UNL     1      -0.382  16.693   3.009  1.00  0.00     0.020 C 
HETATM    8  C10 UNL     1       0.978  15.434   4.808  1.00  0.00     0.102 C 
HETATM    9  C11 UNL     1       2.309  16.242   4.718  1.00  0.00     0.045 C 
HETATM   10  C12 UNL     1       3.281  15.791   3.594  1.00  0.00     0.045 C 
HETATM   11  C13 UNL     1       2.528  15.736   2.272  1.00  0.00     0.102 C 
HETATM   12  C14 UNL     1       3.293  15.321   0.936  1.00  0.00     0.194 C 
HETATM   13  O4  UNL     1       4.007  16.483   0.521  1.00  0.00    -0.367 OA
HETATM   14  C15 UNL     1       5.089  16.373  -0.416  1.00  0.00     0.061 C 
HETATM   15  C16 UNL     1       5.715  17.785  -0.379  1.00  0.00     0.046 C 
HETATM   16  C17 UNL     1       6.169  15.399   0.058  1.00  0.00     0.046 C 
HETATM   17  C18 UNL     1       4.560  16.129  -1.841  1.00  0.00     0.060 C 
HETATM   18  C19 UNL     1       5.551  16.154  -3.021  1.00  0.00     0.023 C 
HETATM   19  C20 UNL     1       4.731  15.069  -3.746  1.00  0.00     0.054 C 
HETATM   20  C21 UNL     1       3.784  15.435  -4.847  1.00  0.00    -0.077 C 
HETATM   21  C22 UNL     1       4.100  16.406  -5.728  1.00  0.00     0.015 C 
HETATM   22  C23 UNL     1       2.512  14.599  -4.945  1.00  0.00     0.074 C 
HETATM   23  C24 UNL     1       1.716  14.538  -3.653  1.00  0.00    -0.022 C 
HETATM   24  C25 UNL     1       0.334  14.306  -3.623  1.00  0.00     0.043 C 
HETATM   25 CL1  UNL     1      -0.575  14.065  -5.075  1.00  0.00    -0.084 Cl
HETATM   26  C26 UNL     1      -0.368  14.238  -2.412  1.00  0.00     0.054 C 
HETATM   27  C27 UNL     1       0.349  14.470  -1.229  1.00  0.00     0.045 A 
HETATM   28  N1  UNL     1      -0.089  14.483   0.092  1.00  0.00    -0.357 N 
HETATM   29  C28 UNL     1       0.975  14.737   0.884  1.00  0.00     0.032 A 
HETATM   30  C29 UNL     1       2.090  14.961   0.106  1.00  0.00     0.010 A 
HETATM   31  C30 UNL     1       1.735  14.714  -1.229  1.00  0.00     0.011 A 
HETATM   32  C31 UNL     1       2.444  14.659  -2.445  1.00  0.00    -0.001 C 
HETATM   33  C32 UNL     1       4.020  14.747  -2.371  1.00  0.00     0.100 C 
HETATM   34  C33 UNL     1       1.258  14.756   2.355  1.00  0.00     0.043 C 
HETATM   35  C34 UNL     1       1.734  13.292   2.668  1.00  0.00     0.026 C 
HETATM   36  C35 UNL     1       0.001  15.965   5.844  1.00  0.00     0.147 A 
HETATM   37  O6  UNL     1       0.583  16.319   7.126  1.00  0.00    -0.360 OA
HETATM   38  C36 UNL     1       0.056  17.395   6.357  1.00  0.00     0.194 A 
HETATM   39  C37 UNL     1      -1.199  18.047   6.844  1.00  0.00     0.183 C 
HETATM   40  H37 UNL     1      -1.037  14.303   0.398  1.00  0.00     0.166 HD
ENDROOT
BRANCH   1  41
HETATM   41  C2  UNL     1      -3.706  17.681   7.291  1.00  0.00    -0.062 C 
HETATM   42  C1  UNL     1      -4.043  18.391   8.378  1.00  0.00     0.016 C 
HETATM   43  C3  UNL     1      -4.685  17.476   6.161  1.00  0.00     0.045 C 
ENDBRANCH   1  41
BRANCH  39  44
HETATM   44  O7  UNL     1      -1.563  19.005   5.850  1.00  0.00    -0.390 OA
HETATM   45  H44 UNL     1      -2.052  18.529   5.157  1.00  0.00     0.210 HD
ENDBRANCH  39  44
BRANCH   8  46
HETATM   46  O2  UNL     1       1.338  14.111   5.257  1.00  0.00    -0.386 OA
HETATM   47  H15 UNL     1       2.194  14.160   5.730  1.00  0.00     0.210 HD
ENDBRANCH   8  46
BRANCH  11  48
HETATM   48  O3  UNL     1       2.096  17.109   2.051  1.00  0.00    -0.386 OA
HETATM   49  H20 UNL     1       2.891  17.604   1.734  1.00  0.00     0.210 HD
ENDBRANCH  11  48
BRANCH  33  50
HETATM   50  O5  UNL     1       4.591  13.560  -1.760  1.00  0.00    -0.384 OA
HETATM   51  H38 UNL     1       3.921  13.257  -1.129  1.00  0.00     0.211 HD
ENDBRANCH  33  50
TORSDOF 5
ENDMDL
MODEL 6
REMARK minimizedAffinity -8.92287922
REMARK CNNscore 0.509313464
REMARK CNNaffinity 6.18785048
REMARK  5 active torsions:
REMARK  status: ('A' for Active; 'I' for Inactive)
REMARK    1  A    between atoms: C2_2  and  C4_4 
REMARK    2  A    between atoms: C10_11  and  O2_12 
REMARK    3  A    between atoms: C13_15  and  O3_16 
REMARK    4  A    between atoms: C32_38  and  O5_39 
REMARK    5  A    between atoms: C37_45  and  O7_46 
ROOT
HETATM    1  C4  UNL     1       1.746  15.411   3.757  1.00  0.00     0.181 C 
HETATM    2  O1  UNL     1       0.425  15.946   3.508  1.00  0.00    -0.370 OA
HETATM    3  C5  UNL     1       0.343  17.312   3.943  1.00  0.00     0.163 C 
HETATM    4  C6  UNL     1      -0.958  17.950   3.437  1.00  0.00     0.036 C 
HETATM    5  C7  UNL     1      -2.209  17.723   4.290  1.00  0.00     0.016 C 
HETATM    6  C8  UNL     1      -1.963  17.631   5.836  1.00  0.00     0.006 C 
HETATM    7  C9  UNL     1      -2.050  16.105   6.140  1.00  0.00     0.020 C 
HETATM    8  C10 UNL     1      -0.504  18.172   6.217  1.00  0.00     0.102 C 
HETATM    9  C11 UNL     1      -0.244  18.226   7.753  1.00  0.00     0.045 C 
HETATM   10  C12 UNL     1      -1.338  18.950   8.584  1.00  0.00     0.045 C 
HETATM   11  C13 UNL     1      -2.701  18.370   8.231  1.00  0.00     0.102 C 
HETATM   12  C14 UNL     1      -4.011  18.917   8.957  1.00  0.00     0.194 C 
HETATM   13  O4  UNL     1      -4.036  18.290  10.237  1.00  0.00    -0.367 OA
HETATM   14  C15 UNL     1      -4.851  18.825  11.290  1.00  0.00     0.061 C 
HETATM   15  C16 UNL     1      -4.387  18.016  12.523  1.00  0.00     0.046 C 
HETATM   16  C17 UNL     1      -4.533  20.292  11.581  1.00  0.00     0.046 C 
HETATM   17  C18 UNL     1      -6.338  18.507  11.051  1.00  0.00     0.060 C 
HETATM   18  C19 UNL     1      -7.362  18.841  12.154  1.00  0.00     0.023 C 
HETATM   19  C20 UNL     1      -8.423  19.165  11.083  1.00  0.00     0.054 C 
HETATM   20  C21 UNL     1      -9.486  18.169  10.735  1.00  0.00    -0.077 C 
HETATM   21  C22 UNL     1     -10.049  17.405  11.693  1.00  0.00     0.015 C 
HETATM   22  C23 UNL     1      -9.928  18.141   9.276  1.00  0.00     0.074 C 
HETATM   23  C24 UNL     1      -8.786  17.960   8.292  1.00  0.00    -0.022 C 
HETATM   24  C25 UNL     1      -8.961  17.396   7.020  1.00  0.00     0.043 C 
HETATM   25 CL1  UNL     1     -10.513  16.863   6.473  1.00  0.00    -0.084 Cl
HETATM   26  C26 UNL     1      -7.889  17.260   6.128  1.00  0.00     0.054 C 
HETATM   27  C27 UNL     1      -6.618  17.652   6.573  1.00  0.00     0.045 A 
HETATM   28  N1  UNL     1      -5.391  17.612   5.917  1.00  0.00    -0.357 N 
HETATM   29  C28 UNL     1      -4.454  18.115   6.748  1.00  0.00     0.032 A 
HETATM   30  C29 UNL     1      -5.026  18.419   7.964  1.00  0.00     0.010 A 
HETATM   31  C30 UNL     1      -6.410  18.213   7.847  1.00  0.00     0.011 A 
HETATM   32  C31 UNL     1      -7.518  18.453   8.682  1.00  0.00    -0.001 C 
HETATM   33  C32 UNL     1      -7.259  19.258  10.017  1.00  0.00     0.100 C 
HETATM   34  C33 UNL     1      -3.006  18.490   6.659  1.00  0.00     0.043 C 
HETATM   35  C34 UNL     1      -3.032  20.003   6.235  1.00  0.00     0.026 C 
HETATM   36  C35 UNL     1       0.526  17.366   5.443  1.00  0.00     0.147 A 
HETATM   37  O6  UNL     1       1.909  17.600   5.815  1.00  0.00    -0.360 OA
HETATM   38  C36 UNL     1       1.392  16.304   6.102  1.00  0.00     0.194 A 
HETATM   39  C37 UNL     1       1.896  15.158   5.284  1.00  0.00     0.183 C 
HETATM   40  H37 UNL     1      -5.243  17.288   4.970  1.00  0.00     0.166 HD
ENDROOT
BRANCH   1  41
HETATM   41  C2  UNL     1       1.969  14.154   2.917  1.00  0.00    -0.062 C 
HETATM   42  C1  UNL     1       3.157  13.787   2.412  1.00  0.00     0.016 C 
HETATM   43  C3  UNL     1       0.732  13.323   2.676  1.00  0.00     0.045 C 
ENDBRANCH   1  41
BRANCH  39  44
HETATM   44  O7  UNL     1       1.149  14.014   5.697  1.00  0.00    -0.390 OA
HETATM   45  H44 UNL     1       0.311  14.025   5.206  1.00  0.00     0.210 HD
ENDBRANCH  39  44
BRANCH   8  46
HETATM   46  O2  UNL     1      -0.375  19.527   5.737  1.00  0.00    -0.386 OA
HETATM   47  H15 UNL     1       0.181  20.032   6.364  1.00  0.00     0.210 HD
ENDBRANCH   8  46
BRANCH  11  48
HETATM   48  O3  UNL     1      -2.605  16.971   8.625  1.00  0.00    -0.386 OA
HETATM   49  H20 UNL     1      -2.699  16.952   9.609  1.00  0.00     0.210 HD
ENDBRANCH  11  48
BRANCH  33  50
HETATM   50  O5  UNL     1      -6.918  20.644   9.746  1.00  0.00    -0.384 OA
HETATM   51  H38 UNL     1      -6.460  20.625   8.893  1.00  0.00     0.211 HD
ENDBRANCH  33  50
TORSDOF 5
ENDMDL
MODEL 7
REMARK minimizedAffinity -7.74762678
REMARK CNNscore 0.505467415
REMARK CNNaffinity 6.8260684
REMARK  5 active torsions:
REMARK  status: ('A' for Active; 'I' for Inactive)
REMARK    1  A    between atoms: C2_2  and  C4_4 
REMARK    2  A    between atoms: C10_11  and  O2_12 
REMARK    3  A    between atoms: C13_15  and  O3_16 
REMARK    4  A    between atoms: C32_38  and  O5_39 
REMARK    5  A    between atoms: C37_45  and  O7_46 
ROOT
HETATM    1  C4  UNL     1      -8.011  17.888  19.516  1.00  0.00     0.181 C 
HETATM    2  O1  UNL     1      -7.528  16.799  18.694  1.00  0.00    -0.370 OA
HETATM    3  C5  UNL     1      -7.911  16.994  17.324  1.00  0.00     0.163 C 
HETATM    4  C6  UNL     1      -7.176  15.992  16.423  1.00  0.00     0.036 C 
HETATM    5  C7  UNL     1      -7.809  14.605  16.284  1.00  0.00     0.016 C 
HETATM    6  C8  UNL     1      -9.376  14.571  16.332  1.00  0.00     0.006 C 
HETATM    7  C9  UNL     1      -9.696  14.057  17.768  1.00  0.00     0.020 C 
HETATM    8  C10 UNL     1      -9.987  16.039  16.138  1.00  0.00     0.102 C 
HETATM    9  C11 UNL     1     -11.543  16.057  16.049  1.00  0.00     0.045 C 
HETATM   10  C12 UNL     1     -12.159  15.062  15.029  1.00  0.00     0.045 C 
HETATM   11  C13 UNL     1     -11.593  13.671  15.282  1.00  0.00     0.102 C 
HETATM   12  C14 UNL     1     -12.073  12.441  14.387  1.00  0.00     0.194 C 
HETATM   13  O4  UNL     1     -13.344  12.057  14.905  1.00  0.00    -0.367 OA
HETATM   14  C15 UNL     1     -14.231  11.245  14.122  1.00  0.00     0.061 C 
HETATM   15  C16 UNL     1     -15.543  11.290  14.937  1.00  0.00     0.046 C 
HETATM   16  C17 UNL     1     -14.537  11.870  12.760  1.00  0.00     0.046 C 
HETATM   17  C18 UNL     1     -13.749   9.783  14.084  1.00  0.00     0.060 C 
HETATM   18  C19 UNL     1     -14.654   8.714  13.440  1.00  0.00     0.023 C 
HETATM   19  C20 UNL     1     -13.412   7.951  12.938  1.00  0.00     0.054 C 
HETATM   20  C21 UNL     1     -12.911   6.742  13.667  1.00  0.00    -0.077 C 
HETATM   21  C22 UNL     1     -13.777   5.861  14.207  1.00  0.00     0.015 C 
HETATM   22  C23 UNL     1     -11.399   6.545  13.681  1.00  0.00     0.074 C 
HETATM   23  C24 UNL     1     -10.628   7.747  14.198  1.00  0.00    -0.022 C 
HETATM   24  C25 UNL     1      -9.358   7.641  14.783  1.00  0.00     0.043 C 
HETATM   25 CL1  UNL     1      -8.569   6.112  14.959  1.00  0.00    -0.084 Cl
HETATM   26  C26 UNL     1      -8.666   8.772  15.234  1.00  0.00     0.054 C 
HETATM   27  C27 UNL     1      -9.310  10.013  15.134  1.00  0.00     0.045 A 
HETATM   28  N1  UNL     1      -8.873  11.280  15.513  1.00  0.00    -0.357 N 
HETATM   29  C28 UNL     1      -9.840  12.168  15.200  1.00  0.00     0.032 A 
HETATM   30  C29 UNL     1     -10.934  11.504  14.688  1.00  0.00     0.010 A 
HETATM   31  C30 UNL     1     -10.587  10.150  14.558  1.00  0.00     0.011 A 
HETATM   32  C31 UNL     1     -11.217   9.019  14.003  1.00  0.00    -0.001 C 
HETATM   33  C32 UNL     1     -12.557   9.256  13.200  1.00  0.00     0.100 C 
HETATM   34  C33 UNL     1      -9.990  13.659  15.194  1.00  0.00     0.043 C 
HETATM   35  C34 UNL     1      -9.532  14.080  13.752  1.00  0.00     0.026 C 
HETATM   36  C35 UNL     1      -9.418  16.944  17.219  1.00  0.00     0.147 A 
HETATM   37  O6  UNL     1     -10.014  18.264  17.304  1.00  0.00    -0.360 OA
HETATM   38  C36 UNL     1     -10.240  17.400  18.414  1.00  0.00     0.194 A 
HETATM   39  C37 UNL     1      -9.546  17.726  19.699  1.00  0.00     0.183 C 
HETATM   40  H37 UNL     1      -7.973  11.490  15.924  1.00  0.00     0.166 HD
ENDROOT
BRANCH   1  41
HETATM   41  C2  UNL     1      -7.250  17.920  20.843  1.00  0.00    -0.062 C 
HETATM   42  C1  UNL     1      -7.399  18.876  21.772  1.00  0.00     0.016 C 
HETATM   43  C3  UNL     1      -6.287  16.777  21.049  1.00  0.00     0.045 C 
ENDBRANCH   1  41
BRANCH  39  44
HETATM   44  O7  UNL     1      -9.853  16.660  20.598  1.00  0.00    -0.390 OA
HETATM   45  H44 UNL     1      -9.227  15.940  20.415  1.00  0.00     0.210 HD
ENDBRANCH  39  44
BRANCH   8  46
HETATM   46  O2  UNL     1      -9.505  16.577  14.889  1.00  0.00    -0.386 OA
HETATM   47  H15 UNL     1     -10.205  17.135  14.495  1.00  0.00     0.210 HD
ENDBRANCH   8  46
BRANCH  11  48
HETATM   48  O3  UNL     1     -12.030  13.350  16.634  1.00  0.00    -0.386 OA
HETATM   49  H20 UNL     1     -12.984  13.099  16.566  1.00  0.00     0.210 HD
ENDBRANCH  11  48
BRANCH  33  50
HETATM   50  O5  UNL     1     -12.315   9.971  11.959  1.00  0.00    -0.384 OA
HETATM   51  H38 UNL     1     -11.553  10.540  12.144  1.00  0.00     0.211 HD
ENDBRANCH  33  50
TORSDOF 5
ENDMDL
MODEL 8
REMARK minimizedAffinity -8.59140873
REMARK CNNscore 0.499810904
REMARK CNNaffinity 6.36281967
REMARK  5 active torsions:
REMARK  status: ('A' for Active; 'I' for Inactive)
REMARK    1  A    between atoms: C2_2  and  C4_4 
REMARK    2  A    between atoms: C10_11  and  O2_12 
REMARK    3  A    between atoms: C13_15  and  O3_16 
REMARK    4  A    between atoms: C32_38  and  O5_39 
REMARK    5  A    between atoms: C37_45  and  O7_46 
ROOT
HETATM    1  C4  UNL     1     -16.756   2.339  15.087  1.00  0.00     0.181 C 
HETATM    2  O1  UNL     1     -16.993   1.725  13.799  1.00  0.00    -0.370 OA
HETATM    3  C5  UNL     1     -17.767   0.524  13.947  1.00  0.00     0.163 C 
HETATM    4  C6  UNL     1     -18.241   0.029  12.574  1.00  0.00     0.036 C 
HETATM    5  C7  UNL     1     -17.258  -0.839  11.783  1.00  0.00     0.016 C 
HETATM    6  C8  UNL     1     -16.334  -1.767  12.645  1.00  0.00     0.006 C 
HETATM    7  C9  UNL     1     -14.959  -1.034  12.645  1.00  0.00     0.020 C 
HETATM    8  C10 UNL     1     -16.881  -1.884  14.147  1.00  0.00     0.102 C 
HETATM    9  C11 UNL     1     -16.078  -2.894  15.022  1.00  0.00     0.045 C 
HETATM   10  C12 UNL     1     -15.878  -4.300  14.394  1.00  0.00     0.045 C 
HETATM   11  C13 UNL     1     -15.309  -4.146  12.990  1.00  0.00     0.102 C 
HETATM   12  C14 UNL     1     -14.982  -5.439  12.117  1.00  0.00     0.194 C 
HETATM   13  O4  UNL     1     -13.738  -5.934  12.606  1.00  0.00    -0.367 OA
HETATM   14  C15 UNL     1     -13.329  -7.279  12.318  1.00  0.00     0.061 C 
HETATM   15  C16 UNL     1     -12.091  -7.460  13.226  1.00  0.00     0.046 C 
HETATM   16  C17 UNL     1     -14.363  -8.309  12.773  1.00  0.00     0.046 C 
HETATM   17  C18 UNL     1     -12.863  -7.412  10.856  1.00  0.00     0.060 C 
HETATM   18  C19 UNL     1     -12.220  -8.734  10.393  1.00  0.00     0.023 C 
HETATM   19  C20 UNL     1     -12.843  -8.558   8.994  1.00  0.00     0.054 C 
HETATM   20  C21 UNL     1     -12.024  -8.040   7.852  1.00  0.00    -0.077 C 
HETATM   21  C22 UNL     1     -10.733  -8.406   7.714  1.00  0.00     0.015 C 
HETATM   22  C23 UNL     1     -12.757  -7.161   6.845  1.00  0.00     0.074 C 
HETATM   23  C24 UNL     1     -13.477  -5.979   7.469  1.00  0.00    -0.022 C 
HETATM   24  C25 UNL     1     -13.751  -4.798   6.765  1.00  0.00     0.043 C 
HETATM   25 CL1  UNL     1     -13.286  -4.602   5.111  1.00  0.00    -0.084 Cl
HETATM   26  C26 UNL     1     -14.433  -3.732   7.366  1.00  0.00     0.054 C 
HETATM   27  C27 UNL     1     -14.782  -3.861   8.718  1.00  0.00     0.045 A 
HETATM   28  N1  UNL     1     -15.438  -2.968   9.561  1.00  0.00    -0.357 N 
HETATM   29  C28 UNL     1     -15.561  -3.548  10.773  1.00  0.00     0.032 A 
HETATM   30  C29 UNL     1     -14.938  -4.777  10.766  1.00  0.00     0.010 A 
HETATM   31  C30 UNL     1     -14.512  -5.031   9.453  1.00  0.00     0.011 A 
HETATM   32  C31 UNL     1     -13.934  -6.136   8.800  1.00  0.00    -0.001 C 
HETATM   33  C32 UNL     1     -13.828  -7.487   9.613  1.00  0.00     0.100 C 
HETATM   34  C33 UNL     1     -16.255  -3.237  12.065  1.00  0.00     0.043 C 
HETATM   35  C34 UNL     1     -17.663  -3.917  11.911  1.00  0.00     0.026 C 
HETATM   36  C35 UNL     1     -16.968  -0.487  14.737  1.00  0.00     0.147 A 
HETATM   37  O6  UNL     1     -17.264  -0.427  16.156  1.00  0.00    -0.360 OA
HETATM   38  C36 UNL     1     -15.972   0.026  15.765  1.00  0.00     0.194 A 
HETATM   39  C37 UNL     1     -15.697   1.494  15.850  1.00  0.00     0.183 C 
HETATM   40  H37 UNL     1     -15.784  -2.055   9.293  1.00  0.00     0.166 HD
ENDROOT
BRANCH   1  41
HETATM   41  C2  UNL     1     -16.339   3.798  14.903  1.00  0.00    -0.062 C 
HETATM   42  C1  UNL     1     -15.065   4.213  14.829  1.00  0.00     0.016 C 
HETATM   43  C3  UNL     1     -17.482   4.779  14.812  1.00  0.00     0.045 C 
ENDBRANCH   1  41
BRANCH  39  44
HETATM   44  O7  UNL     1     -14.390   1.686  15.307  1.00  0.00    -0.390 OA
HETATM   45  H44 UNL     1     -14.484   1.736  14.341  1.00  0.00     0.210 HD
ENDBRANCH  39  44
BRANCH   8  46
HETATM   46  O2  UNL     1     -18.237  -2.373  14.106  1.00  0.00    -0.386 OA
HETATM   47  H15 UNL     1     -18.391  -2.942  14.888  1.00  0.00     0.210 HD
ENDBRANCH   8  46
BRANCH  11  48
HETATM   48  O3  UNL     1     -14.023  -3.493  13.198  1.00  0.00    -0.386 OA
HETATM   49  H20 UNL     1     -13.404  -4.194  13.520  1.00  0.00     0.210 HD
ENDBRANCH  11  48
BRANCH  33  50
HETATM   50  O5  UNL     1     -15.137  -8.068   9.853  1.00  0.00    -0.384 OA
HETATM   51  H38 UNL     1     -15.738  -7.310   9.916  1.00  0.00     0.211 HD
ENDBRANCH  33  50
TORSDOF 5
ENDMDL
MODEL 9
REMARK minimizedAffinity -8.33222294
REMARK CNNscore 0.4482584
REMARK CNNaffinity 5.95051575
REMARK  5 active torsions:
REMARK  status: ('A' for Active; 'I' for Inactive)
REMARK    1  A    between atoms: C2_2  and  C4_4 
REMARK    2  A    between atoms: C10_11  and  O2_12 
REMARK    3  A    between atoms: C13_15  and  O3_16 
REMARK    4  A    between atoms: C32_38  and  O5_39 
REMARK    5  A    between atoms: C37_45  and  O7_46 
ROOT
HETATM    1  C4  UNL     1     -17.602  -4.168  16.825  1.00  0.00     0.181 C 
HETATM    2  O1  UNL     1     -18.129  -3.440  15.691  1.00  0.00    -0.370 OA
HETATM    3  C5  UNL     1     -17.062  -2.980  14.847  1.00  0.00     0.163 C 
HETATM    4  C6  UNL     1     -17.628  -2.450  13.522  1.00  0.00     0.036 C 
HETATM    5  C7  UNL     1     -18.107  -0.996  13.516  1.00  0.00     0.016 C 
HETATM    6  C8  UNL     1     -17.303  -0.018  14.440  1.00  0.00     0.006 C 
HETATM    7  C9  UNL     1     -18.229   0.175  15.679  1.00  0.00     0.020 C 
HETATM    8  C10 UNL     1     -15.917  -0.676  14.903  1.00  0.00     0.102 C 
HETATM    9  C11 UNL     1     -15.012   0.295  15.721  1.00  0.00     0.045 C 
HETATM   10  C12 UNL     1     -14.776   1.685  15.071  1.00  0.00     0.045 C 
HETATM   11  C13 UNL     1     -16.119   2.298  14.695  1.00  0.00     0.102 C 
HETATM   12  C14 UNL     1     -16.175   3.744  14.025  1.00  0.00     0.194 C 
HETATM   13  O4  UNL     1     -16.010   4.673  15.093  1.00  0.00    -0.367 OA
HETATM   14  C15 UNL     1     -15.634   6.031  14.820  1.00  0.00     0.061 C 
HETATM   15  C16 UNL     1     -15.328   6.589  16.229  1.00  0.00     0.046 C 
HETATM   16  C17 UNL     1     -14.335   6.123  14.019  1.00  0.00     0.046 C 
HETATM   17  C18 UNL     1     -16.821   6.826  14.247  1.00  0.00     0.060 C 
HETATM   18  C19 UNL     1     -16.677   8.348  14.049  1.00  0.00     0.023 C 
HETATM   19  C20 UNL     1     -17.577   8.281  12.799  1.00  0.00     0.054 C 
HETATM   20  C21 UNL     1     -19.021   8.671  12.875  1.00  0.00    -0.077 C 
HETATM   21  C22 UNL     1     -19.409   9.712  13.639  1.00  0.00     0.015 C 
HETATM   22  C23 UNL     1     -19.978   7.880  11.990  1.00  0.00     0.074 C 
HETATM   23  C24 UNL     1     -19.896   6.376  12.185  1.00  0.00    -0.022 C 
HETATM   24  C25 UNL     1     -20.968   5.515  11.913  1.00  0.00     0.043 C 
HETATM   25 CL1  UNL     1     -22.479   6.112  11.322  1.00  0.00    -0.084 Cl
HETATM   26  C26 UNL     1     -20.853   4.130  12.087  1.00  0.00     0.054 C 
HETATM   27  C27 UNL     1     -19.646   3.636  12.603  1.00  0.00     0.045 A 
HETATM   28  N1  UNL     1     -19.267   2.327  12.891  1.00  0.00    -0.357 N 
HETATM   29  C28 UNL     1     -17.999   2.350  13.354  1.00  0.00     0.032 A 
HETATM   30  C29 UNL     1     -17.560   3.653  13.444  1.00  0.00     0.010 A 
HETATM   31  C30 UNL     1     -18.556   4.477  12.894  1.00  0.00     0.011 A 
HETATM   32  C31 UNL     1     -18.648   5.850  12.599  1.00  0.00    -0.001 C 
HETATM   33  C32 UNL     1     -17.337   6.718  12.762  1.00  0.00     0.100 C 
HETATM   34  C33 UNL     1     -16.950   1.341  13.710  1.00  0.00     0.043 C 
HETATM   35  C34 UNL     1     -16.155   1.134  12.371  1.00  0.00     0.026 C 
HETATM   36  C35 UNL     1     -16.219  -1.985  15.611  1.00  0.00     0.147 A 
HETATM   37  O6  UNL     1     -15.087  -2.617  16.262  1.00  0.00    -0.360 OA
HETATM   38  C36 UNL     1     -16.117  -2.137  17.121  1.00  0.00     0.194 A 
HETATM   39  C37 UNL     1     -16.970  -3.150  17.815  1.00  0.00     0.183 C 
HETATM   40  H37 UNL     1     -19.840   1.506  12.747  1.00  0.00     0.166 HD
ENDROOT
BRANCH   1  41
HETATM   41  C2  UNL     1     -18.704  -5.017  17.460  1.00  0.00    -0.062 C 
HETATM   42  C1  UNL     1     -20.004  -4.925  17.139  1.00  0.00     0.016 C 
HETATM   43  C3  UNL     1     -18.229  -5.993  18.509  1.00  0.00     0.045 C 
ENDBRANCH   1  41
BRANCH  39  44
HETATM   44  O7  UNL     1     -17.973  -2.413  18.514  1.00  0.00    -0.390 OA
HETATM   45  H44 UNL     1     -18.683  -2.218  17.879  1.00  0.00     0.210 HD
ENDBRANCH  39  44
BRANCH   8  46
HETATM   46  O2  UNL     1     -15.163  -1.036  13.727  1.00  0.00    -0.386 OA
HETATM   47  H15 UNL     1     -14.211  -0.911  13.912  1.00  0.00     0.210 HD
ENDBRANCH   8  46
BRANCH  11  48
HETATM   48  O3  UNL     1     -16.812   2.442  15.968  1.00  0.00    -0.386 OA
HETATM   49  H20 UNL     1     -16.420   3.235  16.410  1.00  0.00     0.210 HD
ENDBRANCH  11  48
BRANCH  33  50
HETATM   50  O5  UNL     1     -16.342   6.372  11.762  1.00  0.00    -0.384 OA
HETATM   51  H38 UNL     1     -16.487   5.431  11.581  1.00  0.00     0.211 HD
ENDBRANCH  33  50
TORSDOF 5
ENDMDL
