MODEL 1
REMARK minimizedAffinity -8.23614788
REMARK  10 active torsions:
REMARK  status: ('A' for Active; 'I' for Inactive)
REMARK    1  A    between atoms: C7_7  and  C9_9 
REMARK    2  A    between atoms: C9_9  and  C10_10 
REMARK    3  A    between atoms: C10_10  and  O1_11 
REMARK    4  A    between atoms: C10_10  and  C13_15 
REMARK    5  A    between atoms: O1_11  and  C11_12 
REMARK    6  A    between atoms: C13_15  and  C16_19 
REMARK    7  A    between atoms: C14_16  and  C15_17 
REMARK    8  A    between atoms: C15_17  and  O3_18 
REMARK    9  A    between atoms: C16_19  and  O4_20 
REMARK   10  A    between atoms: O4_20  and  C17_21 
ROOT
HETATM    1  C9  UNL     1       1.049   7.220  10.911  1.00  0.00     0.047 C 
ENDROOT
BRANCH   1   2
HETATM    2  C7  UNL     1       0.252   6.841  12.240  1.00  0.00    -0.034 C 
HETATM    3  C6  UNL     1      -0.830   5.697  11.962  1.00  0.00     0.006 C 
HETATM    4  C5  UNL     1      -0.264   4.255  11.858  1.00  0.00     0.007 C 
HETATM    5  C23 UNL     1      -2.107   5.638  12.901  1.00  0.00    -0.017 C 
HETATM    6  C4  UNL     1      -1.319   3.205  11.478  1.00  0.00     0.005 C 
HETATM    7  C3  UNL     1      -2.678   3.804  11.135  1.00  0.00     0.034 C 
HETATM    8  C2  UNL     1      -3.169   4.726  12.230  1.00  0.00    -0.081 C 
HETATM    9  C1  UNL     1      -4.467   4.696  12.585  1.00  0.00     0.015 C 
HETATM   10  C22 UNL     1      -2.670   7.057  13.106  1.00  0.00     0.014 C 
HETATM   11  C24 UNL     1      -1.827   5.012  14.293  1.00  0.00     0.020 C 
HETATM   12  C21 UNL     1      -1.625   8.022  13.640  1.00  0.00     0.006 C 
HETATM   13  C19 UNL     1      -0.480   8.196  12.643  1.00  0.00    -0.010 C 
HETATM   14  C20 UNL     1       0.445   9.307  13.175  1.00  0.00     0.011 C 
HETATM   15  C8  UNL     1       1.248   6.436  13.344  1.00  0.00     0.016 C 
ENDBRANCH   1   2
BRANCH   1  16
HETATM   16  C10 UNL     1       1.676   6.171   9.961  1.00  0.00     0.163 C 
BRANCH  16  17
HETATM   17  O1  UNL     1       1.599   6.689   8.608  1.00  0.00    -0.312 OA
BRANCH  17  18
HETATM   18  C11 UNL     1       1.570   8.044   8.485  1.00  0.00     0.255 C 
HETATM   19  C12 UNL     1       2.884   8.542   7.966  1.00  0.00     0.126 C 
HETATM   20  O2  UNL     1       0.634   8.770   8.792  1.00  0.00    -0.266 OA
ENDBRANCH  17  18
ENDBRANCH  16  17
BRANCH  16  21
HETATM   21  C13 UNL     1       3.146   5.815  10.137  1.00  0.00    -0.028 C 
HETATM   22  C14 UNL     1       4.033   6.610  10.777  1.00  0.00     0.006 C 
BRANCH  22  23
HETATM   23  C15 UNL     1       5.488   6.344  11.005  1.00  0.00     0.192 C 
BRANCH  23  24
HETATM   24  O3  UNL     1       5.708   6.242  12.405  1.00  0.00    -0.397 OA
HETATM   25  H22 UNL     1       5.433   7.084  12.804  1.00  0.00     0.209 HD
ENDBRANCH  23  24
ENDBRANCH  22  23
BRANCH  21  26
HETATM   26  C16 UNL     1       3.552   4.512   9.479  1.00  0.00     0.215 C 
BRANCH  26  27
HETATM   27  O4  UNL     1       3.508   4.648   8.051  1.00  0.00    -0.317 OA
BRANCH  27  28
HETATM   28  C17 UNL     1       4.179   3.705   7.340  1.00  0.00     0.255 C 
HETATM   29  C18 UNL     1       3.586   3.585   5.968  1.00  0.00     0.126 C 
HETATM   30  O5  UNL     1       5.137   3.052   7.730  1.00  0.00    -0.266 OA
ENDBRANCH  27  28
ENDBRANCH  26  27
ENDBRANCH  21  26
ENDBRANCH  16  21
ENDBRANCH   1  16
TORSDOF 10
ENDMDL
MODEL 2
REMARK minimizedAffinity -7.92812681
REMARK  10 active torsions:
REMARK  status: ('A' for Active; 'I' for Inactive)
REMARK    1  A    between atoms: C7_7  and  C9_9 
REMARK    2  A    between atoms: C9_9  and  C10_10 
REMARK    3  A    between atoms: C10_10  and  O1_11 
REMARK    4  A    between atoms: C10_10  and  C13_15 
REMARK    5  A    between atoms: O1_11  and  C11_12 
REMARK    6  A    between atoms: C13_15  and  C16_19 
REMARK    7  A    between atoms: C14_16  and  C15_17 
REMARK    8  A    between atoms: C15_17  and  O3_18 
REMARK    9  A    between atoms: C16_19  and  O4_20 
REMARK   10  A    between atoms: O4_20  and  C17_21 
ROOT
HETATM    1  C9  UNL     1      -3.953   6.738  12.904  1.00  0.00     0.047 C 
ENDROOT
BRANCH   1   2
HETATM    2  C7  UNL     1      -4.904   6.768  14.184  1.00  0.00    -0.034 C 
HETATM    3  C6  UNL     1      -6.390   6.308  13.815  1.00  0.00     0.006 C 
HETATM    4  C5  UNL     1      -6.595   4.777  13.664  1.00  0.00     0.007 C 
HETATM    5  C23 UNL     1      -7.582   6.861  14.702  1.00  0.00    -0.017 C 
HETATM    6  C4  UNL     1      -8.006   4.387  13.198  1.00  0.00     0.005 C 
HETATM    7  C3  UNL     1      -8.879   5.583  12.835  1.00  0.00     0.034 C 
HETATM    8  C2  UNL     1      -8.915   6.602  13.953  1.00  0.00    -0.081 C 
HETATM    9  C1  UNL     1     -10.080   7.205  14.258  1.00  0.00     0.015 C 
HETATM   10  C22 UNL     1      -7.390   8.369  14.953  1.00  0.00     0.014 C 
HETATM   11  C24 UNL     1      -7.719   6.147  16.073  1.00  0.00     0.020 C 
HETATM   12  C21 UNL     1      -6.038   8.686  15.568  1.00  0.00     0.006 C 
HETATM   13  C19 UNL     1      -4.901   8.299  14.623  1.00  0.00    -0.010 C 
HETATM   14  C20 UNL     1      -3.582   8.801  15.239  1.00  0.00     0.011 C 
HETATM   15  C8  UNL     1      -4.294   5.902  15.303  1.00  0.00     0.016 C 
ENDBRANCH   1   2
BRANCH   1  16
HETATM   16  C10 UNL     1      -2.822   5.700  12.703  1.00  0.00     0.163 C 
BRANCH  16  17
HETATM   17  O1  UNL     1      -2.334   5.310  14.013  1.00  0.00    -0.312 OA
BRANCH  17  18
HETATM   18  C11 UNL     1      -1.123   5.814  14.377  1.00  0.00     0.255 C 
HETATM   19  C12 UNL     1      -0.033   5.149  13.593  1.00  0.00     0.126 C 
HETATM   20  O2  UNL     1      -0.929   6.653  15.246  1.00  0.00    -0.266 OA
ENDBRANCH  17  18
ENDBRANCH  16  17
BRANCH  16  21
HETATM   21  C13 UNL     1      -3.159   4.378  12.027  1.00  0.00    -0.028 C 
HETATM   22  C14 UNL     1      -4.256   3.647  12.324  1.00  0.00     0.006 C 
BRANCH  22  23
HETATM   23  C15 UNL     1      -4.673   2.347  11.710  1.00  0.00     0.192 C 
BRANCH  23  24
HETATM   24  O3  UNL     1      -5.148   2.606  10.397  1.00  0.00    -0.397 OA
HETATM   25  H22 UNL     1      -5.898   3.219  10.475  1.00  0.00     0.209 HD
ENDBRANCH  23  24
ENDBRANCH  22  23
BRANCH  21  26
HETATM   26  C16 UNL     1      -2.122   3.914  11.023  1.00  0.00     0.215 C 
BRANCH  26  27
HETATM   27  O4  UNL     1      -1.989   2.485  11.079  1.00  0.00    -0.317 OA
BRANCH  27  28
HETATM   28  C17 UNL     1      -0.721   2.001  11.034  1.00  0.00     0.255 C 
HETATM   29  C18 UNL     1      -0.741   0.562  10.614  1.00  0.00     0.126 C 
HETATM   30  O5  UNL     1       0.301   2.628  11.276  1.00  0.00    -0.266 OA
ENDBRANCH  27  28
ENDBRANCH  26  27
ENDBRANCH  21  26
ENDBRANCH  16  21
ENDBRANCH   1  16
TORSDOF 10
ENDMDL
MODEL 3
REMARK minimizedAffinity -7.74437428
REMARK  10 active torsions:
REMARK  status: ('A' for Active; 'I' for Inactive)
REMARK    1  A    between atoms: C7_7  and  C9_9 
REMARK    2  A    between atoms: C9_9  and  C10_10 
REMARK    3  A    between atoms: C10_10  and  O1_11 
REMARK    4  A    between atoms: C10_10  and  C13_15 
REMARK    5  A    between atoms: O1_11  and  C11_12 
REMARK    6  A    between atoms: C13_15  and  C16_19 
REMARK    7  A    between atoms: C14_16  and  C15_17 
REMARK    8  A    between atoms: C15_17  and  O3_18 
REMARK    9  A    between atoms: C16_19  and  O4_20 
REMARK   10  A    between atoms: O4_20  and  C17_21 
ROOT
HETATM    1  C9  UNL     1      -1.417   6.641  11.861  1.00  0.00     0.047 C 
ENDROOT
BRANCH   1   2
HETATM    2  C7  UNL     1      -2.396   6.907  13.092  1.00  0.00    -0.034 C 
HETATM    3  C6  UNL     1      -3.707   5.998  12.999  1.00  0.00     0.006 C 
HETATM    4  C5  UNL     1      -3.523   4.517  13.430  1.00  0.00     0.007 C 
HETATM    5  C23 UNL     1      -5.032   6.531  13.688  1.00  0.00    -0.017 C 
HETATM    6  C4  UNL     1      -4.775   3.654  13.218  1.00  0.00     0.005 C 
HETATM    7  C3  UNL     1      -5.901   4.381  12.491  1.00  0.00     0.034 C 
HETATM    8  C2  UNL     1      -6.230   5.698  13.160  1.00  0.00    -0.081 C 
HETATM    9  C1  UNL     1      -7.519   6.068  13.288  1.00  0.00     0.015 C 
HETATM   10  C22 UNL     1      -5.227   8.023  13.359  1.00  0.00     0.014 C 
HETATM   11  C24 UNL     1      -5.043   6.360  15.231  1.00  0.00     0.020 C 
HETATM   12  C21 UNL     1      -4.020   8.862  13.740  1.00  0.00     0.006 C 
HETATM   13  C19 UNL     1      -2.787   8.444  12.940  1.00  0.00    -0.010 C 
HETATM   14  C20 UNL     1      -1.658   9.441  13.256  1.00  0.00     0.011 C 
HETATM   15  C8  UNL     1      -1.636   6.689  14.415  1.00  0.00     0.016 C 
ENDBRANCH   1   2
BRANCH   1  16
HETATM   16  C10 UNL     1      -0.222   5.659  11.916  1.00  0.00     0.163 C 
BRANCH  16  17
HETATM   17  O1  UNL     1      -0.384   4.696  10.842  1.00  0.00    -0.312 OA
BRANCH  17  18
HETATM   18  C11 UNL     1      -0.837   3.464  11.204  1.00  0.00     0.255 C 
HETATM   19  C12 UNL     1      -2.156   3.188  10.550  1.00  0.00     0.126 C 
HETATM   20  O2  UNL     1      -0.284   2.700  11.984  1.00  0.00    -0.266 OA
ENDBRANCH  17  18
ENDBRANCH  16  17
BRANCH  16  21
HETATM   21  C13 UNL     1       1.183   6.209  11.709  1.00  0.00    -0.028 C 
HETATM   22  C14 UNL     1       1.791   7.045  12.580  1.00  0.00     0.006 C 
BRANCH  22  23
HETATM   23  C15 UNL     1       3.165   7.629  12.467  1.00  0.00     0.192 C 
BRANCH  23  24
HETATM   24  O3  UNL     1       4.048   6.608  12.028  1.00  0.00    -0.397 OA
HETATM   25  H22 UNL     1       4.018   5.894  12.687  1.00  0.00     0.209 HD
ENDBRANCH  23  24
ENDBRANCH  22  23
BRANCH  21  26
HETATM   26  C16 UNL     1       1.829   5.785  10.405  1.00  0.00     0.215 C 
BRANCH  26  27
HETATM   27  O4  UNL     1       1.878   6.896   9.497  1.00  0.00    -0.317 OA
BRANCH  27  28
HETATM   28  C17 UNL     1       2.386   6.638   8.264  1.00  0.00     0.255 C 
HETATM   29  C18 UNL     1       2.409   7.896   7.450  1.00  0.00     0.126 C 
HETATM   30  O5  UNL     1       2.790   5.556   7.862  1.00  0.00    -0.266 OA
ENDBRANCH  27  28
ENDBRANCH  26  27
ENDBRANCH  21  26
ENDBRANCH  16  21
ENDBRANCH   1  16
TORSDOF 10
ENDMDL
MODEL 4
REMARK minimizedAffinity -7.73984718
REMARK  10 active torsions:
REMARK  status: ('A' for Active; 'I' for Inactive)
REMARK    1  A    between atoms: C7_7  and  C9_9 
REMARK    2  A    between atoms: C9_9  and  C10_10 
REMARK    3  A    between atoms: C10_10  and  O1_11 
REMARK    4  A    between atoms: C10_10  and  C13_15 
REMARK    5  A    between atoms: O1_11  and  C11_12 
REMARK    6  A    between atoms: C13_15  and  C16_19 
REMARK    7  A    between atoms: C14_16  and  C15_17 
REMARK    8  A    between atoms: C15_17  and  O3_18 
REMARK    9  A    between atoms: C16_19  and  O4_20 
REMARK   10  A    between atoms: O4_20  and  C17_21 
ROOT
HETATM    1  C9  UNL     1      -2.804   5.877  12.222  1.00  0.00     0.047 C 
ENDROOT
BRANCH   1   2
HETATM    2  C7  UNL     1      -3.774   6.140  13.461  1.00  0.00    -0.034 C 
HETATM    3  C6  UNL     1      -5.234   5.547  13.193  1.00  0.00     0.006 C 
HETATM    4  C5  UNL     1      -5.373   4.011  13.375  1.00  0.00     0.007 C 
HETATM    5  C23 UNL     1      -6.460   6.226  13.934  1.00  0.00    -0.017 C 
HETATM    6  C4  UNL     1      -6.760   3.469  12.997  1.00  0.00     0.005 C 
HETATM    7  C3  UNL     1      -7.677   4.519  12.380  1.00  0.00     0.034 C 
HETATM    8  C2  UNL     1      -7.771   5.753  13.252  1.00  0.00    -0.081 C 
HETATM    9  C1  UNL     1      -8.964   6.355  13.415  1.00  0.00     0.015 C 
HETATM   10  C22 UNL     1      -6.335   7.758  13.854  1.00  0.00     0.014 C 
HETATM   11  C24 UNL     1      -6.587   5.818  15.427  1.00  0.00     0.020 C 
HETATM   12  C21 UNL     1      -5.006   8.260  14.393  1.00  0.00     0.006 C 
HETATM   13  C19 UNL     1      -3.841   7.728  13.559  1.00  0.00    -0.010 C 
HETATM   14  C20 UNL     1      -2.553   8.409  14.059  1.00  0.00     0.011 C 
HETATM   15  C8  UNL     1      -3.144   5.563  14.743  1.00  0.00     0.016 C 
ENDBRANCH   1   2
BRANCH   1  16
HETATM   16  C10 UNL     1      -1.519   5.018  12.309  1.00  0.00     0.163 C 
BRANCH  16  17
HETATM   17  O1  UNL     1      -1.442   4.204  11.110  1.00  0.00    -0.312 OA
BRANCH  17  18
HETATM   18  C11 UNL     1      -1.318   2.862  11.303  1.00  0.00     0.255 C 
HETATM   19  C12 UNL     1      -2.663   2.253  11.557  1.00  0.00     0.126 C 
HETATM   20  O2  UNL     1      -0.267   2.236  11.316  1.00  0.00    -0.266 OA
ENDBRANCH  17  18
ENDBRANCH  16  17
BRANCH  16  21
HETATM   21  C13 UNL     1      -0.172   5.726  12.362  1.00  0.00    -0.028 C 
HETATM   22  C14 UNL     1       0.376   6.200  13.503  1.00  0.00     0.006 C 
BRANCH  22  23
HETATM   23  C15 UNL     1       1.690   6.899  13.655  1.00  0.00     0.192 C 
BRANCH  23  24
HETATM   24  O3  UNL     1       2.273   6.490  14.883  1.00  0.00    -0.397 OA
HETATM   25  H22 UNL     1       1.656   6.735  15.593  1.00  0.00     0.209 HD
ENDBRANCH  23  24
ENDBRANCH  22  23
BRANCH  21  26
HETATM   26  C16 UNL     1       0.485   5.910  11.008  1.00  0.00     0.215 C 
BRANCH  26  27
HETATM   27  O4  UNL     1      -0.138   6.994  10.303  1.00  0.00    -0.317 OA
BRANCH  27  28
HETATM   28  C17 UNL     1       0.669   7.714   9.481  1.00  0.00     0.255 C 
HETATM   29  C18 UNL     1       1.882   6.909   9.127  1.00  0.00     0.126 C 
HETATM   30  O5  UNL     1       0.451   8.843   9.063  1.00  0.00    -0.266 OA
ENDBRANCH  27  28
ENDBRANCH  26  27
ENDBRANCH  21  26
ENDBRANCH  16  21
ENDBRANCH   1  16
TORSDOF 10
ENDMDL
MODEL 5
REMARK minimizedAffinity -7.67597055
REMARK  10 active torsions:
REMARK  status: ('A' for Active; 'I' for Inactive)
REMARK    1  A    between atoms: C7_7  and  C9_9 
REMARK    2  A    between atoms: C9_9  and  C10_10 
REMARK    3  A    between atoms: C10_10  and  O1_11 
REMARK    4  A    between atoms: C10_10  and  C13_15 
REMARK    5  A    between atoms: O1_11  and  C11_12 
REMARK    6  A    between atoms: C13_15  and  C16_19 
REMARK    7  A    between atoms: C14_16  and  C15_17 
REMARK    8  A    between atoms: C15_17  and  O3_18 
REMARK    9  A    between atoms: C16_19  and  O4_20 
REMARK   10  A    between atoms: O4_20  and  C17_21 
ROOT
HETATM    1  C9  UNL     1      -3.617   6.281  12.667  1.00  0.00     0.047 C 
ENDROOT
BRANCH   1   2
HETATM    2  C7  UNL     1      -4.475   6.518  13.991  1.00  0.00    -0.034 C 
HETATM    3  C6  UNL     1      -5.991   6.052  13.792  1.00  0.00     0.006 C 
HETATM    4  C5  UNL     1      -6.234   4.521  13.876  1.00  0.00     0.007 C 
HETATM    5  C23 UNL     1      -7.107   6.759  14.670  1.00  0.00    -0.017 C 
HETATM    6  C4  UNL     1      -7.681   4.110  13.567  1.00  0.00     0.005 C 
HETATM    7  C3  UNL     1      -8.556   5.266  13.096  1.00  0.00     0.034 C 
HETATM    8  C2  UNL     1      -8.494   6.434  14.057  1.00  0.00    -0.081 C 
HETATM    9  C1  UNL     1      -9.624   7.105  14.351  1.00  0.00     0.015 C 
HETATM   10  C22 UNL     1      -6.870   8.280  14.689  1.00  0.00     0.014 C 
HETATM   11  C24 UNL     1      -7.160   6.249  16.135  1.00  0.00     0.020 C 
HETATM   12  C21 UNL     1      -5.472   8.643  15.160  1.00  0.00     0.006 C 
HETATM   13  C19 UNL     1      -4.413   8.095  14.205  1.00  0.00    -0.010 C 
HETATM   14  C20 UNL     1      -3.045   8.642  14.653  1.00  0.00     0.011 C 
HETATM   15  C8  UNL     1      -3.803   5.802  15.179  1.00  0.00     0.016 C 
ENDBRANCH   1   2
BRANCH   1  16
HETATM   16  C10 UNL     1      -2.262   5.532  12.649  1.00  0.00     0.163 C 
BRANCH  16  17
HETATM   17  O1  UNL     1      -1.726   5.543  13.997  1.00  0.00    -0.312 OA
BRANCH  17  18
HETATM   18  C11 UNL     1      -0.451   6.003  14.132  1.00  0.00     0.255 C 
HETATM   19  C12 UNL     1      -0.312   6.761  15.417  1.00  0.00     0.126 C 
HETATM   20  O2  UNL     1       0.448   5.867  13.314  1.00  0.00    -0.266 OA
ENDBRANCH  17  18
ENDBRANCH  16  17
BRANCH  16  21
HETATM   21  C13 UNL     1      -2.248   4.060  12.258  1.00  0.00    -0.028 C 
HETATM   22  C14 UNL     1      -1.224   3.474  11.599  1.00  0.00     0.006 C 
BRANCH  22  23
HETATM   23  C15 UNL     1      -1.117   2.041  11.181  1.00  0.00     0.192 C 
BRANCH  23  24
HETATM   24  O3  UNL     1       0.235   1.779  10.834  1.00  0.00    -0.397 OA
HETATM   25  H22 UNL     1       0.470   2.379  10.107  1.00  0.00     0.209 HD
ENDBRANCH  23  24
ENDBRANCH  22  23
BRANCH  21  26
HETATM   26  C16 UNL     1      -3.515   3.311  12.622  1.00  0.00     0.215 C 
BRANCH  26  27
HETATM   27  O4  UNL     1      -3.884   2.425  11.555  1.00  0.00    -0.317 OA
BRANCH  27  28
HETATM   28  C17 UNL     1      -5.154   2.547  11.089  1.00  0.00     0.255 C 
HETATM   29  C18 UNL     1      -5.927   1.297  11.387  1.00  0.00     0.126 C 
HETATM   30  O5  UNL     1      -5.627   3.525  10.527  1.00  0.00    -0.266 OA
ENDBRANCH  27  28
ENDBRANCH  26  27
ENDBRANCH  21  26
ENDBRANCH  16  21
ENDBRANCH   1  16
TORSDOF 10
ENDMDL
MODEL 6
REMARK minimizedAffinity -7.55719709
REMARK  10 active torsions:
REMARK  status: ('A' for Active; 'I' for Inactive)
REMARK    1  A    between atoms: C7_7  and  C9_9 
REMARK    2  A    between atoms: C9_9  and  C10_10 
REMARK    3  A    between atoms: C10_10  and  O1_11 
REMARK    4  A    between atoms: C10_10  and  C13_15 
REMARK    5  A    between atoms: O1_11  and  C11_12 
REMARK    6  A    between atoms: C13_15  and  C16_19 
REMARK    7  A    between atoms: C14_16  and  C15_17 
REMARK    8  A    between atoms: C15_17  and  O3_18 
REMARK    9  A    between atoms: C16_19  and  O4_20 
REMARK   10  A    between atoms: O4_20  and  C17_21 
ROOT
HETATM    1  C9  UNL     1      -4.083   6.946  13.129  1.00  0.00     0.047 C 
ENDROOT
BRANCH   1   2
HETATM    2  C7  UNL     1      -2.749   6.073  13.173  1.00  0.00    -0.034 C 
HETATM    3  C6  UNL     1      -1.519   6.859  12.523  1.00  0.00     0.006 C 
HETATM    4  C5  UNL     1      -0.870   7.944  13.425  1.00  0.00     0.007 C 
HETATM    5  C23 UNL     1      -0.342   6.005  11.887  1.00  0.00    -0.017 C 
HETATM    6  C4  UNL     1       0.232   8.751  12.722  1.00  0.00     0.005 C 
HETATM    7  C3  UNL     1       0.370   8.429  11.238  1.00  0.00     0.034 C 
HETATM    8  C2  UNL     1       0.525   6.942  11.006  1.00  0.00    -0.081 C 
HETATM    9  C1  UNL     1       1.407   6.507  10.086  1.00  0.00     0.015 C 
HETATM   10  C22 UNL     1      -0.928   4.860  11.041  1.00  0.00     0.014 C 
HETATM   11  C24 UNL     1       0.623   5.397  12.940  1.00  0.00     0.020 C 
HETATM   12  C21 UNL     1      -1.890   3.989  11.831  1.00  0.00     0.006 C 
HETATM   13  C19 UNL     1      -3.105   4.794  12.292  1.00  0.00    -0.010 C 
HETATM   14  C20 UNL     1      -4.105   3.814  12.934  1.00  0.00     0.011 C 
HETATM   15  C8  UNL     1      -2.457   5.644  14.624  1.00  0.00     0.016 C 
ENDBRANCH   1   2
BRANCH   1  16
HETATM   16  C10 UNL     1      -4.822   7.443  14.396  1.00  0.00     0.163 C 
BRANCH  16  17
HETATM   17  O1  UNL     1      -4.933   8.887  14.312  1.00  0.00    -0.312 OA
BRANCH  17  18
HETATM   18  C11 UNL     1      -4.337   9.594  15.311  1.00  0.00     0.255 C 
HETATM   19  C12 UNL     1      -3.342   8.733  16.027  1.00  0.00     0.126 C 
HETATM   20  O2  UNL     1      -4.595  10.749  15.622  1.00  0.00    -0.266 OA
ENDBRANCH  17  18
ENDBRANCH  16  17
BRANCH  16  21
HETATM   21  C13 UNL     1      -6.251   6.975  14.637  1.00  0.00    -0.028 C 
HETATM   22  C14 UNL     1      -6.835   6.961  15.856  1.00  0.00     0.006 C 
BRANCH  22  23
HETATM   23  C15 UNL     1      -8.228   6.529  16.188  1.00  0.00     0.192 C 
BRANCH  23  24
HETATM   24  O3  UNL     1      -8.264   5.109  16.196  1.00  0.00    -0.397 OA
HETATM   25  H22 UNL     1      -8.000   4.807  15.311  1.00  0.00     0.209 HD
ENDBRANCH  23  24
ENDBRANCH  22  23
BRANCH  21  26
HETATM   26  C16 UNL     1      -6.954   6.466  13.394  1.00  0.00     0.215 C 
BRANCH  26  27
HETATM   27  O4  UNL     1      -7.111   5.041  13.468  1.00  0.00    -0.317 OA
BRANCH  27  28
HETATM   28  C17 UNL     1      -8.148   4.517  12.763  1.00  0.00     0.255 C 
HETATM   29  C18 UNL     1      -8.743   5.570  11.877  1.00  0.00     0.126 C 
HETATM   30  O5  UNL     1      -8.543   3.361  12.812  1.00  0.00    -0.266 OA
ENDBRANCH  27  28
ENDBRANCH  26  27
ENDBRANCH  21  26
ENDBRANCH  16  21
ENDBRANCH   1  16
TORSDOF 10
ENDMDL
MODEL 7
REMARK minimizedAffinity -7.52988911
REMARK  10 active torsions:
REMARK  status: ('A' for Active; 'I' for Inactive)
REMARK    1  A    between atoms: C7_7  and  C9_9 
REMARK    2  A    between atoms: C9_9  and  C10_10 
REMARK    3  A    between atoms: C10_10  and  O1_11 
REMARK    4  A    between atoms: C10_10  and  C13_15 
REMARK    5  A    between atoms: O1_11  and  C11_12 
REMARK    6  A    between atoms: C13_15  and  C16_19 
REMARK    7  A    between atoms: C14_16  and  C15_17 
REMARK    8  A    between atoms: C15_17  and  O3_18 
REMARK    9  A    between atoms: C16_19  and  O4_20 
REMARK   10  A    between atoms: O4_20  and  C17_21 
ROOT
HETATM    1  C9  UNL     1      -1.043   7.394  12.167  1.00  0.00     0.047 C 
ENDROOT
BRANCH   1   2
HETATM    2  C7  UNL     1      -2.102   7.409  13.359  1.00  0.00    -0.034 C 
HETATM    3  C6  UNL     1      -3.242   6.311  13.138  1.00  0.00     0.006 C 
HETATM    4  C5  UNL     1      -2.838   4.852  13.480  1.00  0.00     0.007 C 
HETATM    5  C23 UNL     1      -4.664   6.574  13.789  1.00  0.00    -0.017 C 
HETATM    6  C4  UNL     1      -3.923   3.817  13.145  1.00  0.00     0.005 C 
HETATM    7  C3  UNL     1      -5.121   4.407  12.410  1.00  0.00     0.034 C 
HETATM    8  C2  UNL     1      -5.688   5.603  13.145  1.00  0.00    -0.081 C 
HETATM    9  C1  UNL     1      -7.024   5.752  13.229  1.00  0.00     0.015 C 
HETATM   10  C22 UNL     1      -5.086   8.036  13.549  1.00  0.00     0.014 C 
HETATM   11  C24 UNL     1      -4.711   6.291  15.315  1.00  0.00     0.020 C 
HETATM   12  C21 UNL     1      -4.048   9.027  14.048  1.00  0.00     0.006 C 
HETATM   13  C19 UNL     1      -2.731   8.870  13.288  1.00  0.00    -0.010 C 
HETATM   14  C20 UNL     1      -1.793  10.010  13.729  1.00  0.00     0.011 C 
HETATM   15  C8  UNL     1      -1.372   7.219  14.703  1.00  0.00     0.016 C 
ENDBRANCH   1   2
BRANCH   1  16
HETATM   16  C10 UNL     1       0.361   6.750  12.278  1.00  0.00     0.163 C 
BRANCH  16  17
HETATM   17  O1  UNL     1       0.697   6.649  13.687  1.00  0.00    -0.312 OA
BRANCH  17  18
HETATM   18  C11 UNL     1       1.847   7.266  14.075  1.00  0.00     0.255 C 
HETATM   19  C12 UNL     1       2.355   8.145  12.974  1.00  0.00     0.126 C 
HETATM   20  O2  UNL     1       2.419   7.103  15.144  1.00  0.00    -0.266 OA
ENDBRANCH  17  18
ENDBRANCH  16  17
BRANCH  16  21
HETATM   21  C13 UNL     1       0.558   5.336  11.749  1.00  0.00    -0.028 C 
HETATM   22  C14 UNL     1      -0.281   4.313  12.026  1.00  0.00     0.006 C 
BRANCH  22  23
HETATM   23  C15 UNL     1      -0.174   2.899  11.549  1.00  0.00     0.192 C 
BRANCH  23  24
HETATM   24  O3  UNL     1      -1.239   2.654  10.642  1.00  0.00    -0.397 OA
HETATM   25  H22 UNL     1      -2.071   2.806  11.122  1.00  0.00     0.209 HD
ENDBRANCH  23  24
ENDBRANCH  22  23
BRANCH  21  26
HETATM   26  C16 UNL     1       1.817   5.153  10.925  1.00  0.00     0.215 C 
BRANCH  26  27
HETATM   27  O4  UNL     1       1.652   5.760   9.635  1.00  0.00    -0.317 OA
BRANCH  27  28
HETATM   28  C17 UNL     1       2.786   5.931   8.906  1.00  0.00     0.255 C 
HETATM   29  C18 UNL     1       3.372   7.282   9.187  1.00  0.00     0.126 C 
HETATM   30  O5  UNL     1       3.285   5.115   8.145  1.00  0.00    -0.266 OA
ENDBRANCH  27  28
ENDBRANCH  26  27
ENDBRANCH  21  26
ENDBRANCH  16  21
ENDBRANCH   1  16
TORSDOF 10
ENDMDL
MODEL 8
REMARK minimizedAffinity -7.50015116
REMARK  10 active torsions:
REMARK  status: ('A' for Active; 'I' for Inactive)
REMARK    1  A    between atoms: C7_7  and  C9_9 
REMARK    2  A    between atoms: C9_9  and  C10_10 
REMARK    3  A    between atoms: C10_10  and  O1_11 
REMARK    4  A    between atoms: C10_10  and  C13_15 
REMARK    5  A    between atoms: O1_11  and  C11_12 
REMARK    6  A    between atoms: C13_15  and  C16_19 
REMARK    7  A    between atoms: C14_16  and  C15_17 
REMARK    8  A    between atoms: C15_17  and  O3_18 
REMARK    9  A    between atoms: C16_19  and  O4_20 
REMARK   10  A    between atoms: O4_20  and  C17_21 
ROOT
HETATM    1  C9  UNL     1       1.171   6.187  10.305  1.00  0.00     0.047 C 
ENDROOT
BRANCH   1   2
HETATM    2  C7  UNL     1       0.423   6.192  11.713  1.00  0.00    -0.034 C 
HETATM    3  C6  UNL     1      -0.848   5.223  11.700  1.00  0.00     0.006 C 
HETATM    4  C5  UNL     1      -0.533   3.709  11.843  1.00  0.00     0.007 C 
HETATM    5  C23 UNL     1      -2.045   5.552  12.687  1.00  0.00    -0.017 C 
HETATM    6  C4  UNL     1      -1.769   2.807  11.711  1.00  0.00     0.005 C 
HETATM    7  C3  UNL     1      -3.035   3.562  11.321  1.00  0.00     0.034 C 
HETATM    8  C2  UNL     1      -3.287   4.734  12.244  1.00  0.00    -0.081 C 
HETATM    9  C1  UNL     1      -4.544   4.992  12.653  1.00  0.00     0.015 C 
HETATM   10  C22 UNL     1      -2.353   7.061  12.647  1.00  0.00     0.014 C 
HETATM   11  C24 UNL     1      -1.769   5.143  14.158  1.00  0.00     0.020 C 
HETATM   12  C21 UNL     1      -1.130   7.910  12.947  1.00  0.00     0.006 C 
HETATM   13  C19 UNL     1      -0.048   7.704  11.887  1.00  0.00    -0.010 C 
HETATM   14  C20 UNL     1       1.082   8.714  12.163  1.00  0.00     0.011 C 
HETATM   15  C8  UNL     1       1.418   5.823  12.830  1.00  0.00     0.016 C 
ENDBRANCH   1   2
BRANCH   1  16
HETATM   16  C10 UNL     1       2.638   5.731  10.117  1.00  0.00     0.163 C 
BRANCH  16  17
HETATM   17  O1  UNL     1       2.768   5.176   8.782  1.00  0.00    -0.312 OA
BRANCH  17  18
HETATM   18  C11 UNL     1       3.612   4.116   8.653  1.00  0.00     0.255 C 
HETATM   19  C12 UNL     1       3.915   3.875   7.206  1.00  0.00     0.126 C 
HETATM   20  O2  UNL     1       4.036   3.423   9.568  1.00  0.00    -0.266 OA
ENDBRANCH  17  18
ENDBRANCH  16  17
BRANCH  16  21
HETATM   21  C13 UNL     1       3.741   6.777  10.191  1.00  0.00    -0.028 C 
HETATM   22  C14 UNL     1       4.950   6.547  10.750  1.00  0.00     0.006 C 
BRANCH  22  23
HETATM   23  C15 UNL     1       6.095   7.505  10.862  1.00  0.00     0.192 C 
BRANCH  23  24
HETATM   24  O3  UNL     1       7.294   6.754  10.980  1.00  0.00    -0.397 OA
HETATM   25  H22 UNL     1       7.214   6.202  11.775  1.00  0.00     0.209 HD
ENDBRANCH  23  24
ENDBRANCH  22  23
BRANCH  21  26
HETATM   26  C16 UNL     1       3.350   8.131   9.632  1.00  0.00     0.215 C 
BRANCH  26  27
HETATM   27  O4  UNL     1       3.214   8.052   8.205  1.00  0.00    -0.317 OA
BRANCH  27  28
HETATM   28  C17 UNL     1       1.955   8.201   7.717  1.00  0.00     0.255 C 
HETATM   29  C18 UNL     1       1.803   7.406   6.455  1.00  0.00     0.126 C 
HETATM   30  O5  UNL     1       1.057   8.861   8.221  1.00  0.00    -0.266 OA
ENDBRANCH  27  28
ENDBRANCH  26  27
ENDBRANCH  21  26
ENDBRANCH  16  21
ENDBRANCH   1  16
TORSDOF 10
ENDMDL
MODEL 9
REMARK minimizedAffinity -7.47652578
REMARK  10 active torsions:
REMARK  status: ('A' for Active; 'I' for Inactive)
REMARK    1  A    between atoms: C7_7  and  C9_9 
REMARK    2  A    between atoms: C9_9  and  C10_10 
REMARK    3  A    between atoms: C10_10  and  O1_11 
REMARK    4  A    between atoms: C10_10  and  C13_15 
REMARK    5  A    between atoms: O1_11  and  C11_12 
REMARK    6  A    between atoms: C13_15  and  C16_19 
REMARK    7  A    between atoms: C14_16  and  C15_17 
REMARK    8  A    between atoms: C15_17  and  O3_18 
REMARK    9  A    between atoms: C16_19  and  O4_20 
REMARK   10  A    between atoms: O4_20  and  C17_21 
ROOT
HETATM    1  C9  UNL     1      -3.489   7.063  12.876  1.00  0.00     0.047 C 
ENDROOT
BRANCH   1   2
HETATM    2  C7  UNL     1      -4.476   6.919  14.121  1.00  0.00    -0.034 C 
HETATM    3  C6  UNL     1      -5.880   6.294  13.680  1.00  0.00     0.006 C 
HETATM    4  C5  UNL     1      -5.885   4.756  13.463  1.00  0.00     0.007 C 
HETATM    5  C23 UNL     1      -7.159   6.655  14.544  1.00  0.00    -0.017 C 
HETATM    6  C4  UNL     1      -7.221   4.214  12.931  1.00  0.00     0.005 C 
HETATM    7  C3  UNL     1      -8.226   5.306  12.582  1.00  0.00     0.034 C 
HETATM    8  C2  UNL     1      -8.425   6.264  13.737  1.00  0.00    -0.081 C 
HETATM    9  C1  UNL     1      -9.666   6.703  14.022  1.00  0.00     0.015 C 
HETATM   10  C22 UNL     1      -7.167   8.163  14.859  1.00  0.00     0.014 C 
HETATM   11  C24 UNL     1      -7.249   5.871  15.881  1.00  0.00     0.020 C 
HETATM   12  C21 UNL     1      -5.886   8.620  15.535  1.00  0.00     0.006 C 
HETATM   13  C19 UNL     1      -4.680   8.418  14.618  1.00  0.00    -0.010 C 
HETATM   14  C20 UNL     1      -3.455   9.054  15.301  1.00  0.00     0.011 C 
HETATM   15  C8  UNL     1      -3.798   6.089  15.227  1.00  0.00     0.016 C 
ENDBRANCH   1   2
BRANCH   1  16
HETATM   16  C10 UNL     1      -2.090   6.402  12.813  1.00  0.00     0.163 C 
BRANCH  16  17
HETATM   17  O1  UNL     1      -1.530   6.411  14.152  1.00  0.00    -0.312 OA
BRANCH  17  18
HETATM   18  C11 UNL     1      -0.500   7.276  14.366  1.00  0.00     0.255 C 
HETATM   19  C12 UNL     1      -0.222   7.392  15.833  1.00  0.00     0.126 C 
HETATM   20  O2  UNL     1       0.092   7.909  13.502  1.00  0.00    -0.266 OA
ENDBRANCH  17  18
ENDBRANCH  16  17
BRANCH  16  21
HETATM   21  C13 UNL     1      -1.992   4.945  12.382  1.00  0.00    -0.028 C 
HETATM   22  C14 UNL     1      -3.069   4.155  12.175  1.00  0.00     0.006 C 
BRANCH  22  23
HETATM   23  C15 UNL     1      -3.073   2.721  11.745  1.00  0.00     0.192 C 
BRANCH  23  24
HETATM   24  O3  UNL     1      -3.964   2.588  10.647  1.00  0.00    -0.397 OA
HETATM   25  H22 UNL     1      -4.843   2.871  10.950  1.00  0.00     0.209 HD
ENDBRANCH  23  24
ENDBRANCH  22  23
BRANCH  21  26
HETATM   26  C16 UNL     1      -0.572   4.429  12.259  1.00  0.00     0.215 C 
BRANCH  26  27
HETATM   27  O4  UNL     1      -0.062   4.705  10.946  1.00  0.00    -0.317 OA
BRANCH  27  28
HETATM   28  C17 UNL     1       0.944   5.615  10.874  1.00  0.00     0.255 C 
HETATM   29  C18 UNL     1       0.450   6.867  10.215  1.00  0.00     0.126 C 
HETATM   30  O5  UNL     1       2.083   5.467  11.294  1.00  0.00    -0.266 OA
ENDBRANCH  27  28
ENDBRANCH  26  27
ENDBRANCH  21  26
ENDBRANCH  16  21
ENDBRANCH   1  16
TORSDOF 10
ENDMDL
