MODEL 1
REMARK minimizedAffinity -7.71437407
REMARK  3 active torsions:
REMARK  status: ('A' for Active; 'I' for Inactive)
REMARK    1  A    between atoms: C8_8  and  N1_9 
REMARK       I    between atoms: N1_9  and  C9_10 
REMARK    2  A    between atoms: C9_10  and  C10_12 
REMARK    3  A    between atoms: C14_18  and  O2_19 
ROOT
HETATM    1  N1  UNL     1      -7.041   5.062  13.239  1.00  0.00    -0.322 N 
HETATM    2  C9  UNL     1      -6.992   3.704  12.984  1.00  0.00     0.260 C 
HETATM    3  O1  UNL     1      -7.887   2.888  13.193  1.00  0.00    -0.267 OA
HETATM    4  H10 UNL     1      -6.149   5.485  13.454  1.00  0.00     0.169 HD
ENDROOT
BRANCH   2   5
HETATM    5  C10 UNL     1      -5.690   3.181  12.502  1.00  0.00     0.083 A 
HETATM    6  C11 UNL     1      -4.480   3.834  12.772  1.00  0.00     0.023 A 
HETATM    7  C12 UNL     1      -3.288   3.291  12.298  1.00  0.00     0.018 A 
HETATM    8  C13 UNL     1      -3.345   2.118  11.565  1.00  0.00     0.090 A 
HETATM    9  N2  UNL     1      -4.495   1.474  11.273  1.00  0.00    -0.346 N 
HETATM   10  C14 UNL     1      -5.642   2.020  11.730  1.00  0.00     0.155 A 
ATOM     11  H2  UNL     1      -4.497   0.611  10.731  1.00  0.00     0.167 HD
BRANCH  10  12
HETATM   12  O2  UNL     1      -6.759   1.319  11.370  1.00  0.00    -0.345 OA
HETATM   13  H14 UNL     1      -7.537   1.869  11.601  1.00  0.00     0.219 HD
ENDBRANCH  10  12
ENDBRANCH   2   5
BRANCH   1  14
HETATM   14  C8  UNL     1      -8.181   5.784  13.681  1.00  0.00     0.046 A 
HETATM   15  C2  UNL     1      -9.218   6.198  12.817  1.00  0.00    -0.035 A 
HETATM   16  C1  UNL     1      -9.209   6.015  11.323  1.00  0.00     0.050 C 
HETATM   17  C3  UNL     1     -10.330   6.874  13.356  1.00  0.00     0.009 A 
HETATM   18  C4  UNL     1     -10.394   7.193  14.707  1.00  0.00     0.001 A 
HETATM   19  C5  UNL     1      -9.343   6.847  15.546  1.00  0.00     0.009 A 
HETATM   20  C6  UNL     1      -8.230   6.148  15.051  1.00  0.00    -0.035 A 
HETATM   21  C7  UNL     1      -7.141   5.781  16.027  1.00  0.00     0.050 C 
ENDBRANCH   1  14
TORSDOF 3
ENDMDL
MODEL 2
REMARK minimizedAffinity -7.5304451
REMARK  3 active torsions:
REMARK  status: ('A' for Active; 'I' for Inactive)
REMARK    1  A    between atoms: C8_8  and  N1_9 
REMARK       I    between atoms: N1_9  and  C9_10 
REMARK    2  A    between atoms: C9_10  and  C10_12 
REMARK    3  A    between atoms: C14_18  and  O2_19 
ROOT
HETATM    1  N1  UNL     1      -7.043   5.210  13.301  1.00  0.00    -0.322 N 
HETATM    2  C9  UNL     1      -6.967   3.840  13.128  1.00  0.00     0.260 C 
HETATM    3  O1  UNL     1      -7.815   3.014  13.455  1.00  0.00    -0.267 OA
HETATM    4  H10 UNL     1      -6.152   5.671  13.419  1.00  0.00     0.169 HD
ENDROOT
BRANCH   2   5
HETATM    5  C10 UNL     1      -5.688   3.325  12.578  1.00  0.00     0.083 A 
HETATM    6  C11 UNL     1      -4.470   3.981  12.793  1.00  0.00     0.023 A 
HETATM    7  C12 UNL     1      -3.300   3.446  12.258  1.00  0.00     0.018 A 
HETATM    8  C13 UNL     1      -3.389   2.278  11.520  1.00  0.00     0.090 A 
HETATM    9  N2  UNL     1      -4.549   1.631  11.281  1.00  0.00    -0.346 N 
HETATM   10  C14 UNL     1      -5.675   2.169  11.797  1.00  0.00     0.155 A 
ATOM     11  H2  UNL     1      -4.575   0.771  10.734  1.00  0.00     0.167 HD
BRANCH  10  12
HETATM   12  O2  UNL     1      -6.806   1.467  11.488  1.00  0.00    -0.345 OA
HETATM   13  H14 UNL     1      -7.573   2.012  11.760  1.00  0.00     0.219 HD
ENDBRANCH  10  12
ENDBRANCH   2   5
BRANCH   1  14
HETATM   14  C8  UNL     1      -8.169   5.925  13.785  1.00  0.00     0.046 A 
HETATM   15  C2  UNL     1      -8.334   6.284  15.141  1.00  0.00    -0.035 A 
HETATM   16  C1  UNL     1      -7.399   5.883  16.251  1.00  0.00     0.050 C 
HETATM   17  C3  UNL     1      -9.466   7.031  15.519  1.00  0.00     0.009 A 
HETATM   18  C4  UNL     1     -10.451   7.365  14.597  1.00  0.00     0.001 A 
HETATM   19  C5  UNL     1     -10.324   6.953  13.276  1.00  0.00     0.009 A 
HETATM   20  C6  UNL     1      -9.196   6.232  12.855  1.00  0.00    -0.035 A 
HETATM   21  C7  UNL     1      -9.113   5.843  11.401  1.00  0.00     0.050 C 
ENDBRANCH   1  14
TORSDOF 3
ENDMDL
MODEL 3
REMARK minimizedAffinity -7.47342062
REMARK  3 active torsions:
REMARK  status: ('A' for Active; 'I' for Inactive)
REMARK    1  A    between atoms: C8_8  and  N1_9 
REMARK       I    between atoms: N1_9  and  C9_10 
REMARK    2  A    between atoms: C9_10  and  C10_12 
REMARK    3  A    between atoms: C14_18  and  O2_19 
ROOT
HETATM    1  N1  UNL     1      -7.852   5.900  13.614  1.00  0.00    -0.322 N 
HETATM    2  C9  UNL     1      -8.903   6.116  12.741  1.00  0.00     0.260 C 
HETATM    3  O1  UNL     1      -8.901   5.912  11.530  1.00  0.00    -0.267 OA
HETATM    4  H10 UNL     1      -7.837   6.513  14.417  1.00  0.00     0.169 HD
ENDROOT
BRANCH   2   5
HETATM    5  C10 UNL     1     -10.112   6.748  13.326  1.00  0.00     0.083 A 
HETATM    6  C11 UNL     1     -11.118   7.309  12.528  1.00  0.00     0.023 A 
HETATM    7  C12 UNL     1     -12.234   7.881  13.135  1.00  0.00     0.018 A 
HETATM    8  C13 UNL     1     -12.304   7.879  14.517  1.00  0.00     0.090 A 
HETATM    9  N2  UNL     1     -11.346   7.361  15.314  1.00  0.00    -0.346 N 
HETATM   10  C14 UNL     1     -10.266   6.822  14.711  1.00  0.00     0.155 A 
ATOM     11  H2  UNL     1     -11.434   7.377  16.330  1.00  0.00     0.167 HD
BRANCH  10  12
HETATM   12  O2  UNL     1      -9.334   6.343  15.589  1.00  0.00    -0.345 OA
HETATM   13  H14 UNL     1      -8.529   6.126  15.073  1.00  0.00     0.219 HD
ENDBRANCH  10  12
ENDBRANCH   2   5
BRANCH   1  14
HETATM   14  C8  UNL     1      -6.613   5.290  13.288  1.00  0.00     0.046 A 
HETATM   15  C2  UNL     1      -6.479   3.914  13.001  1.00  0.00    -0.035 A 
HETATM   16  C1  UNL     1      -7.597   2.910  13.093  1.00  0.00     0.050 C 
HETATM   17  C3  UNL     1      -5.214   3.408  12.646  1.00  0.00     0.009 A 
HETATM   18  C4  UNL     1      -4.089   4.223  12.633  1.00  0.00     0.001 A 
HETATM   19  C5  UNL     1      -4.206   5.563  12.982  1.00  0.00     0.009 A 
HETATM   20  C6  UNL     1      -5.456   6.110  13.314  1.00  0.00    -0.035 A 
HETATM   21  C7  UNL     1      -5.512   7.578  13.653  1.00  0.00     0.050 C 
ENDBRANCH   1  14
TORSDOF 3
ENDMDL
MODEL 4
REMARK minimizedAffinity -7.3767767
REMARK  3 active torsions:
REMARK  status: ('A' for Active; 'I' for Inactive)
REMARK    1  A    between atoms: C8_8  and  N1_9 
REMARK       I    between atoms: N1_9  and  C9_10 
REMARK    2  A    between atoms: C9_10  and  C10_12 
REMARK    3  A    between atoms: C14_18  and  O2_19 
ROOT
HETATM    1  N1  UNL     1      -7.847   6.129  13.690  1.00  0.00    -0.322 N 
HETATM    2  C9  UNL     1      -8.907   6.226  12.806  1.00  0.00     0.260 C 
HETATM    3  O1  UNL     1      -8.891   5.943  11.611  1.00  0.00    -0.267 OA
HETATM    4  H10 UNL     1      -7.869   6.792  14.451  1.00  0.00     0.169 HD
ENDROOT
BRANCH   2   5
HETATM    5  C10 UNL     1     -10.152   6.823  13.350  1.00  0.00     0.083 A 
HETATM    6  C11 UNL     1     -11.111   7.424  12.525  1.00  0.00     0.023 A 
HETATM    7  C12 UNL     1     -12.264   7.960  13.093  1.00  0.00     0.018 A 
HETATM    8  C13 UNL     1     -12.417   7.884  14.467  1.00  0.00     0.090 A 
HETATM    9  N2  UNL     1     -11.506   7.326  15.291  1.00  0.00    -0.346 N 
HETATM   10  C14 UNL     1     -10.389   6.822  14.725  1.00  0.00     0.155 A 
ATOM     11  H2  UNL     1     -11.654   7.287  16.299  1.00  0.00     0.167 HD
BRANCH  10  12
HETATM   12  O2  UNL     1      -9.508   6.299  15.631  1.00  0.00    -0.345 OA
HETATM   13  H14 UNL     1      -8.673   6.111  15.154  1.00  0.00     0.219 HD
ENDBRANCH  10  12
ENDBRANCH   2   5
BRANCH   1  14
HETATM   14  C8  UNL     1      -6.574   5.572  13.402  1.00  0.00     0.046 A 
HETATM   15  C2  UNL     1      -5.402   6.348  13.272  1.00  0.00    -0.035 A 
HETATM   16  C1  UNL     1      -5.362   7.852  13.329  1.00  0.00     0.050 C 
HETATM   17  C3  UNL     1      -4.175   5.701  13.027  1.00  0.00     0.009 A 
HETATM   18  C4  UNL     1      -4.109   4.324  12.849  1.00  0.00     0.001 A 
HETATM   19  C5  UNL     1      -5.273   3.567  12.907  1.00  0.00     0.009 A 
HETATM   20  C6  UNL     1      -6.510   4.173  13.178  1.00  0.00    -0.035 A 
HETATM   21  C7  UNL     1      -7.725   3.284  13.256  1.00  0.00     0.050 C 
ENDBRANCH   1  14
TORSDOF 3
ENDMDL
MODEL 5
REMARK minimizedAffinity -7.36376047
REMARK  3 active torsions:
REMARK  status: ('A' for Active; 'I' for Inactive)
REMARK    1  A    between atoms: C8_8  and  N1_9 
REMARK       I    between atoms: N1_9  and  C9_10 
REMARK    2  A    between atoms: C9_10  and  C10_12 
REMARK    3  A    between atoms: C14_18  and  O2_19 
ROOT
HETATM    1  N1  UNL     1      -8.040   5.208  13.862  1.00  0.00    -0.322 N 
HETATM    2  C9  UNL     1      -6.785   5.160  13.281  1.00  0.00     0.260 C 
HETATM    3  O1  UNL     1      -5.988   6.090  13.188  1.00  0.00    -0.267 OA
HETATM    4  H10 UNL     1      -8.712   4.564  13.469  1.00  0.00     0.169 HD
ENDROOT
BRANCH   2   5
HETATM    5  C10 UNL     1      -6.421   3.879  12.628  1.00  0.00     0.083 A 
HETATM    6  C11 UNL     1      -5.157   3.664  12.066  1.00  0.00     0.023 A 
HETATM    7  C12 UNL     1      -4.871   2.436  11.472  1.00  0.00     0.018 A 
HETATM    8  C13 UNL     1      -5.860   1.468  11.454  1.00  0.00     0.090 A 
HETATM    9  N2  UNL     1      -7.093   1.649  11.972  1.00  0.00    -0.346 N 
HETATM   10  C14 UNL     1      -7.357   2.848  12.533  1.00  0.00     0.155 A 
ATOM     11  H2  UNL     1      -7.796   0.911  11.941  1.00  0.00     0.167 HD
BRANCH  10  12
HETATM   12  O2  UNL     1      -8.634   2.956  13.010  1.00  0.00    -0.345 OA
HETATM   13  H14 UNL     1      -8.781   3.897  13.245  1.00  0.00     0.219 HD
ENDBRANCH  10  12
ENDBRANCH   2   5
BRANCH   1  14
HETATM   14  C8  UNL     1      -8.591   6.313  14.561  1.00  0.00     0.046 A 
HETATM   15  C2  UNL     1      -8.120   6.745  15.820  1.00  0.00    -0.035 A 
HETATM   16  C1  UNL     1      -7.051   6.046  16.618  1.00  0.00     0.050 C 
HETATM   17  C3  UNL     1      -8.702   7.879  16.418  1.00  0.00     0.009 A 
HETATM   18  C4  UNL     1      -9.770   8.540  15.822  1.00  0.00     0.001 A 
HETATM   19  C5  UNL     1     -10.280   8.075  14.616  1.00  0.00     0.009 A 
HETATM   20  C6  UNL     1      -9.707   6.964  13.976  1.00  0.00    -0.035 A 
HETATM   21  C7  UNL     1     -10.294   6.535  12.656  1.00  0.00     0.050 C 
ENDBRANCH   1  14
TORSDOF 3
ENDMDL
MODEL 6
REMARK minimizedAffinity -7.17591333
REMARK  3 active torsions:
REMARK  status: ('A' for Active; 'I' for Inactive)
REMARK    1  A    between atoms: C8_8  and  N1_9 
REMARK       I    between atoms: N1_9  and  C9_10 
REMARK    2  A    between atoms: C9_10  and  C10_12 
REMARK    3  A    between atoms: C14_18  and  O2_19 
ROOT
HETATM    1  N1  UNL     1      -4.941   5.254  12.977  1.00  0.00    -0.322 N 
HETATM    2  C9  UNL     1      -3.755   5.415  13.671  1.00  0.00     0.260 C 
HETATM    3  O1  UNL     1      -3.045   4.520  14.123  1.00  0.00    -0.267 OA
HETATM    4  H10 UNL     1      -5.599   6.013  13.084  1.00  0.00     0.169 HD
ENDROOT
BRANCH   2   5
HETATM    5  C10 UNL     1      -3.365   6.815  13.972  1.00  0.00     0.083 A 
HETATM    6  C11 UNL     1      -3.106   7.749  12.961  1.00  0.00     0.023 A 
HETATM    7  C12 UNL     1      -2.751   9.051  13.306  1.00  0.00     0.018 A 
HETATM    8  C13 UNL     1      -2.661   9.374  14.649  1.00  0.00     0.090 A 
HETATM    9  N2  UNL     1      -2.889   8.494  15.646  1.00  0.00    -0.346 N 
HETATM   10  C14 UNL     1      -3.219   7.234  15.295  1.00  0.00     0.155 A 
ATOM     11  H2  UNL     1      -2.814   8.770  16.625  1.00  0.00     0.167 HD
BRANCH  10  12
HETATM   12  O2  UNL     1      -3.408   6.403  16.363  1.00  0.00    -0.345 OA
HETATM   13  H14 UNL     1      -3.481   5.489  16.015  1.00  0.00     0.219 HD
ENDBRANCH  10  12
ENDBRANCH   2   5
BRANCH   1  14
HETATM   14  C8  UNL     1      -5.497   4.017  12.559  1.00  0.00     0.046 A 
HETATM   15  C2  UNL     1      -4.935   3.222  11.537  1.00  0.00    -0.035 A 
HETATM   16  C1  UNL     1      -3.744   3.616  10.705  1.00  0.00     0.050 C 
HETATM   17  C3  UNL     1      -5.535   1.988  11.220  1.00  0.00     0.009 A 
HETATM   18  C4  UNL     1      -6.702   1.571  11.849  1.00  0.00     0.001 A 
HETATM   19  C5  UNL     1      -7.295   2.385  12.807  1.00  0.00     0.009 A 
HETATM   20  C6  UNL     1      -6.710   3.609  13.170  1.00  0.00    -0.035 A 
HETATM   21  C7  UNL     1      -7.395   4.425  14.237  1.00  0.00     0.050 C 
ENDBRANCH   1  14
TORSDOF 3
ENDMDL
MODEL 7
REMARK minimizedAffinity -7.14739895
REMARK  3 active torsions:
REMARK  status: ('A' for Active; 'I' for Inactive)
REMARK    1  A    between atoms: C8_8  and  N1_9 
REMARK       I    between atoms: N1_9  and  C9_10 
REMARK    2  A    between atoms: C9_10  and  C10_12 
REMARK    3  A    between atoms: C14_18  and  O2_19 
ROOT
HETATM    1  N1  UNL     1      -3.693   5.091  12.529  1.00  0.00    -0.322 N 
HETATM    2  C9  UNL     1      -2.733   5.098  13.525  1.00  0.00     0.260 C 
HETATM    3  O1  UNL     1      -2.931   4.978  14.731  1.00  0.00    -0.267 OA
HETATM    4  H10 UNL     1      -3.458   5.637  11.712  1.00  0.00     0.169 HD
ENDROOT
BRANCH   2   5
HETATM    5  C10 UNL     1      -1.343   5.376  13.085  1.00  0.00     0.083 A 
HETATM    6  C11 UNL     1      -0.987   5.419  11.731  1.00  0.00     0.023 A 
HETATM    7  C12 UNL     1       0.332   5.692  11.378  1.00  0.00     0.018 A 
HETATM    8  C13 UNL     1       1.252   5.907  12.390  1.00  0.00     0.090 A 
HETATM    9  N2  UNL     1       0.945   5.857  13.703  1.00  0.00    -0.346 N 
HETATM   10  C14 UNL     1      -0.336   5.579  14.027  1.00  0.00     0.155 A 
ATOM     11  H2  UNL     1       1.651   6.022  14.420  1.00  0.00     0.167 HD
BRANCH  10  12
HETATM   12  O2  UNL     1      -0.556   5.523  15.375  1.00  0.00    -0.345 OA
HETATM   13  H14 UNL     1      -1.456   5.161  15.511  1.00  0.00     0.219 HD
ENDBRANCH  10  12
ENDBRANCH   2   5
BRANCH   1  14
HETATM   14  C8  UNL     1      -5.075   4.825  12.709  1.00  0.00     0.046 A 
HETATM   15  C2  UNL     1      -5.976   5.755  13.273  1.00  0.00    -0.035 A 
HETATM   16  C1  UNL     1      -5.580   7.095  13.833  1.00  0.00     0.050 C 
HETATM   17  C3  UNL     1      -7.339   5.417  13.372  1.00  0.00     0.009 A 
HETATM   18  C4  UNL     1      -7.800   4.164  12.985  1.00  0.00     0.001 A 
HETATM   19  C5  UNL     1      -6.904   3.222  12.495  1.00  0.00     0.009 A 
HETATM   20  C6  UNL     1      -5.542   3.533  12.354  1.00  0.00    -0.035 A 
HETATM   21  C7  UNL     1      -4.634   2.472  11.787  1.00  0.00     0.050 C 
ENDBRANCH   1  14
TORSDOF 3
ENDMDL
MODEL 8
REMARK minimizedAffinity -7.12708139
REMARK  3 active torsions:
REMARK  status: ('A' for Active; 'I' for Inactive)
REMARK    1  A    between atoms: C8_8  and  N1_9 
REMARK       I    between atoms: N1_9  and  C9_10 
REMARK    2  A    between atoms: C9_10  and  C10_12 
REMARK    3  A    between atoms: C14_18  and  O2_19 
ROOT
HETATM    1  N1  UNL     1      -3.117   4.258  12.399  1.00  0.00    -0.322 N 
HETATM    2  C9  UNL     1      -4.010   3.794  11.450  1.00  0.00     0.260 C 
HETATM    3  O1  UNL     1      -3.846   3.787  10.233  1.00  0.00    -0.267 OA
HETATM    4  H10 UNL     1      -3.543   4.617  13.241  1.00  0.00     0.169 HD
ENDROOT
BRANCH   2   5
HETATM    5  C10 UNL     1      -5.331   3.353  11.964  1.00  0.00     0.083 A 
HETATM    6  C11 UNL     1      -6.122   4.171  12.781  1.00  0.00     0.023 A 
HETATM    7  C12 UNL     1      -7.356   3.705  13.227  1.00  0.00     0.018 A 
HETATM    8  C13 UNL     1      -7.756   2.435  12.847  1.00  0.00     0.090 A 
HETATM    9  N2  UNL     1      -7.011   1.617  12.075  1.00  0.00    -0.346 N 
HETATM   10  C14 UNL     1      -5.812   2.079  11.661  1.00  0.00     0.155 A 
ATOM     11  H2  UNL     1      -7.340   0.687  11.815  1.00  0.00     0.167 HD
BRANCH  10  12
HETATM   12  O2  UNL     1      -5.113   1.180  10.906  1.00  0.00    -0.345 OA
HETATM   13  H14 UNL     1      -4.206   1.534  10.793  1.00  0.00     0.219 HD
ENDBRANCH  10  12
ENDBRANCH   2   5
BRANCH   1  14
HETATM   14  C8  UNL     1      -1.794   4.705  12.146  1.00  0.00     0.046 A 
HETATM   15  C2  UNL     1      -0.766   3.857  11.679  1.00  0.00    -0.035 A 
HETATM   16  C1  UNL     1      -0.909   2.371  11.480  1.00  0.00     0.050 C 
HETATM   17  C3  UNL     1       0.506   4.401  11.416  1.00  0.00     0.009 A 
HETATM   18  C4  UNL     1       0.782   5.740  11.667  1.00  0.00     0.001 A 
HETATM   19  C5  UNL     1      -0.209   6.561  12.191  1.00  0.00     0.009 A 
HETATM   20  C6  UNL     1      -1.497   6.061  12.439  1.00  0.00    -0.035 A 
HETATM   21  C7  UNL     1      -2.529   7.017  12.981  1.00  0.00     0.050 C 
ENDBRANCH   1  14
TORSDOF 3
ENDMDL
MODEL 9
REMARK minimizedAffinity -7.10817099
REMARK  3 active torsions:
REMARK  status: ('A' for Active; 'I' for Inactive)
REMARK    1  A    between atoms: C8_8  and  N1_9 
REMARK       I    between atoms: N1_9  and  C9_10 
REMARK    2  A    between atoms: C9_10  and  C10_12 
REMARK    3  A    between atoms: C14_18  and  O2_19 
ROOT
HETATM    1  N1  UNL     1      -3.696   5.173  12.574  1.00  0.00    -0.322 N 
HETATM    2  C9  UNL     1      -2.722   5.120  13.555  1.00  0.00     0.260 C 
HETATM    3  O1  UNL     1      -2.905   4.961  14.758  1.00  0.00    -0.267 OA
HETATM    4  H10 UNL     1      -3.459   5.741  11.773  1.00  0.00     0.169 HD
ENDROOT
BRANCH   2   5
HETATM    5  C10 UNL     1      -1.332   5.378  13.103  1.00  0.00     0.083 A 
HETATM    6  C11 UNL     1      -0.970   5.339  11.750  1.00  0.00     0.023 A 
HETATM    7  C12 UNL     1       0.349   5.597  11.386  1.00  0.00     0.018 A 
HETATM    8  C13 UNL     1       1.264   5.879  12.387  1.00  0.00     0.090 A 
HETATM    9  N2  UNL     1       0.952   5.907  13.699  1.00  0.00    -0.346 N 
HETATM   10  C14 UNL     1      -0.329   5.643  14.035  1.00  0.00     0.155 A 
ATOM     11  H2  UNL     1       1.653   6.120  14.407  1.00  0.00     0.167 HD
BRANCH  10  12
HETATM   12  O2  UNL     1      -0.554   5.669  15.383  1.00  0.00    -0.345 OA
HETATM   13  H14 UNL     1      -1.453   5.311  15.538  1.00  0.00     0.219 HD
ENDBRANCH  10  12
ENDBRANCH   2   5
BRANCH   1  14
HETATM   14  C8  UNL     1      -5.082   4.936  12.765  1.00  0.00     0.046 A 
HETATM   15  C2  UNL     1      -5.713   3.718  12.430  1.00  0.00    -0.035 A 
HETATM   16  C1  UNL     1      -5.030   2.561  11.750  1.00  0.00     0.050 C 
HETATM   17  C3  UNL     1      -7.086   3.561  12.697  1.00  0.00     0.009 A 
HETATM   18  C4  UNL     1      -7.842   4.602  13.223  1.00  0.00     0.001 A 
HETATM   19  C5  UNL     1      -7.237   5.824  13.490  1.00  0.00     0.009 A 
HETATM   20  C6  UNL     1      -5.863   6.009  13.264  1.00  0.00    -0.035 A 
HETATM   21  C7  UNL     1      -5.271   7.353  13.604  1.00  0.00     0.050 C 
ENDBRANCH   1  14
TORSDOF 3
ENDMDL
