MODEL 1
REMARK minimizedAffinity -10.3219404
REMARK  6 active torsions:
REMARK  status: ('A' for Active; 'I' for Inactive)
REMARK    1  A    between atoms: C2_2  and  C3_4 
REMARK    2  A    between atoms: C4_5  and  C5_6 
REMARK    3  A    between atoms: C6_7  and  C8_9 
REMARK    4  A    between atoms: C8_9  and  O3_11 
REMARK    5  A    between atoms: C9_12  and  C10_13 
REMARK    6  A    between atoms: C30_35  and  O6_36 
ROOT
HETATM    1  C10 UNL     1      -3.280   6.351  13.069  1.00  0.00    -0.068 C 
HETATM    2  C11 UNL     1      -3.218   4.853  13.299  1.00  0.00     0.044 C 
HETATM    3  C12 UNL     1      -2.206   7.059  12.638  1.00  0.00    -0.001 C 
HETATM    4  C13 UNL     1      -2.130   8.572  12.509  1.00  0.00     0.157 C 
HETATM    5  O4  UNL     1      -2.986   9.362  12.874  1.00  0.00    -0.293 OA
HETATM    6  C14 UNL     1      -0.822   9.008  11.905  1.00  0.00     0.090 C 
HETATM    7  C15 UNL     1      -0.389   7.709  11.239  1.00  0.00     0.014 C 
HETATM    8  C16 UNL     1       1.040   7.643  10.599  1.00  0.00    -0.034 C 
HETATM    9  C17 UNL     1       0.874   8.288   9.194  1.00  0.00     0.016 C 
HETATM   10  C18 UNL     1       2.124   8.431  11.363  1.00  0.00     0.017 C 
HETATM   11  C19 UNL     1       3.519   8.268  10.752  1.00  0.00     0.080 C 
HETATM   12  C20 UNL     1       3.918   6.830  10.462  1.00  0.00     0.135 C 
HETATM   13  O5  UNL     1       5.087   6.483  10.643  1.00  0.00    -0.297 OA
HETATM   14  C21 UNL     1       2.872   5.872   9.849  1.00  0.00     0.017 C 
HETATM   15  C22 UNL     1       3.329   4.420  10.158  1.00  0.00     0.023 C 
HETATM   16  C23 UNL     1       2.860   6.023   8.323  1.00  0.00     0.023 C 
HETATM   17  C24 UNL     1       1.516   6.151  10.569  1.00  0.00     0.009 C 
HETATM   18  C25 UNL     1       0.334   5.220  10.259  1.00  0.00     0.007 C 
HETATM   19  C26 UNL     1      -0.728   5.248  11.391  1.00  0.00     0.015 C 
HETATM   20  C27 UNL     1      -0.801   6.571  12.210  1.00  0.00    -0.008 C 
HETATM   21  C28 UNL     1       0.019   6.490  13.519  1.00  0.00     0.021 C 
ENDROOT
BRANCH   1  22
HETATM   22  C9  UNL     1      -4.663   6.905  13.435  1.00  0.00     0.026 C 
HETATM   23  C4  UNL     1      -5.461   6.086  14.479  1.00  0.00     0.031 C 
HETATM   24  C3  UNL     1      -6.545   7.082  14.929  1.00  0.00     0.092 C 
HETATM   25  C30 UNL     1      -5.809   8.428  14.978  1.00  0.00     0.130 C 
HETATM   26  C29 UNL     1      -4.736   8.377  13.883  1.00  0.00     0.042 C 
BRANCH  23  27
HETATM   27  C5  UNL     1      -6.028   4.819  13.872  1.00  0.00    -0.007 C 
HETATM   28  C6  UNL     1      -7.163   4.695  13.151  1.00  0.00     0.008 C 
HETATM   29  C7  UNL     1      -8.112   5.802  12.796  1.00  0.00     0.055 C 
BRANCH  28  30
HETATM   30  C8  UNL     1      -7.586   3.367  12.627  1.00  0.00     0.171 C 
HETATM   31  O2  UNL     1      -6.851   2.550  12.098  1.00  0.00    -0.646 OA
BRANCH  30  32
HETATM   32  O3  UNL     1      -8.900   3.118  12.759  1.00  0.00    -0.773 OA
HETATM   33  H10 UNL     1      -8.996   2.220  12.383  1.00  0.00     0.167 HD
ENDBRANCH  30  32
ENDBRANCH  28  30
ENDBRANCH  23  27
BRANCH  24  34
HETATM   34  C2  UNL     1      -7.197   6.715  16.256  1.00  0.00     0.130 C 
HETATM   35  C1  UNL     1      -8.509   7.382  16.585  1.00  0.00     0.091 C 
HETATM   36  O1  UNL     1      -6.738   5.846  17.001  1.00  0.00    -0.298 OA
ENDBRANCH  24  34
BRANCH  25  37
HETATM   37  O6  UNL     1      -5.201   8.666  16.241  1.00  0.00    -0.395 OA
HETATM   38  H42 UNL     1      -4.422   8.068  16.317  1.00  0.00     0.210 HD
ENDBRANCH  25  37
ENDBRANCH   1  22
TORSDOF 6
ENDMDL
MODEL 2
REMARK minimizedAffinity -9.30174446
REMARK  6 active torsions:
REMARK  status: ('A' for Active; 'I' for Inactive)
REMARK    1  A    between atoms: C2_2  and  C3_4 
REMARK    2  A    between atoms: C4_5  and  C5_6 
REMARK    3  A    between atoms: C6_7  and  C8_9 
REMARK    4  A    between atoms: C8_9  and  O3_11 
REMARK    5  A    between atoms: C9_12  and  C10_13 
REMARK    6  A    between atoms: C30_35  and  O6_36 
ROOT
HETATM    1  C10 UNL     1      -0.093   5.733  13.374  1.00  0.00    -0.068 C 
HETATM    2  C11 UNL     1      -0.428   6.511  14.632  1.00  0.00     0.044 C 
HETATM    3  C12 UNL     1       0.896   6.119  12.530  1.00  0.00    -0.001 C 
HETATM    4  C13 UNL     1       1.217   5.488  11.184  1.00  0.00     0.157 C 
HETATM    5  O4  UNL     1       0.562   4.617  10.633  1.00  0.00    -0.293 OA
HETATM    6  C14 UNL     1       2.441   6.105  10.564  1.00  0.00     0.090 C 
HETATM    7  C15 UNL     1       3.082   6.725  11.798  1.00  0.00     0.014 C 
HETATM    8  C16 UNL     1       4.342   7.636  11.602  1.00  0.00    -0.034 C 
HETATM    9  C17 UNL     1       5.535   6.645  11.500  1.00  0.00     0.016 C 
HETATM   10  C18 UNL     1       4.322   8.495  10.320  1.00  0.00     0.017 C 
HETATM   11  C19 UNL     1       5.528   9.432  10.213  1.00  0.00     0.080 C 
HETATM   12  C20 UNL     1       5.814  10.240  11.469  1.00  0.00     0.135 C 
HETATM   13  O5  UNL     1       6.208  11.403  11.358  1.00  0.00    -0.297 OA
HETATM   14  C21 UNL     1       5.705   9.547  12.846  1.00  0.00     0.017 C 
HETATM   15  C22 UNL     1       5.506  10.657  13.913  1.00  0.00     0.023 C 
HETATM   16  C23 UNL     1       7.024   8.838  13.176  1.00  0.00     0.023 C 
HETATM   17  C24 UNL     1       4.438   8.637  12.803  1.00  0.00     0.009 C 
HETATM   18  C25 UNL     1       4.004   7.950  14.106  1.00  0.00     0.007 C 
HETATM   19  C26 UNL     1       2.503   7.554  14.072  1.00  0.00     0.015 C 
HETATM   20  C27 UNL     1       1.915   7.278  12.657  1.00  0.00    -0.008 C 
HETATM   21  C28 UNL     1       1.196   8.518  12.075  1.00  0.00     0.021 C 
ENDROOT
BRANCH   1  22
HETATM   22  C9  UNL     1      -1.039   4.538  13.200  1.00  0.00     0.026 C 
HETATM   23  C4  UNL     1      -2.457   4.873  12.676  1.00  0.00     0.031 C 
HETATM   24  C3  UNL     1      -2.979   3.500  12.219  1.00  0.00     0.092 C 
HETATM   25  C30 UNL     1      -1.750   2.830  11.591  1.00  0.00     0.130 C 
HETATM   26  C29 UNL     1      -0.530   3.353  12.359  1.00  0.00     0.042 C 
BRANCH  23  27
HETATM   27  C5  UNL     1      -3.310   5.509  13.756  1.00  0.00    -0.007 C 
HETATM   28  C6  UNL     1      -3.754   6.783  13.803  1.00  0.00     0.008 C 
HETATM   29  C7  UNL     1      -3.489   7.851  12.782  1.00  0.00     0.055 C 
BRANCH  28  30
HETATM   30  C8  UNL     1      -4.585   7.255  14.945  1.00  0.00     0.171 C 
HETATM   31  O2  UNL     1      -5.626   7.881  14.848  1.00  0.00    -0.646 OA
BRANCH  30  32
HETATM   32  O3  UNL     1      -4.080   6.950  16.153  1.00  0.00    -0.773 OA
HETATM   33  H10 UNL     1      -4.745   7.315  16.770  1.00  0.00     0.167 HD
ENDBRANCH  30  32
ENDBRANCH  28  30
ENDBRANCH  23  27
BRANCH  24  34
HETATM   34  C2  UNL     1      -4.162   3.584  11.262  1.00  0.00     0.130 C 
HETATM   35  C1  UNL     1      -5.540   3.433  11.857  1.00  0.00     0.091 C 
HETATM   36  O1  UNL     1      -4.028   3.856  10.067  1.00  0.00    -0.298 OA
ENDBRANCH  24  34
BRANCH  25  37
HETATM   37  O6  UNL     1      -1.617   3.133  10.208  1.00  0.00    -0.395 OA
HETATM   38  H42 UNL     1      -1.330   4.072  10.132  1.00  0.00     0.210 HD
ENDBRANCH  25  37
ENDBRANCH   1  22
TORSDOF 6
ENDMDL
MODEL 3
REMARK minimizedAffinity -9.25991917
REMARK  6 active torsions:
REMARK  status: ('A' for Active; 'I' for Inactive)
REMARK    1  A    between atoms: C2_2  and  C3_4 
REMARK    2  A    between atoms: C4_5  and  C5_6 
REMARK    3  A    between atoms: C6_7  and  C8_9 
REMARK    4  A    between atoms: C8_9  and  O3_11 
REMARK    5  A    between atoms: C9_12  and  C10_13 
REMARK    6  A    between atoms: C30_35  and  O6_36 
ROOT
HETATM    1  C10 UNL     1      -0.432   6.746  13.071  1.00  0.00    -0.068 C 
HETATM    2  C11 UNL     1      -0.511   6.338  11.613  1.00  0.00     0.044 C 
HETATM    3  C12 UNL     1      -1.542   6.947  13.824  1.00  0.00    -0.001 C 
HETATM    4  C13 UNL     1      -1.569   7.486  15.246  1.00  0.00     0.157 C 
HETATM    5  O4  UNL     1      -0.605   7.909  15.865  1.00  0.00    -0.293 OA
HETATM    6  C14 UNL     1      -2.964   7.484  15.809  1.00  0.00     0.090 C 
HETATM    7  C15 UNL     1      -3.627   6.477  14.880  1.00  0.00     0.014 C 
HETATM    8  C16 UNL     1      -5.175   6.266  14.996  1.00  0.00    -0.034 C 
HETATM    9  C17 UNL     1      -5.352   5.269  16.175  1.00  0.00     0.016 C 
HETATM   10  C18 UNL     1      -5.976   7.543  15.324  1.00  0.00     0.017 C 
HETATM   11  C19 UNL     1      -7.489   7.309  15.342  1.00  0.00     0.080 C 
HETATM   12  C20 UNL     1      -8.026   6.562  14.131  1.00  0.00     0.135 C 
HETATM   13  O5  UNL     1      -9.123   6.881  13.668  1.00  0.00    -0.297 OA
HETATM   14  C21 UNL     1      -7.233   5.354  13.584  1.00  0.00     0.017 C 
HETATM   15  C22 UNL     1      -7.669   5.138  12.109  1.00  0.00     0.023 C 
HETATM   16  C23 UNL     1      -7.616   4.086  14.356  1.00  0.00     0.023 C 
HETATM   17  C24 UNL     1      -5.722   5.742  13.624  1.00  0.00     0.009 C 
HETATM   18  C25 UNL     1      -4.715   4.775  12.983  1.00  0.00     0.007 C 
HETATM   19  C26 UNL     1      -3.392   5.494  12.605  1.00  0.00     0.015 C 
HETATM   20  C27 UNL     1      -3.035   6.738  13.470  1.00  0.00    -0.008 C 
HETATM   21  C28 UNL     1      -3.483   8.059  12.800  1.00  0.00     0.021 C 
ENDROOT
BRANCH   1  22
HETATM   22  C9  UNL     1       1.026   6.933  13.510  1.00  0.00     0.026 C 
HETATM   23  C4  UNL     1       2.039   7.214  12.374  1.00  0.00     0.031 C 
HETATM   24  C3  UNL     1       3.258   7.759  13.139  1.00  0.00     0.092 C 
HETATM   25  C30 UNL     1       2.641   8.626  14.244  1.00  0.00     0.130 C 
HETATM   26  C29 UNL     1       1.302   7.974  14.611  1.00  0.00     0.042 C 
BRANCH  23  27
HETATM   27  C5  UNL     1       2.343   5.959  11.580  1.00  0.00    -0.007 C 
HETATM   28  C6  UNL     1       2.769   5.885  10.300  1.00  0.00     0.008 C 
HETATM   29  C7  UNL     1       3.031   7.045   9.385  1.00  0.00     0.055 C 
BRANCH  28  30
HETATM   30  C8  UNL     1       3.019   4.563   9.661  1.00  0.00     0.171 C 
HETATM   31  O2  UNL     1       3.604   4.390   8.606  1.00  0.00    -0.646 OA
BRANCH  30  32
HETATM   32  O3  UNL     1       2.515   3.520  10.343  1.00  0.00    -0.773 OA
HETATM   33  H10 UNL     1       2.777   2.751   9.798  1.00  0.00     0.167 HD
ENDBRANCH  30  32
ENDBRANCH  28  30
ENDBRANCH  23  27
BRANCH  24  34
HETATM   34  C2  UNL     1       4.236   8.529  12.260  1.00  0.00     0.130 C 
HETATM   35  C1  UNL     1       5.630   7.968  12.128  1.00  0.00     0.091 C 
HETATM   36  O1  UNL     1       3.899   9.516  11.602  1.00  0.00    -0.298 OA
ENDBRANCH  24  34
BRANCH  25  37
HETATM   37  O6  UNL     1       2.426   9.967  13.823  1.00  0.00    -0.395 OA
HETATM   38  H42 UNL     1       1.668   9.967  13.193  1.00  0.00     0.210 HD
ENDBRANCH  25  37
ENDBRANCH   1  22
TORSDOF 6
ENDMDL
MODEL 4
REMARK minimizedAffinity -8.96671009
REMARK  6 active torsions:
REMARK  status: ('A' for Active; 'I' for Inactive)
REMARK    1  A    between atoms: C2_2  and  C3_4 
REMARK    2  A    between atoms: C4_5  and  C5_6 
REMARK    3  A    between atoms: C6_7  and  C8_9 
REMARK    4  A    between atoms: C8_9  and  O3_11 
REMARK    5  A    between atoms: C9_12  and  C10_13 
REMARK    6  A    between atoms: C30_35  and  O6_36 
ROOT
HETATM    1  C10 UNL     1      -3.409   7.218  13.776  1.00  0.00    -0.068 C 
HETATM    2  C11 UNL     1      -4.449   7.913  12.919  1.00  0.00     0.044 C 
HETATM    3  C12 UNL     1      -2.531   7.910  14.546  1.00  0.00    -0.001 C 
HETATM    4  C13 UNL     1      -1.372   7.314  15.330  1.00  0.00     0.157 C 
HETATM    5  O4  UNL     1      -1.009   6.149  15.289  1.00  0.00    -0.293 OA
HETATM    6  C14 UNL     1      -0.669   8.360  16.151  1.00  0.00     0.090 C 
HETATM    7  C15 UNL     1      -1.751   9.428  16.209  1.00  0.00     0.014 C 
HETATM    8  C16 UNL     1      -1.396  10.813  16.852  1.00  0.00    -0.034 C 
HETATM    9  C17 UNL     1      -1.557  10.591  18.382  1.00  0.00     0.016 C 
HETATM   10  C18 UNL     1       0.046  11.294  16.587  1.00  0.00     0.017 C 
HETATM   11  C19 UNL     1       0.322  12.688  17.158  1.00  0.00     0.080 C 
HETATM   12  C20 UNL     1      -0.729  13.731  16.815  1.00  0.00     0.135 C 
HETATM   13  O5  UNL     1      -0.373  14.888  16.581  1.00  0.00    -0.297 OA
HETATM   14  C21 UNL     1      -2.223  13.337  16.874  1.00  0.00     0.017 C 
HETATM   15  C22 UNL     1      -3.008  14.347  15.992  1.00  0.00     0.023 C 
HETATM   16  C23 UNL     1      -2.745  13.492  18.307  1.00  0.00     0.023 C 
HETATM   17  C24 UNL     1      -2.345  11.909  16.258  1.00  0.00     0.009 C 
HETATM   18  C25 UNL     1      -3.755  11.336  16.047  1.00  0.00     0.007 C 
HETATM   19  C26 UNL     1      -3.762  10.216  14.972  1.00  0.00     0.015 C 
HETATM   20  C27 UNL     1      -2.427   9.431  14.812  1.00  0.00    -0.008 C 
HETATM   21  C28 UNL     1      -1.559   9.988  13.659  1.00  0.00     0.021 C 
ENDROOT
BRANCH   1  22
HETATM   22  C9  UNL     1      -3.477   5.696  13.596  1.00  0.00     0.026 C 
HETATM   23  C4  UNL     1      -4.852   5.131  13.166  1.00  0.00     0.031 C 
HETATM   24  C3  UNL     1      -4.494   3.718  12.672  1.00  0.00     0.092 C 
HETATM   25  C30 UNL     1      -3.156   3.910  11.947  1.00  0.00     0.130 C 
HETATM   26  C29 UNL     1      -2.428   5.049  12.673  1.00  0.00     0.042 C 
BRANCH  23  27
HETATM   27  C5  UNL     1      -5.836   5.130  14.319  1.00  0.00    -0.007 C 
HETATM   28  C6  UNL     1      -7.142   5.470  14.279  1.00  0.00     0.008 C 
HETATM   29  C7  UNL     1      -7.901   5.928  13.068  1.00  0.00     0.055 C 
BRANCH  28  30
HETATM   30  C8  UNL     1      -7.976   5.420  15.512  1.00  0.00     0.171 C 
HETATM   31  O2  UNL     1      -8.594   6.358  15.984  1.00  0.00    -0.646 OA
BRANCH  30  32
HETATM   32  O3  UNL     1      -7.989   4.220  16.116  1.00  0.00    -0.773 OA
HETATM   33  H10 UNL     1      -8.581   4.363  16.881  1.00  0.00     0.167 HD
ENDBRANCH  30  32
ENDBRANCH  28  30
ENDBRANCH  23  27
BRANCH  24  34
HETATM   34  C2  UNL     1      -5.564   3.092  11.785  1.00  0.00     0.130 C 
HETATM   35  C1  UNL     1      -5.344   3.158  10.294  1.00  0.00     0.091 C 
HETATM   36  O1  UNL     1      -6.526   2.474  12.244  1.00  0.00    -0.298 OA
ENDBRANCH  24  34
BRANCH  25  37
HETATM   37  O6  UNL     1      -3.327   4.242  10.575  1.00  0.00    -0.395 OA
HETATM   38  H42 UNL     1      -3.655   5.170  10.529  1.00  0.00     0.210 HD
ENDBRANCH  25  37
ENDBRANCH   1  22
TORSDOF 6
ENDMDL
MODEL 5
REMARK minimizedAffinity -8.89757252
REMARK  6 active torsions:
REMARK  status: ('A' for Active; 'I' for Inactive)
REMARK    1  A    between atoms: C2_2  and  C3_4 
REMARK    2  A    between atoms: C4_5  and  C5_6 
REMARK    3  A    between atoms: C6_7  and  C8_9 
REMARK    4  A    between atoms: C8_9  and  O3_11 
REMARK    5  A    between atoms: C9_12  and  C10_13 
REMARK    6  A    between atoms: C30_35  and  O6_36 
ROOT
HETATM    1  C10 UNL     1      -9.505   7.017  13.865  1.00  0.00    -0.068 C 
HETATM    2  C11 UNL     1      -9.584   6.414  12.475  1.00  0.00     0.044 C 
HETATM    3  C12 UNL     1     -10.526   7.733  14.399  1.00  0.00    -0.001 C 
HETATM    4  C13 UNL     1     -10.491   8.486  15.719  1.00  0.00     0.157 C 
HETATM    5  O4  UNL     1      -9.508   8.637  16.427  1.00  0.00    -0.293 OA
HETATM    6  C14 UNL     1     -11.832   9.085  16.047  1.00  0.00     0.090 C 
HETATM    7  C15 UNL     1     -12.729   8.236  15.157  1.00  0.00     0.014 C 
HETATM    8  C16 UNL     1     -14.245   8.620  15.048  1.00  0.00    -0.034 C 
HETATM    9  C17 UNL     1     -14.906   7.977  16.299  1.00  0.00     0.016 C 
HETATM   10  C18 UNL     1     -14.529  10.136  15.081  1.00  0.00     0.017 C 
HETATM   11  C19 UNL     1     -16.011  10.468  14.885  1.00  0.00     0.080 C 
HETATM   12  C20 UNL     1     -16.665   9.763  13.707  1.00  0.00     0.135 C 
HETATM   13  O5  UNL     1     -17.505  10.367  13.037  1.00  0.00    -0.297 OA
HETATM   14  C21 UNL     1     -16.338   8.274  13.449  1.00  0.00     0.017 C 
HETATM   15  C22 UNL     1     -16.671   7.973  11.963  1.00  0.00     0.023 C 
HETATM   16  C23 UNL     1     -17.252   7.386  14.303  1.00  0.00     0.023 C 
HETATM   17  C24 UNL     1     -14.806   8.094  13.683  1.00  0.00     0.009 C 
HETATM   18  C25 UNL     1     -14.182   6.734  13.338  1.00  0.00     0.007 C 
HETATM   19  C26 UNL     1     -12.654   6.850  13.091  1.00  0.00     0.015 C 
HETATM   20  C27 UNL     1     -11.941   8.015  13.839  1.00  0.00    -0.008 C 
HETATM   21  C28 UNL     1     -11.783   9.268  12.946  1.00  0.00     0.021 C 
ENDROOT
BRANCH   1  22
HETATM   22  C9  UNL     1      -8.138   6.742  14.505  1.00  0.00     0.026 C 
HETATM   23  C4  UNL     1      -6.958   6.562  13.519  1.00  0.00     0.031 C 
HETATM   24  C3  UNL     1      -5.730   6.733  14.431  1.00  0.00     0.092 C 
HETATM   25  C30 UNL     1      -6.142   7.853  15.396  1.00  0.00     0.130 C 
HETATM   26  C29 UNL     1      -7.658   7.724  15.590  1.00  0.00     0.042 C 
BRANCH  23  27
HETATM   27  C5  UNL     1      -7.010   5.212  12.833  1.00  0.00    -0.007 C 
HETATM   28  C6  UNL     1      -7.180   4.005  13.415  1.00  0.00     0.008 C 
HETATM   29  C7  UNL     1      -7.353   3.747  14.883  1.00  0.00     0.055 C 
BRANCH  28  30
HETATM   30  C8  UNL     1      -7.203   2.764  12.592  1.00  0.00     0.171 C 
HETATM   31  O2  UNL     1      -6.311   2.396  11.846  1.00  0.00    -0.646 OA
BRANCH  30  32
HETATM   32  O3  UNL     1      -8.333   2.048  12.712  1.00  0.00    -0.773 OA
HETATM   33  H10 UNL     1      -8.173   1.280  12.127  1.00  0.00     0.167 HD
ENDBRANCH  30  32
ENDBRANCH  28  30
ENDBRANCH  23  27
BRANCH  24  34
HETATM   34  C2  UNL     1      -4.446   7.046  13.674  1.00  0.00     0.130 C 
HETATM   35  C1  UNL     1      -3.322   6.045  13.782  1.00  0.00     0.091 C 
HETATM   36  O1  UNL     1      -4.340   8.020  12.925  1.00  0.00    -0.298 OA
ENDBRANCH  24  34
BRANCH  25  37
HETATM   37  O6  UNL     1      -5.826   9.144  14.891  1.00  0.00    -0.395 OA
HETATM   38  H42 UNL     1      -6.454   9.342  14.157  1.00  0.00     0.210 HD
ENDBRANCH  25  37
ENDBRANCH   1  22
TORSDOF 6
ENDMDL
MODEL 6
REMARK minimizedAffinity -8.85678291
REMARK  6 active torsions:
REMARK  status: ('A' for Active; 'I' for Inactive)
REMARK    1  A    between atoms: C2_2  and  C3_4 
REMARK    2  A    between atoms: C4_5  and  C5_6 
REMARK    3  A    between atoms: C6_7  and  C8_9 
REMARK    4  A    between atoms: C8_9  and  O3_11 
REMARK    5  A    between atoms: C9_12  and  C10_13 
REMARK    6  A    between atoms: C30_35  and  O6_36 
ROOT
HETATM    1  C10 UNL     1      -2.317   8.017  13.563  1.00  0.00    -0.068 C 
HETATM    2  C11 UNL     1      -3.293   8.486  12.502  1.00  0.00     0.044 C 
HETATM    3  C12 UNL     1      -1.141   7.419  13.247  1.00  0.00    -0.001 C 
HETATM    4  C13 UNL     1      -0.164   6.796  14.232  1.00  0.00     0.157 C 
HETATM    5  O4  UNL     1      -0.354   6.655  15.430  1.00  0.00    -0.293 OA
HETATM    6  C14 UNL     1       1.083   6.314  13.541  1.00  0.00     0.090 C 
HETATM    7  C15 UNL     1       1.008   7.126  12.256  1.00  0.00     0.014 C 
HETATM    8  C16 UNL     1       2.051   6.827  11.126  1.00  0.00    -0.034 C 
HETATM    9  C17 UNL     1       3.319   7.626  11.537  1.00  0.00     0.016 C 
HETATM   10  C18 UNL     1       2.445   5.341  10.991  1.00  0.00     0.017 C 
HETATM   11  C19 UNL     1       3.398   5.082   9.821  1.00  0.00     0.080 C 
HETATM   12  C20 UNL     1       2.966   5.709   8.504  1.00  0.00     0.135 C 
HETATM   13  O5  UNL     1       3.165   5.094   7.454  1.00  0.00    -0.297 OA
HETATM   14  C21 UNL     1       2.390   7.142   8.510  1.00  0.00     0.017 C 
HETATM   15  C22 UNL     1       1.560   7.318   7.209  1.00  0.00     0.023 C 
HETATM   16  C23 UNL     1       3.533   8.163   8.454  1.00  0.00     0.023 C 
HETATM   17  C24 UNL     1       1.443   7.251   9.746  1.00  0.00     0.009 C 
HETATM   18  C25 UNL     1       0.609   8.531   9.901  1.00  0.00     0.007 C 
HETATM   19  C26 UNL     1      -0.635   8.299  10.799  1.00  0.00     0.015 C 
HETATM   20  C27 UNL     1      -0.493   7.171  11.863  1.00  0.00    -0.008 C 
HETATM   21  C28 UNL     1      -1.086   5.829  11.371  1.00  0.00     0.021 C 
ENDROOT
BRANCH   1  22
HETATM   22  C9  UNL     1      -2.874   8.269  14.970  1.00  0.00     0.026 C 
HETATM   23  C4  UNL     1      -2.399   9.571  15.658  1.00  0.00     0.031 C 
HETATM   24  C3  UNL     1      -3.419   9.738  16.799  1.00  0.00     0.092 C 
HETATM   25  C30 UNL     1      -4.748   9.297  16.172  1.00  0.00     0.130 C 
HETATM   26  C29 UNL     1      -4.404   8.214  15.142  1.00  0.00     0.042 C 
BRANCH  23  27
HETATM   27  C5  UNL     1      -0.970   9.450  16.147  1.00  0.00    -0.007 C 
HETATM   28  C6  UNL     1       0.044  10.316  15.932  1.00  0.00     0.008 C 
HETATM   29  C7  UNL     1      -0.036  11.596  15.152  1.00  0.00     0.055 C 
BRANCH  28  30
HETATM   30  C8  UNL     1       1.401  10.046  16.482  1.00  0.00     0.171 C 
HETATM   31  O2  UNL     1       2.264  10.885  16.674  1.00  0.00    -0.646 OA
BRANCH  30  32
HETATM   32  O3  UNL     1       1.637   8.749  16.747  1.00  0.00    -0.773 OA
HETATM   33  H10 UNL     1       2.547   8.758  17.104  1.00  0.00     0.167 HD
ENDBRANCH  30  32
ENDBRANCH  28  30
ENDBRANCH  23  27
BRANCH  24  34
HETATM   34  C2  UNL     1      -3.473  11.151  17.367  1.00  0.00     0.130 C 
HETATM   35  C1  UNL     1      -3.440  11.290  18.869  1.00  0.00     0.091 C 
HETATM   36  O1  UNL     1      -3.451  12.154  16.650  1.00  0.00    -0.298 OA
ENDBRANCH  24  34
BRANCH  25  37
HETATM   37  O6  UNL     1      -5.428  10.371  15.535  1.00  0.00    -0.395 OA
HETATM   38  H42 UNL     1      -4.939  10.589  14.708  1.00  0.00     0.210 HD
ENDBRANCH  25  37
ENDBRANCH   1  22
TORSDOF 6
ENDMDL
MODEL 7
REMARK minimizedAffinity -8.79975224
REMARK  6 active torsions:
REMARK  status: ('A' for Active; 'I' for Inactive)
REMARK    1  A    between atoms: C2_2  and  C3_4 
REMARK    2  A    between atoms: C4_5  and  C5_6 
REMARK    3  A    between atoms: C6_7  and  C8_9 
REMARK    4  A    between atoms: C8_9  and  O3_11 
REMARK    5  A    between atoms: C9_12  and  C10_13 
REMARK    6  A    between atoms: C30_35  and  O6_36 
ROOT
HETATM    1  C10 UNL     1      -2.619   6.573  13.203  1.00  0.00    -0.068 C 
HETATM    2  C11 UNL     1      -3.779   7.443  12.759  1.00  0.00     0.044 C 
HETATM    3  C12 UNL     1      -1.432   7.100  13.593  1.00  0.00    -0.001 C 
HETATM    4  C13 UNL     1      -0.173   6.313  13.924  1.00  0.00     0.157 C 
HETATM    5  O4  UNL     1      -0.028   5.109  13.781  1.00  0.00    -0.293 OA
HETATM    6  C14 UNL     1       0.926   7.215  14.417  1.00  0.00     0.090 C 
HETATM    7  C15 UNL     1       0.109   8.429  14.835  1.00  0.00     0.014 C 
HETATM    8  C16 UNL     1       0.875   9.723  15.279  1.00  0.00    -0.034 C 
HETATM    9  C17 UNL     1       1.238   9.475  16.770  1.00  0.00     0.016 C 
HETATM   10  C18 UNL     1       2.182   9.994  14.506  1.00  0.00     0.017 C 
HETATM   11  C19 UNL     1       2.850  11.311  14.911  1.00  0.00     0.080 C 
HETATM   12  C20 UNL     1       1.915  12.510  14.944  1.00  0.00     0.135 C 
HETATM   13  O5  UNL     1       2.335  13.608  14.574  1.00  0.00    -0.297 OA
HETATM   14  C21 UNL     1       0.500  12.339  15.541  1.00  0.00     0.017 C 
HETATM   15  C22 UNL     1      -0.386  13.483  14.977  1.00  0.00     0.023 C 
HETATM   16  C23 UNL     1       0.552  12.521  17.063  1.00  0.00     0.023 C 
HETATM   17  C24 UNL     1      -0.047  10.967  15.040  1.00  0.00     0.009 C 
HETATM   18  C25 UNL     1      -1.509  10.617  15.359  1.00  0.00     0.007 C 
HETATM   19  C26 UNL     1      -2.068   9.548  14.382  1.00  0.00     0.015 C 
HETATM   20  C27 UNL     1      -1.012   8.579  13.773  1.00  0.00    -0.008 C 
HETATM   21  C28 UNL     1      -0.538   9.041  12.374  1.00  0.00     0.021 C 
ENDROOT
BRANCH   1  22
HETATM   22  C9  UNL     1      -2.975   5.085  13.091  1.00  0.00     0.026 C 
HETATM   23  C4  UNL     1      -4.475   4.767  12.878  1.00  0.00     0.031 C 
HETATM   24  C3  UNL     1      -4.442   3.307  12.393  1.00  0.00     0.092 C 
HETATM   25  C30 UNL     1      -3.208   3.250  11.482  1.00  0.00     0.130 C 
HETATM   26  C29 UNL     1      -2.198   4.251  12.056  1.00  0.00     0.042 C 
BRANCH  23  27
HETATM   27  C5  UNL     1      -5.269   4.955  14.155  1.00  0.00    -0.007 C 
HETATM   28  C6  UNL     1      -6.526   5.433  14.274  1.00  0.00     0.008 C 
HETATM   29  C7  UNL     1      -7.411   5.884  13.149  1.00  0.00     0.055 C 
BRANCH  28  30
HETATM   30  C8  UNL     1      -7.165   5.561  15.613  1.00  0.00     0.171 C 
HETATM   31  O2  UNL     1      -7.008   6.493  16.383  1.00  0.00    -0.646 OA
BRANCH  30  32
HETATM   32  O3  UNL     1      -7.949   4.522  15.947  1.00  0.00    -0.773 OA
HETATM   33  H10 UNL     1      -8.288   4.775  16.830  1.00  0.00     0.167 HD
ENDBRANCH  30  32
ENDBRANCH  28  30
ENDBRANCH  23  27
BRANCH  24  34
HETATM   34  C2  UNL     1      -5.720   2.869  11.687  1.00  0.00     0.130 C 
HETATM   35  C1  UNL     1      -5.730   2.938  10.180  1.00  0.00     0.091 C 
HETATM   36  O1  UNL     1      -6.680   2.390  12.293  1.00  0.00    -0.298 OA
ENDBRANCH  24  34
BRANCH  25  37
HETATM   37  O6  UNL     1      -3.514   3.589  10.136  1.00  0.00    -0.395 OA
HETATM   38  H42 UNL     1      -3.680   4.560  10.100  1.00  0.00     0.210 HD
ENDBRANCH  25  37
ENDBRANCH   1  22
TORSDOF 6
ENDMDL
MODEL 8
REMARK minimizedAffinity -8.58274555
REMARK  6 active torsions:
REMARK  status: ('A' for Active; 'I' for Inactive)
REMARK    1  A    between atoms: C2_2  and  C3_4 
REMARK    2  A    between atoms: C4_5  and  C5_6 
REMARK    3  A    between atoms: C6_7  and  C8_9 
REMARK    4  A    between atoms: C8_9  and  O3_11 
REMARK    5  A    between atoms: C9_12  and  C10_13 
REMARK    6  A    between atoms: C30_35  and  O6_36 
ROOT
HETATM    1  C10 UNL     1      -3.279   4.700  12.398  1.00  0.00    -0.068 C 
HETATM    2  C11 UNL     1      -3.451   3.900  11.122  1.00  0.00     0.044 C 
HETATM    3  C12 UNL     1      -2.105   5.299  12.721  1.00  0.00    -0.001 C 
HETATM    4  C13 UNL     1      -1.795   6.004  14.032  1.00  0.00     0.157 C 
HETATM    5  O4  UNL     1      -2.522   6.036  15.013  1.00  0.00    -0.293 OA
HETATM    6  C14 UNL     1      -0.432   6.640  14.006  1.00  0.00     0.090 C 
HETATM    7  C15 UNL     1      -0.199   6.714  12.504  1.00  0.00     0.014 C 
HETATM    8  C16 UNL     1       1.207   7.179  11.992  1.00  0.00    -0.034 C 
HETATM    9  C17 UNL     1       1.153   8.732  12.042  1.00  0.00     0.016 C 
HETATM   10  C18 UNL     1       2.394   6.712  12.859  1.00  0.00     0.017 C 
HETATM   11  C19 UNL     1       3.752   7.114  12.275  1.00  0.00     0.080 C 
HETATM   12  C20 UNL     1       3.926   6.791  10.800  1.00  0.00     0.135 C 
HETATM   13  O5  UNL     1       5.026   6.410  10.394  1.00  0.00    -0.297 OA
HETATM   14  C21 UNL     1       2.749   7.051   9.832  1.00  0.00     0.017 C 
HETATM   15  C22 UNL     1       2.974   6.169   8.574  1.00  0.00     0.023 C 
HETATM   16  C23 UNL     1       2.772   8.511   9.366  1.00  0.00     0.023 C 
HETATM   17  C24 UNL     1       1.447   6.591  10.559  1.00  0.00     0.009 C 
HETATM   18  C25 UNL     1       0.138   6.592   9.756  1.00  0.00     0.007 C 
HETATM   19  C26 UNL     1      -0.916   5.636  10.378  1.00  0.00     0.015 C 
HETATM   20  C27 UNL     1      -0.789   5.407  11.913  1.00  0.00    -0.008 C 
HETATM   21  C28 UNL     1      -0.001   4.117  12.244  1.00  0.00     0.021 C 
ENDROOT
BRANCH   1  22
HETATM   22  C9  UNL     1      -4.562   4.675  13.238  1.00  0.00     0.026 C 
HETATM   23  C4  UNL     1      -5.606   5.768  12.906  1.00  0.00     0.031 C 
HETATM   24  C3  UNL     1      -6.882   5.230  13.577  1.00  0.00     0.092 C 
HETATM   25  C30 UNL     1      -6.818   3.717  13.327  1.00  0.00     0.130 C 
HETATM   26  C29 UNL     1      -5.331   3.342  13.310  1.00  0.00     0.042 C 
BRANCH  23  27
HETATM   27  C5  UNL     1      -5.177   7.123  13.435  1.00  0.00    -0.007 C 
HETATM   28  C6  UNL     1      -5.246   7.560  14.711  1.00  0.00     0.008 C 
HETATM   29  C7  UNL     1      -5.770   6.787  15.886  1.00  0.00     0.055 C 
BRANCH  28  30
HETATM   30  C8  UNL     1      -4.785   8.930  15.067  1.00  0.00     0.171 C 
HETATM   31  O2  UNL     1      -3.625   9.258  15.252  1.00  0.00    -0.646 OA
BRANCH  30  32
HETATM   32  O3  UNL     1      -5.778   9.826  15.201  1.00  0.00    -0.773 OA
HETATM   33  H10 UNL     1      -5.303  10.653  15.418  1.00  0.00     0.167 HD
ENDBRANCH  30  32
ENDBRANCH  28  30
ENDBRANCH  23  27
BRANCH  24  34
HETATM   34  C2  UNL     1      -8.163   5.864  13.049  1.00  0.00     0.130 C 
HETATM   35  C1  UNL     1      -9.002   6.641  14.034  1.00  0.00     0.091 C 
HETATM   36  O1  UNL     1      -8.473   5.835  11.856  1.00  0.00    -0.298 OA
ENDBRANCH  24  34
BRANCH  25  37
HETATM   37  O6  UNL     1      -7.425   3.347  12.095  1.00  0.00    -0.395 OA
HETATM   38  H42 UNL     1      -6.831   3.643  11.366  1.00  0.00     0.210 HD
ENDBRANCH  25  37
ENDBRANCH   1  22
TORSDOF 6
ENDMDL
MODEL 9
REMARK minimizedAffinity -8.40591049
REMARK  6 active torsions:
REMARK  status: ('A' for Active; 'I' for Inactive)
REMARK    1  A    between atoms: C2_2  and  C3_4 
REMARK    2  A    between atoms: C4_5  and  C5_6 
REMARK    3  A    between atoms: C6_7  and  C8_9 
REMARK    4  A    between atoms: C8_9  and  O3_11 
REMARK    5  A    between atoms: C9_12  and  C10_13 
REMARK    6  A    between atoms: C30_35  and  O6_36 
ROOT
HETATM    1  C10 UNL     1      -0.613   8.071  13.646  1.00  0.00    -0.068 C 
HETATM    2  C11 UNL     1      -0.760   9.580  13.646  1.00  0.00     0.044 C 
HETATM    3  C12 UNL     1      -1.607   7.251  14.070  1.00  0.00    -0.001 C 
HETATM    4  C13 UNL     1      -1.507   5.742  14.235  1.00  0.00     0.157 C 
HETATM    5  O4  UNL     1      -0.490   5.078  14.110  1.00  0.00    -0.293 OA
HETATM    6  C14 UNL     1      -2.831   5.143  14.626  1.00  0.00     0.090 C 
HETATM    7  C15 UNL     1      -3.770   6.256  14.185  1.00  0.00     0.014 C 
HETATM    8  C16 UNL     1      -5.289   6.135  14.550  1.00  0.00    -0.034 C 
HETATM    9  C17 UNL     1      -5.888   5.216  13.449  1.00  0.00     0.016 C 
HETATM   10  C18 UNL     1      -5.572   5.486  15.921  1.00  0.00     0.017 C 
HETATM   11  C19 UNL     1      -7.062   5.467  16.274  1.00  0.00     0.080 C 
HETATM   12  C20 UNL     1      -7.773   6.798  16.084  1.00  0.00     0.135 C 
HETATM   13  O5  UNL     1      -8.645   7.132  16.888  1.00  0.00    -0.297 OA
HETATM   14  C21 UNL     1      -7.459   7.642  14.829  1.00  0.00     0.017 C 
HETATM   15  C22 UNL     1      -7.864   9.109  15.138  1.00  0.00     0.023 C 
HETATM   16  C23 UNL     1      -8.329   7.174  13.656  1.00  0.00     0.023 C 
HETATM   17  C24 UNL     1      -5.917   7.570  14.601  1.00  0.00     0.009 C 
HETATM   18  C25 UNL     1      -5.310   8.456  13.503  1.00  0.00     0.007 C 
HETATM   19  C26 UNL     1      -3.796   8.705  13.739  1.00  0.00     0.015 C 
HETATM   20  C27 UNL     1      -3.048   7.587  14.523  1.00  0.00    -0.008 C 
HETATM   21  C28 UNL     1      -2.935   7.912  16.032  1.00  0.00     0.021 C 
ENDROOT
BRANCH   1  22
HETATM   22  C9  UNL     1       0.784   7.657  13.167  1.00  0.00     0.026 C 
HETATM   23  C4  UNL     1       1.547   8.710  12.328  1.00  0.00     0.031 C 
HETATM   24  C3  UNL     1       2.996   8.191  12.375  1.00  0.00     0.092 C 
HETATM   25  C30 UNL     1       3.150   7.666  13.809  1.00  0.00     0.130 C 
HETATM   26  C29 UNL     1       1.771   7.145  14.233  1.00  0.00     0.042 C 
BRANCH  23  27
HETATM   27  C5  UNL     1       0.992   8.804  10.920  1.00  0.00    -0.007 C 
HETATM   28  C6  UNL     1       1.208   7.949   9.897  1.00  0.00     0.008 C 
HETATM   29  C7  UNL     1       2.054   6.711   9.942  1.00  0.00     0.055 C 
BRANCH  28  30
HETATM   30  C8  UNL     1       0.588   8.191   8.565  1.00  0.00     0.171 C 
HETATM   31  O2  UNL     1       0.952   7.687   7.516  1.00  0.00    -0.646 OA
BRANCH  30  32
HETATM   32  O3  UNL     1      -0.438   9.059   8.587  1.00  0.00    -0.773 OA
HETATM   33  H10 UNL     1      -0.725   9.087   7.652  1.00  0.00     0.167 HD
ENDBRANCH  30  32
ENDBRANCH  28  30
ENDBRANCH  23  27
BRANCH  24  34
HETATM   34  C2  UNL     1       4.034   9.247  12.016  1.00  0.00     0.130 C 
HETATM   35  C1  UNL     1       4.966   8.933  10.872  1.00  0.00     0.091 C 
HETATM   36  O1  UNL     1       4.069  10.353  12.560  1.00  0.00    -0.298 OA
ENDBRANCH  24  34
BRANCH  25  37
HETATM   37  O6  UNL     1       3.584   8.677  14.711  1.00  0.00    -0.395 OA
HETATM   38  H42 UNL     1       2.828   9.292  14.859  1.00  0.00     0.210 HD
ENDBRANCH  25  37
ENDBRANCH   1  22
TORSDOF 6
ENDMDL
