MODEL 1
REMARK minimizedAffinity -6.58735418
REMARK CNNscore 0.603013873
REMARK CNNaffinity 5.99250793
REMARK  2 active torsions:
REMARK  status: ('A' for Active; 'I' for Inactive)
REMARK    1  A    between atoms: C21_27  and  C22_28 
REMARK    2  A    between atoms: C22_28  and  O7_30 
ROOT
HETATM    1  C1  UNL     1      13.193  -0.923   3.392  1.00  0.00     0.043 C 
HETATM    2  C2  UNL     1      14.592  -1.457   3.220  1.00  0.00    -0.076 C 
HETATM    3  C3  UNL     1      15.056  -1.745   1.987  1.00  0.00     0.084 C 
HETATM    4  C4  UNL     1      16.382  -2.328   1.677  1.00  0.00     0.283 C 
HETATM    5  O1  UNL     1      17.311  -2.472   2.452  1.00  0.00    -0.260 OA
HETATM    6  O2  UNL     1      16.358  -2.715   0.375  1.00  0.00    -0.317 OA
HETATM    7  C5  UNL     1      17.542  -3.352  -0.121  1.00  0.00     0.195 C 
HETATM    8  C6  UNL     1      17.236  -4.568  -1.063  1.00  0.00     0.053 C 
HETATM    9  C7  UNL     1      16.196  -4.122  -2.167  1.00  0.00     0.159 C 
HETATM   10  C8  UNL     1      16.770  -3.229  -3.237  1.00  0.00     0.011 C 
HETATM   11  C9  UNL     1      18.064  -3.285  -3.603  1.00  0.00    -0.054 C 
HETATM   12  C10 UNL     1      18.609  -2.404  -4.692  1.00  0.00     0.046 C 
HETATM   13  C11 UNL     1      18.994  -4.262  -3.011  1.00  0.00     0.180 A 
HETATM   14  O3  UNL     1      18.636  -5.650  -2.904  1.00  0.00    -0.370 OA
HETATM   15  C12 UNL     1      18.606  -4.899  -1.691  1.00  0.00     0.170 A 
HETATM   16  O4  UNL     1      15.568  -5.211  -2.869  1.00  0.00    -0.372 OA
HETATM   17  C13 UNL     1      15.139  -6.308  -2.059  1.00  0.00     0.162 C 
HETATM   18  C14 UNL     1      14.224  -5.844  -0.922  1.00  0.00     0.068 C 
HETATM   19  C15 UNL     1      15.182  -5.568   0.264  1.00  0.00     0.147 C 
HETATM   20  O5  UNL     1      14.867  -6.491   1.330  1.00  0.00    -0.312 OA
HETATM   21  C16 UNL     1      13.840  -6.139   2.147  1.00  0.00     0.283 C 
HETATM   22  O6  UNL     1      13.204  -5.101   2.093  1.00  0.00    -0.260 OA
HETATM   23  C17 UNL     1      13.626  -7.269   3.081  1.00  0.00     0.082 C 
HETATM   24  C18 UNL     1      12.815  -7.283   4.148  1.00  0.00     0.006 C 
HETATM   25  C19 UNL     1      12.017  -6.200   4.668  1.00  0.00    -0.001 C 
HETATM   26  C20 UNL     1      12.469  -5.153   5.377  1.00  0.00     0.007 C 
HETATM   27  C21 UNL     1      13.889  -4.833   5.765  1.00  0.00     0.172 C 
HETATM   28  O8  UNL     1      14.051  -3.442   5.447  1.00  0.00    -0.379 OA
HETATM   29  C24 UNL     1      15.363  -3.102   4.999  1.00  0.00     0.173 C 
HETATM   30  C25 UNL     1      15.364  -1.650   4.513  1.00  0.00     0.060 C 
HETATM   31  C26 UNL     1      16.646  -5.834  -0.276  1.00  0.00     0.034 C 
HETATM   32  C27 UNL     1      17.576  -6.348   0.833  1.00  0.00     0.022 C 
HETATM   33  C28 UNL     1      16.322  -6.859  -1.342  1.00  0.00     0.119 A 
HETATM   34  C29 UNL     1      17.202  -7.972  -1.859  1.00  0.00     0.210 A 
HETATM   35  O9  UNL     1      16.170  -8.216  -0.893  1.00  0.00    -0.371 OA
ENDROOT
BRANCH  27  36
HETATM   36  C22 UNL     1      14.177  -5.063   7.278  1.00  0.00     0.146 C 
HETATM   37  C23 UNL     1      12.930  -5.039   8.155  1.00  0.00     0.042 C 
BRANCH  36  38
HETATM   38  O7  UNL     1      14.805  -6.340   7.489  1.00  0.00    -0.393 OA
HETATM   39  H27 UNL     1      14.227  -7.024   7.109  1.00  0.00     0.210 HD
ENDBRANCH  36  38
ENDBRANCH  27  36
TORSDOF 2
ENDMDL
MODEL 2
REMARK minimizedAffinity -7.33192253
REMARK CNNscore 0.507131636
REMARK CNNaffinity 6.7828393
REMARK  2 active torsions:
REMARK  status: ('A' for Active; 'I' for Inactive)
REMARK    1  A    between atoms: C21_27  and  C22_28 
REMARK    2  A    between atoms: C22_28  and  O7_30 
ROOT
HETATM    1  C1  UNL     1      -4.048   1.303  12.592  1.00  0.00     0.043 C 
HETATM    2  C2  UNL     1      -3.815   2.496  11.702  1.00  0.00    -0.076 C 
HETATM    3  C3  UNL     1      -2.624   3.127  11.720  1.00  0.00     0.084 C 
HETATM    4  C4  UNL     1      -2.277   4.342  10.946  1.00  0.00     0.283 C 
HETATM    5  O1  UNL     1      -2.937   4.848  10.055  1.00  0.00    -0.260 OA
HETATM    6  O2  UNL     1      -1.104   4.816  11.441  1.00  0.00    -0.317 OA
HETATM    7  C5  UNL     1      -0.608   6.024  10.855  1.00  0.00     0.195 C 
HETATM    8  C6  UNL     1       0.001   7.014  11.909  1.00  0.00     0.053 C 
HETATM    9  C7  UNL     1       1.030   6.233  12.821  1.00  0.00     0.159 C 
HETATM   10  C8  UNL     1       2.333   5.898  12.141  1.00  0.00     0.011 C 
HETATM   11  C9  UNL     1       2.845   6.655  11.152  1.00  0.00    -0.054 C 
HETATM   12  C10 UNL     1       4.159   6.318  10.508  1.00  0.00     0.046 C 
HETATM   13  C11 UNL     1       2.181   7.892  10.704  1.00  0.00     0.180 A 
HETATM   14  O3  UNL     1       1.731   8.873  11.652  1.00  0.00    -0.370 OA
HETATM   15  C12 UNL     1       0.715   8.075  11.046  1.00  0.00     0.170 A 
HETATM   16  O4  UNL     1       1.392   6.920  14.033  1.00  0.00    -0.372 OA
HETATM   17  C13 UNL     1       0.315   7.533  14.746  1.00  0.00     0.162 C 
HETATM   18  C14 UNL     1      -0.805   6.532  15.046  1.00  0.00     0.068 C 
HETATM   19  C15 UNL     1      -1.768   6.646  13.837  1.00  0.00     0.147 C 
HETATM   20  O5  UNL     1      -3.040   7.140  14.313  1.00  0.00    -0.312 OA
HETATM   21  C16 UNL     1      -3.888   6.215  14.832  1.00  0.00     0.283 C 
HETATM   22  O6  UNL     1      -3.694   5.013  14.883  1.00  0.00    -0.260 OA
HETATM   23  C17 UNL     1      -5.064   6.952  15.350  1.00  0.00     0.082 C 
HETATM   24  C18 UNL     1      -6.205   6.418  15.808  1.00  0.00     0.006 C 
HETATM   25  C19 UNL     1      -6.578   5.026  15.847  1.00  0.00    -0.001 C 
HETATM   26  C20 UNL     1      -6.978   4.283  14.802  1.00  0.00     0.007 C 
HETATM   27  C21 UNL     1      -7.100   4.695  13.359  1.00  0.00     0.172 C 
HETATM   28  O8  UNL     1      -6.470   3.635  12.622  1.00  0.00    -0.379 OA
HETATM   29  C24 UNL     1      -5.792   4.075  11.445  1.00  0.00     0.173 C 
HETATM   30  C25 UNL     1      -5.007   2.900  10.853  1.00  0.00     0.060 C 
HETATM   31  C26 UNL     1      -1.111   7.690  12.844  1.00  0.00     0.034 C 
HETATM   32  C27 UNL     1      -2.174   8.472  12.057  1.00  0.00     0.022 C 
HETATM   33  C28 UNL     1      -0.344   8.523  13.849  1.00  0.00     0.119 A 
HETATM   34  C29 UNL     1       0.031   9.982  13.754  1.00  0.00     0.210 A 
HETATM   35  O9  UNL     1      -1.092   9.543  14.532  1.00  0.00    -0.371 OA
ENDROOT
BRANCH  27  36
HETATM   36  C22 UNL     1      -8.575   4.856  12.889  1.00  0.00     0.146 C 
HETATM   37  C23 UNL     1      -8.729   5.662  11.604  1.00  0.00     0.042 C 
BRANCH  36  38
HETATM   38  O7  UNL     1      -9.177   3.573  12.646  1.00  0.00    -0.393 OA
HETATM   39  H27 UNL     1      -8.626   3.103  11.997  1.00  0.00     0.210 HD
ENDBRANCH  36  38
ENDBRANCH  27  36
TORSDOF 2
ENDMDL
MODEL 3
REMARK minimizedAffinity -6.39687538
REMARK CNNscore 0.479387224
REMARK CNNaffinity 5.54724169
REMARK  2 active torsions:
REMARK  status: ('A' for Active; 'I' for Inactive)
REMARK    1  A    between atoms: C21_27  and  C22_28 
REMARK    2  A    between atoms: C22_28  and  O7_30 
ROOT
HETATM    1  C1  UNL     1       3.909  20.630   3.004  1.00  0.00     0.043 C 
HETATM    2  C2  UNL     1       3.030  19.983   1.965  1.00  0.00    -0.076 C 
HETATM    3  C3  UNL     1       1.866  19.408   2.331  1.00  0.00     0.084 C 
HETATM    4  C4  UNL     1       0.937  18.688   1.429  1.00  0.00     0.283 C 
HETATM    5  O1  UNL     1       0.987  18.654   0.212  1.00  0.00    -0.260 OA
HETATM    6  O2  UNL     1       0.041  18.033   2.213  1.00  0.00    -0.317 OA
HETATM    7  C5  UNL     1      -0.931  17.230   1.533  1.00  0.00     0.195 C 
HETATM    8  C6  UNL     1      -1.207  15.862   2.249  1.00  0.00     0.053 C 
HETATM    9  C7  UNL     1      -1.502  16.127   3.780  1.00  0.00     0.159 C 
HETATM   10  C8  UNL     1      -2.854  16.731   4.057  1.00  0.00     0.011 C 
HETATM   11  C9  UNL     1      -3.917  16.515   3.258  1.00  0.00    -0.054 C 
HETATM   12  C10 UNL     1      -5.263  17.105   3.569  1.00  0.00     0.046 C 
HETATM   13  C11 UNL     1      -3.833  15.630   2.084  1.00  0.00     0.180 A 
HETATM   14  O3  UNL     1      -3.243  14.323   2.185  1.00  0.00    -0.370 OA
HETATM   15  C12 UNL     1      -2.457  15.317   1.528  1.00  0.00     0.170 A 
HETATM   16  O4  UNL     1      -1.424  14.956   4.613  1.00  0.00    -0.372 OA
HETATM   17  C13 UNL     1      -0.315  14.088   4.365  1.00  0.00     0.162 C 
HETATM   18  C14 UNL     1       1.016  14.843   4.426  1.00  0.00     0.068 C 
HETATM   19  C15 UNL     1       1.273  15.305   2.970  1.00  0.00     0.147 C 
HETATM   20  O5  UNL     1       2.470  14.654   2.489  1.00  0.00    -0.312 OA
HETATM   21  C16 UNL     1       3.650  15.238   2.826  1.00  0.00     0.283 C 
HETATM   22  O6  UNL     1       3.782  16.279   3.445  1.00  0.00    -0.260 OA
HETATM   23  C17 UNL     1       4.727  14.351   2.330  1.00  0.00     0.082 C 
HETATM   24  C18 UNL     1       6.040  14.619   2.314  1.00  0.00     0.006 C 
HETATM   25  C19 UNL     1       6.700  15.837   2.712  1.00  0.00    -0.001 C 
HETATM   26  C20 UNL     1       6.745  16.980   2.010  1.00  0.00     0.007 C 
HETATM   27  C21 UNL     1       6.102  17.284   0.682  1.00  0.00     0.172 C 
HETATM   28  O8  UNL     1       5.471  18.561   0.864  1.00  0.00    -0.379 OA
HETATM   29  C24 UNL     1       4.253  18.712   0.134  1.00  0.00     0.173 C 
HETATM   30  C25 UNL     1       3.580  20.023   0.551  1.00  0.00     0.060 C 
HETATM   31  C26 UNL     1       0.018  14.835   2.127  1.00  0.00     0.034 C 
HETATM   32  C27 UNL     1       0.398  14.512   0.674  1.00  0.00     0.022 C 
HETATM   33  C28 UNL     1      -0.382  13.628   2.949  1.00  0.00     0.119 A 
HETATM   34  C29 UNL     1      -1.084  12.377   2.482  1.00  0.00     0.210 A 
HETATM   35  O9  UNL     1       0.336  12.412   2.682  1.00  0.00    -0.371 OA
ENDROOT
BRANCH  27  36
HETATM   36  C22 UNL     1       7.124  17.365  -0.490  1.00  0.00     0.146 C 
HETATM   37  C23 UNL     1       7.816  18.719  -0.612  1.00  0.00     0.042 C 
BRANCH  36  38
HETATM   38  O7  UNL     1       8.163  16.384  -0.330  1.00  0.00    -0.393 OA
HETATM   39  H27 UNL     1       8.576  16.525   0.539  1.00  0.00     0.210 HD
ENDBRANCH  36  38
ENDBRANCH  27  36
TORSDOF 2
ENDMDL
MODEL 4
REMARK minimizedAffinity -6.16254282
REMARK CNNscore 0.423552573
REMARK CNNaffinity 5.59989405
REMARK  2 active torsions:
REMARK  status: ('A' for Active; 'I' for Inactive)
REMARK    1  A    between atoms: C21_27  and  C22_28 
REMARK    2  A    between atoms: C22_28  and  O7_30 
ROOT
HETATM    1  C1  UNL     1       4.842  20.459   2.012  1.00  0.00     0.043 C 
HETATM    2  C2  UNL     1       3.576  19.977   1.351  1.00  0.00    -0.076 C 
HETATM    3  C3  UNL     1       2.595  19.428   2.096  1.00  0.00     0.084 C 
HETATM    4  C4  UNL     1       1.329  18.862   1.575  1.00  0.00     0.283 C 
HETATM    5  O1  UNL     1       0.904  18.959   0.437  1.00  0.00    -0.260 OA
HETATM    6  O2  UNL     1       0.747  18.172   2.591  1.00  0.00    -0.317 OA
HETATM    7  C5  UNL     1      -0.480  17.501   2.284  1.00  0.00     0.195 C 
HETATM    8  C6  UNL     1      -0.584  16.079   2.938  1.00  0.00     0.053 C 
HETATM    9  C7  UNL     1      -0.241  16.190   4.478  1.00  0.00     0.159 C 
HETATM   10  C8  UNL     1      -1.322  16.830   5.310  1.00  0.00     0.011 C 
HETATM   11  C9  UNL     1      -2.625  16.759   4.977  1.00  0.00    -0.054 C 
HETATM   12  C10 UNL     1      -3.688  17.382   5.837  1.00  0.00     0.046 C 
HETATM   13  C11 UNL     1      -3.081  16.005   3.797  1.00  0.00     0.180 A 
HETATM   14  O3  UNL     1      -2.619  14.667   3.552  1.00  0.00    -0.370 OA
HETATM   15  C12 UNL     1      -2.059  15.683   2.723  1.00  0.00     0.170 A 
HETATM   16  O4  UNL     1       0.043  14.932   5.117  1.00  0.00    -0.372 OA
HETATM   17  C13 UNL     1       0.887  14.039   4.384  1.00  0.00     0.162 C 
HETATM   18  C14 UNL     1       2.202  14.711   3.980  1.00  0.00     0.068 C 
HETATM   19  C15 UNL     1       1.921  15.316   2.582  1.00  0.00     0.147 C 
HETATM   20  O5  UNL     1       2.776  14.660   1.620  1.00  0.00    -0.312 OA
HETATM   21  C16 UNL     1       4.043  15.141   1.514  1.00  0.00     0.283 C 
HETATM   22  O6  UNL     1       4.498  16.098   2.114  1.00  0.00    -0.260 OA
HETATM   23  C17 UNL     1       4.760  14.258   0.565  1.00  0.00     0.082 C 
HETATM   24  C18 UNL     1       5.984  14.456   0.058  1.00  0.00     0.006 C 
HETATM   25  C19 UNL     1       6.856  15.586   0.263  1.00  0.00    -0.001 C 
HETATM   26  C20 UNL     1       6.731  16.796  -0.306  1.00  0.00     0.007 C 
HETATM   27  C21 UNL     1       5.658  17.278  -1.247  1.00  0.00     0.172 C 
HETATM   28  O8  UNL     1       5.265  18.558  -0.729  1.00  0.00    -0.379 OA
HETATM   29  C24 UNL     1       3.879  18.853  -0.909  1.00  0.00     0.173 C 
HETATM   30  C25 UNL     1       3.542  20.144  -0.158  1.00  0.00     0.060 C 
HETATM   31  C26 UNL     1       0.401  15.009   2.263  1.00  0.00     0.034 C 
HETATM   32  C27 UNL     1       0.162  14.828   0.756  1.00  0.00     0.022 C 
HETATM   33  C28 UNL     1       0.240  13.742   3.076  1.00  0.00     0.119 A 
HETATM   34  C29 UNL     1      -0.699  12.588   2.821  1.00  0.00     0.210 A 
HETATM   35  O9  UNL     1       0.685  12.526   2.452  1.00  0.00    -0.371 OA
ENDROOT
BRANCH  27  36
HETATM   36  C22 UNL     1       6.153  17.433  -2.714  1.00  0.00     0.146 C 
HETATM   37  C23 UNL     1       7.672  17.488  -2.850  1.00  0.00     0.042 C 
BRANCH  36  38
HETATM   38  O7  UNL     1       5.706  16.332  -3.524  1.00  0.00    -0.393 OA
HETATM   39  H27 UNL     1       6.017  15.510  -3.108  1.00  0.00     0.210 HD
ENDBRANCH  36  38
ENDBRANCH  27  36
TORSDOF 2
ENDMDL
MODEL 5
REMARK minimizedAffinity -6.51032209
REMARK CNNscore 0.397712439
REMARK CNNaffinity 5.57685995
REMARK  2 active torsions:
REMARK  status: ('A' for Active; 'I' for Inactive)
REMARK    1  A    between atoms: C21_27  and  C22_28 
REMARK    2  A    between atoms: C22_28  and  O7_30 
ROOT
HETATM    1  C1  UNL     1      11.271  -5.061   7.966  1.00  0.00     0.043 C 
HETATM    2  C2  UNL     1      12.653  -5.423   8.445  1.00  0.00    -0.076 C 
HETATM    3  C3  UNL     1      13.533  -4.451   8.761  1.00  0.00     0.084 C 
HETATM    4  C4  UNL     1      14.936  -4.660   9.187  1.00  0.00     0.283 C 
HETATM    5  O1  UNL     1      15.454  -5.723   9.484  1.00  0.00    -0.260 OA
HETATM    6  O2  UNL     1      15.556  -3.452   9.144  1.00  0.00    -0.317 OA
HETATM    7  C5  UNL     1      16.948  -3.439   9.480  1.00  0.00     0.195 C 
HETATM    8  C6  UNL     1      17.794  -2.494   8.556  1.00  0.00     0.053 C 
HETATM    9  C7  UNL     1      17.101  -1.075   8.491  1.00  0.00     0.159 C 
HETATM   10  C8  UNL     1      17.251  -0.251   9.744  1.00  0.00     0.011 C 
HETATM   11  C9  UNL     1      18.310  -0.378  10.566  1.00  0.00    -0.054 C 
HETATM   12  C10 UNL     1      18.453   0.473  11.796  1.00  0.00     0.046 C 
HETATM   13  C11 UNL     1      19.418  -1.300  10.263  1.00  0.00     0.180 A 
HETATM   14  O3  UNL     1      20.025  -1.322   8.960  1.00  0.00    -0.370 OA
HETATM   15  C12 UNL     1      19.161  -2.415   9.267  1.00  0.00     0.170 A 
HETATM   16  O4  UNL     1      17.567  -0.234   7.419  1.00  0.00    -0.372 OA
HETATM   17  C13 UNL     1      17.727  -0.875   6.150  1.00  0.00     0.162 C 
HETATM   18  C14 UNL     1      16.444  -1.589   5.714  1.00  0.00     0.068 C 
HETATM   19  C15 UNL     1      16.590  -3.029   6.266  1.00  0.00     0.147 C 
HETATM   20  O5  UNL     1      16.644  -3.943   5.148  1.00  0.00    -0.312 OA
HETATM   21  C16 UNL     1      15.449  -4.322   4.623  1.00  0.00     0.283 C 
HETATM   22  O6  UNL     1      14.350  -4.005   5.041  1.00  0.00    -0.260 OA
HETATM   23  C17 UNL     1      15.746  -5.157   3.436  1.00  0.00     0.082 C 
HETATM   24  C18 UNL     1      14.865  -5.860   2.712  1.00  0.00     0.006 C 
HETATM   25  C19 UNL     1      13.451  -6.019   2.947  1.00  0.00    -0.001 C 
HETATM   26  C20 UNL     1      12.886  -6.804   3.879  1.00  0.00     0.007 C 
HETATM   27  C21 UNL     1      13.568  -7.666   4.909  1.00  0.00     0.172 C 
HETATM   28  O8  UNL     1      12.884  -7.377   6.138  1.00  0.00    -0.379 OA
HETATM   29  C24 UNL     1      13.725  -7.419   7.291  1.00  0.00     0.173 C 
HETATM   30  C25 UNL     1      12.937  -6.913   8.503  1.00  0.00     0.060 C 
HETATM   31  C26 UNL     1      17.956  -3.062   7.066  1.00  0.00     0.034 C 
HETATM   32  C27 UNL     1      18.614  -4.450   7.011  1.00  0.00     0.022 C 
HETATM   33  C28 UNL     1      18.704  -1.989   6.303  1.00  0.00     0.119 A 
HETATM   34  C29 UNL     1      20.193  -1.864   6.094  1.00  0.00     0.210 A 
HETATM   35  O9  UNL     1      19.334  -2.402   5.079  1.00  0.00    -0.371 OA
ENDROOT
BRANCH  27  36
HETATM   36  C22 UNL     1      13.470  -9.188   4.598  1.00  0.00     0.146 C 
HETATM   37  C23 UNL     1      14.060 -10.080   5.685  1.00  0.00     0.042 C 
BRANCH  36  38
HETATM   38  O7  UNL     1      12.098  -9.589   4.437  1.00  0.00    -0.393 OA
HETATM   39  H27 UNL     1      11.617  -9.339   5.244  1.00  0.00     0.210 HD
ENDBRANCH  36  38
ENDBRANCH  27  36
TORSDOF 2
ENDMDL
MODEL 6
REMARK minimizedAffinity -6.34297466
REMARK CNNscore 0.361537367
REMARK CNNaffinity 5.433743
REMARK  2 active torsions:
REMARK  status: ('A' for Active; 'I' for Inactive)
REMARK    1  A    between atoms: C21_27  and  C22_28 
REMARK    2  A    between atoms: C22_28  and  O7_30 
ROOT
HETATM    1  C1  UNL     1     -18.309   4.042  26.306  1.00  0.00     0.043 C 
HETATM    2  C2  UNL     1     -17.385   5.093  26.865  1.00  0.00    -0.076 C 
HETATM    3  C3  UNL     1     -17.223   6.262  26.213  1.00  0.00     0.084 C 
HETATM    4  C4  UNL     1     -16.307   7.356  26.614  1.00  0.00     0.283 C 
HETATM    5  O1  UNL     1     -15.702   7.446  27.668  1.00  0.00    -0.260 OA
HETATM    6  O2  UNL     1     -16.231   8.222  25.570  1.00  0.00    -0.317 OA
HETATM    7  C5  UNL     1     -15.353   9.342  25.735  1.00  0.00     0.195 C 
HETATM    8  C6  UNL     1     -14.535   9.677  24.439  1.00  0.00     0.053 C 
HETATM    9  C7  UNL     1     -15.524   9.769  23.210  1.00  0.00     0.159 C 
HETATM   10  C8  UNL     1     -16.376  11.013  23.189  1.00  0.00     0.011 C 
HETATM   11  C9  UNL     1     -15.967  12.174  23.734  1.00  0.00    -0.054 C 
HETATM   12  C10 UNL     1     -16.821  13.409  23.678  1.00  0.00     0.046 C 
HETATM   13  C11 UNL     1     -14.634  12.315  24.345  1.00  0.00     0.180 A 
HETATM   14  O3  UNL     1     -13.457  11.856  23.661  1.00  0.00    -0.370 OA
HETATM   15  C12 UNL     1     -13.903  11.049  24.750  1.00  0.00     0.170 A 
HETATM   16  O4  UNL     1     -14.880   9.721  21.923  1.00  0.00    -0.372 OA
HETATM   17  C13 UNL     1     -13.847   8.743  21.780  1.00  0.00     0.162 C 
HETATM   18  C14 UNL     1     -14.342   7.342  22.152  1.00  0.00     0.068 C 
HETATM   19  C15 UNL     1     -14.028   7.203  23.662  1.00  0.00     0.147 C 
HETATM   20  O5  UNL     1     -13.062   6.141  23.832  1.00  0.00    -0.312 OA
HETATM   21  C16 UNL     1     -13.559   4.877  23.873  1.00  0.00     0.283 C 
HETATM   22  O6  UNL     1     -14.737   4.569  23.834  1.00  0.00    -0.260 OA
HETATM   23  C17 UNL     1     -12.398   3.960  23.938  1.00  0.00     0.082 C 
HETATM   24  C18 UNL     1     -12.434   2.636  24.144  1.00  0.00     0.006 C 
HETATM   25  C19 UNL     1     -13.588   1.813  24.409  1.00  0.00    -0.001 C 
HETATM   26  C20 UNL     1     -14.250   1.728  25.574  1.00  0.00     0.007 C 
HETATM   27  C21 UNL     1     -13.988   2.481  26.852  1.00  0.00     0.172 C 
HETATM   28  O8  UNL     1     -15.278   2.952  27.271  1.00  0.00    -0.379 OA
HETATM   29  C24 UNL     1     -15.244   4.221  27.924  1.00  0.00     0.173 C 
HETATM   30  C25 UNL     1     -16.680   4.703  28.152  1.00  0.00     0.060 C 
HETATM   31  C26 UNL     1     -13.406   8.586  24.116  1.00  0.00     0.034 C 
HETATM   32  C27 UNL     1     -12.389   8.406  25.255  1.00  0.00     0.022 C 
HETATM   33  C28 UNL     1     -12.794   9.014  22.799  1.00  0.00     0.119 A 
HETATM   34  C29 UNL     1     -11.585   9.890  22.576  1.00  0.00     0.210 A 
HETATM   35  O9  UNL     1     -11.505   8.461  22.486  1.00  0.00    -0.371 OA
ENDROOT
BRANCH  27  36
HETATM   36  C22 UNL     1     -13.364   1.593  27.968  1.00  0.00     0.146 C 
HETATM   37  C23 UNL     1     -12.140   2.211  28.637  1.00  0.00     0.042 C 
BRANCH  36  38
HETATM   38  O7  UNL     1     -14.319   1.339  29.012  1.00  0.00    -0.393 OA
HETATM   39  H27 UNL     1     -14.633   2.196  29.346  1.00  0.00     0.210 HD
ENDBRANCH  36  38
ENDBRANCH  27  36
TORSDOF 2
ENDMDL
MODEL 7
REMARK minimizedAffinity -6.87251711
REMARK CNNscore 0.344182253
REMARK CNNaffinity 5.95925188
REMARK  2 active torsions:
REMARK  status: ('A' for Active; 'I' for Inactive)
REMARK    1  A    between atoms: C21_27  and  C22_28 
REMARK    2  A    between atoms: C22_28  and  O7_30 
ROOT
HETATM    1  C1  UNL     1      -1.784  12.624   2.762  1.00  0.00     0.043 C 
HETATM    2  C2  UNL     1      -1.436  13.799   1.885  1.00  0.00    -0.076 C 
HETATM    3  C3  UNL     1      -0.364  13.735   1.069  1.00  0.00     0.084 C 
HETATM    4  C4  UNL     1       0.126  14.830   0.200  1.00  0.00     0.283 C 
HETATM    5  O1  UNL     1      -0.448  15.877  -0.044  1.00  0.00    -0.260 OA
HETATM    6  O2  UNL     1       1.360  14.472  -0.243  1.00  0.00    -0.317 OA
HETATM    7  C5  UNL     1       2.039  15.422  -1.072  1.00  0.00     0.195 C 
HETATM    8  C6  UNL     1       3.570  15.536  -0.750  1.00  0.00     0.053 C 
HETATM    9  C7  UNL     1       4.204  14.088  -0.724  1.00  0.00     0.159 C 
HETATM   10  C8  UNL     1       4.371  13.458  -2.082  1.00  0.00     0.011 C 
HETATM   11  C9  UNL     1       4.562  14.189  -3.197  1.00  0.00    -0.054 C 
HETATM   12  C10 UNL     1       4.754  13.538  -4.537  1.00  0.00     0.046 C 
HETATM   13  C11 UNL     1       4.670  15.657  -3.149  1.00  0.00     0.180 A 
HETATM   14  O3  UNL     1       5.529  16.304  -2.195  1.00  0.00    -0.370 OA
HETATM   15  C12 UNL     1       4.130  16.368  -1.922  1.00  0.00     0.170 A 
HETATM   16  O4  UNL     1       5.501  14.017  -0.104  1.00  0.00    -0.372 OA
HETATM   17  C13 UNL     1       5.649  14.752   1.115  1.00  0.00     0.162 C 
HETATM   18  C14 UNL     1       4.576  14.368   2.138  1.00  0.00     0.068 C 
HETATM   19  C15 UNL     1       3.416  15.362   1.882  1.00  0.00     0.147 C 
HETATM   20  O5  UNL     1       3.248  16.181   3.061  1.00  0.00    -0.312 OA
HETATM   21  C16 UNL     1       2.499  15.648   4.061  1.00  0.00     0.283 C 
HETATM   22  O6  UNL     1       1.921  14.576   4.031  1.00  0.00    -0.260 OA
HETATM   23  C17 UNL     1       2.556  16.600   5.195  1.00  0.00     0.082 C 
HETATM   24  C18 UNL     1       1.838  16.542   6.325  1.00  0.00     0.006 C 
HETATM   25  C19 UNL     1       0.814  15.589   6.676  1.00  0.00    -0.001 C 
HETATM   26  C20 UNL     1      -0.445  15.571   6.209  1.00  0.00     0.007 C 
HETATM   27  C21 UNL     1      -1.077  16.493   5.199  1.00  0.00     0.172 C 
HETATM   28  O8  UNL     1      -1.762  15.621   4.286  1.00  0.00    -0.379 OA
HETATM   29  C24 UNL     1      -1.770  16.090   2.937  1.00  0.00     0.173 C 
HETATM   30  C25 UNL     1      -2.353  14.999   2.034  1.00  0.00     0.060 C 
HETATM   31  C26 UNL     1       3.860  16.255   0.652  1.00  0.00     0.034 C 
HETATM   32  C27 UNL     1       3.276  17.674   0.741  1.00  0.00     0.022 C 
HETATM   33  C28 UNL     1       5.361  16.187   0.840  1.00  0.00     0.119 A 
HETATM   34  C29 UNL     1       6.394  17.213   0.444  1.00  0.00     0.210 A 
HETATM   35  O9  UNL     1       5.924  17.103   1.795  1.00  0.00    -0.371 OA
ENDROOT
BRANCH  27  36
HETATM   36  C22 UNL     1      -2.090  17.492   5.831  1.00  0.00     0.146 C 
HETATM   37  C23 UNL     1      -3.158  16.826   6.692  1.00  0.00     0.042 C 
BRANCH  36  38
HETATM   38  O7  UNL     1      -1.413  18.440   6.675  1.00  0.00    -0.393 OA
HETATM   39  H27 UNL     1      -0.911  17.941   7.342  1.00  0.00     0.210 HD
ENDBRANCH  36  38
ENDBRANCH  27  36
TORSDOF 2
ENDMDL
MODEL 8
REMARK minimizedAffinity -6.43930387
REMARK CNNscore 0.231691718
REMARK CNNaffinity 5.54864502
REMARK  2 active torsions:
REMARK  status: ('A' for Active; 'I' for Inactive)
REMARK    1  A    between atoms: C21_27  and  C22_28 
REMARK    2  A    between atoms: C22_28  and  O7_30 
ROOT
HETATM    1  C1  UNL     1      12.548  -6.373   8.074  1.00  0.00     0.043 C 
HETATM    2  C2  UNL     1      13.971  -6.134   7.639  1.00  0.00    -0.076 C 
HETATM    3  C3  UNL     1      14.315  -4.957   7.078  1.00  0.00     0.084 C 
HETATM    4  C4  UNL     1      15.656  -4.608   6.554  1.00  0.00     0.283 C 
HETATM    5  O1  UNL     1      16.682  -5.248   6.702  1.00  0.00    -0.260 OA
HETATM    6  O2  UNL     1      15.523  -3.462   5.836  1.00  0.00    -0.317 OA
HETATM    7  C5  UNL     1      16.708  -2.971   5.198  1.00  0.00     0.195 C 
HETATM    8  C6  UNL     1      16.444  -2.418   3.754  1.00  0.00     0.053 C 
HETATM    9  C7  UNL     1      15.231  -1.405   3.799  1.00  0.00     0.159 C 
HETATM   10  C8  UNL     1      15.556  -0.073   4.426  1.00  0.00     0.011 C 
HETATM   11  C9  UNL     1      16.794   0.456   4.389  1.00  0.00    -0.054 C 
HETATM   12  C10 UNL     1      17.090   1.798   4.996  1.00  0.00     0.046 C 
HETATM   13  C11 UNL     1      17.902  -0.216   3.689  1.00  0.00     0.180 A 
HETATM   14  O3  UNL     1      17.734  -0.718   2.353  1.00  0.00    -0.370 OA
HETATM   15  C12 UNL     1      17.758  -1.697   3.391  1.00  0.00     0.170 A 
HETATM   16  O4  UNL     1      14.663  -1.097   2.513  1.00  0.00    -0.372 OA
HETATM   17  C13 UNL     1      14.473  -2.210   1.634  1.00  0.00     0.162 C 
HETATM   18  C14 UNL     1      13.652  -3.319   2.300  1.00  0.00     0.068 C 
HETATM   19  C15 UNL     1      14.704  -4.243   2.963  1.00  0.00     0.147 C 
HETATM   20  O5  UNL     1      14.637  -5.540   2.329  1.00  0.00    -0.312 OA
HETATM   21  C16 UNL     1      13.680  -6.386   2.793  1.00  0.00     0.283 C 
HETATM   22  O6  UNL     1      12.919  -6.170   3.719  1.00  0.00    -0.260 OA
HETATM   23  C17 UNL     1      13.722  -7.593   1.935  1.00  0.00     0.082 C 
HETATM   24  C18 UNL     1      13.054  -8.738   2.132  1.00  0.00     0.006 C 
HETATM   25  C19 UNL     1      12.197  -9.084   3.238  1.00  0.00    -0.001 C 
HETATM   26  C20 UNL     1      12.598  -9.435   4.471  1.00  0.00     0.007 C 
HETATM   27  C21 UNL     1      14.003  -9.516   5.006  1.00  0.00     0.172 C 
HETATM   28  O8  UNL     1      13.953  -8.840   6.273  1.00  0.00    -0.379 OA
HETATM   29  C24 UNL     1      15.149  -8.132   6.597  1.00  0.00     0.173 C 
HETATM   30  C25 UNL     1      14.911  -7.305   7.864  1.00  0.00     0.060 C 
HETATM   31  C26 UNL     1      16.114  -3.574   2.694  1.00  0.00     0.034 C 
HETATM   32  C27 UNL     1      17.228  -4.626   2.575  1.00  0.00     0.022 C 
HETATM   33  C28 UNL     1      15.794  -2.858   1.399  1.00  0.00     0.119 A 
HETATM   34  C29 UNL     1      16.735  -2.510   0.272  1.00  0.00     0.210 A 
HETATM   35  O9  UNL     1      15.865  -3.649   0.201  1.00  0.00    -0.371 OA
ENDROOT
BRANCH  27  36
HETATM   36  C22 UNL     1      14.499 -10.977   5.210  1.00  0.00     0.146 C 
HETATM   37  C23 UNL     1      13.590 -12.030   4.582  1.00  0.00     0.042 C 
BRANCH  36  38
HETATM   38  O7  UNL     1      15.802 -11.160   4.631  1.00  0.00    -0.393 OA
HETATM   39  H27 UNL     1      15.751 -10.909   3.693  1.00  0.00     0.210 HD
ENDBRANCH  36  38
ENDBRANCH  27  36
TORSDOF 2
ENDMDL
MODEL 9
REMARK minimizedAffinity -6.69981289
REMARK CNNscore 0.227112919
REMARK CNNaffinity 4.99417353
REMARK  2 active torsions:
REMARK  status: ('A' for Active; 'I' for Inactive)
REMARK    1  A    between atoms: C21_27  and  C22_28 
REMARK    2  A    between atoms: C22_28  and  O7_30 
ROOT
HETATM    1  C1  UNL     1     -15.311   3.352  14.762  1.00  0.00     0.043 C 
HETATM    2  C2  UNL     1     -15.833   2.137  15.485  1.00  0.00    -0.076 C 
HETATM    3  C3  UNL     1     -15.224   0.945  15.324  1.00  0.00     0.084 C 
HETATM    4  C4  UNL     1     -15.662  -0.337  15.923  1.00  0.00     0.283 C 
HETATM    5  O1  UNL     1     -16.517  -0.484  16.778  1.00  0.00    -0.260 OA
HETATM    6  O2  UNL     1     -14.965  -1.329  15.310  1.00  0.00    -0.317 OA
HETATM    7  C5  UNL     1     -15.273  -2.668  15.715  1.00  0.00     0.195 C 
HETATM    8  C6  UNL     1     -15.318  -3.678  14.515  1.00  0.00     0.053 C 
HETATM    9  C7  UNL     1     -14.003  -3.519  13.653  1.00  0.00     0.159 C 
HETATM   10  C8  UNL     1     -12.765  -4.088  14.296  1.00  0.00     0.011 C 
HETATM   11  C9  UNL     1     -12.811  -5.123  15.155  1.00  0.00    -0.054 C 
HETATM   12  C10 UNL     1     -11.561  -5.692  15.764  1.00  0.00     0.046 C 
HETATM   13  C11 UNL     1     -14.078  -5.800  15.483  1.00  0.00     0.180 A 
HETATM   14  O3  UNL     1     -14.986  -6.208  14.448  1.00  0.00    -0.370 OA
HETATM   15  C12 UNL     1     -15.371  -5.059  15.201  1.00  0.00     0.170 A 
HETATM   16  O4  UNL     1     -14.071  -4.122  12.347  1.00  0.00    -0.372 OA
HETATM   17  C13 UNL     1     -15.285  -3.903  11.623  1.00  0.00     0.162 C 
HETATM   18  C14 UNL     1     -15.613  -2.411  11.511  1.00  0.00     0.068 C 
HETATM   19  C15 UNL     1     -16.498  -2.110  12.746  1.00  0.00     0.147 C 
HETATM   20  O5  UNL     1     -17.809  -1.714  12.283  1.00  0.00    -0.312 OA
HETATM   21  C16 UNL     1     -17.953  -0.411  11.928  1.00  0.00     0.283 C 
HETATM   22  O6  UNL     1     -17.100   0.454  12.015  1.00  0.00    -0.260 OA
HETATM   23  C17 UNL     1     -19.324  -0.261  11.388  1.00  0.00     0.082 C 
HETATM   24  C18 UNL     1     -19.935   0.886  11.062  1.00  0.00     0.006 C 
HETATM   25  C19 UNL     1     -19.435   2.230  11.215  1.00  0.00    -0.001 C 
HETATM   26  C20 UNL     1     -19.362   2.922  12.364  1.00  0.00     0.007 C 
HETATM   27  C21 UNL     1     -19.738   2.469  13.750  1.00  0.00     0.172 C 
HETATM   28  O8  UNL     1     -18.632   2.865  14.577  1.00  0.00    -0.379 OA
HETATM   29  C24 UNL     1     -18.364   1.965  15.652  1.00  0.00     0.173 C 
HETATM   30  C25 UNL     1     -17.062   2.384  16.341  1.00  0.00     0.060 C 
HETATM   31  C26 UNL     1     -16.591  -3.461  13.566  1.00  0.00     0.034 C 
HETATM   32  C27 UNL     1     -17.931  -3.584  14.307  1.00  0.00     0.022 C 
HETATM   33  C28 UNL     1     -16.418  -4.442  12.426  1.00  0.00     0.119 A 
HETATM   34  C29 UNL     1     -16.957  -5.848  12.320  1.00  0.00     0.210 A 
HETATM   35  O9  UNL     1     -17.599  -4.746  11.664  1.00  0.00    -0.371 OA
ENDROOT
BRANCH  27  36
HETATM   36  C22 UNL     1     -21.048   3.125  14.275  1.00  0.00     0.146 C 
HETATM   37  C23 UNL     1     -21.043   3.399  15.776  1.00  0.00     0.042 C 
BRANCH  36  38
HETATM   38  O7  UNL     1     -21.283   4.387  13.628  1.00  0.00    -0.393 OA
HETATM   39  H27 UNL     1     -20.500   4.946  13.770  1.00  0.00     0.210 HD
ENDBRANCH  36  38
ENDBRANCH  27  36
TORSDOF 2
ENDMDL
