MODEL 1
REMARK minimizedAffinity -7.98592949
REMARK CNNscore 0.583835661
REMARK CNNaffinity 5.98127317
REMARK  10 active torsions:
REMARK  status: ('A' for Active; 'I' for Inactive)
REMARK    1  A    between atoms: C3_3  and  O1_4 
REMARK    2  A    between atoms: N1_14  and  O2_16 
REMARK    3  A    between atoms: O2_16  and  C13_17 
REMARK    4  A    between atoms: C13_17  and  C14_18 
REMARK       I    between atoms: C14_18  and  N2_20 
REMARK    5  A    between atoms: N2_20  and  C15_21 
REMARK    6  A    between atoms: C15_21  and  C16_22 
REMARK       I    between atoms: C16_22  and  N3_24 
REMARK    7  A    between atoms: N3_24  and  C17_25 
REMARK    8  A    between atoms: C17_25  and  C18_26 
REMARK    9  A    between atoms: C17_25  and  C19_29 
REMARK   10  A    between atoms: C18_26  and  O6_28 
ROOT
HETATM    1  C1  UNL     1      -1.224  50.880 -23.467  1.00  0.00     0.015 C 
HETATM    2  C2  UNL     1      -1.155  50.513 -22.326  1.00  0.00    -0.078 C 
HETATM    3  C3  UNL     1      -0.995  50.084 -20.919  1.00  0.00     0.128 C 
HETATM    4  C4  UNL     1      -0.629  48.602 -20.849  1.00  0.00     0.052 C 
HETATM    5  C5  UNL     1      -1.973  47.899 -20.976  1.00  0.00     0.010 C 
HETATM    6  C6  UNL     1      -2.964  48.764 -20.163  1.00  0.00     0.002 C 
HETATM    7  C7  UNL     1      -4.377  48.735 -20.772  1.00  0.00    -0.004 C 
HETATM    8  C8  UNL     1      -5.471  49.011 -19.717  1.00  0.00     0.010 C 
HETATM    9  C9  UNL     1      -6.827  49.416 -20.318  1.00  0.00     0.035 C 
HETATM   10  C10 UNL     1      -6.972  48.966 -21.749  1.00  0.00    -0.069 C 
HETATM   11  C11 UNL     1      -7.962  48.127 -22.109  1.00  0.00     0.030 C 
HETATM   12  C12 UNL     1      -8.109  47.657 -23.516  1.00  0.00     0.032 C 
HETATM   13  N1  UNL     1      -9.149  47.058 -24.010  1.00  0.00    -0.271 N 
ATOM     14  H1  UNL     1      -9.244  46.804 -24.993  1.00  0.00     0.194 HD
HETATM   15  C22 UNL     1      -6.969  47.923 -24.485  1.00  0.00     0.060 C 
HETATM   16  C23 UNL     1      -5.683  48.344 -23.784  1.00  0.00     0.020 C 
HETATM   17  C24 UNL     1      -5.897  49.460 -22.720  1.00  0.00    -0.016 C 
HETATM   18  C25 UNL     1      -6.398  50.738 -23.437  1.00  0.00     0.020 C 
HETATM   19  C26 UNL     1      -4.518  49.695 -21.972  1.00  0.00     0.002 C 
HETATM   20  C27 UNL     1      -4.235  51.152 -21.546  1.00  0.00     0.007 C 
HETATM   21  C28 UNL     1      -3.225  51.349 -20.405  1.00  0.00     0.014 C 
HETATM   22  C29 UNL     1      -2.295  50.173 -20.044  1.00  0.00     0.003 C 
HETATM   23  C30 UNL     1      -1.901  50.384 -18.548  1.00  0.00     0.020 C 
ENDROOT
BRANCH   3  24
HETATM   24  O1  UNL     1       0.065  50.855 -20.361  1.00  0.00    -0.377 OA
HETATM   25  H2  UNL     1       0.807  50.805 -20.988  1.00  0.00     0.211 HD
ENDBRANCH   3  24
BRANCH  13  26
HETATM   26  O2  UNL     1     -10.128  46.798 -23.036  1.00  0.00    -0.271 OA
BRANCH  26  27
HETATM   27  C13 UNL     1     -11.078  45.886 -23.574  1.00  0.00     0.303 C 
BRANCH  27  28
HETATM   28  C14 UNL     1     -11.995  46.561 -24.594  1.00  0.00     0.244 C 
HETATM   29  O3  UNL     1     -11.772  47.656 -25.106  1.00  0.00    -0.271 OA
HETATM   30  N2  UNL     1     -13.153  45.860 -24.851  1.00  0.00    -0.350 N 
HETATM   31  H16 UNL     1     -13.242  44.882 -24.578  1.00  0.00     0.163 HD
BRANCH  30  32
HETATM   32  C15 UNL     1     -14.191  46.399 -25.709  1.00  0.00     0.225 C 
BRANCH  32  33
HETATM   33  C16 UNL     1     -15.361  46.868 -24.845  1.00  0.00     0.236 C 
HETATM   34  O4  UNL     1     -15.341  47.944 -24.248  1.00  0.00    -0.272 OA
HETATM   35  N3  UNL     1     -16.409  45.969 -24.767  1.00  0.00    -0.345 N 
HETATM   36  H19 UNL     1     -16.503  45.349 -25.563  1.00  0.00     0.163 HD
BRANCH  35  37
HETATM   37  C17 UNL     1     -17.667  46.368 -24.124  1.00  0.00     0.185 C 
BRANCH  37  38
HETATM   38  C18 UNL     1     -18.830  46.385 -25.134  1.00  0.00     0.163 C 
HETATM   39  O5  UNL     1     -19.931  46.889 -24.959  1.00  0.00    -0.648 OA
BRANCH  38  40
HETATM   40  O6  UNL     1     -18.574  45.705 -26.275  1.00  0.00    -0.775 OA
HETATM   41  H21 UNL     1     -19.399  45.817 -26.798  1.00  0.00     0.167 HD
ENDBRANCH  38  40
ENDBRANCH  37  38
BRANCH  37  42
HETATM   42  C19 UNL     1     -18.012  45.455 -22.925  1.00  0.00     0.010 C 
HETATM   43  C20 UNL     1     -18.621  46.212 -21.737  1.00  0.00     0.012 C 
HETATM   44  C21 UNL     1     -18.951  44.316 -23.349  1.00  0.00     0.012 C 
ENDBRANCH  37  42
ENDBRANCH  35  37
ENDBRANCH  32  33
ENDBRANCH  30  32
ENDBRANCH  27  28
ENDBRANCH  26  27
ENDBRANCH  13  26
TORSDOF 10
ENDMDL
MODEL 2
REMARK minimizedAffinity -7.90914202
REMARK CNNscore 0.564398944
REMARK CNNaffinity 6.8998704
REMARK  10 active torsions:
REMARK  status: ('A' for Active; 'I' for Inactive)
REMARK    1  A    between atoms: C3_3  and  O1_4 
REMARK    2  A    between atoms: N1_14  and  O2_16 
REMARK    3  A    between atoms: O2_16  and  C13_17 
REMARK    4  A    between atoms: C13_17  and  C14_18 
REMARK       I    between atoms: C14_18  and  N2_20 
REMARK    5  A    between atoms: N2_20  and  C15_21 
REMARK    6  A    between atoms: C15_21  and  C16_22 
REMARK       I    between atoms: C16_22  and  N3_24 
REMARK    7  A    between atoms: N3_24  and  C17_25 
REMARK    8  A    between atoms: C17_25  and  C18_26 
REMARK    9  A    between atoms: C17_25  and  C19_29 
REMARK   10  A    between atoms: C18_26  and  O6_28 
ROOT
HETATM    1  C1  UNL     1       6.743  54.869  -8.891  1.00  0.00     0.015 C 
HETATM    2  C2  UNL     1       6.474  55.323  -7.812  1.00  0.00    -0.078 C 
HETATM    3  C3  UNL     1       6.219  55.889  -6.469  1.00  0.00     0.128 C 
HETATM    4  C4  UNL     1       6.027  54.772  -5.444  1.00  0.00     0.052 C 
HETATM    5  C5  UNL     1       4.568  54.376  -5.622  1.00  0.00     0.010 C 
HETATM    6  C6  UNL     1       3.812  55.702  -5.867  1.00  0.00     0.002 C 
HETATM    7  C7  UNL     1       2.611  55.508  -6.810  1.00  0.00    -0.004 C 
HETATM    8  C8  UNL     1       1.512  56.568  -6.578  1.00  0.00     0.010 C 
HETATM    9  C9  UNL     1       0.513  56.694  -7.740  1.00  0.00     0.035 C 
HETATM   10  C10 UNL     1       0.480  55.454  -8.596  1.00  0.00    -0.069 C 
HETATM   11  C11 UNL     1      -0.659  54.751  -8.743  1.00  0.00     0.030 C 
HETATM   12  C12 UNL     1      -0.706  53.512  -9.571  1.00  0.00     0.032 C 
HETATM   13  N1  UNL     1      -1.784  52.908  -9.970  1.00  0.00    -0.271 N 
ATOM     14  H1  UNL     1      -1.784  52.097 -10.588  1.00  0.00     0.194 HD
HETATM   15  C22 UNL     1       0.609  52.904 -10.030  1.00  0.00     0.060 C 
HETATM   16  C23 UNL     1       1.813  53.471  -9.287  1.00  0.00     0.020 C 
HETATM   17  C24 UNL     1       1.815  55.026  -9.210  1.00  0.00    -0.016 C 
HETATM   18  C25 UNL     1       1.928  55.592 -10.646  1.00  0.00     0.020 C 
HETATM   19  C26 UNL     1       3.032  55.469  -8.294  1.00  0.00     0.002 C 
HETATM   20  C27 UNL     1       3.724  56.787  -8.703  1.00  0.00     0.007 C 
HETATM   21  C28 UNL     1       4.517  57.515  -7.608  1.00  0.00     0.014 C 
HETATM   22  C29 UNL     1       4.898  56.726  -6.338  1.00  0.00     0.003 C 
HETATM   23  C30 UNL     1       5.066  57.790  -5.209  1.00  0.00     0.020 C 
ENDROOT
BRANCH   3  24
HETATM   24  O1  UNL     1       7.363  56.660  -6.112  1.00  0.00    -0.377 OA
HETATM   25  H2  UNL     1       8.141  56.099  -6.282  1.00  0.00     0.211 HD
ENDBRANCH   3  24
BRANCH  13  26
HETATM   26  O2  UNL     1      -2.949  53.499  -9.453  1.00  0.00    -0.271 OA
BRANCH  26  27
HETATM   27  C13 UNL     1      -3.865  53.713 -10.521  1.00  0.00     0.303 C 
BRANCH  27  28
HETATM   28  C14 UNL     1      -3.829  52.569 -11.535  1.00  0.00     0.244 C 
HETATM   29  O3  UNL     1      -4.157  51.412 -11.284  1.00  0.00    -0.271 OA
HETATM   30  N2  UNL     1      -3.324  52.931 -12.765  1.00  0.00    -0.350 N 
HETATM   31  H16 UNL     1      -3.236  53.914 -13.024  1.00  0.00     0.163 HD
BRANCH  30  32
HETATM   32  C15 UNL     1      -3.113  51.955 -13.816  1.00  0.00     0.225 C 
BRANCH  32  33
HETATM   33  C16 UNL     1      -1.624  51.618 -13.895  1.00  0.00     0.236 C 
HETATM   34  O4  UNL     1      -0.824  51.989 -13.037  1.00  0.00    -0.272 OA
HETATM   35  N3  UNL     1      -1.261  50.903 -15.021  1.00  0.00    -0.345 N 
HETATM   36  H19 UNL     1      -1.994  50.332 -15.423  1.00  0.00     0.163 HD
BRANCH  35  37
HETATM   37  C17 UNL     1       0.097  50.358 -15.134  1.00  0.00     0.185 C 
BRANCH  37  38
HETATM   38  C18 UNL     1       0.124  48.852 -14.809  1.00  0.00     0.163 C 
HETATM   39  O5  UNL     1      -0.249  48.331 -13.766  1.00  0.00    -0.648 OA
BRANCH  38  40
HETATM   40  O6  UNL     1       0.686  48.093 -15.777  1.00  0.00    -0.775 OA
HETATM   41  H21 UNL     1       0.622  47.181 -15.419  1.00  0.00     0.167 HD
ENDBRANCH  38  40
ENDBRANCH  37  38
BRANCH  37  42
HETATM   42  C19 UNL     1       0.705  50.616 -16.532  1.00  0.00     0.010 C 
HETATM   43  C20 UNL     1      -0.348  50.741 -17.641  1.00  0.00     0.012 C 
HETATM   44  C21 UNL     1       1.600  51.863 -16.525  1.00  0.00     0.012 C 
ENDBRANCH  37  42
ENDBRANCH  35  37
ENDBRANCH  32  33
ENDBRANCH  30  32
ENDBRANCH  27  28
ENDBRANCH  26  27
ENDBRANCH  13  26
TORSDOF 10
ENDMDL
MODEL 3
REMARK minimizedAffinity -6.9934721
REMARK CNNscore 0.421361536
REMARK CNNaffinity 6.64315605
REMARK  10 active torsions:
REMARK  status: ('A' for Active; 'I' for Inactive)
REMARK    1  A    between atoms: C3_3  and  O1_4 
REMARK    2  A    between atoms: N1_14  and  O2_16 
REMARK    3  A    between atoms: O2_16  and  C13_17 
REMARK    4  A    between atoms: C13_17  and  C14_18 
REMARK       I    between atoms: C14_18  and  N2_20 
REMARK    5  A    between atoms: N2_20  and  C15_21 
REMARK    6  A    between atoms: C15_21  and  C16_22 
REMARK       I    between atoms: C16_22  and  N3_24 
REMARK    7  A    between atoms: N3_24  and  C17_25 
REMARK    8  A    between atoms: C17_25  and  C18_26 
REMARK    9  A    between atoms: C17_25  and  C19_29 
REMARK   10  A    between atoms: C18_26  and  O6_28 
ROOT
HETATM    1  C1  UNL     1       0.199  56.552  -7.585  1.00  0.00     0.015 C 
HETATM    2  C2  UNL     1       0.447  55.598  -8.270  1.00  0.00    -0.078 C 
HETATM    3  C3  UNL     1       0.678  54.417  -9.132  1.00  0.00     0.128 C 
HETATM    4  C4  UNL     1       0.625  53.132  -8.307  1.00  0.00     0.052 C 
HETATM    5  C5  UNL     1       2.019  53.040  -7.703  1.00  0.00     0.010 C 
HETATM    6  C6  UNL     1       2.978  53.520  -8.817  1.00  0.00     0.002 C 
HETATM    7  C7  UNL     1       4.207  54.244  -8.238  1.00  0.00    -0.004 C 
HETATM    8  C8  UNL     1       5.428  54.160  -9.179  1.00  0.00     0.010 C 
HETATM    9  C9  UNL     1       6.522  55.197  -8.873  1.00  0.00     0.035 C 
HETATM   10  C10 UNL     1       6.439  55.709  -7.459  1.00  0.00    -0.069 C 
HETATM   11  C11 UNL     1       7.470  55.547  -6.608  1.00  0.00     0.030 C 
HETATM   12  C12 UNL     1       7.399  56.031  -5.199  1.00  0.00     0.032 C 
HETATM   13  N1  UNL     1       8.404  56.143  -4.385  1.00  0.00    -0.271 N 
ATOM     14  H1  UNL     1       8.333  56.537  -3.447  1.00  0.00     0.194 HD
HETATM   15  C22 UNL     1       6.048  56.470  -4.658  1.00  0.00     0.060 C 
HETATM   16  C23 UNL     1       4.887  56.032  -5.541  1.00  0.00     0.020 C 
HETATM   17  C24 UNL     1       5.107  56.344  -7.051  1.00  0.00    -0.016 C 
HETATM   18  C25 UNL     1       5.190  57.879  -7.231  1.00  0.00     0.020 C 
HETATM   19  C26 UNL     1       3.901  55.709  -7.863  1.00  0.00     0.002 C 
HETATM   20  C27 UNL     1       3.444  56.509  -9.103  1.00  0.00     0.007 C 
HETATM   21  C28 UNL     1       2.684  55.726 -10.183  1.00  0.00     0.014 C 
HETATM   22  C29 UNL     1       2.094  54.350  -9.806  1.00  0.00     0.003 C 
HETATM   23  C30 UNL     1       1.997  53.548 -11.141  1.00  0.00     0.020 C 
ENDROOT
BRANCH   3  24
HETATM   24  O1  UNL     1      -0.365  54.394 -10.103  1.00  0.00    -0.377 OA
HETATM   25  H2  UNL     1      -1.201  54.506  -9.617  1.00  0.00     0.211 HD
ENDBRANCH   3  24
BRANCH  13  26
HETATM   26  O2  UNL     1       9.599  55.662  -4.944  1.00  0.00    -0.271 OA
BRANCH  26  27
HETATM   27  C13 UNL     1      10.572  56.700  -4.907  1.00  0.00     0.303 C 
BRANCH  27  28
HETATM   28  C14 UNL     1      11.964  56.159  -4.582  1.00  0.00     0.244 C 
HETATM   29  O3  UNL     1      12.818  56.781  -3.952  1.00  0.00    -0.271 OA
HETATM   30  N2  UNL     1      12.219  54.916  -5.121  1.00  0.00    -0.350 N 
HETATM   31  H16 UNL     1      11.459  54.334  -5.470  1.00  0.00     0.163 HD
BRANCH  30  32
HETATM   32  C15 UNL     1      13.524  54.294  -5.008  1.00  0.00     0.225 C 
BRANCH  32  33
HETATM   33  C16 UNL     1      13.720  53.327  -6.175  1.00  0.00     0.236 C 
HETATM   34  O4  UNL     1      14.415  53.614  -7.150  1.00  0.00    -0.272 OA
HETATM   35  N3  UNL     1      13.026  52.138  -6.054  1.00  0.00    -0.345 N 
HETATM   36  H19 UNL     1      12.833  51.848  -5.102  1.00  0.00     0.163 HD
BRANCH  35  37
HETATM   37  C17 UNL     1      13.267  51.051  -7.009  1.00  0.00     0.185 C 
BRANCH  37  38
HETATM   38  C18 UNL     1      14.765  50.700  -7.092  1.00  0.00     0.163 C 
HETATM   39  O5  UNL     1      15.446  50.224  -6.193  1.00  0.00    -0.648 OA
BRANCH  38  40
HETATM   40  O6  UNL     1      15.342  51.037  -8.268  1.00  0.00    -0.775 OA
HETATM   41  H21 UNL     1      16.274  50.749  -8.156  1.00  0.00     0.167 HD
ENDBRANCH  38  40
ENDBRANCH  37  38
BRANCH  37  42
HETATM   42  C19 UNL     1      12.440  49.791  -6.664  1.00  0.00     0.010 C 
HETATM   43  C20 UNL     1      11.496  49.988  -5.470  1.00  0.00     0.012 C 
HETATM   44  C21 UNL     1      11.639  49.304  -7.881  1.00  0.00     0.012 C 
ENDBRANCH  37  42
ENDBRANCH  35  37
ENDBRANCH  32  33
ENDBRANCH  30  32
ENDBRANCH  27  28
ENDBRANCH  26  27
ENDBRANCH  13  26
TORSDOF 10
ENDMDL
MODEL 4
REMARK minimizedAffinity -7.88172388
REMARK CNNscore 0.391284972
REMARK CNNaffinity 6.20778656
REMARK  10 active torsions:
REMARK  status: ('A' for Active; 'I' for Inactive)
REMARK    1  A    between atoms: C3_3  and  O1_4 
REMARK    2  A    between atoms: N1_14  and  O2_16 
REMARK    3  A    between atoms: O2_16  and  C13_17 
REMARK    4  A    between atoms: C13_17  and  C14_18 
REMARK       I    between atoms: C14_18  and  N2_20 
REMARK    5  A    between atoms: N2_20  and  C15_21 
REMARK    6  A    between atoms: C15_21  and  C16_22 
REMARK       I    between atoms: C16_22  and  N3_24 
REMARK    7  A    between atoms: N3_24  and  C17_25 
REMARK    8  A    between atoms: C17_25  and  C18_26 
REMARK    9  A    between atoms: C17_25  and  C19_29 
REMARK   10  A    between atoms: C18_26  and  O6_28 
ROOT
HETATM    1  C1  UNL     1      -1.207  48.639 -21.118  1.00  0.00     0.015 C 
HETATM    2  C2  UNL     1      -1.634  49.441 -21.902  1.00  0.00    -0.078 C 
HETATM    3  C3  UNL     1      -2.088  50.445 -22.891  1.00  0.00     0.128 C 
HETATM    4  C4  UNL     1      -2.262  51.810 -22.227  1.00  0.00     0.052 C 
HETATM    5  C5  UNL     1      -3.642  51.723 -21.591  1.00  0.00     0.010 C 
HETATM    6  C6  UNL     1      -4.509  50.943 -22.606  1.00  0.00     0.002 C 
HETATM    7  C7  UNL     1      -5.578  50.087 -21.903  1.00  0.00    -0.004 C 
HETATM    8  C8  UNL     1      -6.805  49.831 -22.805  1.00  0.00     0.010 C 
HETATM    9  C9  UNL     1      -7.686  48.659 -22.340  1.00  0.00     0.035 C 
HETATM   10  C10 UNL     1      -7.493  48.350 -20.878  1.00  0.00    -0.069 C 
HETATM   11  C11 UNL     1      -8.527  48.427 -20.017  1.00  0.00     0.030 C 
HETATM   12  C12 UNL     1      -8.351  48.142 -18.564  1.00  0.00     0.032 C 
HETATM   13  N1  UNL     1      -9.308  47.951 -17.709  1.00  0.00    -0.271 N 
ATOM     14  H1  UNL     1      -9.155  47.696 -16.734  1.00  0.00     0.194 HD
HETATM   15  C22 UNL     1      -6.936  48.025 -18.021  1.00  0.00     0.060 C 
HETATM   16  C23 UNL     1      -5.885  48.553 -18.991  1.00  0.00     0.020 C 
HETATM   17  C24 UNL     1      -6.063  48.022 -20.443  1.00  0.00    -0.016 C 
HETATM   18  C25 UNL     1      -5.865  46.486 -20.436  1.00  0.00     0.020 C 
HETATM   19  C26 UNL     1      -5.004  48.758 -21.367  1.00  0.00     0.002 C 
HETATM   20  C27 UNL     1      -4.423  47.908 -22.517  1.00  0.00     0.007 C 
HETATM   21  C28 UNL     1      -3.832  48.676 -23.708  1.00  0.00     0.014 C 
HETATM   22  C29 UNL     1      -3.501  50.171 -23.519  1.00  0.00     0.003 C 
HETATM   23  C30 UNL     1      -3.568  50.806 -24.943  1.00  0.00     0.020 C 
ENDROOT
BRANCH   3  24
HETATM   24  O1  UNL     1      -1.079  50.535 -23.893  1.00  0.00    -0.377 OA
HETATM   25  H2  UNL     1      -0.231  50.638 -23.426  1.00  0.00     0.211 HD
ENDBRANCH   3  24
BRANCH  13  26
HETATM   26  O2  UNL     1     -10.578  48.136 -18.280  1.00  0.00    -0.271 OA
BRANCH  26  27
HETATM   27  C13 UNL     1     -11.382  47.000 -17.982  1.00  0.00     0.303 C 
BRANCH  27  28
HETATM   28  C14 UNL     1     -12.825  47.396 -17.666  1.00  0.00     0.244 C 
HETATM   29  O3  UNL     1     -13.303  47.419 -16.534  1.00  0.00    -0.271 OA
HETATM   30  N2  UNL     1     -13.586  47.665 -18.784  1.00  0.00    -0.350 N 
HETATM   31  H16 UNL     1     -13.144  47.829 -19.688  1.00  0.00     0.163 HD
BRANCH  30  32
HETATM   32  C15 UNL     1     -15.004  47.951 -18.684  1.00  0.00     0.225 C 
BRANCH  32  33
HETATM   33  C16 UNL     1     -15.795  46.702 -19.073  1.00  0.00     0.236 C 
HETATM   34  O4  UNL     1     -15.674  45.638 -18.465  1.00  0.00    -0.272 OA
HETATM   35  N3  UNL     1     -16.613  46.864 -20.174  1.00  0.00    -0.345 N 
HETATM   36  H19 UNL     1     -16.934  47.812 -20.335  1.00  0.00     0.163 HD
BRANCH  35  37
HETATM   37  C17 UNL     1     -17.561  45.806 -20.543  1.00  0.00     0.185 C 
BRANCH  37  38
HETATM   38  C18 UNL     1     -18.979  46.121 -20.029  1.00  0.00     0.163 C 
HETATM   39  O5  UNL     1     -19.907  45.328 -19.934  1.00  0.00    -0.648 OA
BRANCH  38  40
HETATM   40  O6  UNL     1     -19.177  47.427 -19.736  1.00  0.00    -0.775 OA
HETATM   41  H21 UNL     1     -20.109  47.453 -19.427  1.00  0.00     0.167 HD
ENDBRANCH  38  40
ENDBRANCH  37  38
BRANCH  37  42
HETATM   42  C19 UNL     1     -17.586  45.564 -22.069  1.00  0.00     0.010 C 
HETATM   43  C20 UNL     1     -17.786  44.091 -22.451  1.00  0.00     0.012 C 
HETATM   44  C21 UNL     1     -18.661  46.425 -22.749  1.00  0.00     0.012 C 
ENDBRANCH  37  42
ENDBRANCH  35  37
ENDBRANCH  32  33
ENDBRANCH  30  32
ENDBRANCH  27  28
ENDBRANCH  26  27
ENDBRANCH  13  26
TORSDOF 10
ENDMDL
MODEL 5
REMARK minimizedAffinity -9.03696728
REMARK CNNscore 0.382661968
REMARK CNNaffinity 6.93958092
REMARK  10 active torsions:
REMARK  status: ('A' for Active; 'I' for Inactive)
REMARK    1  A    between atoms: C3_3  and  O1_4 
REMARK    2  A    between atoms: N1_14  and  O2_16 
REMARK    3  A    between atoms: O2_16  and  C13_17 
REMARK    4  A    between atoms: C13_17  and  C14_18 
REMARK       I    between atoms: C14_18  and  N2_20 
REMARK    5  A    between atoms: N2_20  and  C15_21 
REMARK    6  A    between atoms: C15_21  and  C16_22 
REMARK       I    between atoms: C16_22  and  N3_24 
REMARK    7  A    between atoms: N3_24  and  C17_25 
REMARK    8  A    between atoms: C17_25  and  C18_26 
REMARK    9  A    between atoms: C17_25  and  C19_29 
REMARK   10  A    between atoms: C18_26  and  O6_28 
ROOT
HETATM    1  C1  UNL     1      -1.779  51.311 -25.462  1.00  0.00     0.015 C 
HETATM    2  C2  UNL     1      -2.831  51.021 -24.962  1.00  0.00    -0.078 C 
HETATM    3  C3  UNL     1      -4.159  50.660 -24.418  1.00  0.00     0.128 C 
HETATM    4  C4  UNL     1      -4.949  51.917 -24.055  1.00  0.00     0.052 C 
HETATM    5  C5  UNL     1      -4.416  52.285 -22.677  1.00  0.00     0.010 C 
HETATM    6  C6  UNL     1      -4.213  50.938 -21.946  1.00  0.00     0.002 C 
HETATM    7  C7  UNL     1      -3.023  50.993 -20.971  1.00  0.00    -0.004 C 
HETATM    8  C8  UNL     1      -3.170  49.981 -19.814  1.00  0.00     0.010 C 
HETATM    9  C9  UNL     1      -1.856  49.687 -19.073  1.00  0.00     0.035 C 
HETATM   10  C10 UNL     1      -0.842  50.786 -19.257  1.00  0.00    -0.069 C 
HETATM   11  C11 UNL     1      -0.362  51.462 -18.196  1.00  0.00     0.030 C 
HETATM   12  C12 UNL     1       0.628  52.566 -18.360  1.00  0.00     0.032 C 
HETATM   13  N1  UNL     1       1.325  53.105 -17.408  1.00  0.00    -0.271 N 
ATOM     14  H1  UNL     1       2.040  53.816 -17.561  1.00  0.00     0.194 HD
HETATM   15  C22 UNL     1       0.885  53.097 -19.761  1.00  0.00     0.060 C 
HETATM   16  C23 UNL     1      -0.166  52.644 -20.767  1.00  0.00     0.020 C 
HETATM   17  C24 UNL     1      -0.465  51.117 -20.703  1.00  0.00    -0.016 C 
HETATM   18  C25 UNL     1       0.820  50.345 -21.091  1.00  0.00     0.020 C 
HETATM   19  C26 UNL     1      -1.669  50.812 -21.690  1.00  0.00     0.002 C 
HETATM   20  C27 UNL     1      -1.607  49.447 -22.408  1.00  0.00     0.007 C 
HETATM   21  C28 UNL     1      -2.936  48.887 -22.935  1.00  0.00     0.014 C 
HETATM   22  C29 UNL     1      -4.130  49.854 -23.071  1.00  0.00     0.003 C 
HETATM   23  C30 UNL     1      -5.411  48.968 -22.969  1.00  0.00     0.020 C 
ENDROOT
BRANCH   3  24
HETATM   24  O1  UNL     1      -4.853  49.949 -25.438  1.00  0.00    -0.377 OA
HETATM   25  H2  UNL     1      -4.771  50.476 -26.252  1.00  0.00     0.211 HD
ENDBRANCH   3  24
BRANCH  13  26
HETATM   26  O2  UNL     1       0.983  52.600 -16.143  1.00  0.00    -0.271 OA
BRANCH  26  27
HETATM   27  C13 UNL     1       2.159  52.100 -15.517  1.00  0.00     0.303 C 
BRANCH  27  28
HETATM   28  C14 UNL     1       1.949  51.867 -14.021  1.00  0.00     0.244 C 
HETATM   29  O3  UNL     1       2.654  51.136 -13.329  1.00  0.00    -0.271 OA
HETATM   30  N2  UNL     1       0.839  52.504 -13.509  1.00  0.00    -0.350 N 
HETATM   31  H16 UNL     1       0.378  53.248 -14.031  1.00  0.00     0.163 HD
BRANCH  30  32
HETATM   32  C15 UNL     1       0.421  52.311 -12.134  1.00  0.00     0.225 C 
BRANCH  32  33
HETATM   33  C16 UNL     1       0.405  53.662 -11.421  1.00  0.00     0.236 C 
HETATM   34  O4  UNL     1      -0.642  54.188 -11.043  1.00  0.00    -0.272 OA
HETATM   35  N3  UNL     1       1.649  54.246 -11.277  1.00  0.00    -0.345 N 
HETATM   36  H19 UNL     1       2.428  53.598 -11.248  1.00  0.00     0.163 HD
BRANCH  35  37
HETATM   37  C17 UNL     1       1.800  55.451 -10.453  1.00  0.00     0.185 C 
BRANCH  37  38
HETATM   38  C18 UNL     1       1.414  55.178  -8.987  1.00  0.00     0.163 C 
HETATM   39  O5  UNL     1       0.753  55.913  -8.265  1.00  0.00    -0.648 OA
BRANCH  38  40
HETATM   40  O6  UNL     1       1.941  54.038  -8.485  1.00  0.00    -0.775 OA
HETATM   41  H21 UNL     1       1.601  54.015  -7.564  1.00  0.00     0.167 HD
ENDBRANCH  38  40
ENDBRANCH  37  38
BRANCH  37  42
HETATM   42  C19 UNL     1       3.234  56.024 -10.532  1.00  0.00     0.010 C 
HETATM   43  C20 UNL     1       3.626  56.859  -9.305  1.00  0.00     0.012 C 
HETATM   44  C21 UNL     1       4.265  54.907 -10.748  1.00  0.00     0.012 C 
ENDBRANCH  37  42
ENDBRANCH  35  37
ENDBRANCH  32  33
ENDBRANCH  30  32
ENDBRANCH  27  28
ENDBRANCH  26  27
ENDBRANCH  13  26
TORSDOF 10
ENDMDL
MODEL 6
REMARK minimizedAffinity -7.14426899
REMARK CNNscore 0.330662906
REMARK CNNaffinity 6.25239182
REMARK  10 active torsions:
REMARK  status: ('A' for Active; 'I' for Inactive)
REMARK    1  A    between atoms: C3_3  and  O1_4 
REMARK    2  A    between atoms: N1_14  and  O2_16 
REMARK    3  A    between atoms: O2_16  and  C13_17 
REMARK    4  A    between atoms: C13_17  and  C14_18 
REMARK       I    between atoms: C14_18  and  N2_20 
REMARK    5  A    between atoms: N2_20  and  C15_21 
REMARK    6  A    between atoms: C15_21  and  C16_22 
REMARK       I    between atoms: C16_22  and  N3_24 
REMARK    7  A    between atoms: N3_24  and  C17_25 
REMARK    8  A    between atoms: C17_25  and  C18_26 
REMARK    9  A    between atoms: C17_25  and  C19_29 
REMARK   10  A    between atoms: C18_26  and  O6_28 
ROOT
HETATM    1  C1  UNL     1       0.877  57.067  -6.417  1.00  0.00     0.015 C 
HETATM    2  C2  UNL     1       1.064  56.268  -7.293  1.00  0.00    -0.078 C 
HETATM    3  C3  UNL     1       1.218  55.288  -8.393  1.00  0.00     0.128 C 
HETATM    4  C4  UNL     1       1.065  53.862  -7.865  1.00  0.00     0.052 C 
HETATM    5  C5  UNL     1       2.443  53.542  -7.303  1.00  0.00     0.010 C 
HETATM    6  C6  UNL     1       3.445  54.182  -8.292  1.00  0.00     0.002 C 
HETATM    7  C7  UNL     1       4.716  54.673  -7.577  1.00  0.00    -0.004 C 
HETATM    8  C8  UNL     1       5.938  54.708  -8.520  1.00  0.00     0.010 C 
HETATM    9  C9  UNL     1       7.099  55.573  -8.003  1.00  0.00     0.035 C 
HETATM   10  C10 UNL     1       7.039  55.771  -6.511  1.00  0.00    -0.069 C 
HETATM   11  C11 UNL     1       8.048  55.355  -5.721  1.00  0.00     0.030 C 
HETATM   12  C12 UNL     1       7.996  55.526  -4.240  1.00  0.00     0.032 C 
HETATM   13  N1  UNL     1       8.998  55.387  -3.427  1.00  0.00    -0.271 N 
ATOM     14  H1  UNL     1       8.946  55.572  -2.426  1.00  0.00     0.194 HD
HETATM   15  C22 UNL     1       6.675  55.933  -3.609  1.00  0.00     0.060 C 
HETATM   16  C23 UNL     1       5.494  55.781  -4.560  1.00  0.00     0.020 C 
HETATM   17  C24 UNL     1       5.752  56.396  -5.967  1.00  0.00    -0.016 C 
HETATM   18  C25 UNL     1       5.946  57.924  -5.811  1.00  0.00     0.020 C 
HETATM   19  C26 UNL     1       4.512  56.041  -6.892  1.00  0.00     0.002 C 
HETATM   20  C27 UNL     1       4.126  57.120  -7.926  1.00  0.00     0.007 C 
HETATM   21  C28 UNL     1       3.323  56.646  -9.145  1.00  0.00     0.014 C 
HETATM   22  C29 UNL     1       2.633  55.268  -9.072  1.00  0.00     0.003 C 
HETATM   23  C30 UNL     1       2.492  54.782 -10.549  1.00  0.00     0.020 C 
ENDROOT
BRANCH   3  24
HETATM   24  O1  UNL     1       0.187  55.551  -9.339  1.00  0.00    -0.377 OA
HETATM   25  H2  UNL     1      -0.644  55.615  -8.836  1.00  0.00     0.211 HD
ENDBRANCH   3  24
BRANCH  13  26
HETATM   26  O2  UNL     1      10.162  54.953  -4.083  1.00  0.00    -0.271 OA
BRANCH  26  27
HETATM   27  C13 UNL     1      11.104  56.020  -4.097  1.00  0.00     0.303 C 
BRANCH  27  28
HETATM   28  C14 UNL     1      12.506  55.533  -4.464  1.00  0.00     0.244 C 
HETATM   29  O3  UNL     1      13.497  55.681  -3.752  1.00  0.00    -0.271 OA
HETATM   30  N2  UNL     1      12.587  54.960  -5.715  1.00  0.00    -0.350 N 
HETATM   31  H16 UNL     1      11.745  54.671  -6.211  1.00  0.00     0.163 HD
BRANCH  30  32
HETATM   32  C15 UNL     1      13.856  54.540  -6.275  1.00  0.00     0.225 C 
BRANCH  32  33
HETATM   33  C16 UNL     1      14.068  53.056  -5.978  1.00  0.00     0.236 C 
HETATM   34  O4  UNL     1      13.173  52.349  -5.514  1.00  0.00    -0.272 OA
HETATM   35  N3  UNL     1      15.347  52.599  -6.236  1.00  0.00    -0.345 N 
HETATM   36  H19 UNL     1      15.850  53.113  -6.950  1.00  0.00     0.163 HD
BRANCH  35  37
HETATM   37  C17 UNL     1      15.637  51.162  -6.170  1.00  0.00     0.185 C 
BRANCH  37  38
HETATM   38  C18 UNL     1      15.238  50.449  -7.476  1.00  0.00     0.163 C 
HETATM   39  O5  UNL     1      15.095  49.243  -7.627  1.00  0.00    -0.648 OA
BRANCH  38  40
HETATM   40  O6  UNL     1      15.115  51.280  -8.537  1.00  0.00    -0.775 OA
HETATM   41  H21 UNL     1      14.860  50.678  -9.270  1.00  0.00     0.167 HD
ENDBRANCH  38  40
ENDBRANCH  37  38
BRANCH  37  42
HETATM   42  C19 UNL     1      17.123  50.891  -5.844  1.00  0.00     0.010 C 
HETATM   43  C20 UNL     1      17.326  49.987  -4.620  1.00  0.00     0.012 C 
HETATM   44  C21 UNL     1      17.856  50.295  -7.055  1.00  0.00     0.012 C 
ENDBRANCH  37  42
ENDBRANCH  35  37
ENDBRANCH  32  33
ENDBRANCH  30  32
ENDBRANCH  27  28
ENDBRANCH  26  27
ENDBRANCH  13  26
TORSDOF 10
ENDMDL
MODEL 7
REMARK minimizedAffinity -7.74269867
REMARK CNNscore 0.327632725
REMARK CNNaffinity 6.80430174
REMARK  10 active torsions:
REMARK  status: ('A' for Active; 'I' for Inactive)
REMARK    1  A    between atoms: C3_3  and  O1_4 
REMARK    2  A    between atoms: N1_14  and  O2_16 
REMARK    3  A    between atoms: O2_16  and  C13_17 
REMARK    4  A    between atoms: C13_17  and  C14_18 
REMARK       I    between atoms: C14_18  and  N2_20 
REMARK    5  A    between atoms: N2_20  and  C15_21 
REMARK    6  A    between atoms: C15_21  and  C16_22 
REMARK       I    between atoms: C16_22  and  N3_24 
REMARK    7  A    between atoms: N3_24  and  C17_25 
REMARK    8  A    between atoms: C17_25  and  C18_26 
REMARK    9  A    between atoms: C17_25  and  C19_29 
REMARK   10  A    between atoms: C18_26  and  O6_28 
ROOT
HETATM    1  C1  UNL     1      -2.509  49.598 -25.258  1.00  0.00     0.015 C 
HETATM    2  C2  UNL     1      -3.567  49.860 -24.754  1.00  0.00    -0.078 C 
HETATM    3  C3  UNL     1      -4.905  50.164 -24.199  1.00  0.00     0.128 C 
HETATM    4  C4  UNL     1      -5.224  51.651 -24.355  1.00  0.00     0.052 C 
HETATM    5  C5  UNL     1      -4.518  52.291 -23.168  1.00  0.00     0.010 C 
HETATM    6  C6  UNL     1      -4.717  51.303 -21.995  1.00  0.00     0.002 C 
HETATM    7  C7  UNL     1      -3.516  51.313 -21.032  1.00  0.00    -0.004 C 
HETATM    8  C8  UNL     1      -3.912  50.883 -19.603  1.00  0.00     0.010 C 
HETATM    9  C9  UNL     1      -2.720  50.464 -18.726  1.00  0.00     0.035 C 
HETATM   10  C10 UNL     1      -1.419  51.037 -19.225  1.00  0.00    -0.069 C 
HETATM   11  C11 UNL     1      -0.683  51.852 -18.445  1.00  0.00     0.030 C 
HETATM   12  C12 UNL     1       0.598  52.443 -18.930  1.00  0.00     0.032 C 
HETATM   13  N1  UNL     1       1.488  53.030 -18.190  1.00  0.00    -0.271 N 
ATOM     14  H1  UNL     1       2.384  53.369 -18.541  1.00  0.00     0.194 HD
HETATM   15  C22 UNL     1       0.928  52.329 -20.409  1.00  0.00     0.060 C 
HETATM   16  C23 UNL     1      -0.272  51.914 -21.251  1.00  0.00     0.020 C 
HETATM   17  C24 UNL     1      -1.043  50.693 -20.668  1.00  0.00    -0.016 C 
HETATM   18  C25 UNL     1      -0.102  49.463 -20.678  1.00  0.00     0.020 C 
HETATM   19  C26 UNL     1      -2.339  50.463 -21.555  1.00  0.00     0.002 C 
HETATM   20  C27 UNL     1      -2.763  48.990 -21.737  1.00  0.00     0.007 C 
HETATM   21  C28 UNL     1      -4.231  48.740 -22.112  1.00  0.00     0.014 C 
HETATM   22  C29 UNL     1      -5.056  49.926 -22.655  1.00  0.00     0.003 C 
HETATM   23  C30 UNL     1      -6.546  49.597 -22.324  1.00  0.00     0.020 C 
ENDROOT
BRANCH   3  24
HETATM   24  O1  UNL     1      -5.852  49.402 -24.942  1.00  0.00    -0.377 OA
HETATM   25  H2  UNL     1      -5.653  49.549 -25.883  1.00  0.00     0.211 HD
ENDBRANCH   3  24
BRANCH  13  26
HETATM   26  O2  UNL     1       1.078  53.145 -16.851  1.00  0.00    -0.271 OA
BRANCH  26  27
HETATM   27  C13 UNL     1       1.721  52.131 -16.088  1.00  0.00     0.303 C 
BRANCH  27  28
HETATM   28  C14 UNL     1       0.733  51.391 -15.185  1.00  0.00     0.244 C 
HETATM   29  O3  UNL     1       0.232  51.869 -14.170  1.00  0.00    -0.271 OA
HETATM   30  N2  UNL     1       0.492  50.090 -15.572  1.00  0.00    -0.350 N 
HETATM   31  H16 UNL     1       0.753  49.766 -16.502  1.00  0.00     0.163 HD
BRANCH  30  32
HETATM   32  C15 UNL     1      -0.332  49.202 -14.775  1.00  0.00     0.225 C 
BRANCH  32  33
HETATM   33  C16 UNL     1       0.541  48.087 -14.202  1.00  0.00     0.236 C 
HETATM   34  O4  UNL     1       0.644  47.896 -12.990  1.00  0.00    -0.272 OA
HETATM   35  N3  UNL     1       1.223  47.351 -15.152  1.00  0.00    -0.345 N 
HETATM   36  H19 UNL     1       0.784  47.316 -16.065  1.00  0.00     0.163 HD
BRANCH  35  37
HETATM   37  C17 UNL     1       1.950  46.139 -14.754  1.00  0.00     0.185 C 
BRANCH  37  38
HETATM   38  C18 UNL     1       2.947  46.433 -13.617  1.00  0.00     0.163 C 
HETATM   39  O5  UNL     1       3.333  45.637 -12.771  1.00  0.00    -0.648 OA
BRANCH  38  40
HETATM   40  O6  UNL     1       3.344  47.725 -13.557  1.00  0.00    -0.775 OA
HETATM   41  H21 UNL     1       3.965  47.738 -12.796  1.00  0.00     0.167 HD
ENDBRANCH  38  40
ENDBRANCH  37  38
BRANCH  37  42
HETATM   42  C19 UNL     1       0.987  45.002 -14.343  1.00  0.00     0.010 C 
HETATM   43  C20 UNL     1       1.340  43.647 -14.972  1.00  0.00     0.012 C 
HETATM   44  C21 UNL     1       0.918  44.861 -12.815  1.00  0.00     0.012 C 
ENDBRANCH  37  42
ENDBRANCH  35  37
ENDBRANCH  32  33
ENDBRANCH  30  32
ENDBRANCH  27  28
ENDBRANCH  26  27
ENDBRANCH  13  26
TORSDOF 10
ENDMDL
MODEL 8
REMARK minimizedAffinity -7.06535673
REMARK CNNscore 0.296915352
REMARK CNNaffinity 6.4552207
REMARK  10 active torsions:
REMARK  status: ('A' for Active; 'I' for Inactive)
REMARK    1  A    between atoms: C3_3  and  O1_4 
REMARK    2  A    between atoms: N1_14  and  O2_16 
REMARK    3  A    between atoms: O2_16  and  C13_17 
REMARK    4  A    between atoms: C13_17  and  C14_18 
REMARK       I    between atoms: C14_18  and  N2_20 
REMARK    5  A    between atoms: N2_20  and  C15_21 
REMARK    6  A    between atoms: C15_21  and  C16_22 
REMARK       I    between atoms: C16_22  and  N3_24 
REMARK    7  A    between atoms: N3_24  and  C17_25 
REMARK    8  A    between atoms: C17_25  and  C18_26 
REMARK    9  A    between atoms: C17_25  and  C19_29 
REMARK   10  A    between atoms: C18_26  and  O6_28 
ROOT
HETATM    1  C1  UNL     1      -4.715  52.718 -22.914  1.00  0.00     0.015 C 
HETATM    2  C2  UNL     1      -4.610  51.602 -23.343  1.00  0.00    -0.078 C 
HETATM    3  C3  UNL     1      -4.527  50.246 -23.932  1.00  0.00     0.128 C 
HETATM    4  C4  UNL     1      -5.600  49.336 -23.336  1.00  0.00     0.052 C 
HETATM    5  C5  UNL     1      -4.983  48.872 -22.024  1.00  0.00     0.010 C 
HETATM    6  C6  UNL     1      -3.486  48.646 -22.336  1.00  0.00     0.002 C 
HETATM    7  C7  UNL     1      -2.597  48.962 -21.119  1.00  0.00    -0.004 C 
HETATM    8  C8  UNL     1      -1.266  48.179 -21.151  1.00  0.00     0.010 C 
HETATM    9  C9  UNL     1      -0.182  48.756 -20.226  1.00  0.00     0.035 C 
HETATM   10  C10 UNL     1      -0.767  49.601 -19.125  1.00  0.00    -0.069 C 
HETATM   11  C11 UNL     1      -0.572  49.277 -17.832  1.00  0.00     0.030 C 
HETATM   12  C12 UNL     1      -1.158  50.091 -16.729  1.00  0.00     0.032 C 
HETATM   13  N1  UNL     1      -0.835  50.011 -15.475  1.00  0.00    -0.271 N 
ATOM     14  H1  UNL     1      -1.209  50.625 -14.752  1.00  0.00     0.194 HD
HETATM   15  C22 UNL     1      -2.201  51.138 -17.085  1.00  0.00     0.060 C 
HETATM   16  C23 UNL     1      -2.747  50.971 -18.498  1.00  0.00     0.020 C 
HETATM   17  C24 UNL     1      -1.635  50.780 -19.571  1.00  0.00    -0.016 C 
HETATM   18  C25 UNL     1      -0.772  52.065 -19.624  1.00  0.00     0.020 C 
HETATM   19  C26 UNL     1      -2.340  50.475 -20.959  1.00  0.00     0.002 C 
HETATM   20  C27 UNL     1      -1.628  51.045 -22.204  1.00  0.00     0.007 C 
HETATM   21  C28 UNL     1      -1.943  50.369 -23.546  1.00  0.00     0.014 C 
HETATM   22  C29 UNL     1      -3.195  49.471 -23.632  1.00  0.00     0.003 C 
HETATM   23  C30 UNL     1      -2.914  48.457 -24.785  1.00  0.00     0.020 C 
ENDROOT
BRANCH   3  24
HETATM   24  O1  UNL     1      -4.750  50.381 -25.332  1.00  0.00    -0.377 OA
HETATM   25  H2  UNL     1      -5.551  50.925 -25.436  1.00  0.00     0.211 HD
ENDBRANCH   3  24
BRANCH  13  26
HETATM   26  O2  UNL     1       0.088  48.981 -15.226  1.00  0.00    -0.271 OA
BRANCH  26  27
HETATM   27  C13 UNL     1       1.148  49.501 -14.431  1.00  0.00     0.303 C 
BRANCH  27  28
HETATM   28  C14 UNL     1       0.621  50.277 -13.224  1.00  0.00     0.244 C 
HETATM   29  O3  UNL     1      -0.431  50.021 -12.642  1.00  0.00    -0.271 OA
HETATM   30  N2  UNL     1       1.403  51.356 -12.871  1.00  0.00    -0.350 N 
HETATM   31  H16 UNL     1       2.355  51.448 -13.226  1.00  0.00     0.163 HD
BRANCH  30  32
HETATM   32  C15 UNL     1       1.004  52.271 -11.820  1.00  0.00     0.225 C 
BRANCH  32  33
HETATM   33  C16 UNL     1       2.232  52.654 -10.995  1.00  0.00     0.236 C 
HETATM   34  O4  UNL     1       3.357  52.238 -11.269  1.00  0.00    -0.272 OA
HETATM   35  N3  UNL     1       1.960  53.466  -9.910  1.00  0.00    -0.345 N 
HETATM   36  H19 UNL     1       1.135  54.047 -10.004  1.00  0.00     0.163 HD
BRANCH  35  37
HETATM   37  C17 UNL     1       3.064  54.055  -9.144  1.00  0.00     0.185 C 
BRANCH  37  38
HETATM   38  C18 UNL     1       4.124  52.997  -8.784  1.00  0.00     0.163 C 
HETATM   39  O5  UNL     1       4.016  52.128  -7.928  1.00  0.00    -0.648 OA
BRANCH  38  40
HETATM   40  O6  UNL     1       5.286  53.133  -9.463  1.00  0.00    -0.775 OA
HETATM   41  H21 UNL     1       5.837  52.394  -9.124  1.00  0.00     0.167 HD
ENDBRANCH  38  40
ENDBRANCH  37  38
BRANCH  37  42
HETATM   42  C19 UNL     1       3.719  55.235  -9.898  1.00  0.00     0.010 C 
HETATM   43  C20 UNL     1       2.756  55.964 -10.845  1.00  0.00     0.012 C 
HETATM   44  C21 UNL     1       4.341  56.241  -8.918  1.00  0.00     0.012 C 
ENDBRANCH  37  42
ENDBRANCH  35  37
ENDBRANCH  32  33
ENDBRANCH  30  32
ENDBRANCH  27  28
ENDBRANCH  26  27
ENDBRANCH  13  26
TORSDOF 10
ENDMDL
MODEL 9
REMARK minimizedAffinity -8.45990467
REMARK CNNscore 0.294764072
REMARK CNNaffinity 6.28765488
REMARK  10 active torsions:
REMARK  status: ('A' for Active; 'I' for Inactive)
REMARK    1  A    between atoms: C3_3  and  O1_4 
REMARK    2  A    between atoms: N1_14  and  O2_16 
REMARK    3  A    between atoms: O2_16  and  C13_17 
REMARK    4  A    between atoms: C13_17  and  C14_18 
REMARK       I    between atoms: C14_18  and  N2_20 
REMARK    5  A    between atoms: N2_20  and  C15_21 
REMARK    6  A    between atoms: C15_21  and  C16_22 
REMARK       I    between atoms: C16_22  and  N3_24 
REMARK    7  A    between atoms: N3_24  and  C17_25 
REMARK    8  A    between atoms: C17_25  and  C18_26 
REMARK    9  A    between atoms: C17_25  and  C19_29 
REMARK   10  A    between atoms: C18_26  and  O6_28 
ROOT
HETATM    1  C1  UNL     1      -1.007  50.717 -25.288  1.00  0.00     0.015 C 
HETATM    2  C2  UNL     1      -2.199  50.665 -25.156  1.00  0.00    -0.078 C 
HETATM    3  C3  UNL     1      -3.676  50.607 -25.071  1.00  0.00     0.128 C 
HETATM    4  C4  UNL     1      -4.253  51.999 -24.820  1.00  0.00     0.052 C 
HETATM    5  C5  UNL     1      -4.111  52.176 -23.315  1.00  0.00     0.010 C 
HETATM    6  C6  UNL     1      -4.439  50.791 -22.710  1.00  0.00     0.002 C 
HETATM    7  C7  UNL     1      -3.630  50.524 -21.428  1.00  0.00    -0.004 C 
HETATM    8  C8  UNL     1      -4.343  49.531 -20.485  1.00  0.00     0.010 C 
HETATM    9  C9  UNL     1      -3.421  48.905 -19.426  1.00  0.00     0.035 C 
HETATM   10  C10 UNL     1      -2.191  49.740 -19.180  1.00  0.00    -0.069 C 
HETATM   11  C11 UNL     1      -1.934  50.241 -17.956  1.00  0.00     0.030 C 
HETATM   12  C12 UNL     1      -0.732  51.084 -17.699  1.00  0.00     0.032 C 
HETATM   13  N1  UNL     1      -0.269  51.405 -16.530  1.00  0.00    -0.271 N 
ATOM     14  H1  UNL     1       0.592  51.932 -16.386  1.00  0.00     0.194 HD
HETATM   15  C22 UNL     1       0.058  51.594 -18.893  1.00  0.00     0.060 C 
HETATM   16  C23 UNL     1      -0.697  51.443 -20.208  1.00  0.00     0.020 C 
HETATM   17  C24 UNL     1      -1.319  50.029 -20.404  1.00  0.00    -0.016 C 
HETATM   18  C25 UNL     1      -0.174  48.991 -20.479  1.00  0.00     0.020 C 
HETATM   19  C26 UNL     1      -2.191  50.057 -21.730  1.00  0.00     0.002 C 
HETATM   20  C27 UNL     1      -2.199  48.745 -22.545  1.00  0.00     0.007 C 
HETATM   21  C28 UNL     1      -3.384  48.537 -23.499  1.00  0.00     0.014 C 
HETATM   22  C29 UNL     1      -4.241  49.764 -23.873  1.00  0.00     0.003 C 
HETATM   23  C30 UNL     1      -5.647  49.203 -24.252  1.00  0.00     0.020 C 
ENDROOT
BRANCH   3  24
HETATM   24  O1  UNL     1      -4.151  50.121 -26.323  1.00  0.00    -0.377 OA
HETATM   25  H2  UNL     1      -3.707  50.646 -27.012  1.00  0.00     0.211 HD
ENDBRANCH   3  24
BRANCH  13  26
HETATM   26  O2  UNL     1      -1.089  50.945 -15.486  1.00  0.00    -0.271 OA
BRANCH  26  27
HETATM   27  C13 UNL     1      -0.634  51.514 -14.263  1.00  0.00     0.303 C 
BRANCH  27  28
HETATM   28  C14 UNL     1       0.855  51.250 -14.036  1.00  0.00     0.244 C 
HETATM   29  O3  UNL     1       1.488  50.348 -14.580  1.00  0.00    -0.271 OA
HETATM   30  N2  UNL     1       1.431  52.082 -13.100  1.00  0.00    -0.350 N 
HETATM   31  H16 UNL     1       0.960  52.936 -12.801  1.00  0.00     0.163 HD
BRANCH  30  32
HETATM   32  C15 UNL     1       2.807  51.909 -12.676  1.00  0.00     0.225 C 
BRANCH  32  33
HETATM   33  C16 UNL     1       2.984  52.520 -11.287  1.00  0.00     0.236 C 
HETATM   34  O4  UNL     1       2.834  51.859 -10.259  1.00  0.00    -0.272 OA
HETATM   35  N3  UNL     1       3.283  53.869 -11.291  1.00  0.00    -0.345 N 
HETATM   36  H19 UNL     1       3.758  54.202 -12.122  1.00  0.00     0.163 HD
BRANCH  35  37
HETATM   37  C17 UNL     1       3.658  54.538 -10.039  1.00  0.00     0.185 C 
BRANCH  37  38
HETATM   38  C18 UNL     1       5.175  54.449  -9.790  1.00  0.00     0.163 C 
HETATM   39  O5  UNL     1       5.988  55.350  -9.952  1.00  0.00    -0.648 OA
BRANCH  38  40
HETATM   40  O6  UNL     1       5.599  53.217  -9.425  1.00  0.00    -0.775 OA
HETATM   41  H21 UNL     1       6.567  53.334  -9.306  1.00  0.00     0.167 HD
ENDBRANCH  38  40
ENDBRANCH  37  38
BRANCH  37  42
HETATM   42  C19 UNL     1       3.197  56.014 -10.018  1.00  0.00     0.010 C 
HETATM   43  C20 UNL     1       3.721  56.800  -8.808  1.00  0.00     0.012 C 
HETATM   44  C21 UNL     1       3.592  56.736 -11.314  1.00  0.00     0.012 C 
ENDBRANCH  37  42
ENDBRANCH  35  37
ENDBRANCH  32  33
ENDBRANCH  30  32
ENDBRANCH  27  28
ENDBRANCH  26  27
ENDBRANCH  13  26
TORSDOF 10
ENDMDL
