MODEL 1
REMARK minimizedAffinity -6.91451693
REMARK CNNscore 0.551616311
REMARK CNNaffinity 6.53783941
REMARK  8 active torsions:
REMARK  status: ('A' for Active; 'I' for Inactive)
REMARK    1  A    between atoms: C2_2  and  C3_3 
REMARK    2  A    between atoms: C2_2  and  C9_12 
REMARK    3  A    between atoms: C3_3  and  C4_4 
REMARK    4  A    between atoms: C4_4  and  O1_5 
REMARK    5  A    between atoms: C4_4  and  C5_6 
REMARK    6  A    between atoms: C5_6  and  O2_7 
REMARK    7  A    between atoms: C5_6  and  C6_8 
REMARK    8  A    between atoms: C6_8  and  O3_11 
ROOT
HETATM    1  C9  UNL     1     -16.774  -2.989  12.514  1.00  0.00    -0.001 C 
HETATM    2  C10 UNL     1     -17.616  -2.731  11.229  1.00  0.00     0.007 C 
HETATM    3  C11 UNL     1     -18.131  -1.278  11.311  1.00  0.00     0.015 C 
HETATM    4  C12 UNL     1     -17.879  -0.842  12.771  1.00  0.00    -0.004 C 
HETATM    5  C13 UNL     1     -19.074  -1.372  13.623  1.00  0.00     0.021 C 
HETATM    6  C14 UNL     1     -17.764   0.633  13.150  1.00  0.00     0.007 C 
HETATM    7  C15 UNL     1     -16.991   1.064  14.181  1.00  0.00     0.007 C 
HETATM    8  C16 UNL     1     -16.230   0.016  14.978  1.00  0.00     0.157 C 
HETATM    9  O4  UNL     1     -15.665   0.320  16.034  1.00  0.00    -0.293 OA
HETATM   10  C17 UNL     1     -16.165  -1.425  14.503  1.00  0.00     0.094 C 
HETATM   11  C18 UNL     1     -16.487  -1.546  13.016  1.00  0.00    -0.022 C 
HETATM   12  C19 UNL     1     -15.336  -0.889  12.183  1.00  0.00     0.017 C 
HETATM   13  C20 UNL     1     -16.850   2.540  14.623  1.00  0.00    -0.007 C 
HETATM   14  C21 UNL     1     -17.677   2.710  15.923  1.00  0.00     0.021 C 
HETATM   15  C22 UNL     1     -15.356   2.904  14.913  1.00  0.00     0.022 C 
HETATM   16  C23 UNL     1     -14.951   4.351  14.649  1.00  0.00     0.080 C 
HETATM   17  C24 UNL     1     -16.121   5.293  14.759  1.00  0.00     0.135 C 
HETATM   18  O5  UNL     1     -16.087   6.258  15.520  1.00  0.00    -0.297 OA
HETATM   19  C25 UNL     1     -17.300   5.023  13.814  1.00  0.00     0.018 C 
HETATM   20  C26 UNL     1     -18.602   5.566  14.435  1.00  0.00     0.023 C 
HETATM   21  C27 UNL     1     -17.027   5.840  12.532  1.00  0.00     0.023 C 
HETATM   22  C28 UNL     1     -17.342   3.490  13.473  1.00  0.00     0.021 C 
HETATM   23  C29 UNL     1     -18.695   3.036  12.924  1.00  0.00     0.090 C 
HETATM   24  C30 UNL     1     -18.617   1.619  12.416  1.00  0.00     0.157 C 
HETATM   25  O6  UNL     1     -19.294   1.280  11.447  1.00  0.00    -0.293 OA
ENDROOT
BRANCH   1  26
HETATM   26  C2  UNL     1     -15.670  -4.067  12.274  1.00  0.00    -0.011 C 
HETATM   27  C1  UNL     1     -15.506  -5.172  13.318  1.00  0.00     0.010 C 
BRANCH  26  28
HETATM   28  C3  UNL     1     -15.806  -4.697  10.849  1.00  0.00     0.039 C 
BRANCH  28  29
HETATM   29  C4  UNL     1     -14.666  -4.359   9.855  1.00  0.00     0.150 C 
BRANCH  29  30
HETATM   30  O1  UNL     1     -13.504  -3.981  10.593  1.00  0.00    -0.393 OA
HETATM   31  H8  UNL     1     -12.740  -4.026   9.978  1.00  0.00     0.210 HD
ENDBRANCH  29  30
BRANCH  29  32
HETATM   32  C5  UNL     1     -14.367  -5.529   8.870  1.00  0.00     0.180 C 
BRANCH  32  33
HETATM   33  O2  UNL     1     -13.374  -6.397   9.437  1.00  0.00    -0.390 OA
HETATM   34  H10 UNL     1     -13.809  -6.983  10.083  1.00  0.00     0.210 HD
ENDBRANCH  32  33
BRANCH  32  35
HETATM   35  C6  UNL     1     -13.813  -5.063   7.487  1.00  0.00     0.079 C 
HETATM   36  C7  UNL     1     -13.186  -6.235   6.717  1.00  0.00     0.048 C 
HETATM   37  C8  UNL     1     -14.872  -4.390   6.610  1.00  0.00     0.048 C 
BRANCH  35  38
HETATM   38  O3  UNL     1     -12.770  -4.105   7.727  1.00  0.00    -0.388 OA
HETATM   39  H17 UNL     1     -12.154  -4.555   8.346  1.00  0.00     0.210 HD
ENDBRANCH  35  38
ENDBRANCH  32  35
ENDBRANCH  29  32
ENDBRANCH  28  29
ENDBRANCH  26  28
ENDBRANCH   1  26
TORSDOF 8
ENDMDL
MODEL 2
REMARK minimizedAffinity -8.52716541
REMARK CNNscore 0.497101963
REMARK CNNaffinity 7.04872274
REMARK  8 active torsions:
REMARK  status: ('A' for Active; 'I' for Inactive)
REMARK    1  A    between atoms: C2_2  and  C3_3 
REMARK    2  A    between atoms: C2_2  and  C9_12 
REMARK    3  A    between atoms: C3_3  and  C4_4 
REMARK    4  A    between atoms: C4_4  and  O1_5 
REMARK    5  A    between atoms: C4_4  and  C5_6 
REMARK    6  A    between atoms: C5_6  and  O2_7 
REMARK    7  A    between atoms: C5_6  and  C6_8 
REMARK    8  A    between atoms: C6_8  and  O3_11 
ROOT
HETATM    1  C9  UNL     1      -9.506   6.418  14.185  1.00  0.00    -0.001 C 
HETATM    2  C10 UNL     1      -8.922   7.768  14.699  1.00  0.00     0.007 C 
HETATM    3  C11 UNL     1      -7.385   7.656  14.611  1.00  0.00     0.015 C 
HETATM    4  C12 UNL     1      -7.100   6.156  14.384  1.00  0.00    -0.004 C 
HETATM    5  C13 UNL     1      -7.125   5.467  15.785  1.00  0.00     0.021 C 
HETATM    6  C14 UNL     1      -5.794   5.683  13.749  1.00  0.00     0.007 C 
HETATM    7  C15 UNL     1      -5.714   4.554  12.998  1.00  0.00     0.007 C 
HETATM    8  C16 UNL     1      -6.987   3.741  12.808  1.00  0.00     0.157 C 
HETATM    9  O4  UNL     1      -6.942   2.617  12.300  1.00  0.00    -0.293 OA
HETATM   10  C17 UNL     1      -8.331   4.289  13.255  1.00  0.00     0.094 C 
HETATM   11  C18 UNL     1      -8.299   5.806  13.418  1.00  0.00    -0.022 C 
HETATM   12  C19 UNL     1      -8.140   6.474  12.013  1.00  0.00     0.017 C 
HETATM   13  C20 UNL     1      -4.419   4.015  12.346  1.00  0.00    -0.007 C 
HETATM   14  C21 UNL     1      -3.951   2.802  13.189  1.00  0.00     0.021 C 
HETATM   15  C22 UNL     1      -4.678   3.548  10.874  1.00  0.00     0.022 C 
HETATM   16  C23 UNL     1      -3.505   3.686   9.908  1.00  0.00     0.080 C 
HETATM   17  C24 UNL     1      -2.179   3.646  10.621  1.00  0.00     0.135 C 
HETATM   18  O5  UNL     1      -1.314   2.831  10.304  1.00  0.00    -0.297 OA
HETATM   19  C25 UNL     1      -1.951   4.723  11.690  1.00  0.00     0.018 C 
HETATM   20  C26 UNL     1      -0.946   4.213  12.740  1.00  0.00     0.023 C 
HETATM   21  C27 UNL     1      -1.294   5.920  10.968  1.00  0.00     0.023 C 
HETATM   22  C28 UNL     1      -3.339   5.154  12.287  1.00  0.00     0.021 C 
HETATM   23  C29 UNL     1      -3.216   5.868  13.634  1.00  0.00     0.090 C 
HETATM   24  C30 UNL     1      -4.543   6.445  14.055  1.00  0.00     0.157 C 
HETATM   25  O6  UNL     1      -4.577   7.497  14.690  1.00  0.00    -0.293 OA
ENDROOT
BRANCH   1  26
HETATM   26  C2  UNL     1     -10.929   6.601  13.569  1.00  0.00    -0.011 C 
HETATM   27  C1  UNL     1     -12.139   6.319  14.460  1.00  0.00     0.010 C 
BRANCH  26  28
HETATM   28  C3  UNL     1     -11.073   8.011  12.907  1.00  0.00     0.039 C 
BRANCH  28  29
HETATM   29  C4  UNL     1     -11.826   9.072  13.748  1.00  0.00     0.150 C 
BRANCH  29  30
HETATM   30  O1  UNL     1     -11.147  10.322  13.635  1.00  0.00    -0.393 OA
HETATM   31  H8  UNL     1     -11.764  11.020  13.945  1.00  0.00     0.210 HD
ENDBRANCH  29  30
BRANCH  29  32
HETATM   32  C5  UNL     1     -13.327   9.195  13.348  1.00  0.00     0.180 C 
BRANCH  32  33
HETATM   33  O2  UNL     1     -13.677   8.131  12.449  1.00  0.00    -0.390 OA
HETATM   34  H10 UNL     1     -13.828   7.323  12.971  1.00  0.00     0.210 HD
ENDBRANCH  32  33
BRANCH  32  35
HETATM   35  C6  UNL     1     -13.679  10.529  12.617  1.00  0.00     0.079 C 
HETATM   36  C7  UNL     1     -15.114  10.500  12.071  1.00  0.00     0.048 C 
HETATM   37  C8  UNL     1     -13.499  11.764  13.503  1.00  0.00     0.048 C 
BRANCH  35  38
HETATM   38  O3  UNL     1     -12.796  10.664  11.492  1.00  0.00    -0.388 OA
HETATM   39  H17 UNL     1     -12.894   9.823  10.994  1.00  0.00     0.210 HD
ENDBRANCH  35  38
ENDBRANCH  32  35
ENDBRANCH  29  32
ENDBRANCH  28  29
ENDBRANCH  26  28
ENDBRANCH   1  26
TORSDOF 8
ENDMDL
MODEL 3
REMARK minimizedAffinity -6.58286047
REMARK CNNscore 0.367408335
REMARK CNNaffinity 5.82812643
REMARK  8 active torsions:
REMARK  status: ('A' for Active; 'I' for Inactive)
REMARK    1  A    between atoms: C2_2  and  C3_3 
REMARK    2  A    between atoms: C2_2  and  C9_12 
REMARK    3  A    between atoms: C3_3  and  C4_4 
REMARK    4  A    between atoms: C4_4  and  O1_5 
REMARK    5  A    between atoms: C4_4  and  C5_6 
REMARK    6  A    between atoms: C5_6  and  O2_7 
REMARK    7  A    between atoms: C5_6  and  C6_8 
REMARK    8  A    between atoms: C6_8  and  O3_11 
ROOT
HETATM    1  C9  UNL     1     -14.991  -5.565  11.053  1.00  0.00    -0.001 C 
HETATM    2  C10 UNL     1     -14.313  -6.178  12.315  1.00  0.00     0.007 C 
HETATM    3  C11 UNL     1     -14.397  -5.117  13.432  1.00  0.00     0.015 C 
HETATM    4  C12 UNL     1     -14.799  -3.808  12.718  1.00  0.00    -0.004 C 
HETATM    5  C13 UNL     1     -13.491  -3.178  12.143  1.00  0.00     0.021 C 
HETATM    6  C14 UNL     1     -15.472  -2.665  13.475  1.00  0.00     0.007 C 
HETATM    7  C15 UNL     1     -16.352  -1.816  12.884  1.00  0.00     0.007 C 
HETATM    8  C16 UNL     1     -16.652  -2.026  11.407  1.00  0.00     0.157 C 
HETATM    9  O4  UNL     1     -17.290  -1.183  10.771  1.00  0.00    -0.293 OA
HETATM   10  C17 UNL     1     -16.157  -3.267  10.684  1.00  0.00     0.094 C 
HETATM   11  C18 UNL     1     -15.812  -4.391  11.658  1.00  0.00    -0.022 C 
HETATM   12  C19 UNL     1     -17.126  -4.919  12.322  1.00  0.00     0.017 C 
HETATM   13  C20 UNL     1     -17.051  -0.631  13.593  1.00  0.00    -0.007 C 
HETATM   14  C21 UNL     1     -16.354   0.667  13.111  1.00  0.00     0.021 C 
HETATM   15  C22 UNL     1     -18.570  -0.566  13.223  1.00  0.00     0.022 C 
HETATM   16  C23 UNL     1     -19.500  -0.002  14.293  1.00  0.00     0.080 C 
HETATM   17  C24 UNL     1     -18.783   0.937  15.226  1.00  0.00     0.135 C 
HETATM   18  O5  UNL     1     -19.186   2.086  15.400  1.00  0.00    -0.297 OA
HETATM   19  C25 UNL     1     -17.591   0.352  15.994  1.00  0.00     0.018 C 
HETATM   20  C26 UNL     1     -16.598   1.474  16.353  1.00  0.00     0.023 C 
HETATM   21  C27 UNL     1     -18.156  -0.204  17.319  1.00  0.00     0.023 C 
HETATM   22  C28 UNL     1     -16.961  -0.815  15.150  1.00  0.00     0.021 C 
HETATM   23  C29 UNL     1     -15.537  -1.166  15.583  1.00  0.00     0.090 C 
HETATM   24  C30 UNL     1     -15.063  -2.420  14.894  1.00  0.00     0.157 C 
HETATM   25  O6  UNL     1     -14.308  -3.191  15.482  1.00  0.00    -0.293 OA
ENDROOT
BRANCH   1  26
HETATM   26  C2  UNL     1     -15.596  -6.668  10.128  1.00  0.00    -0.011 C 
HETATM   27  C1  UNL     1     -16.840  -7.411  10.615  1.00  0.00     0.010 C 
BRANCH  26  28
HETATM   28  C3  UNL     1     -15.838  -6.115   8.685  1.00  0.00     0.039 C 
BRANCH  28  29
HETATM   29  C4  UNL     1     -15.168  -6.915   7.540  1.00  0.00     0.150 C 
BRANCH  29  30
HETATM   30  O1  UNL     1     -16.076  -7.004   6.442  1.00  0.00    -0.393 OA
HETATM   31  H8  UNL     1     -15.557  -7.273   5.654  1.00  0.00     0.210 HD
ENDBRANCH  29  30
BRANCH  29  32
HETATM   32  C5  UNL     1     -13.800  -6.306   7.107  1.00  0.00     0.180 C 
BRANCH  32  33
HETATM   33  O2  UNL     1     -12.815  -6.559   8.121  1.00  0.00    -0.390 OA
HETATM   34  H10 UNL     1     -12.498  -7.474   8.023  1.00  0.00     0.210 HD
ENDBRANCH  32  33
BRANCH  32  35
HETATM   35  C6  UNL     1     -13.836  -4.761   6.895  1.00  0.00     0.079 C 
HETATM   36  C7  UNL     1     -15.199  -4.307   6.353  1.00  0.00     0.048 C 
HETATM   37  C8  UNL     1     -13.508  -3.972   8.165  1.00  0.00     0.048 C 
BRANCH  35  38
HETATM   38  O3  UNL     1     -12.850  -4.426   5.905  1.00  0.00    -0.388 OA
HETATM   39  H17 UNL     1     -13.059  -5.004   5.138  1.00  0.00     0.210 HD
ENDBRANCH  35  38
ENDBRANCH  32  35
ENDBRANCH  29  32
ENDBRANCH  28  29
ENDBRANCH  26  28
ENDBRANCH   1  26
TORSDOF 8
ENDMDL
MODEL 4
REMARK minimizedAffinity -10.1952667
REMARK CNNscore 0.356283486
REMARK CNNaffinity 7.02456665
REMARK  8 active torsions:
REMARK  status: ('A' for Active; 'I' for Inactive)
REMARK    1  A    between atoms: C2_2  and  C3_3 
REMARK    2  A    between atoms: C2_2  and  C9_12 
REMARK    3  A    between atoms: C3_3  and  C4_4 
REMARK    4  A    between atoms: C4_4  and  O1_5 
REMARK    5  A    between atoms: C4_4  and  C5_6 
REMARK    6  A    between atoms: C5_6  and  O2_7 
REMARK    7  A    between atoms: C5_6  and  C6_8 
REMARK    8  A    between atoms: C6_8  and  O3_11 
ROOT
HETATM    1  C9  UNL     1       0.836   6.918  12.219  1.00  0.00    -0.001 C 
HETATM    2  C10 UNL     1       0.587   5.943  11.030  1.00  0.00     0.007 C 
HETATM    3  C11 UNL     1      -0.816   5.332  11.234  1.00  0.00     0.015 C 
HETATM    4  C12 UNL     1      -1.205   5.686  12.686  1.00  0.00    -0.004 C 
HETATM    5  C13 UNL     1      -0.544   4.618  13.613  1.00  0.00     0.021 C 
HETATM    6  C14 UNL     1      -2.665   5.726  13.130  1.00  0.00     0.007 C 
HETATM    7  C15 UNL     1      -3.109   6.558  14.108  1.00  0.00     0.007 C 
HETATM    8  C16 UNL     1      -2.089   7.467  14.778  1.00  0.00     0.157 C 
HETATM    9  O4  UNL     1      -2.388   8.103  15.793  1.00  0.00    -0.293 OA
HETATM   10  C17 UNL     1      -0.680   7.593  14.224  1.00  0.00     0.094 C 
HETATM   11  C18 UNL     1      -0.602   7.144  12.768  1.00  0.00    -0.022 C 
HETATM   12  C19 UNL     1      -1.384   8.159  11.870  1.00  0.00     0.017 C 
HETATM   13  C20 UNL     1      -4.570   6.630  14.612  1.00  0.00    -0.007 C 
HETATM   14  C21 UNL     1      -4.615   5.919  15.988  1.00  0.00     0.021 C 
HETATM   15  C22 UNL     1      -5.037   8.114  14.786  1.00  0.00     0.022 C 
HETATM   16  C23 UNL     1      -6.522   8.384  14.562  1.00  0.00     0.080 C 
HETATM   17  C24 UNL     1      -7.363   7.163  14.825  1.00  0.00     0.135 C 
HETATM   18  O5  UNL     1      -8.292   7.196  15.630  1.00  0.00    -0.297 OA
HETATM   19  C25 UNL     1      -7.044   5.924  13.978  1.00  0.00     0.018 C 
HETATM   20  C26 UNL     1      -7.454   4.649  14.740  1.00  0.00     0.023 C 
HETATM   21  C27 UNL     1      -7.936   6.015  12.721  1.00  0.00     0.023 C 
HETATM   22  C28 UNL     1      -5.529   5.963  13.562  1.00  0.00     0.021 C 
HETATM   23  C29 UNL     1      -4.995   4.602  13.114  1.00  0.00     0.090 C 
HETATM   24  C30 UNL     1      -3.613   4.737  12.528  1.00  0.00     0.157 C 
HETATM   25  O6  UNL     1      -3.266   4.000  11.607  1.00  0.00    -0.293 OA
ENDROOT
BRANCH   1  26
HETATM   26  C2  UNL     1       1.811   8.072  11.825  1.00  0.00    -0.011 C 
HETATM   27  C1  UNL     1       1.925   9.270  12.768  1.00  0.00     0.010 C 
BRANCH  26  28
HETATM   28  C3  UNL     1       3.236   7.512  11.502  1.00  0.00     0.039 C 
BRANCH  28  29
HETATM   29  C4  UNL     1       3.682   7.629  10.023  1.00  0.00     0.150 C 
BRANCH  29  30
HETATM   30  O1  UNL     1       5.024   7.158   9.904  1.00  0.00    -0.393 OA
HETATM   31  H8  UNL     1       5.193   6.994   8.951  1.00  0.00     0.210 HD
ENDBRANCH  29  30
BRANCH  29  32
HETATM   32  C5  UNL     1       2.722   6.880   9.050  1.00  0.00     0.180 C 
BRANCH  32  33
HETATM   33  O2  UNL     1       3.433   5.823   8.386  1.00  0.00    -0.390 OA
HETATM   34  H10 UNL     1       3.494   5.064   8.993  1.00  0.00     0.210 HD
ENDBRANCH  32  33
BRANCH  32  35
HETATM   35  C6  UNL     1       2.125   7.788   7.929  1.00  0.00     0.079 C 
HETATM   36  C7  UNL     1       1.954   7.008   6.617  1.00  0.00     0.048 C 
HETATM   37  C8  UNL     1       0.789   8.424   8.318  1.00  0.00     0.048 C 
BRANCH  35  38
HETATM   38  O3  UNL     1       3.058   8.850   7.675  1.00  0.00    -0.388 OA
HETATM   39  H17 UNL     1       3.912   8.396   7.500  1.00  0.00     0.210 HD
ENDBRANCH  35  38
ENDBRANCH  32  35
ENDBRANCH  29  32
ENDBRANCH  28  29
ENDBRANCH  26  28
ENDBRANCH   1  26
TORSDOF 8
ENDMDL
MODEL 5
REMARK minimizedAffinity -9.58981228
REMARK CNNscore 0.341322333
REMARK CNNaffinity 6.67349815
REMARK  8 active torsions:
REMARK  status: ('A' for Active; 'I' for Inactive)
REMARK    1  A    between atoms: C2_2  and  C3_3 
REMARK    2  A    between atoms: C2_2  and  C9_12 
REMARK    3  A    between atoms: C3_3  and  C4_4 
REMARK    4  A    between atoms: C4_4  and  O1_5 
REMARK    5  A    between atoms: C4_4  and  C5_6 
REMARK    6  A    between atoms: C5_6  and  O2_7 
REMARK    7  A    between atoms: C5_6  and  C6_8 
REMARK    8  A    between atoms: C6_8  and  O3_11 
ROOT
HETATM    1  C9  UNL     1       0.652   7.537  12.533  1.00  0.00    -0.001 C 
HETATM    2  C10 UNL     1       0.541   6.603  11.292  1.00  0.00     0.007 C 
HETATM    3  C11 UNL     1      -0.811   5.867  11.401  1.00  0.00     0.015 C 
HETATM    4  C12 UNL     1      -1.293   6.118  12.846  1.00  0.00    -0.004 C 
HETATM    5  C13 UNL     1      -0.585   5.066  13.756  1.00  0.00     0.021 C 
HETATM    6  C14 UNL     1      -2.770   6.013  13.220  1.00  0.00     0.007 C 
HETATM    7  C15 UNL     1      -3.327   6.757  14.211  1.00  0.00     0.007 C 
HETATM    8  C16 UNL     1      -2.420   7.715  14.969  1.00  0.00     0.157 C 
HETATM    9  O4  UNL     1      -2.818   8.274  15.995  1.00  0.00    -0.293 OA
HETATM   10  C17 UNL     1      -1.004   7.986  14.491  1.00  0.00     0.094 C 
HETATM   11  C18 UNL     1      -0.822   7.615  13.021  1.00  0.00    -0.022 C 
HETATM   12  C19 UNL     1      -1.648   8.603  12.133  1.00  0.00     0.017 C 
HETATM   13  C20 UNL     1      -4.810   6.682  14.646  1.00  0.00    -0.007 C 
HETATM   14  C21 UNL     1      -4.855   5.903  15.986  1.00  0.00     0.021 C 
HETATM   15  C22 UNL     1      -5.410   8.111  14.862  1.00  0.00     0.022 C 
HETATM   16  C23 UNL     1      -6.901   8.266  14.579  1.00  0.00     0.080 C 
HETATM   17  C24 UNL     1      -7.645   6.967  14.747  1.00  0.00     0.135 C 
HETATM   18  O5  UNL     1      -8.609   6.883  15.506  1.00  0.00    -0.297 OA
HETATM   19  C25 UNL     1      -7.183   5.801  13.862  1.00  0.00     0.018 C 
HETATM   20  C26 UNL     1      -7.515   4.461  14.547  1.00  0.00     0.023 C 
HETATM   21  C27 UNL     1      -8.023   5.877  12.569  1.00  0.00     0.023 C 
HETATM   22  C28 UNL     1      -5.660   5.988  13.523  1.00  0.00     0.021 C 
HETATM   23  C29 UNL     1      -4.992   4.700  13.041  1.00  0.00     0.090 C 
HETATM   24  C30 UNL     1      -3.602   4.978  12.530  1.00  0.00     0.157 C 
HETATM   25  O6  UNL     1      -3.151   4.318  11.595  1.00  0.00    -0.293 OA
ENDROOT
BRANCH   1  26
HETATM   26  C2  UNL     1       1.541   8.787  12.239  1.00  0.00    -0.011 C 
HETATM   27  C1  UNL     1       2.098   9.569  13.428  1.00  0.00     0.010 C 
BRANCH  26  28
HETATM   28  C3  UNL     1       2.699   8.427  11.249  1.00  0.00     0.039 C 
BRANCH  28  29
HETATM   29  C4  UNL     1       3.961   7.803  11.895  1.00  0.00     0.150 C 
BRANCH  29  30
HETATM   30  O1  UNL     1       3.562   6.955  12.971  1.00  0.00    -0.393 OA
HETATM   31  H8  UNL     1       4.326   6.380  13.190  1.00  0.00     0.210 HD
ENDBRANCH  29  30
BRANCH  29  32
HETATM   32  C5  UNL     1       4.845   7.042  10.861  1.00  0.00     0.180 C 
BRANCH  32  33
HETATM   33  O2  UNL     1       4.333   5.713  10.671  1.00  0.00    -0.390 OA
HETATM   34  H10 UNL     1       3.572   5.760  10.065  1.00  0.00     0.210 HD
ENDBRANCH  32  33
BRANCH  32  35
HETATM   35  C6  UNL     1       6.336   6.886  11.298  1.00  0.00     0.079 C 
HETATM   36  C7  UNL     1       6.515   7.225  12.785  1.00  0.00     0.048 C 
HETATM   37  C8  UNL     1       6.899   5.490  11.026  1.00  0.00     0.048 C 
BRANCH  35  38
HETATM   38  O3  UNL     1       7.118   7.828  10.548  1.00  0.00    -0.388 OA
HETATM   39  H17 UNL     1       6.679   8.695  10.697  1.00  0.00     0.210 HD
ENDBRANCH  35  38
ENDBRANCH  32  35
ENDBRANCH  29  32
ENDBRANCH  28  29
ENDBRANCH  26  28
ENDBRANCH   1  26
TORSDOF 8
ENDMDL
MODEL 6
REMARK minimizedAffinity -7.19380379
REMARK CNNscore 0.268233776
REMARK CNNaffinity 5.33125544
REMARK  8 active torsions:
REMARK  status: ('A' for Active; 'I' for Inactive)
REMARK    1  A    between atoms: C2_2  and  C3_3 
REMARK    2  A    between atoms: C2_2  and  C9_12 
REMARK    3  A    between atoms: C3_3  and  C4_4 
REMARK    4  A    between atoms: C4_4  and  O1_5 
REMARK    5  A    between atoms: C4_4  and  C5_6 
REMARK    6  A    between atoms: C5_6  and  O2_7 
REMARK    7  A    between atoms: C5_6  and  C6_8 
REMARK    8  A    between atoms: C6_8  and  O3_11 
ROOT
HETATM    1  C9  UNL     1      10.804  12.580  18.055  1.00  0.00    -0.001 C 
HETATM    2  C10 UNL     1      10.810  13.210  16.630  1.00  0.00     0.007 C 
HETATM    3  C11 UNL     1      12.219  13.796  16.402  1.00  0.00     0.015 C 
HETATM    4  C12 UNL     1      12.884  13.807  17.796  1.00  0.00    -0.004 C 
HETATM    5  C13 UNL     1      12.404  15.101  18.524  1.00  0.00     0.021 C 
HETATM    6  C14 UNL     1      14.403  13.822  17.951  1.00  0.00     0.007 C 
HETATM    7  C15 UNL     1      15.036  13.249  19.007  1.00  0.00     0.007 C 
HETATM    8  C16 UNL     1      14.173  12.583  20.069  1.00  0.00     0.157 C 
HETATM    9  O4  UNL     1      14.669  12.214  21.138  1.00  0.00    -0.293 OA
HETATM   10  C17 UNL     1      12.685  12.376  19.843  1.00  0.00     0.094 C 
HETATM   11  C18 UNL     1      12.323  12.443  18.362  1.00  0.00    -0.022 C 
HETATM   12  C19 UNL     1      12.927  11.203  17.625  1.00  0.00     0.017 C 
HETATM   13  C20 UNL     1      16.567  13.249  19.228  1.00  0.00    -0.007 C 
HETATM   14  C21 UNL     1      16.870  14.285  20.341  1.00  0.00     0.021 C 
HETATM   15  C22 UNL     1      17.073  11.840  19.686  1.00  0.00     0.022 C 
HETATM   16  C23 UNL     1      18.490  11.463  19.262  1.00  0.00     0.080 C 
HETATM   17  C24 UNL     1      19.354  12.676  19.039  1.00  0.00     0.135 C 
HETATM   18  O5  UNL     1      20.421  12.811  19.635  1.00  0.00    -0.297 OA
HETATM   19  C25 UNL     1      18.865  13.671  17.978  1.00  0.00     0.018 C 
HETATM   20  C26 UNL     1      19.402  15.080  18.295  1.00  0.00     0.023 C 
HETATM   21  C27 UNL     1      19.499  13.228  16.641  1.00  0.00     0.023 C 
HETATM   22  C28 UNL     1      17.299  13.588  17.881  1.00  0.00     0.021 C 
HETATM   23  C29 UNL     1      16.676  14.811  17.206  1.00  0.00     0.090 C 
HETATM   24  C30 UNL     1      15.208  14.587  16.947  1.00  0.00     0.157 C 
HETATM   25  O6  UNL     1      14.682  15.079  15.950  1.00  0.00    -0.293 OA
ENDROOT
BRANCH   1  26
HETATM   26  C2  UNL     1       9.783  11.404  18.163  1.00  0.00    -0.011 C 
HETATM   27  C1  UNL     1       8.678  11.506  19.214  1.00  0.00     0.010 C 
BRANCH  26  28
HETATM   28  C3  UNL     1       9.159  11.076  16.766  1.00  0.00     0.039 C 
BRANCH  28  29
HETATM   29  C4  UNL     1       9.247   9.594  16.324  1.00  0.00     0.150 C 
BRANCH  29  30
HETATM   30  O1  UNL     1       9.814   8.826  17.385  1.00  0.00    -0.393 OA
HETATM   31  H8  UNL     1       9.622   7.882  17.198  1.00  0.00     0.210 HD
ENDBRANCH  29  30
BRANCH  29  32
HETATM   32  C5  UNL     1       7.867   9.023  15.876  1.00  0.00     0.180 C 
BRANCH  32  33
HETATM   33  O2  UNL     1       7.388   8.089  16.856  1.00  0.00    -0.390 OA
HETATM   34  H10 UNL     1       7.000   8.589  17.595  1.00  0.00     0.210 HD
ENDBRANCH  32  33
BRANCH  32  35
HETATM   35  C6  UNL     1       7.913   8.259  14.516  1.00  0.00     0.079 C 
HETATM   36  C7  UNL     1       7.138   9.017  13.428  1.00  0.00     0.048 C 
HETATM   37  C8  UNL     1       9.337   7.986  14.027  1.00  0.00     0.048 C 
BRANCH  35  38
HETATM   38  O3  UNL     1       7.261   6.992  14.698  1.00  0.00    -0.388 OA
HETATM   39  H17 UNL     1       6.382   7.213  15.076  1.00  0.00     0.210 HD
ENDBRANCH  35  38
ENDBRANCH  32  35
ENDBRANCH  29  32
ENDBRANCH  28  29
ENDBRANCH  26  28
ENDBRANCH   1  26
TORSDOF 8
ENDMDL
MODEL 7
REMARK minimizedAffinity -7.51873875
REMARK CNNscore 0.258390248
REMARK CNNaffinity 6.04264021
REMARK  8 active torsions:
REMARK  status: ('A' for Active; 'I' for Inactive)
REMARK    1  A    between atoms: C2_2  and  C3_3 
REMARK    2  A    between atoms: C2_2  and  C9_12 
REMARK    3  A    between atoms: C3_3  and  C4_4 
REMARK    4  A    between atoms: C4_4  and  O1_5 
REMARK    5  A    between atoms: C4_4  and  C5_6 
REMARK    6  A    between atoms: C5_6  and  O2_7 
REMARK    7  A    between atoms: C5_6  and  C6_8 
REMARK    8  A    between atoms: C6_8  and  O3_11 
ROOT
HETATM    1  C9  UNL     1       0.695   6.422  11.545  1.00  0.00    -0.001 C 
HETATM    2  C10 UNL     1      -0.664   5.677  11.388  1.00  0.00     0.007 C 
HETATM    3  C11 UNL     1      -1.605   6.218  12.485  1.00  0.00     0.015 C 
HETATM    4  C12 UNL     1      -0.689   6.994  13.457  1.00  0.00    -0.004 C 
HETATM    5  C13 UNL     1      -0.063   5.949  14.432  1.00  0.00     0.021 C 
HETATM    6  C14 UNL     1      -1.244   8.084  14.371  1.00  0.00     0.007 C 
HETATM    7  C15 UNL     1      -0.505   9.156  14.762  1.00  0.00     0.007 C 
HETATM    8  C16 UNL     1       0.931   9.242  14.266  1.00  0.00     0.157 C 
HETATM    9  O4  UNL     1       1.705  10.081  14.733  1.00  0.00    -0.293 OA
HETATM   10  C17 UNL     1       1.443   8.286  13.202  1.00  0.00     0.094 C 
HETATM   11  C18 UNL     1       0.300   7.649  12.415  1.00  0.00    -0.022 C 
HETATM   12  C19 UNL     1      -0.399   8.744  11.543  1.00  0.00     0.017 C 
HETATM   13  C20 UNL     1      -1.005  10.280  15.699  1.00  0.00    -0.007 C 
HETATM   14  C21 UNL     1      -0.352  10.046  17.085  1.00  0.00     0.021 C 
HETATM   15  C22 UNL     1      -0.586  11.691  15.165  1.00  0.00     0.022 C 
HETATM   16  C23 UNL     1      -1.531  12.843  15.493  1.00  0.00     0.080 C 
HETATM   17  C24 UNL     1      -2.331  12.580  16.741  1.00  0.00     0.135 C 
HETATM   18  O5  UNL     1      -2.317  13.373  17.681  1.00  0.00    -0.297 OA
HETATM   19  C25 UNL     1      -3.213  11.324  16.729  1.00  0.00     0.018 C 
HETATM   20  C26 UNL     1      -3.426  10.821  18.170  1.00  0.00     0.023 C 
HETATM   21  C27 UNL     1      -4.590  11.764  16.187  1.00  0.00     0.023 C 
HETATM   22  C28 UNL     1      -2.574  10.259  15.766  1.00  0.00     0.021 C 
HETATM   23  C29 UNL     1      -3.097   8.842  16.010  1.00  0.00     0.090 C 
HETATM   24  C30 UNL     1      -2.620   7.905  14.930  1.00  0.00     0.157 C 
HETATM   25  O6  UNL     1      -3.340   6.977  14.566  1.00  0.00    -0.293 OA
ENDROOT
BRANCH   1  26
HETATM   26  C2  UNL     1       1.459   6.524  10.187  1.00  0.00    -0.011 C 
HETATM   27  C1  UNL     1       1.390   7.846   9.422  1.00  0.00     0.010 C 
BRANCH  26  28
HETATM   28  C3  UNL     1       2.951   6.082  10.351  1.00  0.00     0.039 C 
BRANCH  28  29
HETATM   29  C4  UNL     1       3.972   7.230  10.545  1.00  0.00     0.150 C 
BRANCH  29  30
HETATM   30  O1  UNL     1       3.276   8.406  10.958  1.00  0.00    -0.393 OA
HETATM   31  H8  UNL     1       3.943   9.028  11.322  1.00  0.00     0.210 HD
ENDBRANCH  29  30
BRANCH  29  32
HETATM   32  C5  UNL     1       5.110   6.855  11.542  1.00  0.00     0.180 C 
BRANCH  32  33
HETATM   33  O2  UNL     1       4.608   6.901  12.888  1.00  0.00    -0.390 OA
HETATM   34  H10 UNL     1       4.114   6.080  13.061  1.00  0.00     0.210 HD
ENDBRANCH  32  33
BRANCH  32  35
HETATM   35  C6  UNL     1       6.337   7.818  11.491  1.00  0.00     0.079 C 
HETATM   36  C7  UNL     1       6.221   8.801  10.317  1.00  0.00     0.048 C 
HETATM   37  C8  UNL     1       6.541   8.602  12.789  1.00  0.00     0.048 C 
BRANCH  35  38
HETATM   38  O3  UNL     1       7.514   7.025  11.269  1.00  0.00    -0.388 OA
HETATM   39  H17 UNL     1       7.309   6.491  10.470  1.00  0.00     0.210 HD
ENDBRANCH  35  38
ENDBRANCH  32  35
ENDBRANCH  29  32
ENDBRANCH  28  29
ENDBRANCH  26  28
ENDBRANCH   1  26
TORSDOF 8
ENDMDL
MODEL 8
REMARK minimizedAffinity -7.13758564
REMARK CNNscore 0.253938258
REMARK CNNaffinity 6.03023338
REMARK  8 active torsions:
REMARK  status: ('A' for Active; 'I' for Inactive)
REMARK    1  A    between atoms: C2_2  and  C3_3 
REMARK    2  A    between atoms: C2_2  and  C9_12 
REMARK    3  A    between atoms: C3_3  and  C4_4 
REMARK    4  A    between atoms: C4_4  and  O1_5 
REMARK    5  A    between atoms: C4_4  and  C5_6 
REMARK    6  A    between atoms: C5_6  and  O2_7 
REMARK    7  A    between atoms: C5_6  and  C6_8 
REMARK    8  A    between atoms: C6_8  and  O3_11 
ROOT
HETATM    1  C9  UNL     1      -4.715 -11.063   3.528  1.00  0.00    -0.001 C 
HETATM    2  C10 UNL     1      -3.454 -10.920   2.625  1.00  0.00     0.007 C 
HETATM    3  C11 UNL     1      -3.954 -10.629   1.194  1.00  0.00     0.015 C 
HETATM    4  C12 UNL     1      -5.464 -10.947   1.220  1.00  0.00    -0.004 C 
HETATM    5  C13 UNL     1      -5.613 -12.488   1.018  1.00  0.00     0.021 C 
HETATM    6  C14 UNL     1      -6.423 -10.334   0.202  1.00  0.00     0.007 C 
HETATM    7  C15 UNL     1      -7.723 -10.068   0.491  1.00  0.00     0.007 C 
HETATM    8  C16 UNL     1      -8.221 -10.414   1.887  1.00  0.00     0.157 C 
HETATM    9  O4  UNL     1      -9.427 -10.374   2.150  1.00  0.00    -0.293 OA
HETATM   10  C17 UNL     1      -7.249 -10.834   2.975  1.00  0.00     0.094 C 
HETATM   11  C18 UNL     1      -5.821 -10.399   2.658  1.00  0.00    -0.022 C 
HETATM   12  C19 UNL     1      -5.726  -8.840   2.737  1.00  0.00     0.017 C 
HETATM   13  C20 UNL     1      -8.745  -9.466  -0.503  1.00  0.00    -0.007 C 
HETATM   14  C21 UNL     1      -9.677 -10.618  -0.957  1.00  0.00     0.021 C 
HETATM   15  C22 UNL     1      -9.604  -8.348   0.176  1.00  0.00     0.022 C 
HETATM   16  C23 UNL     1     -10.088  -7.223  -0.734  1.00  0.00     0.080 C 
HETATM   17  C24 UNL     1     -10.201  -7.668  -2.169  1.00  0.00     0.135 C 
HETATM   18  O5  UNL     1     -11.258  -7.547  -2.786  1.00  0.00    -0.297 OA
HETATM   19  C25 UNL     1      -8.915  -8.192  -2.820  1.00  0.00     0.018 C 
HETATM   20  C26 UNL     1      -9.266  -9.176  -3.953  1.00  0.00     0.023 C 
HETATM   21  C27 UNL     1      -8.227  -6.971  -3.469  1.00  0.00     0.023 C 
HETATM   22  C28 UNL     1      -7.988  -8.800  -1.707  1.00  0.00     0.021 C 
HETATM   23  C29 UNL     1      -6.913  -9.733  -2.266  1.00  0.00     0.090 C 
HETATM   24  C30 UNL     1      -5.926 -10.116  -1.193  1.00  0.00     0.157 C 
HETATM   25  O6  UNL     1      -4.746 -10.298  -1.485  1.00  0.00    -0.293 OA
ENDROOT
BRANCH   1  26
HETATM   26  C2  UNL     1      -4.415 -10.668   5.008  1.00  0.00    -0.011 C 
HETATM   27  C1  UNL     1      -3.217  -9.758   5.279  1.00  0.00     0.010 C 
BRANCH  26  28
HETATM   28  C3  UNL     1      -5.692 -10.086   5.700  1.00  0.00     0.039 C 
BRANCH  28  29
HETATM   29  C4  UNL     1      -5.438  -9.254   6.982  1.00  0.00     0.150 C 
BRANCH  29  30
HETATM   30  O1  UNL     1      -6.202  -8.050   6.913  1.00  0.00    -0.393 OA
HETATM   31  H8  UNL     1      -6.237  -7.673   7.819  1.00  0.00     0.210 HD
ENDBRANCH  29  30
BRANCH  29  32
HETATM   32  C5  UNL     1      -5.744 -10.055   8.284  1.00  0.00     0.180 C 
BRANCH  32  33
HETATM   33  O2  UNL     1      -5.472 -11.449   8.069  1.00  0.00    -0.390 OA
HETATM   34  H10 UNL     1      -4.511 -11.591   8.144  1.00  0.00     0.210 HD
ENDBRANCH  32  33
BRANCH  32  35
HETATM   35  C6  UNL     1      -7.230  -9.958   8.751  1.00  0.00     0.079 C 
HETATM   36  C7  UNL     1      -7.497  -8.631   9.477  1.00  0.00     0.048 C 
HETATM   37  C8  UNL     1      -8.232 -10.118   7.605  1.00  0.00     0.048 C 
BRANCH  35  38
HETATM   38  O3  UNL     1      -7.469 -11.016   9.693  1.00  0.00    -0.388 OA
HETATM   39  H17 UNL     1      -6.763 -10.914  10.368  1.00  0.00     0.210 HD
ENDBRANCH  35  38
ENDBRANCH  32  35
ENDBRANCH  29  32
ENDBRANCH  28  29
ENDBRANCH  26  28
ENDBRANCH   1  26
TORSDOF 8
ENDMDL
MODEL 9
REMARK minimizedAffinity -7.62178087
REMARK CNNscore 0.240995154
REMARK CNNaffinity 5.35004854
REMARK  8 active torsions:
REMARK  status: ('A' for Active; 'I' for Inactive)
REMARK    1  A    between atoms: C2_2  and  C3_3 
REMARK    2  A    between atoms: C2_2  and  C9_12 
REMARK    3  A    between atoms: C3_3  and  C4_4 
REMARK    4  A    between atoms: C4_4  and  O1_5 
REMARK    5  A    between atoms: C4_4  and  C5_6 
REMARK    6  A    between atoms: C5_6  and  O2_7 
REMARK    7  A    between atoms: C5_6  and  C6_8 
REMARK    8  A    between atoms: C6_8  and  O3_11 
ROOT
HETATM    1  C9  UNL     1     -13.986  -6.366  13.687  1.00  0.00    -0.001 C 
HETATM    2  C10 UNL     1     -13.159  -5.876  12.461  1.00  0.00     0.007 C 
HETATM    3  C11 UNL     1     -13.558  -4.406  12.207  1.00  0.00     0.015 C 
HETATM    4  C12 UNL     1     -14.833  -4.182  13.048  1.00  0.00    -0.004 C 
HETATM    5  C13 UNL     1     -16.037  -4.712  12.208  1.00  0.00     0.021 C 
HETATM    6  C14 UNL     1     -15.260  -2.782  13.486  1.00  0.00     0.007 C 
HETATM    7  C15 UNL     1     -15.938  -2.553  14.641  1.00  0.00     0.007 C 
HETATM    8  C16 UNL     1     -16.283  -3.755  15.507  1.00  0.00     0.157 C 
HETATM    9  O4  UNL     1     -17.055  -3.637  16.463  1.00  0.00    -0.293 OA
HETATM   10  C17 UNL     1     -15.702  -5.125  15.201  1.00  0.00     0.094 C 
HETATM   11  C18 UNL     1     -14.454  -5.028  14.326  1.00  0.00    -0.022 C 
HETATM   12  C19 UNL     1     -13.296  -4.372  15.149  1.00  0.00     0.017 C 
HETATM   13  C20 UNL     1     -16.412  -1.163  15.127  1.00  0.00    -0.007 C 
HETATM   14  C21 UNL     1     -17.941  -1.089  14.884  1.00  0.00     0.021 C 
HETATM   15  C22 UNL     1     -16.124  -0.968  16.653  1.00  0.00     0.022 C 
HETATM   16  C23 UNL     1     -15.844   0.461  17.109  1.00  0.00     0.080 C 
HETATM   17  C24 UNL     1     -16.481   1.478  16.199  1.00  0.00     0.135 C 
HETATM   18  O5  UNL     1     -17.246   2.332  16.643  1.00  0.00    -0.297 OA
HETATM   19  C25 UNL     1     -16.054   1.432  14.726  1.00  0.00     0.018 C 
HETATM   20  C26 UNL     1     -17.178   2.001  13.838  1.00  0.00     0.023 C 
HETATM   21  C27 UNL     1     -14.841   2.378  14.595  1.00  0.00     0.023 C 
HETATM   22  C28 UNL     1     -15.630  -0.036  14.361  1.00  0.00     0.021 C 
HETATM   23  C29 UNL     1     -15.618  -0.299  12.855  1.00  0.00     0.090 C 
HETATM   24  C30 UNL     1     -15.003  -1.642  12.552  1.00  0.00     0.157 C 
HETATM   25  O6  UNL     1     -14.352  -1.796  11.521  1.00  0.00    -0.293 OA
ENDROOT
BRANCH   1  26
HETATM   26  C2  UNL     1     -13.244  -7.495  14.470  1.00  0.00    -0.011 C 
HETATM   27  C1  UNL     1     -12.841  -8.755  13.705  1.00  0.00     0.010 C 
BRANCH  26  28
HETATM   28  C3  UNL     1     -12.007  -6.921  15.238  1.00  0.00     0.039 C 
BRANCH  28  29
HETATM   29  C4  UNL     1     -12.002  -7.154  16.769  1.00  0.00     0.150 C 
BRANCH  29  30
HETATM   30  O1  UNL     1     -13.167  -6.553  17.335  1.00  0.00    -0.393 OA
HETATM   31  H8  UNL     1     -13.282  -6.927  18.235  1.00  0.00     0.210 HD
ENDBRANCH  29  30
BRANCH  29  32
HETATM   32  C5  UNL     1     -11.896  -8.664  17.143  1.00  0.00     0.180 C 
BRANCH  32  33
HETATM   33  O2  UNL     1     -12.556  -8.900  18.397  1.00  0.00    -0.390 OA
HETATM   34  H10 UNL     1     -13.515  -8.953  18.236  1.00  0.00     0.210 HD
ENDBRANCH  32  33
BRANCH  32  35
HETATM   35  C6  UNL     1     -10.430  -9.173  17.308  1.00  0.00     0.079 C 
HETATM   36  C7  UNL     1     -10.290 -10.065  18.550  1.00  0.00     0.048 C 
HETATM   37  C8  UNL     1      -9.914  -9.928  16.081  1.00  0.00     0.048 C 
BRANCH  35  38
HETATM   38  O3  UNL     1      -9.584  -8.029  17.506  1.00  0.00    -0.388 OA
HETATM   39  H17 UNL     1      -9.994  -7.541  18.255  1.00  0.00     0.210 HD
ENDBRANCH  35  38
ENDBRANCH  32  35
ENDBRANCH  29  32
ENDBRANCH  28  29
ENDBRANCH  26  28
ENDBRANCH   1  26
TORSDOF 8
ENDMDL
