MODEL 1
REMARK minimizedAffinity -9.02765179
REMARK  4 active torsions:
REMARK  status: ('A' for Active; 'I' for Inactive)
REMARK    1  A    between atoms: C4_4  and  C5_5 
REMARK    2  A    between atoms: C7_7  and  N1_8 
REMARK    3  A    between atoms: C9_10  and  C10_11 
REMARK    4  A    between atoms: C10_11  and  N2_12 
ROOT
HETATM    1  N1  UNL     1      -0.356  52.172 -24.502  1.00  0.00    -0.300 N 
HETATM    2  C8  UNL     1      -1.666  52.081 -24.933  1.00  0.00     0.109 A 
HETATM    3  C9  UNL     1      -1.703  51.846 -26.294  1.00  0.00    -0.011 A 
HETATM    4  C14 UNL     1      -0.346  51.775 -26.727  1.00  0.00     0.000 A 
HETATM    5  C15 UNL     1       0.260  51.556 -27.985  1.00  0.00     0.014 A 
HETATM    6  C16 UNL     1       1.653  51.536 -28.096  1.00  0.00     0.001 A 
HETATM    7  C17 UNL     1       2.450  51.733 -26.977  1.00  0.00     0.002 A 
HETATM    8  C18 UNL     1       1.878  51.955 -25.721  1.00  0.00     0.031 A 
HETATM    9  C19 UNL     1       0.474  51.973 -25.607  1.00  0.00     0.051 A 
ENDROOT
BRANCH   1  10
HETATM   10  C7  UNL     1       0.051  52.415 -23.183  1.00  0.00     0.179 A 
HETATM   11  C6  UNL     1      -0.253  51.667 -22.064  1.00  0.00     0.091 A 
HETATM   12  C5  UNL     1       0.396  52.318 -20.977  1.00  0.00     0.069 A 
HETATM   13  N4  UNL     1       1.056  53.396 -21.428  1.00  0.00    -0.258 N 
HETATM   14  O1  UNL     1       0.834  53.456 -22.783  1.00  0.00    -0.219 OA
ATOM     15  H4  UNL     1       1.614  54.045 -20.872  1.00  0.00     0.195 HD
BRANCH  12  16
HETATM   16  C4  UNL     1       0.406  51.941 -19.560  1.00  0.00    -0.007 A 
HETATM   17  C3  UNL     1       1.087  52.731 -18.618  1.00  0.00     0.014 A 
HETATM   18  C2  UNL     1       1.108  52.378 -17.266  1.00  0.00     0.001 A 
HETATM   19  C1  UNL     1       0.447  51.231 -16.836  1.00  0.00     0.000 A 
HETATM   20  C21 UNL     1      -0.237  50.439 -17.755  1.00  0.00     0.001 A 
HETATM   21  C20 UNL     1      -0.258  50.790 -19.108  1.00  0.00     0.014 A 
ENDBRANCH  12  16
ENDBRANCH   1  10
BRANCH   3  22
HETATM   22  C10 UNL     1      -2.925  51.689 -27.138  1.00  0.00     0.170 C 
BRANCH  22  23
HETATM   23  N2  UNL     1      -3.446  50.334 -27.064  1.00  0.00    -0.347 N 
HETATM   24  C11 UNL     1      -3.724  49.631 -25.923  1.00  0.00     0.109 A 
HETATM   25  C12 UNL     1      -4.140  48.395 -26.361  1.00  0.00     0.106 A 
HETATM   26  N3  UNL     1      -4.113  48.330 -27.730  1.00  0.00    -0.361 N 
HETATM   27  C13 UNL     1      -3.693  49.511 -28.127  1.00  0.00     0.182 A 
ATOM     28  H3  UNL     1      -4.366  47.534 -28.316  1.00  0.00     0.166 HD
ENDBRANCH  22  23
ENDBRANCH   3  22
TORSDOF 4
ENDMDL
MODEL 2
REMARK minimizedAffinity -8.96879578
REMARK  4 active torsions:
REMARK  status: ('A' for Active; 'I' for Inactive)
REMARK    1  A    between atoms: C4_4  and  C5_5 
REMARK    2  A    between atoms: C7_7  and  N1_8 
REMARK    3  A    between atoms: C9_10  and  C10_11 
REMARK    4  A    between atoms: C10_11  and  N2_12 
ROOT
HETATM    1  N1  UNL     1      -1.448  50.653 -23.328  1.00  0.00    -0.300 N 
HETATM    2  C8  UNL     1      -0.573  51.322 -24.165  1.00  0.00     0.109 A 
HETATM    3  C9  UNL     1      -0.848  51.013 -25.483  1.00  0.00    -0.011 A 
HETATM    4  C14 UNL     1      -1.959  50.117 -25.464  1.00  0.00     0.000 A 
HETATM    5  C15 UNL     1      -2.693  49.462 -26.477  1.00  0.00     0.014 A 
HETATM    6  C16 UNL     1      -3.761  48.626 -26.138  1.00  0.00     0.001 A 
HETATM    7  C17 UNL     1      -4.106  48.433 -24.809  1.00  0.00     0.002 A 
HETATM    8  C18 UNL     1      -3.395  49.065 -23.785  1.00  0.00     0.031 A 
HETATM    9  C19 UNL     1      -2.319  49.910 -24.125  1.00  0.00     0.051 A 
ENDROOT
BRANCH   1  10
HETATM   10  C7  UNL     1      -1.449  50.726 -21.929  1.00  0.00     0.179 A 
HETATM   11  C6  UNL     1      -0.363  50.918 -21.100  1.00  0.00     0.091 A 
HETATM   12  C5  UNL     1      -0.883  50.921 -19.775  1.00  0.00     0.069 A 
HETATM   13  N4  UNL     1      -2.212  50.744 -19.814  1.00  0.00    -0.258 N 
HETATM   14  O1  UNL     1      -2.555  50.616 -21.139  1.00  0.00    -0.219 OA
ATOM     15  H4  UNL     1      -2.846  50.710 -19.015  1.00  0.00     0.195 HD
BRANCH  12  16
HETATM   16  C4  UNL     1      -0.162  51.092 -18.510  1.00  0.00    -0.007 A 
HETATM   17  C3  UNL     1       0.624  52.235 -18.286  1.00  0.00     0.014 A 
HETATM   18  C2  UNL     1       1.320  52.404 -17.087  1.00  0.00     0.001 A 
HETATM   19  C1  UNL     1       1.240  51.433 -16.092  1.00  0.00     0.000 A 
HETATM   20  C21 UNL     1       0.461  50.295 -16.294  1.00  0.00     0.001 A 
HETATM   21  C20 UNL     1      -0.235  50.125 -17.495  1.00  0.00     0.014 A 
ENDBRANCH  12  16
ENDBRANCH   1  10
BRANCH   3  22
HETATM   22  C10 UNL     1      -0.129  51.526 -26.687  1.00  0.00     0.170 C 
BRANCH  22  23
HETATM   23  N2  UNL     1      -0.101  52.979 -26.705  1.00  0.00    -0.347 N 
HETATM   24  C11 UNL     1      -0.331  53.784 -27.788  1.00  0.00     0.109 A 
HETATM   25  C12 UNL     1      -0.143  55.065 -27.324  1.00  0.00     0.106 A 
HETATM   26  N3  UNL     1       0.199  55.056 -25.996  1.00  0.00    -0.361 N 
HETATM   27  C13 UNL     1       0.215  53.788 -25.649  1.00  0.00     0.182 A 
ATOM     28  H3  UNL     1       0.398  55.863 -25.404  1.00  0.00     0.166 HD
ENDBRANCH  22  23
ENDBRANCH   3  22
TORSDOF 4
ENDMDL
MODEL 3
REMARK minimizedAffinity -8.84560585
REMARK  4 active torsions:
REMARK  status: ('A' for Active; 'I' for Inactive)
REMARK    1  A    between atoms: C4_4  and  C5_5 
REMARK    2  A    between atoms: C7_7  and  N1_8 
REMARK    3  A    between atoms: C9_10  and  C10_11 
REMARK    4  A    between atoms: C10_11  and  N2_12 
ROOT
HETATM    1  N1  UNL     1      -0.439  52.100 -22.284  1.00  0.00    -0.300 N 
HETATM    2  C8  UNL     1      -0.159  52.793 -23.447  1.00  0.00     0.109 A 
HETATM    3  C9  UNL     1      -0.743  52.161 -24.528  1.00  0.00    -0.011 A 
HETATM    4  C14 UNL     1      -1.431  51.025 -24.007  1.00  0.00     0.000 A 
HETATM    5  C15 UNL     1      -2.208  50.005 -24.602  1.00  0.00     0.014 A 
HETATM    6  C16 UNL     1      -2.771  49.002 -23.808  1.00  0.00     0.001 A 
HETATM    7  C17 UNL     1      -2.572  48.999 -22.435  1.00  0.00     0.002 A 
HETATM    8  C18 UNL     1      -1.805  49.992 -21.820  1.00  0.00     0.031 A 
HETATM    9  C19 UNL     1      -1.238  51.005 -22.619  1.00  0.00     0.051 A 
ENDROOT
BRANCH   1  10
HETATM   10  C7  UNL     1       0.002  52.453 -21.001  1.00  0.00     0.179 A 
HETATM   11  C6  UNL     1       0.241  51.607 -19.937  1.00  0.00     0.091 A 
HETATM   12  C5  UNL     1       0.674  52.442 -18.869  1.00  0.00     0.069 A 
HETATM   13  N4  UNL     1       0.696  53.720 -19.279  1.00  0.00    -0.258 N 
HETATM   14  O1  UNL     1       0.274  53.722 -20.587  1.00  0.00    -0.219 OA
ATOM     15  H4  UNL     1       0.972  54.532 -18.726  1.00  0.00     0.195 HD
BRANCH  12  16
HETATM   16  C4  UNL     1       1.063  52.059 -17.509  1.00  0.00    -0.007 A 
HETATM   17  C3  UNL     1       0.266  51.175 -16.762  1.00  0.00     0.014 A 
HETATM   18  C2  UNL     1       0.624  50.809 -15.462  1.00  0.00     0.001 A 
HETATM   19  C1  UNL     1       1.786  51.319 -14.890  1.00  0.00     0.000 A 
HETATM   20  C21 UNL     1       2.592  52.192 -15.618  1.00  0.00     0.001 A 
HETATM   21  C20 UNL     1       2.234  52.560 -16.919  1.00  0.00     0.014 A 
ENDBRANCH  12  16
ENDBRANCH   1  10
BRANCH   3  22
HETATM   22  C10 UNL     1      -0.673  52.591 -25.956  1.00  0.00     0.170 C 
BRANCH  22  23
HETATM   23  N2  UNL     1       0.618  52.269 -26.541  1.00  0.00    -0.347 N 
HETATM   24  C11 UNL     1       0.907  52.185 -27.877  1.00  0.00     0.109 A 
HETATM   25  C12 UNL     1       2.229  51.806 -27.929  1.00  0.00     0.106 A 
HETATM   26  N3  UNL     1       2.742  51.653 -26.667  1.00  0.00    -0.361 N 
HETATM   27  C13 UNL     1       1.751  51.939 -25.852  1.00  0.00     0.182 A 
ATOM     28  H3  UNL     1       3.691  51.376 -26.415  1.00  0.00     0.166 HD
ENDBRANCH  22  23
ENDBRANCH   3  22
TORSDOF 4
ENDMDL
MODEL 4
REMARK minimizedAffinity -8.78019714
REMARK  4 active torsions:
REMARK  status: ('A' for Active; 'I' for Inactive)
REMARK    1  A    between atoms: C4_4  and  C5_5 
REMARK    2  A    between atoms: C7_7  and  N1_8 
REMARK    3  A    between atoms: C9_10  and  C10_11 
REMARK    4  A    between atoms: C10_11  and  N2_12 
ROOT
HETATM    1  N1  UNL     1      -2.629  49.961 -26.411  1.00  0.00    -0.300 N 
HETATM    2  C8  UNL     1      -1.623  50.891 -26.604  1.00  0.00     0.109 A 
HETATM    3  C9  UNL     1      -0.993  51.164 -25.406  1.00  0.00    -0.011 A 
HETATM    4  C14 UNL     1      -1.631  50.353 -24.420  1.00  0.00     0.000 A 
HETATM    5  C15 UNL     1      -1.439  50.184 -23.031  1.00  0.00     0.014 A 
HETATM    6  C16 UNL     1      -2.240  49.288 -22.318  1.00  0.00     0.001 A 
HETATM    7  C17 UNL     1      -3.229  48.562 -22.966  1.00  0.00     0.002 A 
HETATM    8  C18 UNL     1      -3.445  48.711 -24.339  1.00  0.00     0.031 A 
HETATM    9  C19 UNL     1      -2.636  49.613 -25.060  1.00  0.00     0.051 A 
ENDROOT
BRANCH   1  10
HETATM   10  C7  UNL     1      -3.477  49.462 -27.408  1.00  0.00     0.179 A 
HETATM   11  C6  UNL     1      -4.282  48.343 -27.339  1.00  0.00     0.091 A 
HETATM   12  C5  UNL     1      -4.946  48.265 -28.595  1.00  0.00     0.069 A 
HETATM   13  N4  UNL     1      -4.558  49.289 -29.372  1.00  0.00    -0.258 N 
HETATM   14  O1  UNL     1      -3.650  50.017 -28.641  1.00  0.00    -0.219 OA
ATOM     15  H4  UNL     1      -4.876  49.488 -30.321  1.00  0.00     0.195 HD
BRANCH  12  16
HETATM   16  C4  UNL     1      -5.918  47.270 -29.056  1.00  0.00    -0.007 A 
HETATM   17  C3  UNL     1      -5.888  46.804 -30.381  1.00  0.00     0.014 A 
HETATM   18  C2  UNL     1      -6.813  45.861 -30.832  1.00  0.00     0.001 A 
HETATM   19  C1  UNL     1      -7.783  45.366 -29.964  1.00  0.00     0.000 A 
HETATM   20  C21 UNL     1      -7.825  45.812 -28.645  1.00  0.00     0.001 A 
HETATM   21  C20 UNL     1      -6.899  46.757 -28.193  1.00  0.00     0.014 A 
ENDBRANCH  12  16
ENDBRANCH   1  10
BRANCH   3  22
HETATM   22  C10 UNL     1       0.139  52.113 -25.191  1.00  0.00     0.170 C 
BRANCH  22  23
HETATM   23  N2  UNL     1       1.128  52.003 -26.250  1.00  0.00    -0.347 N 
HETATM   24  C11 UNL     1       0.935  52.287 -27.575  1.00  0.00     0.109 A 
HETATM   25  C12 UNL     1       2.133  51.982 -28.180  1.00  0.00     0.106 A 
HETATM   26  N3  UNL     1       3.038  51.518 -27.261  1.00  0.00    -0.361 N 
HETATM   27  C13 UNL     1       2.407  51.542 -26.108  1.00  0.00     0.182 A 
ATOM     28  H3  UNL     1       3.997  51.217 -27.436  1.00  0.00     0.166 HD
ENDBRANCH  22  23
ENDBRANCH   3  22
TORSDOF 4
ENDMDL
MODEL 5
REMARK minimizedAffinity -8.58856869
REMARK  4 active torsions:
REMARK  status: ('A' for Active; 'I' for Inactive)
REMARK    1  A    between atoms: C4_4  and  C5_5 
REMARK    2  A    between atoms: C7_7  and  N1_8 
REMARK    3  A    between atoms: C9_10  and  C10_11 
REMARK    4  A    between atoms: C10_11  and  N2_12 
ROOT
HETATM    1  N1  UNL     1      -1.216  51.048 -23.103  1.00  0.00    -0.300 N 
HETATM    2  C8  UNL     1      -0.877  51.659 -24.296  1.00  0.00     0.109 A 
HETATM    3  C9  UNL     1       0.008  52.694 -24.065  1.00  0.00    -0.011 A 
HETATM    4  C14 UNL     1       0.241  52.718 -22.657  1.00  0.00     0.000 A 
HETATM    5  C15 UNL     1       1.038  53.530 -21.820  1.00  0.00     0.014 A 
HETATM    6  C16 UNL     1       1.064  53.300 -20.442  1.00  0.00     0.001 A 
HETATM    7  C17 UNL     1       0.307  52.279 -19.885  1.00  0.00     0.002 A 
HETATM    8  C18 UNL     1      -0.494  51.462 -20.689  1.00  0.00     0.031 A 
HETATM    9  C19 UNL     1      -0.519  51.690 -22.079  1.00  0.00     0.051 A 
ENDROOT
BRANCH   1  10
HETATM   10  C7  UNL     1      -2.099  49.968 -22.965  1.00  0.00     0.179 A 
HETATM   11  C6  UNL     1      -3.372  49.857 -23.487  1.00  0.00     0.091 A 
HETATM   12  C5  UNL     1      -3.849  48.582 -23.073  1.00  0.00     0.069 A 
HETATM   13  N4  UNL     1      -2.907  47.964 -22.344  1.00  0.00    -0.258 N 
HETATM   14  O1  UNL     1      -1.836  48.823 -22.274  1.00  0.00    -0.219 OA
ATOM     15  H4  UNL     1      -2.972  47.036 -21.925  1.00  0.00     0.195 HD
BRANCH  12  16
HETATM   16  C4  UNL     1      -5.145  47.955 -23.354  1.00  0.00    -0.007 A 
HETATM   17  C3  UNL     1      -5.759  47.130 -22.397  1.00  0.00     0.014 A 
HETATM   18  C2  UNL     1      -6.990  46.523 -22.657  1.00  0.00     0.001 A 
HETATM   19  C1  UNL     1      -7.626  46.733 -23.877  1.00  0.00     0.000 A 
HETATM   20  C21 UNL     1      -7.034  47.552 -24.836  1.00  0.00     0.001 A 
HETATM   21  C20 UNL     1      -5.802  48.159 -24.577  1.00  0.00     0.014 A 
ENDBRANCH  12  16
ENDBRANCH   1  10
BRANCH   3  22
HETATM   22  C10 UNL     1       0.608  53.599 -25.089  1.00  0.00     0.170 C 
BRANCH  22  23
HETATM   23  N2  UNL     1       0.537  53.013 -26.417  1.00  0.00    -0.347 N 
HETATM   24  C11 UNL     1       1.328  52.008 -26.906  1.00  0.00     0.109 A 
HETATM   25  C12 UNL     1       0.919  51.838 -28.208  1.00  0.00     0.106 A 
HETATM   26  N3  UNL     1      -0.089  52.713 -28.521  1.00  0.00    -0.361 N 
HETATM   27  C13 UNL     1      -0.299  53.407 -27.424  1.00  0.00     0.182 A 
ATOM     28  H3  UNL     1      -0.573  52.806 -29.414  1.00  0.00     0.166 HD
ENDBRANCH  22  23
ENDBRANCH   3  22
TORSDOF 4
ENDMDL
MODEL 6
REMARK minimizedAffinity -8.57249546
REMARK  4 active torsions:
REMARK  status: ('A' for Active; 'I' for Inactive)
REMARK    1  A    between atoms: C4_4  and  C5_5 
REMARK    2  A    between atoms: C7_7  and  N1_8 
REMARK    3  A    between atoms: C9_10  and  C10_11 
REMARK    4  A    between atoms: C10_11  and  N2_12 
ROOT
HETATM    1  N1  UNL     1      -3.793  48.851 -23.652  1.00  0.00    -0.300 N 
HETATM    2  C8  UNL     1      -4.996  48.365 -23.173  1.00  0.00     0.109 A 
HETATM    3  C9  UNL     1      -5.797  47.963 -24.224  1.00  0.00    -0.011 A 
HETATM    4  C14 UNL     1      -5.048  48.199 -25.415  1.00  0.00     0.000 A 
HETATM    5  C15 UNL     1      -5.319  47.995 -26.787  1.00  0.00     0.014 A 
HETATM    6  C16 UNL     1      -4.359  48.330 -27.746  1.00  0.00     0.001 A 
HETATM    7  C17 UNL     1      -3.138  48.865 -27.361  1.00  0.00     0.002 A 
HETATM    8  C18 UNL     1      -2.845  49.082 -26.012  1.00  0.00     0.031 A 
HETATM    9  C19 UNL     1      -3.810  48.743 -25.043  1.00  0.00     0.051 A 
ENDROOT
BRANCH   1  10
HETATM   10  C7  UNL     1      -2.747  49.352 -22.865  1.00  0.00     0.179 A 
HETATM   11  C6  UNL     1      -2.347  50.668 -22.746  1.00  0.00     0.091 A 
HETATM   12  C5  UNL     1      -1.256  50.658 -21.832  1.00  0.00     0.069 A 
HETATM   13  N4  UNL     1      -1.022  49.401 -21.424  1.00  0.00    -0.258 N 
HETATM   14  O1  UNL     1      -1.936  48.601 -22.068  1.00  0.00    -0.219 OA
ATOM     15  H4  UNL     1      -0.306  49.098 -20.764  1.00  0.00     0.195 HD
BRANCH  12  16
HETATM   16  C4  UNL     1      -0.460  51.790 -21.347  1.00  0.00    -0.007 A 
HETATM   17  C3  UNL     1       0.346  52.525 -22.232  1.00  0.00     0.014 A 
HETATM   18  C2  UNL     1       1.114  53.600 -21.780  1.00  0.00     0.001 A 
HETATM   19  C1  UNL     1       1.086  53.959 -20.435  1.00  0.00     0.000 A 
HETATM   20  C21 UNL     1       0.289  53.244 -19.543  1.00  0.00     0.001 A 
HETATM   21  C20 UNL     1      -0.479  52.167 -19.995  1.00  0.00     0.014 A 
ENDBRANCH  12  16
ENDBRANCH   1  10
BRANCH   3  22
HETATM   22  C10 UNL     1      -7.171  47.387 -24.127  1.00  0.00     0.170 C 
BRANCH  22  23
HETATM   23  N2  UNL     1      -8.099  48.084 -25.003  1.00  0.00    -0.347 N 
HETATM   24  C11 UNL     1      -8.656  47.593 -26.152  1.00  0.00     0.109 A 
HETATM   25  C12 UNL     1      -9.414  48.628 -26.648  1.00  0.00     0.106 A 
HETATM   26  N3  UNL     1      -9.325  49.729 -25.836  1.00  0.00    -0.361 N 
HETATM   27  C13 UNL     1      -8.528  49.373 -24.853  1.00  0.00     0.182 A 
ATOM     28  H3  UNL     1      -9.780  50.633 -25.967  1.00  0.00     0.166 HD
ENDBRANCH  22  23
ENDBRANCH   3  22
TORSDOF 4
ENDMDL
MODEL 7
REMARK minimizedAffinity -8.53195667
REMARK  4 active torsions:
REMARK  status: ('A' for Active; 'I' for Inactive)
REMARK    1  A    between atoms: C4_4  and  C5_5 
REMARK    2  A    between atoms: C7_7  and  N1_8 
REMARK    3  A    between atoms: C9_10  and  C10_11 
REMARK    4  A    between atoms: C10_11  and  N2_12 
ROOT
HETATM    1  N1  UNL     1      -2.599  49.882 -26.125  1.00  0.00    -0.300 N 
HETATM    2  C8  UNL     1      -1.497  50.641 -26.475  1.00  0.00     0.109 A 
HETATM    3  C9  UNL     1      -0.792  51.003 -25.344  1.00  0.00    -0.011 A 
HETATM    4  C14 UNL     1      -1.484  50.428 -24.236  1.00  0.00     0.000 A 
HETATM    5  C15 UNL     1      -1.259  50.438 -22.842  1.00  0.00     0.014 A 
HETATM    6  C16 UNL     1      -2.133  49.761 -21.987  1.00  0.00     0.001 A 
HETATM    7  C17 UNL     1      -3.227  49.079 -22.499  1.00  0.00     0.002 A 
HETATM    8  C18 UNL     1      -3.478  49.055 -23.874  1.00  0.00     0.031 A 
HETATM    9  C19 UNL     1      -2.595  49.735 -24.738  1.00  0.00     0.051 A 
ENDROOT
BRANCH   1  10
HETATM   10  C7  UNL     1      -3.541  49.355 -27.020  1.00  0.00     0.179 A 
HETATM   11  C6  UNL     1      -4.449  48.344 -26.778  1.00  0.00     0.091 A 
HETATM   12  C5  UNL     1      -5.177  48.181 -27.990  1.00  0.00     0.069 A 
HETATM   13  N4  UNL     1      -4.727  49.053 -28.906  1.00  0.00    -0.258 N 
HETATM   14  O1  UNL     1      -3.716  49.767 -28.307  1.00  0.00    -0.219 OA
ATOM     15  H4  UNL     1      -5.069  49.165 -29.860  1.00  0.00     0.195 HD
BRANCH  12  16
HETATM   16  C4  UNL     1      -6.265  47.244 -28.284  1.00  0.00    -0.007 A 
HETATM   17  C3  UNL     1      -7.217  46.925 -27.301  1.00  0.00     0.014 A 
HETATM   18  C2  UNL     1      -8.253  46.028 -27.569  1.00  0.00     0.001 A 
HETATM   19  C1  UNL     1      -8.356  45.437 -28.825  1.00  0.00     0.000 A 
HETATM   20  C21 UNL     1      -7.425  45.745 -29.814  1.00  0.00     0.001 A 
HETATM   21  C20 UNL     1      -6.386  46.642 -29.547  1.00  0.00     0.014 A 
ENDBRANCH  12  16
ENDBRANCH   1  10
BRANCH   3  22
HETATM   22  C10 UNL     1       0.454  51.824 -25.296  1.00  0.00     0.170 C 
BRANCH  22  23
HETATM   23  N2  UNL     1       0.246  53.133 -25.894  1.00  0.00    -0.347 N 
HETATM   24  C11 UNL     1       0.101  53.404 -27.227  1.00  0.00     0.109 A 
HETATM   25  C12 UNL     1      -0.017  54.772 -27.299  1.00  0.00     0.106 A 
HETATM   26  N3  UNL     1       0.060  55.334 -26.051  1.00  0.00    -0.361 N 
HETATM   27  C13 UNL     1       0.217  54.324 -25.224  1.00  0.00     0.182 A 
ATOM     28  H3  UNL     1       0.006  56.325 -25.814  1.00  0.00     0.166 HD
ENDBRANCH  22  23
ENDBRANCH   3  22
TORSDOF 4
ENDMDL
MODEL 8
REMARK minimizedAffinity -8.48994446
REMARK  4 active torsions:
REMARK  status: ('A' for Active; 'I' for Inactive)
REMARK    1  A    between atoms: C4_4  and  C5_5 
REMARK    2  A    between atoms: C7_7  and  N1_8 
REMARK    3  A    between atoms: C9_10  and  C10_11 
REMARK    4  A    between atoms: C10_11  and  N2_12 
ROOT
HETATM    1  N1  UNL     1      -2.367  50.205 -26.271  1.00  0.00    -0.300 N 
HETATM    2  C8  UNL     1      -2.609  50.118 -24.912  1.00  0.00     0.109 A 
HETATM    3  C9  UNL     1      -1.563  50.681 -24.207  1.00  0.00    -0.011 A 
HETATM    4  C14 UNL     1      -0.631  51.155 -25.178  1.00  0.00     0.000 A 
HETATM    5  C15 UNL     1       0.614  51.815 -25.085  1.00  0.00     0.014 A 
HETATM    6  C16 UNL     1       1.310  52.164 -26.246  1.00  0.00     0.001 A 
HETATM    7  C17 UNL     1       0.785  51.864 -27.495  1.00  0.00     0.002 A 
HETATM    8  C18 UNL     1      -0.443  51.207 -27.618  1.00  0.00     0.031 A 
HETATM    9  C19 UNL     1      -1.146  50.857 -26.448  1.00  0.00     0.051 A 
ENDROOT
BRANCH   1  10
HETATM   10  C7  UNL     1      -3.214  49.726 -27.280  1.00  0.00     0.179 A 
HETATM   11  C6  UNL     1      -4.007  48.597 -27.239  1.00  0.00     0.091 A 
HETATM   12  C5  UNL     1      -4.674  48.548 -28.496  1.00  0.00     0.069 A 
HETATM   13  N4  UNL     1      -4.299  49.597 -29.245  1.00  0.00    -0.258 N 
HETATM   14  O1  UNL     1      -3.395  50.313 -28.496  1.00  0.00    -0.219 OA
ATOM     15  H4  UNL     1      -4.621  49.819 -30.187  1.00  0.00     0.195 HD
BRANCH  12  16
HETATM   16  C4  UNL     1      -5.637  47.556 -28.982  1.00  0.00    -0.007 A 
HETATM   17  C3  UNL     1      -6.631  47.050 -28.127  1.00  0.00     0.014 A 
HETATM   18  C2  UNL     1      -7.550  46.099 -28.578  1.00  0.00     0.001 A 
HETATM   19  C1  UNL     1      -7.490  45.641 -29.892  1.00  0.00     0.000 A 
HETATM   20  C21 UNL     1      -6.515  46.136 -30.755  1.00  0.00     0.001 A 
HETATM   21  C20 UNL     1      -5.594  47.086 -30.304  1.00  0.00     0.014 A 
ENDBRANCH  12  16
ENDBRANCH   1  10
BRANCH   3  22
HETATM   22  C10 UNL     1      -1.442  50.782 -22.722  1.00  0.00     0.170 C 
BRANCH  22  23
HETATM   23  N2  UNL     1      -2.730  51.049 -22.105  1.00  0.00    -0.347 N 
HETATM   24  C11 UNL     1      -3.305  50.339 -21.085  1.00  0.00     0.109 A 
HETATM   25  C12 UNL     1      -4.529  50.936 -20.886  1.00  0.00     0.106 A 
HETATM   26  N3  UNL     1      -4.711  51.977 -21.758  1.00  0.00    -0.361 N 
HETATM   27  C13 UNL     1      -3.613  52.023 -22.479  1.00  0.00     0.182 A 
ATOM     28  H3  UNL     1      -5.526  52.587 -21.832  1.00  0.00     0.166 HD
ENDBRANCH  22  23
ENDBRANCH   3  22
TORSDOF 4
ENDMDL
MODEL 9
REMARK minimizedAffinity -8.43141937
REMARK  4 active torsions:
REMARK  status: ('A' for Active; 'I' for Inactive)
REMARK    1  A    between atoms: C4_4  and  C5_5 
REMARK    2  A    between atoms: C7_7  and  N1_8 
REMARK    3  A    between atoms: C9_10  and  C10_11 
REMARK    4  A    between atoms: C10_11  and  N2_12 
ROOT
HETATM    1  N1  UNL     1      -1.744  50.586 -24.669  1.00  0.00    -0.300 N 
HETATM    2  C8  UNL     1      -1.394  51.083 -23.427  1.00  0.00     0.109 A 
HETATM    3  C9  UNL     1      -0.242  51.839 -23.526  1.00  0.00    -0.011 A 
HETATM    4  C14 UNL     1       0.136  51.821 -24.902  1.00  0.00     0.000 A 
HETATM    5  C15 UNL     1       1.204  52.401 -25.622  1.00  0.00     0.014 A 
HETATM    6  C16 UNL     1       1.307  52.203 -27.002  1.00  0.00     0.001 A 
HETATM    7  C17 UNL     1       0.365  51.435 -27.673  1.00  0.00     0.002 A 
HETATM    8  C18 UNL     1      -0.700  50.846 -26.986  1.00  0.00     0.031 A 
HETATM    9  C19 UNL     1      -0.806  51.047 -25.595  1.00  0.00     0.051 A 
ENDROOT
BRANCH   1  10
HETATM   10  C7  UNL     1      -2.852  49.771 -24.936  1.00  0.00     0.179 A 
HETATM   11  C6  UNL     1      -3.414  49.501 -26.168  1.00  0.00     0.091 A 
HETATM   12  C5  UNL     1      -4.505  48.624 -25.910  1.00  0.00     0.069 A 
HETATM   13  N4  UNL     1      -4.587  48.383 -24.593  1.00  0.00    -0.258 N 
HETATM   14  O1  UNL     1      -3.574  49.097 -23.998  1.00  0.00    -0.219 OA
ATOM     15  H4  UNL     1      -5.268  47.786 -24.124  1.00  0.00     0.195 HD
BRANCH  12  16
HETATM   16  C4  UNL     1      -5.441  48.024 -26.866  1.00  0.00    -0.007 A 
HETATM   17  C3  UNL     1      -5.134  47.985 -28.236  1.00  0.00     0.014 A 
HETATM   18  C2  UNL     1      -6.021  47.422 -29.156  1.00  0.00     0.001 A 
HETATM   19  C1  UNL     1      -7.230  46.886 -28.719  1.00  0.00     0.000 A 
HETATM   20  C21 UNL     1      -7.549  46.911 -27.363  1.00  0.00     0.001 A 
HETATM   21  C20 UNL     1      -6.662  47.476 -26.442  1.00  0.00     0.014 A 
ENDBRANCH  12  16
ENDBRANCH   1  10
BRANCH   3  22
HETATM   22  C10 UNL     1       0.461  52.542 -22.411  1.00  0.00     0.170 C 
BRANCH  22  23
HETATM   23  N2  UNL     1      -0.221  52.335 -21.145  1.00  0.00    -0.347 N 
HETATM   24  C11 UNL     1       0.119  52.886 -19.939  1.00  0.00     0.109 A 
HETATM   25  C12 UNL     1      -0.780  52.358 -19.043  1.00  0.00     0.106 A 
HETATM   26  N3  UNL     1      -1.647  51.500 -19.670  1.00  0.00    -0.361 N 
HETATM   27  C13 UNL     1      -1.287  51.506 -20.934  1.00  0.00     0.182 A 
ATOM     28  H3  UNL     1      -2.408  50.970 -19.245  1.00  0.00     0.166 HD
ENDBRANCH  22  23
ENDBRANCH   3  22
TORSDOF 4
ENDMDL
