MODEL 1
REMARK minimizedAffinity -9.82737923
REMARK  8 active torsions:
REMARK  status: ('A' for Active; 'I' for Inactive)
REMARK    1  A    between atoms: C2_2  and  C3_3 
REMARK    2  A    between atoms: C2_2  and  C9_11 
REMARK    3  A    between atoms: C3_3  and  C4_4 
REMARK    4  A    between atoms: C4_4  and  C5_5 
REMARK    5  A    between atoms: C6_6  and  C7_7 
REMARK    6  A    between atoms: C6_6  and  C8_9 
REMARK    7  A    between atoms: C7_7  and  O1_8 
REMARK    8  A    between atoms: C8_9  and  O2_10 
ROOT
HETATM    1  C9  UNL     1      -0.456  50.572 -21.702  1.00  0.00    -0.002 C 
HETATM    2  C10 UNL     1      -0.736  50.296 -20.199  1.00  0.00     0.007 C 
HETATM    3  C11 UNL     1      -2.060  49.518 -20.109  1.00  0.00     0.015 C 
HETATM    4  C12 UNL     1      -2.358  49.057 -21.548  1.00  0.00    -0.005 C 
HETATM    5  C13 UNL     1      -1.544  47.748 -21.784  1.00  0.00     0.021 C 
HETATM    6  C14 UNL     1      -3.781  48.709 -21.970  1.00  0.00    -0.000 C 
HETATM    7  C15 UNL     1      -4.195  48.885 -23.253  1.00  0.00    -0.060 C 
HETATM    8  C16 UNL     1      -3.253  49.485 -24.304  1.00  0.00     0.036 C 
HETATM    9  C17 UNL     1      -1.857  49.949 -23.839  1.00  0.00     0.015 C 
HETATM   10  C18 UNL     1      -1.851  50.321 -22.353  1.00  0.00    -0.028 C 
HETATM   11  C19 UNL     1      -2.749  51.582 -22.153  1.00  0.00     0.016 C 
HETATM   12  C20 UNL     1      -5.640  48.560 -23.721  1.00  0.00    -0.014 C 
HETATM   13  C21 UNL     1      -6.425  49.887 -23.593  1.00  0.00     0.020 C 
HETATM   14  C22 UNL     1      -5.678  48.078 -25.193  1.00  0.00     0.021 C 
HETATM   15  C23 UNL     1      -7.058  47.634 -25.651  1.00  0.00     0.080 C 
HETATM   16  C24 UNL     1      -7.588  46.528 -24.776  1.00  0.00     0.135 C 
HETATM   17  O3  UNL     1      -8.115  45.540 -25.291  1.00  0.00    -0.297 OA
HETATM   18  C25 UNL     1      -7.555  46.741 -23.253  1.00  0.00     0.018 C 
HETATM   19  C26 UNL     1      -8.806  47.538 -22.859  1.00  0.00     0.023 C 
HETATM   20  C27 UNL     1      -7.678  45.345 -22.588  1.00  0.00     0.023 C 
HETATM   21  C28 UNL     1      -6.188  47.390 -22.834  1.00  0.00     0.020 C 
HETATM   22  C29 UNL     1      -6.123  47.780 -21.354  1.00  0.00     0.090 C 
HETATM   23  C30 UNL     1      -4.711  48.128 -20.947  1.00  0.00     0.157 C 
HETATM   24  O4  UNL     1      -4.353  47.952 -19.784  1.00  0.00    -0.293 OA
ENDROOT
BRANCH   1  25
HETATM   25  C2  UNL     1       0.264  51.934 -21.920  1.00  0.00    -0.014 C 
HETATM   26  C1  UNL     1       0.152  52.865 -20.709  1.00  0.00     0.010 C 
BRANCH  25  27
HETATM   27  C3  UNL     1      -0.214  52.675 -23.198  1.00  0.00     0.008 C 
BRANCH  27  28
HETATM   28  C4  UNL     1       0.880  52.988 -24.223  1.00  0.00     0.028 C 
BRANCH  28  29
HETATM   29  C5  UNL     1       0.435  52.602 -25.608  1.00  0.00    -0.020 C 
HETATM   30  C6  UNL     1       1.096  51.855 -26.519  1.00  0.00    -0.037 C 
BRANCH  30  31
HETATM   31  C7  UNL     1       0.524  51.529 -27.883  1.00  0.00     0.200 C 
BRANCH  31  32
HETATM   32  O1  UNL     1      -0.483  52.453 -28.279  1.00  0.00    -0.397 OA
HETATM   33  H12 UNL     1      -0.027  53.306 -28.382  1.00  0.00     0.209 HD
ENDBRANCH  31  32
ENDBRANCH  30  31
BRANCH  30  34
HETATM   34  C8  UNL     1       2.454  51.246 -26.292  1.00  0.00     0.200 C 
BRANCH  34  35
HETATM   35  O2  UNL     1       3.285  51.562 -27.402  1.00  0.00    -0.397 OA
HETATM   36  H15 UNL     1       4.171  51.222 -27.194  1.00  0.00     0.209 HD
ENDBRANCH  34  35
ENDBRANCH  30  34
ENDBRANCH  28  29
ENDBRANCH  27  28
ENDBRANCH  25  27
ENDBRANCH   1  25
TORSDOF 8
ENDMDL
MODEL 2
REMARK minimizedAffinity -9.57601166
REMARK  8 active torsions:
REMARK  status: ('A' for Active; 'I' for Inactive)
REMARK    1  A    between atoms: C2_2  and  C3_3 
REMARK    2  A    between atoms: C2_2  and  C9_11 
REMARK    3  A    between atoms: C3_3  and  C4_4 
REMARK    4  A    between atoms: C4_4  and  C5_5 
REMARK    5  A    between atoms: C6_6  and  C7_7 
REMARK    6  A    between atoms: C6_6  and  C8_9 
REMARK    7  A    between atoms: C7_7  and  O1_8 
REMARK    8  A    between atoms: C8_9  and  O2_10 
ROOT
HETATM    1  C9  UNL     1      -1.179  50.940 -23.227  1.00  0.00    -0.002 C 
HETATM    2  C10 UNL     1      -0.700  52.415 -23.316  1.00  0.00     0.007 C 
HETATM    3  C11 UNL     1      -0.133  52.803 -21.939  1.00  0.00     0.015 C 
HETATM    4  C12 UNL     1       0.028  51.473 -21.178  1.00  0.00    -0.005 C 
HETATM    5  C13 UNL     1       1.389  50.856 -21.624  1.00  0.00     0.021 C 
HETATM    6  C14 UNL     1       0.075  51.455 -19.654  1.00  0.00    -0.000 C 
HETATM    7  C15 UNL     1      -0.377  50.382 -18.951  1.00  0.00    -0.060 C 
HETATM    8  C16 UNL     1      -0.992  49.176 -19.673  1.00  0.00     0.036 C 
HETATM    9  C17 UNL     1      -1.148  49.257 -21.206  1.00  0.00     0.015 C 
HETATM   10  C18 UNL     1      -1.259  50.708 -21.687  1.00  0.00    -0.028 C 
HETATM   11  C19 UNL     1      -2.593  51.310 -21.143  1.00  0.00     0.016 C 
HETATM   12  C20 UNL     1      -0.363  50.330 -17.399  1.00  0.00    -0.014 C 
HETATM   13  C21 UNL     1      -1.754  50.838 -16.956  1.00  0.00     0.020 C 
HETATM   14  C22 UNL     1      -0.147  48.889 -16.870  1.00  0.00     0.021 C 
HETATM   15  C23 UNL     1      -0.006  48.813 -15.359  1.00  0.00     0.080 C 
HETATM   16  C24 UNL     1       1.137  49.671 -14.878  1.00  0.00     0.135 C 
HETATM   17  O3  UNL     1       1.930  49.224 -14.048  1.00  0.00    -0.297 OA
HETATM   18  C25 UNL     1       1.190  51.129 -15.363  1.00  0.00     0.018 C 
HETATM   19  C26 UNL     1       0.287  51.967 -14.448  1.00  0.00     0.023 C 
HETATM   20  C27 UNL     1       2.642  51.634 -15.153  1.00  0.00     0.023 C 
HETATM   21  C28 UNL     1       0.841  51.197 -16.892  1.00  0.00     0.020 C 
HETATM   22  C29 UNL     1       0.720  52.625 -17.432  1.00  0.00     0.090 C 
HETATM   23  C30 UNL     1       0.669  52.633 -18.941  1.00  0.00     0.157 C 
HETATM   24  O4  UNL     1       1.091  53.608 -19.558  1.00  0.00    -0.293 OA
ENDROOT
BRANCH   1  25
HETATM   25  C2  UNL     1      -2.429  50.678 -24.115  1.00  0.00    -0.014 C 
HETATM   26  C1  UNL     1      -2.777  49.191 -24.227  1.00  0.00     0.010 C 
BRANCH  25  27
HETATM   27  C3  UNL     1      -2.304  51.296 -25.534  1.00  0.00     0.008 C 
BRANCH  27  28
HETATM   28  C4  UNL     1      -1.552  50.441 -26.558  1.00  0.00     0.028 C 
BRANCH  28  29
HETATM   29  C5  UNL     1      -0.073  50.455 -26.275  1.00  0.00    -0.020 C 
HETATM   30  C6  UNL     1       0.838  51.382 -26.643  1.00  0.00    -0.037 C 
BRANCH  30  31
HETATM   31  C7  UNL     1       2.305  51.281 -26.280  1.00  0.00     0.200 C 
BRANCH  31  32
HETATM   32  O1  UNL     1       3.153  51.584 -27.381  1.00  0.00    -0.397 OA
HETATM   33  H12 UNL     1       2.995  52.523 -27.579  1.00  0.00     0.209 HD
ENDBRANCH  31  32
ENDBRANCH  30  31
BRANCH  30  34
HETATM   34  C8  UNL     1       0.514  52.624 -27.431  1.00  0.00     0.200 C 
BRANCH  34  35
HETATM   35  O2  UNL     1      -0.007  52.237 -28.696  1.00  0.00    -0.397 OA
HETATM   36  H15 UNL     1      -0.275  53.053 -29.150  1.00  0.00     0.209 HD
ENDBRANCH  34  35
ENDBRANCH  30  34
ENDBRANCH  28  29
ENDBRANCH  27  28
ENDBRANCH  25  27
ENDBRANCH   1  25
TORSDOF 8
ENDMDL
MODEL 3
REMARK minimizedAffinity -9.4047699
REMARK  8 active torsions:
REMARK  status: ('A' for Active; 'I' for Inactive)
REMARK    1  A    between atoms: C2_2  and  C3_3 
REMARK    2  A    between atoms: C2_2  and  C9_11 
REMARK    3  A    between atoms: C3_3  and  C4_4 
REMARK    4  A    between atoms: C4_4  and  C5_5 
REMARK    5  A    between atoms: C6_6  and  C7_7 
REMARK    6  A    between atoms: C6_6  and  C8_9 
REMARK    7  A    between atoms: C7_7  and  O1_8 
REMARK    8  A    between atoms: C8_9  and  O2_10 
ROOT
HETATM    1  C9  UNL     1      -3.830  50.427 -24.661  1.00  0.00    -0.002 C 
HETATM    2  C10 UNL     1      -5.291  50.053 -24.288  1.00  0.00     0.007 C 
HETATM    3  C11 UNL     1      -5.361  49.925 -22.757  1.00  0.00     0.015 C 
HETATM    4  C12 UNL     1      -4.053  50.552 -22.238  1.00  0.00    -0.005 C 
HETATM    5  C13 UNL     1      -4.280  52.093 -22.173  1.00  0.00     0.021 C 
HETATM    6  C14 UNL     1      -3.511  50.183 -20.861  1.00  0.00    -0.000 C 
HETATM    7  C15 UNL     1      -2.175  50.197 -20.606  1.00  0.00    -0.060 C 
HETATM    8  C16 UNL     1      -1.171  50.541 -21.714  1.00  0.00     0.036 C 
HETATM    9  C17 UNL     1      -1.721  50.791 -23.133  1.00  0.00     0.015 C 
HETATM   10  C18 UNL     1      -3.050  50.064 -23.360  1.00  0.00    -0.028 C 
HETATM   11  C19 UNL     1      -2.787  48.526 -23.329  1.00  0.00     0.016 C 
HETATM   12  C20 UNL     1      -1.581  49.811 -19.224  1.00  0.00    -0.014 C 
HETATM   13  C21 UNL     1      -1.250  48.303 -19.322  1.00  0.00     0.020 C 
HETATM   14  C22 UNL     1      -0.287  50.604 -18.909  1.00  0.00     0.021 C 
HETATM   15  C23 UNL     1       0.258  50.344 -17.514  1.00  0.00     0.080 C 
HETATM   16  C24 UNL     1      -0.769  50.674 -16.461  1.00  0.00     0.135 C 
HETATM   17  O3  UNL     1      -0.438  51.320 -15.466  1.00  0.00    -0.297 OA
HETATM   18  C25 UNL     1      -2.176  50.076 -16.622  1.00  0.00     0.018 C 
HETATM   19  C26 UNL     1      -2.158  48.656 -16.039  1.00  0.00     0.023 C 
HETATM   20  C27 UNL     1      -3.139  50.915 -15.742  1.00  0.00     0.023 C 
HETATM   21  C28 UNL     1      -2.632  50.178 -18.121  1.00  0.00     0.020 C 
HETATM   22  C29 UNL     1      -3.960  49.471 -18.408  1.00  0.00     0.090 C 
HETATM   23  C30 UNL     1      -4.486  49.839 -19.775  1.00  0.00     0.157 C 
HETATM   24  O4  UNL     1      -5.698  49.829 -19.983  1.00  0.00    -0.293 OA
ENDROOT
BRANCH   1  25
HETATM   25  C2  UNL     1      -3.398  49.805 -26.020  1.00  0.00    -0.014 C 
HETATM   26  C1  UNL     1      -3.718  48.311 -26.118  1.00  0.00     0.010 C 
BRANCH  25  27
HETATM   27  C3  UNL     1      -1.899  50.043 -26.346  1.00  0.00     0.008 C 
BRANCH  27  28
HETATM   28  C4  UNL     1      -1.575  51.387 -27.004  1.00  0.00     0.028 C 
BRANCH  28  29
HETATM   29  C5  UNL     1      -0.166  51.391 -27.535  1.00  0.00    -0.020 C 
HETATM   30  C6  UNL     1       0.942  51.902 -26.957  1.00  0.00    -0.037 C 
BRANCH  30  31
HETATM   31  C7  UNL     1       2.312  51.828 -27.600  1.00  0.00     0.200 C 
BRANCH  31  32
HETATM   32  O1  UNL     1       3.261  51.173 -26.767  1.00  0.00    -0.397 OA
HETATM   33  H12 UNL     1       2.953  50.253 -26.696  1.00  0.00     0.209 HD
ENDBRANCH  31  32
ENDBRANCH  30  31
BRANCH  30  34
HETATM   34  C8  UNL     1       0.962  52.583 -25.614  1.00  0.00     0.200 C 
BRANCH  34  35
HETATM   35  O2  UNL     1       0.674  53.963 -25.799  1.00  0.00    -0.397 OA
HETATM   36  H15 UNL     1       0.620  54.359 -24.914  1.00  0.00     0.209 HD
ENDBRANCH  34  35
ENDBRANCH  30  34
ENDBRANCH  28  29
ENDBRANCH  27  28
ENDBRANCH  25  27
ENDBRANCH   1  25
TORSDOF 8
ENDMDL
MODEL 4
REMARK minimizedAffinity -9.1835041
REMARK  8 active torsions:
REMARK  status: ('A' for Active; 'I' for Inactive)
REMARK    1  A    between atoms: C2_2  and  C3_3 
REMARK    2  A    between atoms: C2_2  and  C9_11 
REMARK    3  A    between atoms: C3_3  and  C4_4 
REMARK    4  A    between atoms: C4_4  and  C5_5 
REMARK    5  A    between atoms: C6_6  and  C7_7 
REMARK    6  A    between atoms: C6_6  and  C8_9 
REMARK    7  A    between atoms: C7_7  and  O1_8 
REMARK    8  A    between atoms: C8_9  and  O2_10 
ROOT
HETATM    1  C9  UNL     1       0.518  52.023 -23.157  1.00  0.00    -0.002 C 
HETATM    2  C10 UNL     1       0.596  52.886 -21.867  1.00  0.00     0.007 C 
HETATM    3  C11 UNL     1      -0.563  52.456 -20.950  1.00  0.00     0.015 C 
HETATM    4  C12 UNL     1      -1.085  51.137 -21.550  1.00  0.00    -0.005 C 
HETATM    5  C13 UNL     1      -0.166  49.997 -21.013  1.00  0.00     0.021 C 
HETATM    6  C14 UNL     1      -2.504  50.661 -21.254  1.00  0.00    -0.000 C 
HETATM    7  C15 UNL     1      -3.194  49.913 -22.155  1.00  0.00    -0.060 C 
HETATM    8  C16 UNL     1      -2.580  49.564 -23.517  1.00  0.00     0.036 C 
HETATM    9  C17 UNL     1      -1.196  50.154 -23.856  1.00  0.00     0.015 C 
HETATM   10  C18 UNL     1      -0.934  51.456 -23.091  1.00  0.00    -0.028 C 
HETATM   11  C19 UNL     1      -1.935  52.540 -23.600  1.00  0.00     0.016 C 
HETATM   12  C20 UNL     1      -4.646  49.423 -21.902  1.00  0.00    -0.014 C 
HETATM   13  C21 UNL     1      -5.561  50.498 -22.532  1.00  0.00     0.020 C 
HETATM   14  C22 UNL     1      -4.921  48.053 -22.573  1.00  0.00     0.021 C 
HETATM   15  C23 UNL     1      -6.292  47.482 -22.247  1.00  0.00     0.080 C 
HETATM   16  C24 UNL     1      -6.472  47.326 -20.759  1.00  0.00     0.135 C 
HETATM   17  O3  UNL     1      -6.954  46.286 -20.307  1.00  0.00    -0.297 OA
HETATM   18  C25 UNL     1      -6.155  48.539 -19.868  1.00  0.00     0.018 C 
HETATM   19  C26 UNL     1      -7.395  49.444 -19.839  1.00  0.00     0.023 C 
HETATM   20  C27 UNL     1      -5.946  48.010 -18.425  1.00  0.00     0.023 C 
HETATM   21  C28 UNL     1      -4.833  49.230 -20.357  1.00  0.00     0.020 C 
HETATM   22  C29 UNL     1      -4.518  50.538 -19.625  1.00  0.00     0.090 C 
HETATM   23  C30 UNL     1      -3.113  51.003 -19.927  1.00  0.00     0.157 C 
HETATM   24  O4  UNL     1      -2.502  51.671 -19.096  1.00  0.00    -0.293 OA
ENDROOT
BRANCH   1  25
HETATM   25  C2  UNL     1       0.984  52.811 -24.415  1.00  0.00    -0.014 C 
HETATM   26  C1  UNL     1      -0.048  53.839 -24.887  1.00  0.00     0.010 C 
BRANCH  25  27
HETATM   27  C3  UNL     1       1.381  51.885 -25.596  1.00  0.00     0.008 C 
BRANCH  27  28
HETATM   28  C4  UNL     1       0.654  52.158 -26.916  1.00  0.00     0.028 C 
BRANCH  28  29
HETATM   29  C5  UNL     1      -0.422  51.132 -27.150  1.00  0.00    -0.020 C 
HETATM   30  C6  UNL     1      -1.737  51.339 -27.381  1.00  0.00    -0.037 C 
BRANCH  30  31
HETATM   31  C7  UNL     1      -2.718  50.208 -27.614  1.00  0.00     0.200 C 
BRANCH  31  32
HETATM   32  O1  UNL     1      -3.471  50.388 -28.807  1.00  0.00    -0.397 OA
HETATM   33  H12 UNL     1      -2.825  50.331 -29.533  1.00  0.00     0.209 HD
ENDBRANCH  31  32
ENDBRANCH  30  31
BRANCH  30  34
HETATM   34  C8  UNL     1      -2.382  52.698 -27.454  1.00  0.00     0.200 C 
BRANCH  34  35
HETATM   35  O2  UNL     1      -3.205  52.873 -26.308  1.00  0.00    -0.397 OA
HETATM   36  H15 UNL     1      -3.546  53.781 -26.344  1.00  0.00     0.209 HD
ENDBRANCH  34  35
ENDBRANCH  30  34
ENDBRANCH  28  29
ENDBRANCH  27  28
ENDBRANCH  25  27
ENDBRANCH   1  25
TORSDOF 8
ENDMDL
MODEL 5
REMARK minimizedAffinity -9.05387211
REMARK  8 active torsions:
REMARK  status: ('A' for Active; 'I' for Inactive)
REMARK    1  A    between atoms: C2_2  and  C3_3 
REMARK    2  A    between atoms: C2_2  and  C9_11 
REMARK    3  A    between atoms: C3_3  and  C4_4 
REMARK    4  A    between atoms: C4_4  and  C5_5 
REMARK    5  A    between atoms: C6_6  and  C7_7 
REMARK    6  A    between atoms: C6_6  and  C8_9 
REMARK    7  A    between atoms: C7_7  and  O1_8 
REMARK    8  A    between atoms: C8_9  and  O2_10 
ROOT
HETATM    1  C9  UNL     1      -0.003  51.101 -21.478  1.00  0.00    -0.002 C 
HETATM    2  C10 UNL     1      -0.140  51.421 -19.964  1.00  0.00     0.007 C 
HETATM    3  C11 UNL     1      -1.462  50.803 -19.476  1.00  0.00     0.015 C 
HETATM    4  C12 UNL     1      -1.905  49.852 -20.605  1.00  0.00    -0.005 C 
HETATM    5  C13 UNL     1      -1.139  48.510 -20.397  1.00  0.00     0.021 C 
HETATM    6  C14 UNL     1      -3.368  49.445 -20.744  1.00  0.00    -0.000 C 
HETATM    7  C15 UNL     1      -3.902  49.151 -21.960  1.00  0.00    -0.060 C 
HETATM    8  C16 UNL     1      -3.056  49.265 -23.234  1.00  0.00     0.036 C 
HETATM    9  C17 UNL     1      -1.614  49.796 -23.097  1.00  0.00     0.015 C 
HETATM   10  C18 UNL     1      -1.458  50.696 -21.866  1.00  0.00    -0.028 C 
HETATM   11  C19 UNL     1      -2.312  51.985 -22.082  1.00  0.00     0.016 C 
HETATM   12  C20 UNL     1      -5.391  48.749 -22.147  1.00  0.00    -0.014 C 
HETATM   13  C21 UNL     1      -6.137  50.066 -22.464  1.00  0.00     0.020 C 
HETATM   14  C22 UNL     1      -5.578  47.754 -23.320  1.00  0.00     0.021 C 
HETATM   15  C23 UNL     1      -7.003  47.243 -23.460  1.00  0.00     0.080 C 
HETATM   16  C24 UNL     1      -7.464  46.573 -22.191  1.00  0.00     0.135 C 
HETATM   17  O3  UNL     1      -8.054  45.493 -22.249  1.00  0.00    -0.297 OA
HETATM   18  C25 UNL     1      -7.280  47.338 -20.870  1.00  0.00     0.018 C 
HETATM   19  C26 UNL     1      -8.474  48.288 -20.702  1.00  0.00     0.023 C 
HETATM   20  C27 UNL     1      -7.361  46.300 -19.719  1.00  0.00     0.023 C 
HETATM   21  C28 UNL     1      -5.869  48.025 -20.842  1.00  0.00     0.020 C 
HETATM   22  C29 UNL     1      -5.654  48.936 -19.630  1.00  0.00     0.090 C 
HETATM   23  C30 UNL     1      -4.204  49.338 -19.503  1.00  0.00     0.157 C 
HETATM   24  O4  UNL     1      -3.738  49.591 -18.394  1.00  0.00    -0.293 OA
ENDROOT
BRANCH   1  25
HETATM   25  C2  UNL     1       0.715  52.243 -22.252  1.00  0.00    -0.014 C 
HETATM   26  C1  UNL     1       0.897  53.508 -21.409  1.00  0.00     0.010 C 
BRANCH  25  27
HETATM   27  C3  UNL     1       0.014  52.601 -23.590  1.00  0.00     0.008 C 
BRANCH  27  28
HETATM   28  C4  UNL     1       0.667  52.024 -24.849  1.00  0.00     0.028 C 
BRANCH  28  29
HETATM   29  C5  UNL     1       0.488  52.958 -26.015  1.00  0.00    -0.020 C 
HETATM   30  C6  UNL     1      -0.530  53.001 -26.902  1.00  0.00    -0.037 C 
BRANCH  30  31
HETATM   31  C7  UNL     1      -0.593  54.009 -28.032  1.00  0.00     0.200 C 
BRANCH  31  32
HETATM   32  O1  UNL     1      -1.924  54.224 -28.486  1.00  0.00    -0.397 OA
HETATM   33  H12 UNL     1      -2.390  54.637 -27.738  1.00  0.00     0.209 HD
ENDBRANCH  31  32
ENDBRANCH  30  31
BRANCH  30  34
HETATM   34  C8  UNL     1      -1.722  52.081 -26.871  1.00  0.00     0.200 C 
BRANCH  34  35
HETATM   35  O2  UNL     1      -1.762  51.347 -28.087  1.00  0.00    -0.397 OA
HETATM   36  H15 UNL     1      -2.493  50.712 -28.007  1.00  0.00     0.209 HD
ENDBRANCH  34  35
ENDBRANCH  30  34
ENDBRANCH  28  29
ENDBRANCH  27  28
ENDBRANCH  25  27
ENDBRANCH   1  25
TORSDOF 8
ENDMDL
MODEL 6
REMARK minimizedAffinity -8.86508942
REMARK  8 active torsions:
REMARK  status: ('A' for Active; 'I' for Inactive)
REMARK    1  A    between atoms: C2_2  and  C3_3 
REMARK    2  A    between atoms: C2_2  and  C9_11 
REMARK    3  A    between atoms: C3_3  and  C4_4 
REMARK    4  A    between atoms: C4_4  and  C5_5 
REMARK    5  A    between atoms: C6_6  and  C7_7 
REMARK    6  A    between atoms: C6_6  and  C8_9 
REMARK    7  A    between atoms: C7_7  and  O1_8 
REMARK    8  A    between atoms: C8_9  and  O2_10 
ROOT
HETATM    1  C9  UNL     1      -1.988  48.286 -18.614  1.00  0.00    -0.002 C 
HETATM    2  C10 UNL     1      -3.029  47.358 -19.298  1.00  0.00     0.007 C 
HETATM    3  C11 UNL     1      -3.070  47.727 -20.792  1.00  0.00     0.015 C 
HETATM    4  C12 UNL     1      -1.829  48.610 -21.024  1.00  0.00    -0.005 C 
HETATM    5  C13 UNL     1      -0.620  47.649 -21.240  1.00  0.00     0.021 C 
HETATM    6  C14 UNL     1      -1.774  49.572 -22.207  1.00  0.00    -0.000 C 
HETATM    7  C15 UNL     1      -1.062  50.728 -22.138  1.00  0.00    -0.060 C 
HETATM    8  C16 UNL     1      -0.330  51.121 -20.849  1.00  0.00     0.036 C 
HETATM    9  C17 UNL     1      -0.494  50.204 -19.619  1.00  0.00     0.015 C 
HETATM   10  C18 UNL     1      -1.811  49.423 -19.668  1.00  0.00    -0.028 C 
HETATM   11  C19 UNL     1      -2.993  50.435 -19.537  1.00  0.00     0.016 C 
HETATM   12  C20 UNL     1      -0.995  51.743 -23.312  1.00  0.00    -0.014 C 
HETATM   13  C21 UNL     1      -2.125  52.764 -23.042  1.00  0.00     0.020 C 
HETATM   14  C22 UNL     1       0.367  52.481 -23.363  1.00  0.00     0.021 C 
HETATM   15  C23 UNL     1       0.518  53.393 -24.569  1.00  0.00     0.080 C 
HETATM   16  C24 UNL     1       0.348  52.623 -25.854  1.00  0.00     0.135 C 
HETATM   17  O3  UNL     1       1.139  52.801 -26.782  1.00  0.00    -0.297 OA
HETATM   18  C25 UNL     1      -0.894  51.728 -25.993  1.00  0.00     0.018 C 
HETATM   19  C26 UNL     1      -2.062  52.607 -26.463  1.00  0.00     0.023 C 
HETATM   20  C27 UNL     1      -0.607  50.711 -27.128  1.00  0.00     0.023 C 
HETATM   21  C28 UNL     1      -1.142  50.946 -24.654  1.00  0.00     0.020 C 
HETATM   22  C29 UNL     1      -2.446  50.143 -24.646  1.00  0.00     0.090 C 
HETATM   23  C30 UNL     1      -2.493  49.197 -23.469  1.00  0.00     0.157 C 
HETATM   24  O4  UNL     1      -3.135  48.152 -23.554  1.00  0.00    -0.293 OA
ENDROOT
BRANCH   1  25
HETATM   25  C2  UNL     1      -2.392  48.641 -17.155  1.00  0.00    -0.014 C 
HETATM   26  C1  UNL     1      -3.827  49.167 -17.048  1.00  0.00     0.010 C 
BRANCH  25  27
HETATM   27  C3  UNL     1      -1.415  49.641 -16.481  1.00  0.00     0.008 C 
BRANCH  27  28
HETATM   28  C4  UNL     1       0.050  49.196 -16.433  1.00  0.00     0.028 C 
BRANCH  28  29
HETATM   29  C5  UNL     1       0.778  49.892 -15.314  1.00  0.00    -0.020 C 
HETATM   30  C6  UNL     1       1.466  51.053 -15.361  1.00  0.00    -0.037 C 
BRANCH  30  31
HETATM   31  C7  UNL     1       2.148  51.654 -14.149  1.00  0.00     0.200 C 
BRANCH  31  32
HETATM   32  O1  UNL     1       3.292  52.422 -14.501  1.00  0.00    -0.397 OA
HETATM   33  H12 UNL     1       2.951  53.177 -15.013  1.00  0.00     0.209 HD
ENDBRANCH  31  32
ENDBRANCH  30  31
BRANCH  30  34
HETATM   34  C8  UNL     1       1.625  51.896 -16.600  1.00  0.00     0.200 C 
BRANCH  34  35
HETATM   35  O2  UNL     1       1.356  53.251 -16.264  1.00  0.00    -0.397 OA
HETATM   36  H15 UNL     1       1.538  53.778 -17.060  1.00  0.00     0.209 HD
ENDBRANCH  34  35
ENDBRANCH  30  34
ENDBRANCH  28  29
ENDBRANCH  27  28
ENDBRANCH  25  27
ENDBRANCH   1  25
TORSDOF 8
ENDMDL
MODEL 7
REMARK minimizedAffinity -8.84597683
REMARK  8 active torsions:
REMARK  status: ('A' for Active; 'I' for Inactive)
REMARK    1  A    between atoms: C2_2  and  C3_3 
REMARK    2  A    between atoms: C2_2  and  C9_11 
REMARK    3  A    between atoms: C3_3  and  C4_4 
REMARK    4  A    between atoms: C4_4  and  C5_5 
REMARK    5  A    between atoms: C6_6  and  C7_7 
REMARK    6  A    between atoms: C6_6  and  C8_9 
REMARK    7  A    between atoms: C7_7  and  O1_8 
REMARK    8  A    between atoms: C8_9  and  O2_10 
ROOT
HETATM    1  C9  UNL     1      -0.517  51.719 -16.807  1.00  0.00    -0.002 C 
HETATM    2  C10 UNL     1       1.007  51.966 -16.977  1.00  0.00     0.007 C 
HETATM    3  C11 UNL     1       1.284  52.144 -18.479  1.00  0.00     0.015 C 
HETATM    4  C12 UNL     1      -0.100  52.341 -19.126  1.00  0.00    -0.005 C 
HETATM    5  C13 UNL     1      -0.470  53.846 -18.962  1.00  0.00     0.021 C 
HETATM    6  C14 UNL     1      -0.309  52.050 -20.609  1.00  0.00    -0.000 C 
HETATM    7  C15 UNL     1      -1.514  51.629 -21.078  1.00  0.00    -0.060 C 
HETATM    8  C16 UNL     1      -2.687  51.388 -20.118  1.00  0.00     0.036 C 
HETATM    9  C17 UNL     1      -2.429  51.565 -18.607  1.00  0.00     0.015 C 
HETATM   10  C18 UNL     1      -0.956  51.336 -18.254  1.00  0.00    -0.028 C 
HETATM   11  C19 UNL     1      -0.609  49.837 -18.519  1.00  0.00     0.016 C 
HETATM   12  C20 UNL     1      -1.765  51.306 -22.576  1.00  0.00    -0.014 C 
HETATM   13  C21 UNL     1      -1.506  49.788 -22.721  1.00  0.00     0.020 C 
HETATM   14  C22 UNL     1      -3.221  51.624 -23.001  1.00  0.00     0.021 C 
HETATM   15  C23 UNL     1      -3.473  51.436 -24.488  1.00  0.00     0.080 C 
HETATM   16  C24 UNL     1      -2.542  52.293 -25.307  1.00  0.00     0.135 C 
HETATM   17  O3  UNL     1      -2.985  52.942 -26.256  1.00  0.00    -0.297 OA
HETATM   18  C25 UNL     1      -1.039  52.222 -24.990  1.00  0.00     0.018 C 
HETATM   19  C26 UNL     1      -0.453  51.016 -25.739  1.00  0.00     0.023 C 
HETATM   20  C27 UNL     1      -0.379  53.492 -25.589  1.00  0.00     0.023 C 
HETATM   21  C28 UNL     1      -0.820  52.214 -23.436  1.00  0.00     0.020 C 
HETATM   22  C29 UNL     1       0.638  51.992 -23.022  1.00  0.00     0.090 C 
HETATM   23  C30 UNL     1       0.834  52.277 -21.552  1.00  0.00     0.157 C 
HETATM   24  O4  UNL     1       1.928  52.666 -21.150  1.00  0.00    -0.293 OA
ENDROOT
BRANCH   1  25
HETATM   25  C2  UNL     1      -0.824  50.754 -15.626  1.00  0.00    -0.014 C 
HETATM   26  C1  UNL     1       0.029  49.482 -15.662  1.00  0.00     0.010 C 
BRANCH  25  27
HETATM   27  C3  UNL     1      -2.326  50.375 -15.527  1.00  0.00     0.008 C 
BRANCH  27  28
HETATM   28  C4  UNL     1      -3.120  51.115 -14.447  1.00  0.00     0.028 C 
BRANCH  28  29
HETATM   29  C5  UNL     1      -2.209  51.573 -13.339  1.00  0.00    -0.020 C 
HETATM   30  C6  UNL     1      -2.500  52.390 -12.304  1.00  0.00    -0.037 C 
BRANCH  30  31
HETATM   31  C7  UNL     1      -1.485  52.763 -11.243  1.00  0.00     0.200 C 
BRANCH  31  32
HETATM   32  O1  UNL     1      -1.312  54.171 -11.137  1.00  0.00    -0.397 OA
HETATM   33  H12 UNL     1      -2.165  54.514 -10.818  1.00  0.00     0.209 HD
ENDBRANCH  31  32
ENDBRANCH  30  31
BRANCH  30  34
HETATM   34  C8  UNL     1      -3.852  53.008 -12.064  1.00  0.00     0.200 C 
BRANCH  34  35
HETATM   35  O2  UNL     1      -4.533  52.243 -11.078  1.00  0.00    -0.397 OA
HETATM   36  H15 UNL     1      -5.366  52.707 -10.891  1.00  0.00     0.209 HD
ENDBRANCH  34  35
ENDBRANCH  30  34
ENDBRANCH  28  29
ENDBRANCH  27  28
ENDBRANCH  25  27
ENDBRANCH   1  25
TORSDOF 8
ENDMDL
MODEL 8
REMARK minimizedAffinity -8.81720448
REMARK  8 active torsions:
REMARK  status: ('A' for Active; 'I' for Inactive)
REMARK    1  A    between atoms: C2_2  and  C3_3 
REMARK    2  A    between atoms: C2_2  and  C9_11 
REMARK    3  A    between atoms: C3_3  and  C4_4 
REMARK    4  A    between atoms: C4_4  and  C5_5 
REMARK    5  A    between atoms: C6_6  and  C7_7 
REMARK    6  A    between atoms: C6_6  and  C8_9 
REMARK    7  A    between atoms: C7_7  and  O1_8 
REMARK    8  A    between atoms: C8_9  and  O2_10 
ROOT
HETATM    1  C9  UNL     1      -1.726  51.517 -23.171  1.00  0.00    -0.002 C 
HETATM    2  C10 UNL     1      -1.644  50.707 -24.493  1.00  0.00     0.007 C 
HETATM    3  C11 UNL     1      -2.848  49.750 -24.527  1.00  0.00     0.015 C 
HETATM    4  C12 UNL     1      -3.790  50.245 -23.412  1.00  0.00    -0.005 C 
HETATM    5  C13 UNL     1      -4.632  51.412 -24.013  1.00  0.00     0.021 C 
HETATM    6  C14 UNL     1      -4.818  49.304 -22.793  1.00  0.00    -0.000 C 
HETATM    7  C15 UNL     1      -5.217  49.453 -21.502  1.00  0.00    -0.060 C 
HETATM    8  C16 UNL     1      -4.607  50.546 -20.616  1.00  0.00     0.036 C 
HETATM    9  C17 UNL     1      -3.479  51.413 -21.213  1.00  0.00     0.015 C 
HETATM   10  C18 UNL     1      -2.726  50.672 -22.323  1.00  0.00    -0.028 C 
HETATM   11  C19 UNL     1      -1.970  49.463 -21.688  1.00  0.00     0.016 C 
HETATM   12  C20 UNL     1      -6.248  48.506 -20.828  1.00  0.00    -0.014 C 
HETATM   13  C21 UNL     1      -5.409  47.407 -20.136  1.00  0.00     0.020 C 
HETATM   14  C22 UNL     1      -7.106  49.245 -19.769  1.00  0.00     0.021 C 
HETATM   15  C23 UNL     1      -8.208  48.383 -19.174  1.00  0.00     0.080 C 
HETATM   16  C24 UNL     1      -9.126  47.861 -20.249  1.00  0.00     0.135 C 
HETATM   17  O3  UNL     1     -10.347  47.908 -20.086  1.00  0.00    -0.297 OA
HETATM   18  C25 UNL     1      -8.486  47.173 -21.466  1.00  0.00     0.018 C 
HETATM   19  C26 UNL     1      -8.222  45.706 -21.097  1.00  0.00     0.023 C 
HETATM   20  C27 UNL     1      -9.540  47.172 -22.604  1.00  0.00     0.023 C 
HETATM   21  C28 UNL     1      -7.226  47.982 -21.936  1.00  0.00     0.020 C 
HETATM   22  C29 UNL     1      -6.432  47.291 -23.049  1.00  0.00     0.090 C 
HETATM   23  C30 UNL     1      -5.414  48.228 -23.652  1.00  0.00     0.157 C 
HETATM   24  O4  UNL     1      -5.073  48.083 -24.824  1.00  0.00    -0.293 OA
ENDROOT
BRANCH   1  25
HETATM   25  C2  UNL     1      -0.316  51.847 -22.601  1.00  0.00    -0.014 C 
HETATM   26  C1  UNL     1      -0.365  52.367 -21.161  1.00  0.00     0.010 C 
BRANCH  25  27
HETATM   27  C3  UNL     1       0.479  52.840 -23.491  1.00  0.00     0.008 C 
BRANCH  27  28
HETATM   28  C4  UNL     1       0.798  52.345 -24.904  1.00  0.00     0.028 C 
BRANCH  28  29
HETATM   29  C5  UNL     1       0.323  53.335 -25.933  1.00  0.00    -0.020 C 
HETATM   30  C6  UNL     1      -0.071  53.096 -27.203  1.00  0.00    -0.037 C 
BRANCH  30  31
HETATM   31  C7  UNL     1      -0.542  54.191 -28.137  1.00  0.00     0.200 C 
BRANCH  31  32
HETATM   32  O1  UNL     1      -1.930  54.090 -28.428  1.00  0.00    -0.397 OA
HETATM   33  H12 UNL     1      -2.385  54.250 -27.583  1.00  0.00     0.209 HD
ENDBRANCH  31  32
ENDBRANCH  30  31
BRANCH  30  34
HETATM   34  C8  UNL     1      -0.110  51.729 -27.836  1.00  0.00     0.200 C 
BRANCH  34  35
HETATM   35  O2  UNL     1      -1.467  51.324 -27.958  1.00  0.00    -0.397 OA
HETATM   36  H15 UNL     1      -1.465  50.478 -28.435  1.00  0.00     0.209 HD
ENDBRANCH  34  35
ENDBRANCH  30  34
ENDBRANCH  28  29
ENDBRANCH  27  28
ENDBRANCH  25  27
ENDBRANCH   1  25
TORSDOF 8
ENDMDL
MODEL 9
REMARK minimizedAffinity -8.78964806
REMARK  8 active torsions:
REMARK  status: ('A' for Active; 'I' for Inactive)
REMARK    1  A    between atoms: C2_2  and  C3_3 
REMARK    2  A    between atoms: C2_2  and  C9_11 
REMARK    3  A    between atoms: C3_3  and  C4_4 
REMARK    4  A    between atoms: C4_4  and  C5_5 
REMARK    5  A    between atoms: C6_6  and  C7_7 
REMARK    6  A    between atoms: C6_6  and  C8_9 
REMARK    7  A    between atoms: C7_7  and  O1_8 
REMARK    8  A    between atoms: C8_9  and  O2_10 
ROOT
HETATM    1  C9  UNL     1      -2.210  50.161 -22.424  1.00  0.00    -0.002 C 
HETATM    2  C10 UNL     1      -1.875  51.645 -22.740  1.00  0.00     0.007 C 
HETATM    3  C11 UNL     1      -1.085  52.206 -21.545  1.00  0.00     0.015 C 
HETATM    4  C12 UNL     1      -0.676  50.974 -20.715  1.00  0.00    -0.005 C 
HETATM    5  C13 UNL     1       0.617  50.396 -21.366  1.00  0.00     0.021 C 
HETATM    6  C14 UNL     1      -0.334  51.118 -19.236  1.00  0.00    -0.000 C 
HETATM    7  C15 UNL     1      -0.556  50.099 -18.363  1.00  0.00    -0.060 C 
HETATM    8  C16 UNL     1      -1.202  48.790 -18.835  1.00  0.00     0.036 C 
HETATM    9  C17 UNL     1      -1.658  48.702 -20.307  1.00  0.00     0.015 C 
HETATM   10  C18 UNL     1      -1.973  50.086 -20.885  1.00  0.00    -0.028 C 
HETATM   11  C19 UNL     1      -3.220  50.662 -20.142  1.00  0.00     0.016 C 
HETATM   12  C20 UNL     1      -0.239  50.209 -16.846  1.00  0.00    -0.014 C 
HETATM   13  C21 UNL     1      -1.554  50.678 -16.181  1.00  0.00     0.020 C 
HETATM   14  C22 UNL     1       0.188  48.847 -16.243  1.00  0.00     0.021 C 
HETATM   15  C23 UNL     1       0.624  48.937 -14.790  1.00  0.00     0.080 C 
HETATM   16  C24 UNL     1       1.766  49.906 -14.627  1.00  0.00     0.135 C 
HETATM   17  O3  UNL     1       2.737  49.595 -13.935  1.00  0.00    -0.297 OA
HETATM   18  C25 UNL     1       1.611  51.306 -15.243  1.00  0.00     0.018 C 
HETATM   19  C26 UNL     1       0.838  52.180 -14.245  1.00  0.00     0.023 C 
HETATM   20  C27 UNL     1       3.031  51.915 -15.373  1.00  0.00     0.023 C 
HETATM   21  C28 UNL     1       0.968  51.194 -16.671  1.00  0.00     0.020 C 
HETATM   22  C29 UNL     1       0.634  52.549 -17.302  1.00  0.00     0.090 C 
HETATM   23  C30 UNL     1       0.292  52.397 -18.765  1.00  0.00     0.157 C 
HETATM   24  O4  UNL     1       0.509  53.326 -19.539  1.00  0.00    -0.293 OA
ENDROOT
BRANCH   1  25
HETATM   25  C2  UNL     1      -3.584  49.735 -23.017  1.00  0.00    -0.014 C 
HETATM   26  C1  UNL     1      -3.792  48.218 -23.002  1.00  0.00     0.010 C 
BRANCH  25  27
HETATM   27  C3  UNL     1      -3.821  50.282 -24.450  1.00  0.00     0.008 C 
BRANCH  27  28
HETATM   28  C4  UNL     1      -3.336  49.378 -25.587  1.00  0.00     0.028 C 
BRANCH  28  29
HETATM   29  C5  UNL     1      -1.981  49.819 -26.073  1.00  0.00    -0.020 C 
HETATM   30  C6  UNL     1      -1.677  50.890 -26.838  1.00  0.00    -0.037 C 
BRANCH  30  31
HETATM   31  C7  UNL     1      -0.259  51.229 -27.249  1.00  0.00     0.200 C 
BRANCH  31  32
HETATM   32  O1  UNL     1       0.705  50.684 -26.356  1.00  0.00    -0.397 OA
HETATM   33  H12 UNL     1       0.627  49.718 -26.448  1.00  0.00     0.209 HD
ENDBRANCH  31  32
ENDBRANCH  30  31
BRANCH  30  34
HETATM   34  C8  UNL     1      -2.689  51.879 -27.354  1.00  0.00     0.200 C 
BRANCH  34  35
HETATM   35  O2  UNL     1      -2.718  52.998 -26.478  1.00  0.00    -0.397 OA
HETATM   36  H15 UNL     1      -3.321  53.648 -26.875  1.00  0.00     0.209 HD
ENDBRANCH  34  35
ENDBRANCH  30  34
ENDBRANCH  28  29
ENDBRANCH  27  28
ENDBRANCH  25  27
ENDBRANCH   1  25
TORSDOF 8
ENDMDL
