MODEL 1
REMARK minimizedAffinity -6.68263769
REMARK CNNscore 0.528706968
REMARK CNNaffinity 6.32619476
REMARK  12 active torsions:
REMARK  status: ('A' for Active; 'I' for Inactive)
REMARK    1  A    between atoms: C2_2  and  O2_4 
REMARK    2  A    between atoms: O2_4  and  C3_5 
REMARK    3  A    between atoms: C20_23  and  C21_24 
REMARK    4  A    between atoms: C21_24  and  C23_26 
REMARK    5  A    between atoms: C23_26  and  C24_27 
REMARK    6  A    between atoms: C24_27  and  C25_28 
REMARK    7  A    between atoms: C25_28  and  O4_29 
REMARK    8  A    between atoms: C25_28  and  C26_30 
REMARK    9  A    between atoms: C26_30  and  O5_32 
REMARK   10  A    between atoms: C26_30  and  C28_33 
REMARK   11  A    between atoms: C28_33  and  O6_34 
REMARK   12  A    between atoms: C32_38  and  O7_39 
ROOT
HETATM    1  C3  UNL     1     -17.125  45.280 -26.145  1.00  0.00     0.140 C 
HETATM    2  C4  UNL     1     -16.153  46.068 -25.247  1.00  0.00     0.034 C 
HETATM    3  C5  UNL     1     -15.045  45.184 -24.694  1.00  0.00     0.017 C 
HETATM    4  C6  UNL     1     -14.105  44.611 -25.799  1.00  0.00    -0.013 C 
HETATM    5  C7  UNL     1     -13.549  43.263 -25.267  1.00  0.00     0.021 C 
HETATM    6  C8  UNL     1     -12.853  45.461 -26.164  1.00  0.00    -0.032 C 
HETATM    7  C9  UNL     1     -12.237  45.315 -27.373  1.00  0.00     0.002 C 
HETATM    8  C10 UNL     1     -12.753  44.310 -28.371  1.00  0.00     0.157 C 
HETATM    9  O3  UNL     1     -12.081  43.978 -29.346  1.00  0.00    -0.293 OA
HETATM   10  C11 UNL     1     -14.122  43.691 -28.163  1.00  0.00     0.090 C 
HETATM   11  C12 UNL     1     -14.920  44.501 -27.143  1.00  0.00     0.015 C 
HETATM   12  C13 UNL     1     -16.438  44.142 -26.990  1.00  0.00    -0.016 C 
HETATM   13  C14 UNL     1     -17.124  44.131 -28.381  1.00  0.00     0.018 C 
HETATM   14  C15 UNL     1     -16.672  42.740 -26.393  1.00  0.00     0.018 C 
HETATM   15  C16 UNL     1     -11.076  46.214 -27.785  1.00  0.00    -0.005 C 
HETATM   16  C17 UNL     1     -11.775  47.440 -28.455  1.00  0.00     0.021 C 
HETATM   17  C18 UNL     1      -9.992  45.729 -28.768  1.00  0.00     0.015 C 
HETATM   18  C19 UNL     1      -8.784  46.657 -28.526  1.00  0.00     0.007 C 
HETATM   19  C20 UNL     1      -9.039  47.393 -27.180  1.00  0.00    -0.002 C 
HETATM   20  C29 UNL     1     -10.176  46.546 -26.528  1.00  0.00    -0.026 C 
HETATM   21  C30 UNL     1      -9.584  45.262 -25.877  1.00  0.00     0.016 C 
HETATM   22  C31 UNL     1     -11.062  47.269 -25.499  1.00  0.00     0.047 C 
HETATM   23  C32 UNL     1     -12.334  46.467 -25.137  1.00  0.00     0.149 C 
ENDROOT
BRANCH  19  24
HETATM   24  C21 UNL     1      -7.726  47.797 -26.444  1.00  0.00    -0.014 C 
HETATM   25  C22 UNL     1      -6.406  47.487 -27.168  1.00  0.00     0.010 C 
BRANCH  24  26
HETATM   26  C23 UNL     1      -7.609  47.277 -24.992  1.00  0.00     0.007 C 
BRANCH  26  27
HETATM   27  C24 UNL     1      -6.574  47.942 -24.071  1.00  0.00     0.035 C 
BRANCH  27  28
HETATM   28  C25 UNL     1      -6.793  49.447 -23.835  1.00  0.00     0.154 C 
BRANCH  28  29
HETATM   29  O4  UNL     1      -7.564  49.627 -22.646  1.00  0.00    -0.392 OA
HETATM   30  H38 UNL     1      -8.084  50.443 -22.744  1.00  0.00     0.210 HD
ENDBRANCH  28  29
BRANCH  28  31
HETATM   31  C26 UNL     1      -5.470  50.272 -23.750  1.00  0.00     0.101 C 
HETATM   32  C27 UNL     1      -5.048  50.449 -22.283  1.00  0.00     0.051 C 
BRANCH  31  33
HETATM   33  O5  UNL     1      -5.679  51.588 -24.303  1.00  0.00    -0.385 OA
HETATM   34  H42 UNL     1      -6.347  52.040 -23.758  1.00  0.00     0.210 HD
ENDBRANCH  31  33
BRANCH  31  35
HETATM   35  C28 UNL     1      -4.298  49.636 -24.532  1.00  0.00     0.204 C 
BRANCH  35  36
HETATM   36  O6  UNL     1      -4.234  50.148 -25.865  1.00  0.00    -0.398 OA
HETATM   37  H45 UNL     1      -4.409  51.106 -25.767  1.00  0.00     0.209 HD
ENDBRANCH  35  36
ENDBRANCH  31  35
ENDBRANCH  28  31
ENDBRANCH  27  28
ENDBRANCH  26  27
ENDBRANCH  24  26
ENDBRANCH  19  24
BRANCH  23  38
HETATM   38  O7  UNL     1     -12.083  45.786 -23.908  1.00  0.00    -0.391 OA
HETATM   39  H52 UNL     1     -11.444  45.079 -24.082  1.00  0.00     0.210 HD
ENDBRANCH  23  38
BRANCH   1  40
HETATM   40  O2  UNL     1     -18.146  44.728 -25.285  1.00  0.00    -0.316 OA
BRANCH  40  41
HETATM   41  C2  UNL     1     -19.196  45.530 -24.965  1.00  0.00     0.255 C 
HETATM   42  C1  UNL     1     -20.021  44.881 -23.896  1.00  0.00     0.126 C 
HETATM   43  O1  UNL     1     -19.448  46.617 -25.462  1.00  0.00    -0.266 OA
ENDBRANCH  40  41
ENDBRANCH   1  40
TORSDOF 12
ENDMDL
MODEL 2
REMARK minimizedAffinity -7.45064163
REMARK CNNscore 0.511953294
REMARK CNNaffinity 6.91813517
REMARK  12 active torsions:
REMARK  status: ('A' for Active; 'I' for Inactive)
REMARK    1  A    between atoms: C2_2  and  O2_4 
REMARK    2  A    between atoms: O2_4  and  C3_5 
REMARK    3  A    between atoms: C20_23  and  C21_24 
REMARK    4  A    between atoms: C21_24  and  C23_26 
REMARK    5  A    between atoms: C23_26  and  C24_27 
REMARK    6  A    between atoms: C24_27  and  C25_28 
REMARK    7  A    between atoms: C25_28  and  O4_29 
REMARK    8  A    between atoms: C25_28  and  C26_30 
REMARK    9  A    between atoms: C26_30  and  O5_32 
REMARK   10  A    between atoms: C26_30  and  C28_33 
REMARK   11  A    between atoms: C28_33  and  O6_34 
REMARK   12  A    between atoms: C32_38  and  O7_39 
ROOT
HETATM    1  C3  UNL     1      -2.708  45.122 -16.104  1.00  0.00     0.140 C 
HETATM    2  C4  UNL     1      -3.177  44.799 -17.534  1.00  0.00     0.034 C 
HETATM    3  C5  UNL     1      -4.354  45.667 -17.957  1.00  0.00     0.017 C 
HETATM    4  C6  UNL     1      -4.000  47.183 -18.045  1.00  0.00    -0.013 C 
HETATM    5  C7  UNL     1      -5.308  47.971 -17.764  1.00  0.00     0.021 C 
HETATM    6  C8  UNL     1      -3.490  47.705 -19.421  1.00  0.00    -0.032 C 
HETATM    7  C9  UNL     1      -2.742  48.843 -19.503  1.00  0.00     0.002 C 
HETATM    8  C10 UNL     1      -2.413  49.626 -18.257  1.00  0.00     0.157 C 
HETATM    9  O3  UNL     1      -1.969  50.771 -18.324  1.00  0.00    -0.293 OA
HETATM   10  C11 UNL     1      -2.642  48.993 -16.899  1.00  0.00     0.090 C 
HETATM   11  C12 UNL     1      -2.823  47.482 -17.042  1.00  0.00     0.015 C 
HETATM   12  C13 UNL     1      -2.829  46.644 -15.718  1.00  0.00    -0.016 C 
HETATM   13  C14 UNL     1      -1.586  46.997 -14.861  1.00  0.00     0.018 C 
HETATM   14  C15 UNL     1      -4.052  46.932 -14.825  1.00  0.00     0.018 C 
HETATM   15  C16 UNL     1      -2.148  49.307 -20.829  1.00  0.00    -0.005 C 
HETATM   16  C17 UNL     1      -0.770  48.574 -20.895  1.00  0.00     0.021 C 
HETATM   17  C18 UNL     1      -1.871  50.797 -21.109  1.00  0.00     0.015 C 
HETATM   18  C19 UNL     1      -1.790  50.911 -22.645  1.00  0.00     0.007 C 
HETATM   19  C20 UNL     1      -2.387  49.599 -23.230  1.00  0.00    -0.002 C 
HETATM   20  C29 UNL     1      -3.148  48.988 -22.011  1.00  0.00    -0.026 C 
HETATM   21  C30 UNL     1      -4.521  49.696 -21.824  1.00  0.00     0.016 C 
HETATM   22  C31 UNL     1      -3.367  47.466 -22.038  1.00  0.00     0.047 C 
HETATM   23  C32 UNL     1      -3.843  46.907 -20.676  1.00  0.00     0.149 C 
ENDROOT
BRANCH  19  24
HETATM   24  C21 UNL     1      -3.018  49.789 -24.641  1.00  0.00    -0.014 C 
HETATM   25  C22 UNL     1      -3.627  48.541 -25.299  1.00  0.00     0.010 C 
BRANCH  24  26
HETATM   26  C23 UNL     1      -2.097  50.475 -25.677  1.00  0.00     0.007 C 
BRANCH  26  27
HETATM   27  C24 UNL     1      -2.452  51.904 -26.121  1.00  0.00     0.035 C 
BRANCH  27  28
HETATM   28  C25 UNL     1      -1.517  52.498 -27.190  1.00  0.00     0.154 C 
BRANCH  28  29
HETATM   29  O4  UNL     1      -2.272  53.351 -28.050  1.00  0.00    -0.392 OA
HETATM   30  H38 UNL     1      -1.858  53.336 -28.930  1.00  0.00     0.210 HD
ENDBRANCH  28  29
BRANCH  28  31
HETATM   31  C26 UNL     1      -0.295  53.270 -26.601  1.00  0.00     0.101 C 
HETATM   32  C27 UNL     1       0.935  52.352 -26.544  1.00  0.00     0.051 C 
BRANCH  31  33
HETATM   33  O5  UNL     1      -0.587  53.689 -25.252  1.00  0.00    -0.385 OA
HETATM   34  H42 UNL     1      -0.722  52.891 -24.711  1.00  0.00     0.210 HD
ENDBRANCH  31  33
BRANCH  31  35
HETATM   35  C28 UNL     1       0.071  54.543 -27.399  1.00  0.00     0.204 C 
BRANCH  35  36
HETATM   36  O6  UNL     1       0.135  55.684 -26.541  1.00  0.00    -0.398 OA
HETATM   37  H45 UNL     1       0.586  55.360 -25.736  1.00  0.00     0.209 HD
ENDBRANCH  35  36
ENDBRANCH  31  35
ENDBRANCH  28  31
ENDBRANCH  27  28
ENDBRANCH  26  27
ENDBRANCH  24  26
ENDBRANCH  19  24
BRANCH  23  38
HETATM   38  O7  UNL     1      -5.260  46.750 -20.742  1.00  0.00    -0.391 OA
HETATM   39  H52 UNL     1      -5.660  47.634 -20.746  1.00  0.00     0.210 HD
ENDBRANCH  23  38
BRANCH   1  40
HETATM   40  O2  UNL     1      -3.490  44.307 -15.205  1.00  0.00    -0.316 OA
BRANCH  40  41
HETATM   41  C2  UNL     1      -2.817  43.457 -14.383  1.00  0.00     0.255 C 
HETATM   42  C1  UNL     1      -1.413  43.284 -14.876  1.00  0.00     0.126 C 
HETATM   43  O1  UNL     1      -3.270  42.907 -13.391  1.00  0.00    -0.266 OA
ENDBRANCH  40  41
ENDBRANCH   1  40
TORSDOF 12
ENDMDL
MODEL 3
REMARK minimizedAffinity -7.43452597
REMARK CNNscore 0.474066734
REMARK CNNaffinity 6.67652941
REMARK  12 active torsions:
REMARK  status: ('A' for Active; 'I' for Inactive)
REMARK    1  A    between atoms: C2_2  and  O2_4 
REMARK    2  A    between atoms: O2_4  and  C3_5 
REMARK    3  A    between atoms: C20_23  and  C21_24 
REMARK    4  A    between atoms: C21_24  and  C23_26 
REMARK    5  A    between atoms: C23_26  and  C24_27 
REMARK    6  A    between atoms: C24_27  and  C25_28 
REMARK    7  A    between atoms: C25_28  and  O4_29 
REMARK    8  A    between atoms: C25_28  and  C26_30 
REMARK    9  A    between atoms: C26_30  and  O5_32 
REMARK   10  A    between atoms: C26_30  and  C28_33 
REMARK   11  A    between atoms: C28_33  and  O6_34 
REMARK   12  A    between atoms: C32_38  and  O7_39 
ROOT
HETATM    1  C3  UNL     1      -8.948  45.417 -18.641  1.00  0.00     0.140 C 
HETATM    2  C4  UNL     1      -8.896  45.775 -20.138  1.00  0.00     0.034 C 
HETATM    3  C5  UNL     1      -8.854  47.280 -20.363  1.00  0.00     0.017 C 
HETATM    4  C6  UNL     1      -7.561  47.949 -19.803  1.00  0.00    -0.013 C 
HETATM    5  C7  UNL     1      -7.930  49.412 -19.437  1.00  0.00     0.021 C 
HETATM    6  C8  UNL     1      -6.351  48.059 -20.778  1.00  0.00    -0.032 C 
HETATM    7  C9  UNL     1      -5.079  48.188 -20.300  1.00  0.00     0.002 C 
HETATM    8  C10 UNL     1      -4.828  48.247 -18.815  1.00  0.00     0.157 C 
HETATM    9  O3  UNL     1      -3.744  48.615 -18.366  1.00  0.00    -0.293 OA
HETATM   10  C11 UNL     1      -5.936  47.853 -17.857  1.00  0.00     0.090 C 
HETATM   11  C12 UNL     1      -7.029  47.084 -18.599  1.00  0.00     0.015 C 
HETATM   12  C13 UNL     1      -8.127  46.396 -17.720  1.00  0.00    -0.016 C 
HETATM   13  C14 UNL     1      -7.461  45.531 -16.617  1.00  0.00     0.018 C 
HETATM   14  C15 UNL     1      -9.028  47.402 -16.977  1.00  0.00     0.018 C 
HETATM   15  C16 UNL     1      -3.877  48.191 -21.239  1.00  0.00    -0.005 C 
HETATM   16  C17 UNL     1      -3.512  46.678 -21.377  1.00  0.00     0.021 C 
HETATM   17  C18 UNL     1      -2.574  48.930 -20.875  1.00  0.00     0.015 C 
HETATM   18  C19 UNL     1      -1.844  49.143 -22.218  1.00  0.00     0.007 C 
HETATM   19  C20 UNL     1      -2.881  48.878 -23.346  1.00  0.00    -0.002 C 
HETATM   20  C29 UNL     1      -4.244  48.930 -22.587  1.00  0.00    -0.026 C 
HETATM   21  C30 UNL     1      -4.671  50.407 -22.347  1.00  0.00     0.016 C 
HETATM   22  C31 UNL     1      -5.413  48.167 -23.233  1.00  0.00     0.047 C 
HETATM   23  C32 UNL     1      -6.623  48.010 -22.281  1.00  0.00     0.149 C 
ENDROOT
BRANCH  19  24
HETATM   24  C21 UNL     1      -2.583  49.675 -24.651  1.00  0.00    -0.014 C 
HETATM   25  C22 UNL     1      -2.628  48.885 -25.968  1.00  0.00     0.010 C 
BRANCH  24  26
HETATM   26  C23 UNL     1      -1.269  50.491 -24.627  1.00  0.00     0.007 C 
BRANCH  26  27
HETATM   27  C24 UNL     1      -1.336  51.975 -25.025  1.00  0.00     0.035 C 
BRANCH  27  28
HETATM   28  C25 UNL     1      -1.435  52.233 -26.539  1.00  0.00     0.154 C 
BRANCH  28  29
HETATM   29  O4  UNL     1      -2.537  53.104 -26.795  1.00  0.00    -0.392 OA
HETATM   30  H38 UNL     1      -2.887  52.897 -27.679  1.00  0.00     0.210 HD
ENDBRANCH  28  29
BRANCH  28  31
HETATM   31  C26 UNL     1      -0.129  52.816 -27.167  1.00  0.00     0.101 C 
HETATM   32  C27 UNL     1       0.516  51.783 -28.103  1.00  0.00     0.051 C 
BRANCH  31  33
HETATM   33  O5  UNL     1       0.823  53.111 -26.124  1.00  0.00    -0.385 OA
HETATM   34  H42 UNL     1       1.054  52.275 -25.682  1.00  0.00     0.210 HD
ENDBRANCH  31  33
BRANCH  31  35
HETATM   35  C28 UNL     1      -0.358  54.127 -27.953  1.00  0.00     0.204 C 
BRANCH  35  36
HETATM   36  O6  UNL     1      -0.248  55.265 -27.095  1.00  0.00    -0.398 OA
HETATM   37  H45 UNL     1       0.518  55.064 -26.520  1.00  0.00     0.209 HD
ENDBRANCH  35  36
ENDBRANCH  31  35
ENDBRANCH  28  31
ENDBRANCH  27  28
ENDBRANCH  26  27
ENDBRANCH  24  26
ENDBRANCH  19  24
BRANCH  23  38
HETATM   38  O7  UNL     1      -7.571  49.024 -22.612  1.00  0.00    -0.391 OA
HETATM   39  H52 UNL     1      -7.207  49.879 -22.334  1.00  0.00     0.210 HD
ENDBRANCH  23  38
BRANCH   1  40
HETATM   40  O2  UNL     1     -10.340  45.402 -18.255  1.00  0.00    -0.316 OA
BRANCH  40  41
HETATM   41  C2  UNL     1     -10.785  44.321 -17.561  1.00  0.00     0.255 C 
HETATM   42  C1  UNL     1     -10.041  43.098 -17.998  1.00  0.00     0.126 C 
HETATM   43  O1  UNL     1     -11.660  44.326 -16.708  1.00  0.00    -0.266 OA
ENDBRANCH  40  41
ENDBRANCH   1  40
TORSDOF 12
ENDMDL
MODEL 4
REMARK minimizedAffinity -7.83512211
REMARK CNNscore 0.425082058
REMARK CNNaffinity 6.29831314
REMARK  12 active torsions:
REMARK  status: ('A' for Active; 'I' for Inactive)
REMARK    1  A    between atoms: C2_2  and  O2_4 
REMARK    2  A    between atoms: O2_4  and  C3_5 
REMARK    3  A    between atoms: C20_23  and  C21_24 
REMARK    4  A    between atoms: C21_24  and  C23_26 
REMARK    5  A    between atoms: C23_26  and  C24_27 
REMARK    6  A    between atoms: C24_27  and  C25_28 
REMARK    7  A    between atoms: C25_28  and  O4_29 
REMARK    8  A    between atoms: C25_28  and  C26_30 
REMARK    9  A    between atoms: C26_30  and  O5_32 
REMARK   10  A    between atoms: C26_30  and  C28_33 
REMARK   11  A    between atoms: C28_33  and  O6_34 
REMARK   12  A    between atoms: C32_38  and  O7_39 
ROOT
HETATM    1  C3  UNL     1     -12.641  47.803 -37.256  1.00  0.00     0.140 C 
HETATM    2  C4  UNL     1     -12.899  47.074 -35.924  1.00  0.00     0.034 C 
HETATM    3  C5  UNL     1     -12.113  45.774 -35.824  1.00  0.00     0.017 C 
HETATM    4  C6  UNL     1     -10.569  45.990 -35.805  1.00  0.00    -0.013 C 
HETATM    5  C7  UNL     1      -9.926  44.713 -36.412  1.00  0.00     0.021 C 
HETATM    6  C8  UNL     1      -9.903  46.165 -34.408  1.00  0.00    -0.032 C 
HETATM    7  C9  UNL     1      -8.699  46.794 -34.282  1.00  0.00     0.002 C 
HETATM    8  C10 UNL     1      -7.983  47.314 -35.502  1.00  0.00     0.157 C 
HETATM    9  O3  UNL     1      -6.801  47.649 -35.452  1.00  0.00    -0.293 OA
HETATM   10  C11 UNL     1      -8.732  47.417 -36.816  1.00  0.00     0.090 C 
HETATM   11  C12 UNL     1     -10.238  47.322 -36.576  1.00  0.00     0.015 C 
HETATM   12  C13 UNL     1     -11.168  47.652 -37.793  1.00  0.00    -0.016 C 
HETATM   13  C14 UNL     1     -10.768  49.016 -38.414  1.00  0.00     0.018 C 
HETATM   14  C15 UNL     1     -11.059  46.622 -38.935  1.00  0.00     0.018 C 
HETATM   15  C16 UNL     1      -8.086  47.065 -32.912  1.00  0.00    -0.005 C 
HETATM   16  C17 UNL     1      -8.685  48.451 -32.506  1.00  0.00     0.021 C 
HETATM   17  C18 UNL     1      -6.561  47.168 -32.718  1.00  0.00     0.015 C 
HETATM   18  C19 UNL     1      -6.328  46.922 -31.213  1.00  0.00     0.007 C 
HETATM   19  C20 UNL     1      -7.642  46.316 -30.643  1.00  0.00    -0.002 C 
HETATM   20  C29 UNL     1      -8.407  45.870 -31.928  1.00  0.00    -0.026 C 
HETATM   21  C30 UNL     1      -7.842  44.517 -32.449  1.00  0.00     0.016 C 
HETATM   22  C31 UNL     1      -9.937  45.764 -31.809  1.00  0.00     0.047 C 
HETATM   23  C32 UNL     1     -10.635  45.621 -33.182  1.00  0.00     0.149 C 
ENDROOT
BRANCH  19  24
HETATM   24  C21 UNL     1      -7.407  45.395 -29.409  1.00  0.00    -0.014 C 
HETATM   25  C22 UNL     1      -7.454  43.880 -29.659  1.00  0.00     0.010 C 
BRANCH  24  26
HETATM   26  C23 UNL     1      -8.302  45.706 -28.187  1.00  0.00     0.007 C 
BRANCH  26  27
HETATM   27  C24 UNL     1      -9.264  46.902 -28.285  1.00  0.00     0.035 C 
BRANCH  27  28
HETATM   28  C25 UNL     1      -8.788  48.173 -27.559  1.00  0.00     0.154 C 
BRANCH  28  29
HETATM   29  O4  UNL     1      -8.675  49.237 -28.505  1.00  0.00    -0.392 OA
HETATM   30  H38 UNL     1      -7.973  49.838 -28.201  1.00  0.00     0.210 HD
ENDBRANCH  28  29
BRANCH  28  31
HETATM   31  C26 UNL     1      -9.706  48.603 -26.371  1.00  0.00     0.101 C 
HETATM   32  C27 UNL     1     -11.171  48.263 -26.682  1.00  0.00     0.051 C 
BRANCH  31  33
HETATM   33  O5  UNL     1      -9.622  50.030 -26.182  1.00  0.00    -0.385 OA
HETATM   34  H42 UNL     1      -9.958  50.461 -26.987  1.00  0.00     0.210 HD
ENDBRANCH  31  33
BRANCH  31  35
HETATM   35  C28 UNL     1      -9.317  47.946 -25.026  1.00  0.00     0.204 C 
BRANCH  35  36
HETATM   36  O6  UNL     1     -10.469  47.424 -24.360  1.00  0.00    -0.398 OA
HETATM   37  H45 UNL     1     -10.997  47.010 -25.073  1.00  0.00     0.209 HD
ENDBRANCH  35  36
ENDBRANCH  31  35
ENDBRANCH  28  31
ENDBRANCH  27  28
ENDBRANCH  26  27
ENDBRANCH  24  26
ENDBRANCH  19  24
BRANCH  23  38
HETATM   38  O7  UNL     1     -10.914  44.236 -33.385  1.00  0.00    -0.391 OA
HETATM   39  H52 UNL     1     -10.073  43.780 -33.541  1.00  0.00     0.210 HD
ENDBRANCH  23  38
BRANCH   1  40
HETATM   40  O2  UNL     1     -13.588  47.285 -38.215  1.00  0.00    -0.316 OA
BRANCH  40  41
HETATM   41  C2  UNL     1     -14.541  48.138 -38.677  1.00  0.00     0.255 C 
HETATM   42  C1  UNL     1     -14.250  48.497 -40.102  1.00  0.00     0.126 C 
HETATM   43  O1  UNL     1     -15.496  48.559 -38.043  1.00  0.00    -0.266 OA
ENDBRANCH  40  41
ENDBRANCH   1  40
TORSDOF 12
ENDMDL
MODEL 5
REMARK minimizedAffinity -7.54605675
REMARK CNNscore 0.420932114
REMARK CNNaffinity 6.45639563
REMARK  12 active torsions:
REMARK  status: ('A' for Active; 'I' for Inactive)
REMARK    1  A    between atoms: C2_2  and  O2_4 
REMARK    2  A    between atoms: O2_4  and  C3_5 
REMARK    3  A    between atoms: C20_23  and  C21_24 
REMARK    4  A    between atoms: C21_24  and  C23_26 
REMARK    5  A    between atoms: C23_26  and  C24_27 
REMARK    6  A    between atoms: C24_27  and  C25_28 
REMARK    7  A    between atoms: C25_28  and  O4_29 
REMARK    8  A    between atoms: C25_28  and  C26_30 
REMARK    9  A    between atoms: C26_30  and  O5_32 
REMARK   10  A    between atoms: C26_30  and  C28_33 
REMARK   11  A    between atoms: C28_33  and  O6_34 
REMARK   12  A    between atoms: C32_38  and  O7_39 
ROOT
HETATM    1  C3  UNL     1     -15.922  46.292 -25.443  1.00  0.00     0.140 C 
HETATM    2  C4  UNL     1     -14.869  46.971 -24.548  1.00  0.00     0.034 C 
HETATM    3  C5  UNL     1     -13.875  45.970 -23.977  1.00  0.00     0.017 C 
HETATM    4  C6  UNL     1     -13.003  45.278 -25.070  1.00  0.00    -0.013 C 
HETATM    5  C7  UNL     1     -12.611  43.880 -24.518  1.00  0.00     0.021 C 
HETATM    6  C8  UNL     1     -11.657  45.971 -25.435  1.00  0.00    -0.032 C 
HETATM    7  C9  UNL     1     -11.057  45.740 -26.638  1.00  0.00     0.002 C 
HETATM    8  C10 UNL     1     -11.681  44.791 -27.629  1.00  0.00     0.157 C 
HETATM    9  O3  UNL     1     -11.047  44.371 -28.594  1.00  0.00    -0.293 OA
HETATM   10  C11 UNL     1     -13.114  44.338 -27.423  1.00  0.00     0.090 C 
HETATM   11  C12 UNL     1     -13.818  45.248 -26.417  1.00  0.00     0.015 C 
HETATM   12  C13 UNL     1     -15.367  45.072 -26.271  1.00  0.00    -0.016 C 
HETATM   13  C14 UNL     1     -16.042  45.124 -27.666  1.00  0.00     0.018 C 
HETATM   14  C15 UNL     1     -15.768  43.714 -25.661  1.00  0.00     0.018 C 
HETATM   15  C16 UNL     1      -9.796  46.492 -27.051  1.00  0.00    -0.005 C 
HETATM   16  C17 UNL     1     -10.343  47.784 -27.740  1.00  0.00     0.021 C 
HETATM   17  C18 UNL     1      -8.771  45.873 -28.022  1.00  0.00     0.015 C 
HETATM   18  C19 UNL     1      -7.464  46.656 -27.782  1.00  0.00     0.007 C 
HETATM   19  C20 UNL     1      -7.638  47.432 -26.445  1.00  0.00    -0.002 C 
HETATM   20  C29 UNL     1      -8.870  46.731 -25.792  1.00  0.00    -0.026 C 
HETATM   21  C30 UNL     1      -8.437  45.395 -25.123  1.00  0.00     0.016 C 
HETATM   22  C31 UNL     1      -9.671  47.565 -24.778  1.00  0.00     0.047 C 
HETATM   23  C32 UNL     1     -11.030  46.922 -24.416  1.00  0.00     0.149 C 
ENDROOT
BRANCH  19  24
HETATM   24  C21 UNL     1      -6.291  47.688 -25.705  1.00  0.00    -0.014 C 
HETATM   25  C22 UNL     1      -6.335  48.643 -24.502  1.00  0.00     0.010 C 
BRANCH  24  26
HETATM   26  C23 UNL     1      -5.121  48.123 -26.619  1.00  0.00     0.007 C 
BRANCH  26  27
HETATM   27  C24 UNL     1      -3.775  48.457 -25.955  1.00  0.00     0.035 C 
BRANCH  27  28
HETATM   28  C25 UNL     1      -2.792  49.236 -26.846  1.00  0.00     0.154 C 
BRANCH  28  29
HETATM   29  O4  UNL     1      -3.422  49.528 -28.094  1.00  0.00    -0.392 OA
HETATM   30  H38 UNL     1      -2.733  49.566 -28.779  1.00  0.00     0.210 HD
ENDBRANCH  28  29
BRANCH  28  31
HETATM   31  C26 UNL     1      -2.251  50.548 -26.195  1.00  0.00     0.101 C 
HETATM   32  C27 UNL     1      -0.738  50.670 -26.426  1.00  0.00     0.051 C 
BRANCH  31  33
HETATM   33  O5  UNL     1      -2.472  50.511 -24.770  1.00  0.00    -0.385 OA
HETATM   34  H42 UNL     1      -1.961  49.767 -24.406  1.00  0.00     0.210 HD
ENDBRANCH  31  33
BRANCH  31  35
HETATM   35  C28 UNL     1      -2.941  51.827 -26.725  1.00  0.00     0.204 C 
BRANCH  35  36
HETATM   36  O6  UNL     1      -2.224  52.372 -27.835  1.00  0.00    -0.398 OA
HETATM   37  H45 UNL     1      -1.968  51.592 -28.367  1.00  0.00     0.209 HD
ENDBRANCH  35  36
ENDBRANCH  31  35
ENDBRANCH  28  31
ENDBRANCH  27  28
ENDBRANCH  26  27
ENDBRANCH  24  26
ENDBRANCH  19  24
BRANCH  23  38
HETATM   38  O7  UNL     1     -10.868  46.231 -23.177  1.00  0.00    -0.391 OA
HETATM   39  H52 UNL     1     -10.315  45.451 -23.339  1.00  0.00     0.210 HD
ENDBRANCH  23  38
BRANCH   1  40
HETATM   40  O2  UNL     1     -17.005  45.873 -24.584  1.00  0.00    -0.316 OA
BRANCH  40  41
HETATM   41  C2  UNL     1     -18.247  46.350 -24.865  1.00  0.00     0.255 C 
HETATM   42  C1  UNL     1     -19.166  45.210 -25.183  1.00  0.00     0.126 C 
HETATM   43  O1  UNL     1     -18.583  47.525 -24.865  1.00  0.00    -0.266 OA
ENDBRANCH  40  41
ENDBRANCH   1  40
TORSDOF 12
ENDMDL
MODEL 6
REMARK minimizedAffinity -6.64431047
REMARK CNNscore 0.420890033
REMARK CNNaffinity 6.3368268
REMARK  12 active torsions:
REMARK  status: ('A' for Active; 'I' for Inactive)
REMARK    1  A    between atoms: C2_2  and  O2_4 
REMARK    2  A    between atoms: O2_4  and  C3_5 
REMARK    3  A    between atoms: C20_23  and  C21_24 
REMARK    4  A    between atoms: C21_24  and  C23_26 
REMARK    5  A    between atoms: C23_26  and  C24_27 
REMARK    6  A    between atoms: C24_27  and  C25_28 
REMARK    7  A    between atoms: C25_28  and  O4_29 
REMARK    8  A    between atoms: C25_28  and  C26_30 
REMARK    9  A    between atoms: C26_30  and  O5_32 
REMARK   10  A    between atoms: C26_30  and  C28_33 
REMARK   11  A    between atoms: C28_33  and  O6_34 
REMARK   12  A    between atoms: C32_38  and  O7_39 
ROOT
HETATM    1  C3  UNL     1      -1.782  51.241 -11.372  1.00  0.00     0.140 C 
HETATM    2  C4  UNL     1      -0.457  51.842 -11.877  1.00  0.00     0.034 C 
HETATM    3  C5  UNL     1      -0.424  53.357 -11.724  1.00  0.00     0.017 C 
HETATM    4  C6  UNL     1      -0.471  53.825 -10.237  1.00  0.00    -0.013 C 
HETATM    5  C7  UNL     1      -1.136  55.228 -10.226  1.00  0.00     0.021 C 
HETATM    6  C8  UNL     1       0.898  54.010  -9.518  1.00  0.00    -0.032 C 
HETATM    7  C9  UNL     1       0.983  53.964  -8.157  1.00  0.00     0.002 C 
HETATM    8  C10 UNL     1      -0.256  53.752  -7.325  1.00  0.00     0.157 C 
HETATM    9  O3  UNL     1      -0.253  53.959  -6.113  1.00  0.00    -0.293 OA
HETATM   10  C11 UNL     1      -1.532  53.284  -7.998  1.00  0.00     0.090 C 
HETATM   11  C12 UNL     1      -1.225  52.733  -9.390  1.00  0.00     0.015 C 
HETATM   12  C13 UNL     1      -2.390  51.987 -10.126  1.00  0.00    -0.016 C 
HETATM   13  C14 UNL     1      -2.997  50.903  -9.197  1.00  0.00     0.018 C 
HETATM   14  C15 UNL     1      -3.559  52.916 -10.506  1.00  0.00     0.018 C 
HETATM   15  C16 UNL     1       2.330  54.038  -7.444  1.00  0.00    -0.005 C 
HETATM   16  C17 UNL     1       2.795  52.548  -7.375  1.00  0.00     0.021 C 
HETATM   17  C18 UNL     1       2.455  54.607  -6.017  1.00  0.00     0.015 C 
HETATM   18  C19 UNL     1       3.942  54.991  -5.866  1.00  0.00     0.007 C 
HETATM   19  C20 UNL     1       4.558  54.998  -7.294  1.00  0.00    -0.002 C 
HETATM   20  C29 UNL     1       3.299  55.019  -8.217  1.00  0.00    -0.026 C 
HETATM   21  C30 UNL     1       2.722  56.461  -8.306  1.00  0.00     0.016 C 
HETATM   22  C31 UNL     1       3.486  54.464  -9.639  1.00  0.00     0.047 C 
HETATM   23  C32 UNL     1       2.144  54.237 -10.374  1.00  0.00     0.149 C 
ENDROOT
BRANCH  19  24
HETATM   24  C21 UNL     1       5.758  55.980  -7.440  1.00  0.00    -0.014 C 
HETATM   25  C22 UNL     1       7.086  55.380  -7.925  1.00  0.00     0.010 C 
BRANCH  24  26
HETATM   26  C23 UNL     1       6.050  56.838  -6.186  1.00  0.00     0.007 C 
BRANCH  26  27
HETATM   27  C24 UNL     1       7.490  56.857  -5.647  1.00  0.00     0.035 C 
BRANCH  27  28
HETATM   28  C25 UNL     1       8.027  58.255  -5.294  1.00  0.00     0.154 C 
BRANCH  28  29
HETATM   29  O4  UNL     1       7.130  58.885  -4.379  1.00  0.00    -0.392 OA
HETATM   30  H38 UNL     1       7.178  59.846  -4.522  1.00  0.00     0.210 HD
ENDBRANCH  28  29
BRANCH  28  31
HETATM   31  C26 UNL     1       9.476  58.246  -4.710  1.00  0.00     0.101 C 
HETATM   32  C27 UNL     1       9.438  58.490  -3.194  1.00  0.00     0.051 C 
BRANCH  31  33
HETATM   33  O5  UNL     1      10.247  59.311  -5.303  1.00  0.00    -0.385 OA
HETATM   34  H42 UNL     1       9.832  60.157  -5.055  1.00  0.00     0.210 HD
ENDBRANCH  31  33
BRANCH  31  35
HETATM   35  C28 UNL     1      10.240  56.930  -4.984  1.00  0.00     0.204 C 
BRANCH  35  36
HETATM   36  O6  UNL     1       9.471  56.054  -5.811  1.00  0.00    -0.398 OA
HETATM   37  H45 UNL     1       9.075  56.642  -6.487  1.00  0.00     0.209 HD
ENDBRANCH  35  36
ENDBRANCH  31  35
ENDBRANCH  28  31
ENDBRANCH  27  28
ENDBRANCH  26  27
ENDBRANCH  24  26
ENDBRANCH  19  24
BRANCH  23  38
HETATM   38  O7  UNL     1       1.921  55.358 -11.228  1.00  0.00    -0.391 OA
HETATM   39  H52 UNL     1       1.716  56.124 -10.670  1.00  0.00     0.210 HD
ENDBRANCH  23  38
BRANCH   1  40
HETATM   40  O2  UNL     1      -2.709  51.263 -12.479  1.00  0.00    -0.316 OA
BRANCH  40  41
HETATM   41  C2  UNL     1      -3.143  50.065 -12.956  1.00  0.00     0.255 C 
HETATM   42  C1  UNL     1      -2.710  49.901 -14.380  1.00  0.00     0.126 C 
HETATM   43  O1  UNL     1      -3.791  49.236 -12.334  1.00  0.00    -0.266 OA
ENDBRANCH  40  41
ENDBRANCH   1  40
TORSDOF 12
ENDMDL
MODEL 7
REMARK minimizedAffinity -7.95606041
REMARK CNNscore 0.39902246
REMARK CNNaffinity 6.97378397
REMARK  12 active torsions:
REMARK  status: ('A' for Active; 'I' for Inactive)
REMARK    1  A    between atoms: C2_2  and  O2_4 
REMARK    2  A    between atoms: O2_4  and  C3_5 
REMARK    3  A    between atoms: C20_23  and  C21_24 
REMARK    4  A    between atoms: C21_24  and  C23_26 
REMARK    5  A    between atoms: C23_26  and  C24_27 
REMARK    6  A    between atoms: C24_27  and  C25_28 
REMARK    7  A    between atoms: C25_28  and  O4_29 
REMARK    8  A    between atoms: C25_28  and  C26_30 
REMARK    9  A    between atoms: C26_30  and  O5_32 
REMARK   10  A    between atoms: C26_30  and  C28_33 
REMARK   11  A    between atoms: C28_33  and  O6_34 
REMARK   12  A    between atoms: C32_38  and  O7_39 
ROOT
HETATM    1  C3  UNL     1      -1.048  51.322 -25.604  1.00  0.00     0.140 C 
HETATM    2  C4  UNL     1      -0.528  51.550 -24.172  1.00  0.00     0.034 C 
HETATM    3  C5  UNL     1      -1.620  52.068 -23.245  1.00  0.00     0.017 C 
HETATM    4  C6  UNL     1      -2.781  51.048 -23.033  1.00  0.00    -0.013 C 
HETATM    5  C7  UNL     1      -4.059  51.876 -22.730  1.00  0.00     0.021 C 
HETATM    6  C8  UNL     1      -2.635  50.060 -21.838  1.00  0.00    -0.032 C 
HETATM    7  C9  UNL     1      -3.315  48.876 -21.824  1.00  0.00     0.002 C 
HETATM    8  C10 UNL     1      -4.236  48.517 -22.962  1.00  0.00     0.157 C 
HETATM    9  O3  UNL     1      -5.045  47.596 -22.860  1.00  0.00    -0.293 OA
HETATM   10  C11 UNL     1      -4.171  49.312 -24.252  1.00  0.00     0.090 C 
HETATM   11  C12 UNL     1      -2.880  50.127 -24.306  1.00  0.00     0.015 C 
HETATM   12  C13 UNL     1      -2.538  50.816 -25.671  1.00  0.00    -0.016 C 
HETATM   13  C14 UNL     1      -2.615  49.780 -26.823  1.00  0.00     0.018 C 
HETATM   14  C15 UNL     1      -3.526  51.938 -26.048  1.00  0.00     0.018 C 
HETATM   15  C16 UNL     1      -3.101  47.853 -20.714  1.00  0.00    -0.005 C 
HETATM   16  C17 UNL     1      -1.906  46.990 -21.231  1.00  0.00     0.021 C 
HETATM   17  C18 UNL     1      -4.213  46.869 -20.302  1.00  0.00     0.015 C 
HETATM   18  C19 UNL     1      -3.830  46.399 -18.883  1.00  0.00     0.007 C 
HETATM   19  C20 UNL     1      -2.744  47.381 -18.357  1.00  0.00    -0.002 C 
HETATM   20  C29 UNL     1      -2.863  48.590 -19.336  1.00  0.00    -0.026 C 
HETATM   21  C30 UNL     1      -4.070  49.489 -18.937  1.00  0.00     0.016 C 
HETATM   22  C31 UNL     1      -1.611  49.470 -19.489  1.00  0.00     0.047 C 
HETATM   23  C32 UNL     1      -1.707  50.444 -20.687  1.00  0.00     0.149 C 
ENDROOT
BRANCH  19  24
HETATM   24  C21 UNL     1      -2.742  47.516 -16.805  1.00  0.00    -0.014 C 
HETATM   25  C22 UNL     1      -3.730  46.630 -16.033  1.00  0.00     0.010 C 
BRANCH  24  26
HETATM   26  C23 UNL     1      -2.885  48.964 -16.280  1.00  0.00     0.007 C 
BRANCH  26  27
HETATM   27  C24 UNL     1      -1.738  49.540 -15.433  1.00  0.00     0.035 C 
BRANCH  27  28
HETATM   28  C25 UNL     1      -2.035  50.906 -14.789  1.00  0.00     0.154 C 
BRANCH  28  29
HETATM   29  O4  UNL     1      -3.444  51.042 -14.609  1.00  0.00    -0.392 OA
HETATM   30  H38 UNL     1      -3.667  51.987 -14.668  1.00  0.00     0.210 HD
ENDBRANCH  28  29
BRANCH  28  31
HETATM   31  C26 UNL     1      -1.292  51.141 -13.436  1.00  0.00     0.101 C 
HETATM   32  C27 UNL     1      -0.147  52.148 -13.628  1.00  0.00     0.051 C 
BRANCH  31  33
HETATM   33  O5  UNL     1      -0.710  49.904 -12.978  1.00  0.00    -0.385 OA
HETATM   34  H42 UNL     1      -0.049  49.621 -13.634  1.00  0.00     0.210 HD
ENDBRANCH  31  33
BRANCH  31  35
HETATM   35  C28 UNL     1      -2.218  51.650 -12.307  1.00  0.00     0.204 C 
BRANCH  35  36
HETATM   36  O6  UNL     1      -2.635  52.994 -12.554  1.00  0.00    -0.398 OA
HETATM   37  H45 UNL     1      -2.829  53.018 -13.513  1.00  0.00     0.209 HD
ENDBRANCH  35  36
ENDBRANCH  31  35
ENDBRANCH  28  31
ENDBRANCH  27  28
ENDBRANCH  26  27
ENDBRANCH  24  26
ENDBRANCH  19  24
BRANCH  23  38
HETATM   38  O7  UNL     1      -2.101  51.718 -20.180  1.00  0.00    -0.391 OA
HETATM   39  H52 UNL     1      -3.027  51.657 -19.899  1.00  0.00     0.210 HD
ENDBRANCH  23  38
BRANCH   1  40
HETATM   40  O2  UNL     1      -0.903  52.572 -26.313  1.00  0.00    -0.316 OA
BRANCH  40  41
HETATM   41  C2  UNL     1       0.347  53.100 -26.402  1.00  0.00     0.255 C 
HETATM   42  C1  UNL     1       1.231  52.176 -27.182  1.00  0.00     0.126 C 
HETATM   43  O1  UNL     1       0.713  54.164 -25.925  1.00  0.00    -0.266 OA
ENDBRANCH  40  41
ENDBRANCH   1  40
TORSDOF 12
ENDMDL
MODEL 8
REMARK minimizedAffinity -9.85852623
REMARK CNNscore 0.394978791
REMARK CNNaffinity 6.9585247
REMARK  12 active torsions:
REMARK  status: ('A' for Active; 'I' for Inactive)
REMARK    1  A    between atoms: C2_2  and  O2_4 
REMARK    2  A    between atoms: O2_4  and  C3_5 
REMARK    3  A    between atoms: C20_23  and  C21_24 
REMARK    4  A    between atoms: C21_24  and  C23_26 
REMARK    5  A    between atoms: C23_26  and  C24_27 
REMARK    6  A    between atoms: C24_27  and  C25_28 
REMARK    7  A    between atoms: C25_28  and  O4_29 
REMARK    8  A    between atoms: C25_28  and  C26_30 
REMARK    9  A    between atoms: C26_30  and  O5_32 
REMARK   10  A    between atoms: C26_30  and  C28_33 
REMARK   11  A    between atoms: C28_33  and  O6_34 
REMARK   12  A    between atoms: C32_38  and  O7_39 
ROOT
HETATM    1  C3  UNL     1      -0.683  50.823 -26.326  1.00  0.00     0.140 C 
HETATM    2  C4  UNL     1       0.131  51.385 -25.146  1.00  0.00     0.034 C 
HETATM    3  C5  UNL     1      -0.723  52.245 -24.224  1.00  0.00     0.017 C 
HETATM    4  C6  UNL     1      -1.855  51.444 -23.511  1.00  0.00    -0.013 C 
HETATM    5  C7  UNL     1      -3.009  52.445 -23.230  1.00  0.00     0.021 C 
HETATM    6  C8  UNL     1      -1.506  50.816 -22.129  1.00  0.00    -0.032 C 
HETATM    7  C9  UNL     1      -2.215  49.756 -21.645  1.00  0.00     0.002 C 
HETATM    8  C10 UNL     1      -3.367  49.187 -22.436  1.00  0.00     0.157 C 
HETATM    9  O3  UNL     1      -4.173  48.416 -21.920  1.00  0.00    -0.293 OA
HETATM   10  C11 UNL     1      -3.537  49.584 -23.889  1.00  0.00     0.090 C 
HETATM   11  C12 UNL     1      -2.253  50.221 -24.419  1.00  0.00     0.015 C 
HETATM   12  C13 UNL     1      -2.174  50.467 -25.964  1.00  0.00    -0.016 C 
HETATM   13  C14 UNL     1      -2.530  49.165 -26.729  1.00  0.00     0.018 C 
HETATM   14  C15 UNL     1      -3.172  51.532 -26.460  1.00  0.00     0.018 C 
HETATM   15  C16 UNL     1      -1.818  49.064 -20.345  1.00  0.00    -0.005 C 
HETATM   16  C17 UNL     1      -0.792  47.978 -20.801  1.00  0.00     0.021 C 
HETATM   17  C18 UNL     1      -2.860  48.347 -19.464  1.00  0.00     0.015 C 
HETATM   18  C19 UNL     1      -2.211  48.253 -18.067  1.00  0.00     0.007 C 
HETATM   19  C20 UNL     1      -1.001  49.231 -18.062  1.00  0.00    -0.002 C 
HETATM   20  C29 UNL     1      -1.271  50.127 -19.311  1.00  0.00    -0.026 C 
HETATM   21  C30 UNL     1      -2.331  51.215 -18.973  1.00  0.00     0.016 C 
HETATM   22  C31 UNL     1      -0.042  50.802 -19.944  1.00  0.00     0.047 C 
HETATM   23  C32 UNL     1      -0.344  51.410 -21.334  1.00  0.00     0.149 C 
ENDROOT
BRANCH  19  24
HETATM   24  C21 UNL     1      -0.671  49.790 -16.646  1.00  0.00    -0.014 C 
HETATM   25  C22 UNL     1       0.453  49.086 -15.870  1.00  0.00     0.010 C 
BRANCH  24  26
HETATM   26  C23 UNL     1      -1.889  49.929 -15.703  1.00  0.00     0.007 C 
BRANCH  26  27
HETATM   27  C24 UNL     1      -1.804  50.956 -14.563  1.00  0.00     0.035 C 
BRANCH  27  28
HETATM   28  C25 UNL     1      -3.092  51.111 -13.736  1.00  0.00     0.154 C 
BRANCH  28  29
HETATM   29  O4  UNL     1      -3.659  49.821 -13.507  1.00  0.00    -0.392 OA
HETATM   30  H38 UNL     1      -4.624  49.923 -13.435  1.00  0.00     0.210 HD
ENDBRANCH  28  29
BRANCH  28  31
HETATM   31  C26 UNL     1      -2.887  51.859 -12.381  1.00  0.00     0.101 C 
HETATM   32  C27 UNL     1      -1.462  52.425 -12.298  1.00  0.00     0.051 C 
BRANCH  31  33
HETATM   33  O5  UNL     1      -3.052  50.936 -11.285  1.00  0.00    -0.385 OA
HETATM   34  H42 UNL     1      -2.359  50.256 -11.357  1.00  0.00     0.210 HD
ENDBRANCH  31  33
BRANCH  31  35
HETATM   35  C28 UNL     1      -3.894  53.010 -12.156  1.00  0.00     0.204 C 
BRANCH  35  36
HETATM   36  O6  UNL     1      -4.196  53.674 -13.385  1.00  0.00    -0.398 OA
HETATM   37  H45 UNL     1      -4.284  52.950 -14.038  1.00  0.00     0.209 HD
ENDBRANCH  35  36
ENDBRANCH  31  35
ENDBRANCH  28  31
ENDBRANCH  27  28
ENDBRANCH  26  27
ENDBRANCH  24  26
ENDBRANCH  19  24
BRANCH  23  38
HETATM   38  O7  UNL     1      -0.573  52.808 -21.156  1.00  0.00    -0.391 OA
HETATM   39  H52 UNL     1      -1.422  52.918 -20.701  1.00  0.00     0.210 HD
ENDBRANCH  23  38
BRANCH   1  40
HETATM   40  O2  UNL     1      -0.637  51.806 -27.382  1.00  0.00    -0.316 OA
BRANCH  40  41
HETATM   41  C2  UNL     1       0.488  52.564 -27.484  1.00  0.00     0.255 C 
HETATM   42  C1  UNL     1       1.578  51.765 -28.129  1.00  0.00     0.126 C 
HETATM   43  O1  UNL     1       0.611  53.721 -27.112  1.00  0.00    -0.266 OA
ENDBRANCH  40  41
ENDBRANCH   1  40
TORSDOF 12
ENDMDL
MODEL 9
REMARK minimizedAffinity -8.29305267
REMARK CNNscore 0.380719036
REMARK CNNaffinity 6.66755104
REMARK  12 active torsions:
REMARK  status: ('A' for Active; 'I' for Inactive)
REMARK    1  A    between atoms: C2_2  and  O2_4 
REMARK    2  A    between atoms: O2_4  and  C3_5 
REMARK    3  A    between atoms: C20_23  and  C21_24 
REMARK    4  A    between atoms: C21_24  and  C23_26 
REMARK    5  A    between atoms: C23_26  and  C24_27 
REMARK    6  A    between atoms: C24_27  and  C25_28 
REMARK    7  A    between atoms: C25_28  and  O4_29 
REMARK    8  A    between atoms: C25_28  and  C26_30 
REMARK    9  A    between atoms: C26_30  and  O5_32 
REMARK   10  A    between atoms: C26_30  and  C28_33 
REMARK   11  A    between atoms: C28_33  and  O6_34 
REMARK   12  A    between atoms: C32_38  and  O7_39 
ROOT
HETATM    1  C3  UNL     1      -0.872  52.049 -22.139  1.00  0.00     0.140 C 
HETATM    2  C4  UNL     1      -1.793  51.572 -23.278  1.00  0.00     0.034 C 
HETATM    3  C5  UNL     1      -1.852  50.053 -23.365  1.00  0.00     0.017 C 
HETATM    4  C6  UNL     1      -2.489  49.389 -22.105  1.00  0.00    -0.013 C 
HETATM    5  C7  UNL     1      -1.867  47.973 -21.977  1.00  0.00     0.021 C 
HETATM    6  C8  UNL     1      -4.030  49.164 -22.136  1.00  0.00    -0.032 C 
HETATM    7  C9  UNL     1      -4.739  49.032 -20.978  1.00  0.00     0.002 C 
HETATM    8  C10 UNL     1      -4.035  49.083 -19.646  1.00  0.00     0.157 C 
HETATM    9  O3  UNL     1      -4.596  48.717 -18.615  1.00  0.00    -0.293 OA
HETATM   10  C11 UNL     1      -2.606  49.586 -19.579  1.00  0.00     0.090 C 
HETATM   11  C12 UNL     1      -2.245  50.329 -20.865  1.00  0.00     0.015 C 
HETATM   12  C13 UNL     1      -0.893  51.120 -20.867  1.00  0.00    -0.016 C 
HETATM   13  C14 UNL     1      -0.818  52.047 -19.625  1.00  0.00     0.018 C 
HETATM   14  C15 UNL     1       0.344  50.205 -20.784  1.00  0.00     0.018 C 
HETATM   15  C16 UNL     1      -6.260  48.916 -20.989  1.00  0.00    -0.005 C 
HETATM   16  C17 UNL     1      -6.745  50.401 -20.942  1.00  0.00     0.021 C 
HETATM   17  C18 UNL     1      -7.019  48.167 -19.876  1.00  0.00     0.015 C 
HETATM   18  C19 UNL     1      -8.394  47.825 -20.485  1.00  0.00     0.007 C 
HETATM   19  C20 UNL     1      -8.275  48.033 -22.023  1.00  0.00    -0.002 C 
HETATM   20  C29 UNL     1      -6.731  48.085 -22.249  1.00  0.00    -0.026 C 
HETATM   21  C30 UNL     1      -6.139  46.646 -22.255  1.00  0.00     0.016 C 
HETATM   22  C31 UNL     1      -6.251  48.832 -23.505  1.00  0.00     0.047 C 
HETATM   23  C32 UNL     1      -4.728  49.102 -23.494  1.00  0.00     0.149 C 
ENDROOT
BRANCH  19  24
HETATM   24  C21 UNL     1      -9.242  47.126 -22.840  1.00  0.00    -0.014 C 
HETATM   25  C22 UNL     1      -9.542  45.737 -22.258  1.00  0.00     0.010 C 
BRANCH  24  26
HETATM   26  C23 UNL     1      -8.863  46.950 -24.329  1.00  0.00     0.007 C 
BRANCH  26  27
HETATM   27  C24 UNL     1      -8.484  48.207 -25.129  1.00  0.00     0.035 C 
BRANCH  27  28
HETATM   28  C25 UNL     1      -9.519  48.637 -26.184  1.00  0.00     0.154 C 
BRANCH  28  29
HETATM   29  O4  UNL     1      -9.724  50.047 -26.091  1.00  0.00    -0.392 OA
HETATM   30  H38 UNL     1     -10.637  50.238 -26.368  1.00  0.00     0.210 HD
ENDBRANCH  28  29
BRANCH  28  31
HETATM   31  C26 UNL     1      -9.133  48.243 -27.645  1.00  0.00     0.101 C 
HETATM   32  C27 UNL     1      -7.917  47.304 -27.637  1.00  0.00     0.051 C 
BRANCH  31  33
HETATM   33  O5  UNL     1      -8.766  49.424 -28.387  1.00  0.00    -0.385 OA
HETATM   34  H42 UNL     1      -7.978  49.811 -27.966  1.00  0.00     0.210 HD
ENDBRANCH  31  33
BRANCH  31  35
HETATM   35  C28 UNL     1     -10.283  47.561 -28.421  1.00  0.00     0.204 C 
BRANCH  35  36
HETATM   36  O6  UNL     1     -11.478  48.343 -28.356  1.00  0.00    -0.398 OA
HETATM   37  H45 UNL     1     -11.173  49.266 -28.471  1.00  0.00     0.209 HD
ENDBRANCH  35  36
ENDBRANCH  31  35
ENDBRANCH  28  31
ENDBRANCH  27  28
ENDBRANCH  26  27
ENDBRANCH  24  26
ENDBRANCH  19  24
BRANCH  23  38
HETATM   38  O7  UNL     1      -4.102  48.096 -24.290  1.00  0.00    -0.391 OA
HETATM   39  H52 UNL     1      -4.159  47.255 -23.811  1.00  0.00     0.210 HD
ENDBRANCH  23  38
BRANCH   1  40
HETATM   40  O2  UNL     1       0.463  52.138 -22.681  1.00  0.00    -0.316 OA
BRANCH  40  41
HETATM   41  C2  UNL     1       0.655  52.971 -23.739  1.00  0.00     0.255 C 
HETATM   42  C1  UNL     1       0.882  52.165 -24.981  1.00  0.00     0.126 C 
HETATM   43  O1  UNL     1       0.649  54.192 -23.703  1.00  0.00    -0.266 OA
ENDBRANCH  40  41
ENDBRANCH   1  40
TORSDOF 12
ENDMDL
