MODEL 1
REMARK minimizedAffinity -9.448699
REMARK  5 active torsions:
REMARK  status: ('A' for Active; 'I' for Inactive)
REMARK       I    between atoms: C1_2  and  N1_3 
REMARK       I    between atoms: C1_2  and  N2_11 
REMARK    1  A    between atoms: N1_3  and  C2_4 
REMARK    2  A    between atoms: C2_4  and  C3_5 
REMARK    3  A    between atoms: N2_11  and  C9_12 
REMARK    4  A    between atoms: C9_12  and  C10_13 
REMARK    5  A    between atoms: C13_17  and  C14_18 
ROOT
HETATM    1  C10 UNL     1      -2.464   3.088  11.988  1.00  0.00     0.158 C 
HETATM    2  C11 UNL     1      -2.948   4.523  11.782  1.00  0.00     0.163 C 
HETATM    3  N3  UNL     1      -4.216   4.648  12.463  1.00  0.00    -0.340 N 
HETATM    4  C12 UNL     1      -4.709   5.677  13.199  1.00  0.00     0.122 A 
HETATM    5  C13 UNL     1      -5.932   5.222  13.654  1.00  0.00     0.059 A 
HETATM    6  N4  UNL     1      -6.157   3.931  13.210  1.00  0.00    -0.342 N 
ATOM      7  H4  UNL     1      -6.973   3.349  13.397  1.00  0.00     0.167 HD
HETATM    8  C23 UNL     1      -5.098   3.607  12.495  1.00  0.00     0.108 A 
HETATM    9  C24 UNL     1      -4.815   2.345  11.755  1.00  0.00     0.245 C 
HETATM   10  O4  UNL     1      -3.407   2.095  11.552  1.00  0.00    -0.375 OA
ENDROOT
BRANCH   1  11
HETATM   11  C9  UNL     1      -1.100   2.815  11.316  1.00  0.00     0.157 C 
BRANCH  11  12
HETATM   12  N2  UNL     1       0.036   3.604  11.788  1.00  0.00    -0.341 N 
HETATM   13  C1  UNL     1       0.241   4.898  11.375  1.00  0.00     0.316 C 
HETATM   14  O1  UNL     1      -0.546   5.547  10.705  1.00  0.00    -0.247 OA
HETATM   15  N1  UNL     1       1.411   5.408  11.875  1.00  0.00    -0.339 N 
HETATM   16  H1  UNL     1       2.104   4.772  12.234  1.00  0.00     0.164 HD
HETATM   17  H9  UNL     1       0.890   3.084  11.924  1.00  0.00     0.164 HD
BRANCH  15  18
HETATM   18  C2  UNL     1       1.865   6.734  11.518  1.00  0.00     0.162 C 
BRANCH  18  19
HETATM   19  C3  UNL     1       1.949   6.889  10.021  1.00  0.00    -0.040 A 
HETATM   20  C4  UNL     1       1.275   7.938   9.380  1.00  0.00     0.009 A 
HETATM   21  C5  UNL     1       1.339   8.081   7.990  1.00  0.00     0.001 A 
HETATM   22  C6  UNL     1       2.070   7.171   7.229  1.00  0.00     0.000 A 
HETATM   23  C7  UNL     1       2.735   6.116   7.855  1.00  0.00     0.001 A 
HETATM   24  C8  UNL     1       2.674   5.974   9.245  1.00  0.00     0.009 A 
ENDBRANCH  18  19
ENDBRANCH  15  18
ENDBRANCH  11  12
ENDBRANCH   1  11
BRANCH   5  25
HETATM   25  C14 UNL     1      -6.891   5.959  14.467  1.00  0.00    -0.005 A 
HETATM   26  C15 UNL     1      -6.660   6.101  15.842  1.00  0.00     0.017 A 
HETATM   27  C16 UNL     1      -7.565   6.790  16.655  1.00  0.00     0.040 A 
HETATM   28  C17 UNL     1      -8.713   7.357  16.104  1.00  0.00     0.102 A 
HETATM   29  O2  UNL     1      -9.507   8.037  16.994  1.00  0.00    -0.348 OA
HETATM   30  C21 UNL     1      -8.979   7.191  14.737  1.00  0.00     0.102 A 
HETATM   31  C18 UNL     1     -10.119   9.197  16.430  1.00  0.00     0.178 C 
HETATM   32  C19 UNL     1     -11.419   8.849  15.720  1.00  0.00     0.053 C 
HETATM   33  C20 UNL     1     -11.282   7.596  14.876  1.00  0.00     0.178 C 
HETATM   34  O3  UNL     1     -10.098   7.639  14.080  1.00  0.00    -0.348 OA
HETATM   35  C22 UNL     1      -8.055   6.520  13.925  1.00  0.00     0.053 A 
ENDBRANCH   5  25
TORSDOF 5
ENDMDL
MODEL 2
REMARK minimizedAffinity -9.3918438
REMARK  5 active torsions:
REMARK  status: ('A' for Active; 'I' for Inactive)
REMARK       I    between atoms: C1_2  and  N1_3 
REMARK       I    between atoms: C1_2  and  N2_11 
REMARK    1  A    between atoms: N1_3  and  C2_4 
REMARK    2  A    between atoms: C2_4  and  C3_5 
REMARK    3  A    between atoms: N2_11  and  C9_12 
REMARK    4  A    between atoms: C9_12  and  C10_13 
REMARK    5  A    between atoms: C13_17  and  C14_18 
ROOT
HETATM    1  C10 UNL     1       1.680   7.652  14.759  1.00  0.00     0.158 C 
HETATM    2  C11 UNL     1       0.263   8.177  14.527  1.00  0.00     0.163 C 
HETATM    3  N3  UNL     1      -0.440   7.181  13.752  1.00  0.00    -0.340 N 
HETATM    4  C12 UNL     1      -1.722   6.745  13.854  1.00  0.00     0.122 A 
HETATM    5  C13 UNL     1      -1.826   5.749  12.902  1.00  0.00     0.059 A 
HETATM    6  N4  UNL     1      -0.615   5.580  12.253  1.00  0.00    -0.342 N 
ATOM      7  H4  UNL     1      -0.403   4.914  11.511  1.00  0.00     0.167 HD
HETATM    8  C23 UNL     1       0.207   6.458  12.792  1.00  0.00     0.108 A 
HETATM    9  C24 UNL     1       1.632   6.736  12.459  1.00  0.00     0.245 C 
HETATM   10  O4  UNL     1       2.377   7.327  13.546  1.00  0.00    -0.375 OA
ENDROOT
BRANCH   1  11
HETATM   11  C9  UNL     1       2.546   8.621  15.593  1.00  0.00     0.157 C 
BRANCH  11  12
HETATM   12  N2  UNL     1       2.144   8.835  16.982  1.00  0.00    -0.341 N 
HETATM   13  C1  UNL     1       2.296  10.052  17.601  1.00  0.00     0.316 C 
HETATM   14  O1  UNL     1       2.641  11.079  17.040  1.00  0.00    -0.247 OA
HETATM   15  N1  UNL     1       1.933   9.995  18.922  1.00  0.00    -0.339 N 
HETATM   16  H1  UNL     1       1.864   9.095  19.368  1.00  0.00     0.164 HD
HETATM   17  H9  UNL     1       2.293   8.049  17.596  1.00  0.00     0.164 HD
BRANCH  15  18
HETATM   18  C2  UNL     1       2.073  11.144  19.789  1.00  0.00     0.162 C 
BRANCH  18  19
HETATM   19  C3  UNL     1       2.509  10.727  21.169  1.00  0.00    -0.040 A 
HETATM   20  C4  UNL     1       3.026  11.674  22.065  1.00  0.00     0.009 A 
HETATM   21  C5  UNL     1       3.443  11.291  23.343  1.00  0.00     0.001 A 
HETATM   22  C6  UNL     1       3.356   9.957  23.735  1.00  0.00     0.000 A 
HETATM   23  C7  UNL     1       2.855   9.004  22.848  1.00  0.00     0.001 A 
HETATM   24  C8  UNL     1       2.434   9.385  21.570  1.00  0.00     0.009 A 
ENDBRANCH  18  19
ENDBRANCH  15  18
ENDBRANCH  11  12
ENDBRANCH   1  11
BRANCH   5  25
HETATM   25  C14 UNL     1      -3.015   4.973  12.576  1.00  0.00    -0.005 A 
HETATM   26  C15 UNL     1      -2.945   3.999  11.570  1.00  0.00     0.017 A 
HETATM   27  C16 UNL     1      -4.069   3.245  11.222  1.00  0.00     0.040 A 
HETATM   28  C17 UNL     1      -5.282   3.445  11.881  1.00  0.00     0.102 A 
HETATM   29  O2  UNL     1      -6.303   2.623  11.476  1.00  0.00    -0.348 OA
HETATM   30  C21 UNL     1      -5.378   4.442  12.862  1.00  0.00     0.102 A 
HETATM   31  C18 UNL     1      -7.167   2.231  12.543  1.00  0.00     0.178 C 
HETATM   32  C19 UNL     1      -8.256   3.266  12.784  1.00  0.00     0.053 C 
HETATM   33  C20 UNL     1      -7.707   4.680  12.753  1.00  0.00     0.178 C 
HETATM   34  O3  UNL     1      -6.521   4.787  13.540  1.00  0.00    -0.348 OA
HETATM   35  C22 UNL     1      -4.242   5.177  13.222  1.00  0.00     0.053 A 
ENDBRANCH   5  25
TORSDOF 5
ENDMDL
MODEL 3
REMARK minimizedAffinity -9.33230782
REMARK  5 active torsions:
REMARK  status: ('A' for Active; 'I' for Inactive)
REMARK       I    between atoms: C1_2  and  N1_3 
REMARK       I    between atoms: C1_2  and  N2_11 
REMARK    1  A    between atoms: N1_3  and  C2_4 
REMARK    2  A    between atoms: C2_4  and  C3_5 
REMARK    3  A    between atoms: N2_11  and  C9_12 
REMARK    4  A    between atoms: C9_12  and  C10_13 
REMARK    5  A    between atoms: C13_17  and  C14_18 
ROOT
HETATM    1  C10 UNL     1      -6.292   3.512  12.071  1.00  0.00     0.158 C 
HETATM    2  C11 UNL     1      -5.462   4.088  13.218  1.00  0.00     0.163 C 
HETATM    3  N3  UNL     1      -4.088   4.124  12.775  1.00  0.00    -0.340 N 
HETATM    4  C12 UNL     1      -3.135   5.071  12.973  1.00  0.00     0.122 A 
HETATM    5  C13 UNL     1      -2.035   4.608  12.276  1.00  0.00     0.059 A 
HETATM    6  N4  UNL     1      -2.336   3.408  11.654  1.00  0.00    -0.342 N 
ATOM      7  H4  UNL     1      -1.715   2.846  11.071  1.00  0.00     0.167 HD
HETATM    8  C23 UNL     1      -3.587   3.143  11.970  1.00  0.00     0.108 A 
HETATM    9  C24 UNL     1      -4.418   1.963  11.599  1.00  0.00     0.245 C 
HETATM   10  O4  UNL     1      -5.839   2.223  11.626  1.00  0.00    -0.375 OA
ENDROOT
BRANCH   1  11
HETATM   11  C9  UNL     1      -7.797   3.427  12.407  1.00  0.00     0.157 C 
BRANCH  11  12
HETATM   12  N2  UNL     1      -8.282   4.291  13.480  1.00  0.00    -0.341 N 
HETATM   13  C1  UNL     1      -8.802   5.538  13.229  1.00  0.00     0.316 C 
HETATM   14  O1  UNL     1      -9.033   5.983  12.117  1.00  0.00    -0.247 OA
HETATM   15  N1  UNL     1      -9.109   6.200  14.390  1.00  0.00    -0.339 N 
HETATM   16  H1  UNL     1      -8.708   5.876  15.254  1.00  0.00     0.164 HD
HETATM   17  H9  UNL     1      -7.757   4.240  14.341  1.00  0.00     0.164 HD
BRANCH  15  18
HETATM   18  C2  UNL     1      -9.610   7.557  14.369  1.00  0.00     0.162 C 
BRANCH  18  19
HETATM   19  C3  UNL     1     -11.064   7.588  13.975  1.00  0.00    -0.040 A 
HETATM   20  C4  UNL     1     -11.938   6.582  14.415  1.00  0.00     0.009 A 
HETATM   21  C5  UNL     1     -13.286   6.599  14.044  1.00  0.00     0.001 A 
HETATM   22  C6  UNL     1     -13.770   7.615  13.223  1.00  0.00     0.000 A 
HETATM   23  C7  UNL     1     -12.908   8.613  12.769  1.00  0.00     0.001 A 
HETATM   24  C8  UNL     1     -11.560   8.600  13.142  1.00  0.00     0.009 A 
ENDBRANCH  18  19
ENDBRANCH  15  18
ENDBRANCH  11  12
ENDBRANCH   1  11
BRANCH   5  25
HETATM   25  C14 UNL     1      -0.725   5.239  12.190  1.00  0.00    -0.005 A 
HETATM   26  C15 UNL     1      -0.039   5.561  13.370  1.00  0.00     0.017 A 
HETATM   27  C16 UNL     1       1.214   6.179  13.325  1.00  0.00     0.040 A 
HETATM   28  C17 UNL     1       1.808   6.477  12.099  1.00  0.00     0.102 A 
HETATM   29  O2  UNL     1       3.052   7.050  12.183  1.00  0.00    -0.348 OA
HETATM   30  C21 UNL     1       1.118   6.196  10.911  1.00  0.00     0.102 A 
HETATM   31  C18 UNL     1       3.937   6.628  11.145  1.00  0.00     0.178 C 
HETATM   32  C19 UNL     1       3.764   7.471   9.891  1.00  0.00     0.053 C 
HETATM   33  C20 UNL     1       2.301   7.709   9.568  1.00  0.00     0.178 C 
HETATM   34  O3  UNL     1       1.555   6.494   9.644  1.00  0.00    -0.348 OA
HETATM   35  C22 UNL     1      -0.127   5.556  10.963  1.00  0.00     0.053 A 
ENDBRANCH   5  25
TORSDOF 5
ENDMDL
MODEL 4
REMARK minimizedAffinity -9.16816998
REMARK  5 active torsions:
REMARK  status: ('A' for Active; 'I' for Inactive)
REMARK       I    between atoms: C1_2  and  N1_3 
REMARK       I    between atoms: C1_2  and  N2_11 
REMARK    1  A    between atoms: N1_3  and  C2_4 
REMARK    2  A    between atoms: C2_4  and  C3_5 
REMARK    3  A    between atoms: N2_11  and  C9_12 
REMARK    4  A    between atoms: C9_12  and  C10_13 
REMARK    5  A    between atoms: C13_17  and  C14_18 
ROOT
HETATM    1  C10 UNL     1      -0.022  10.043  16.031  1.00  0.00     0.158 C 
HETATM    2  C11 UNL     1       0.201   8.554  15.767  1.00  0.00     0.163 C 
HETATM    3  N3  UNL     1      -1.100   7.954  15.578  1.00  0.00    -0.340 N 
HETATM    4  C12 UNL     1      -1.498   7.000  14.697  1.00  0.00     0.122 A 
HETATM    5  C13 UNL     1      -2.853   6.860  14.926  1.00  0.00     0.059 A 
HETATM    6  N4  UNL     1      -3.262   7.734  15.919  1.00  0.00    -0.342 N 
ATOM      7  H4  UNL     1      -4.207   7.849  16.286  1.00  0.00     0.167 HD
HETATM    8  C23 UNL     1      -2.179   8.387  16.292  1.00  0.00     0.108 A 
HETATM    9  C24 UNL     1      -2.029   9.429  17.346  1.00  0.00     0.245 C 
HETATM   10  O4  UNL     1      -0.899  10.305  17.138  1.00  0.00    -0.375 OA
ENDROOT
BRANCH   1  11
HETATM   11  C9  UNL     1       1.298  10.816  16.241  1.00  0.00     0.157 C 
BRANCH  11  12
HETATM   12  N2  UNL     1       1.517  11.397  17.564  1.00  0.00    -0.341 N 
HETATM   13  C1  UNL     1       2.674  11.175  18.271  1.00  0.00     0.316 C 
HETATM   14  O1  UNL     1       3.659  10.607  17.830  1.00  0.00    -0.247 OA
HETATM   15  N1  UNL     1       2.621  11.744  19.517  1.00  0.00    -0.339 N 
HETATM   16  H1  UNL     1       1.725  12.007  19.893  1.00  0.00     0.164 HD
HETATM   17  H9  UNL     1       0.695  11.457  18.146  1.00  0.00     0.164 HD
BRANCH  15  18
HETATM   18  C2  UNL     1       3.704  11.583  20.463  1.00  0.00     0.162 C 
BRANCH  18  19
HETATM   19  C3  UNL     1       3.332  10.603  21.545  1.00  0.00    -0.040 A 
HETATM   20  C4  UNL     1       2.511   9.504  21.252  1.00  0.00     0.009 A 
HETATM   21  C5  UNL     1       2.153   8.597  22.254  1.00  0.00     0.001 A 
HETATM   22  C6  UNL     1       2.603   8.786  23.559  1.00  0.00     0.000 A 
HETATM   23  C7  UNL     1       3.410   9.882  23.864  1.00  0.00     0.001 A 
HETATM   24  C8  UNL     1       3.772  10.788  22.863  1.00  0.00     0.009 A 
ENDBRANCH  18  19
ENDBRANCH  15  18
ENDBRANCH  11  12
ENDBRANCH   1  11
BRANCH   5  25
HETATM   25  C14 UNL     1      -3.761   5.933  14.263  1.00  0.00    -0.005 A 
HETATM   26  C15 UNL     1      -3.233   4.882  13.501  1.00  0.00     0.017 A 
HETATM   27  C16 UNL     1      -4.074   3.981  12.841  1.00  0.00     0.040 A 
HETATM   28  C17 UNL     1      -5.459   4.111  12.940  1.00  0.00     0.102 A 
HETATM   29  O2  UNL     1      -6.178   3.148  12.277  1.00  0.00    -0.348 OA
HETATM   30  C21 UNL     1      -6.002   5.180  13.666  1.00  0.00     0.102 A 
HETATM   31  C18 UNL     1      -7.373   2.769  12.961  1.00  0.00     0.178 C 
HETATM   32  C19 UNL     1      -8.527   3.698  12.620  1.00  0.00     0.053 C 
HETATM   33  C20 UNL     1      -8.100   5.153  12.623  1.00  0.00     0.178 C 
HETATM   34  O3  UNL     1      -7.340   5.462  13.791  1.00  0.00    -0.348 OA
HETATM   35  C22 UNL     1      -5.153   6.064  14.344  1.00  0.00     0.053 A 
ENDBRANCH   5  25
TORSDOF 5
ENDMDL
MODEL 5
REMARK minimizedAffinity -9.02268791
REMARK  5 active torsions:
REMARK  status: ('A' for Active; 'I' for Inactive)
REMARK       I    between atoms: C1_2  and  N1_3 
REMARK       I    between atoms: C1_2  and  N2_11 
REMARK    1  A    between atoms: N1_3  and  C2_4 
REMARK    2  A    between atoms: C2_4  and  C3_5 
REMARK    3  A    between atoms: N2_11  and  C9_12 
REMARK    4  A    between atoms: C9_12  and  C10_13 
REMARK    5  A    between atoms: C13_17  and  C14_18 
ROOT
HETATM    1  C10 UNL     1      -6.711   5.322  13.294  1.00  0.00     0.158 C 
HETATM    2  C11 UNL     1      -5.557   5.464  14.287  1.00  0.00     0.163 C 
HETATM    3  N3  UNL     1      -4.331   5.289  13.544  1.00  0.00    -0.340 N 
HETATM    4  C12 UNL     1      -3.148   5.948  13.650  1.00  0.00     0.122 A 
HETATM    5  C13 UNL     1      -2.358   5.408  12.654  1.00  0.00     0.059 A 
HETATM    6  N4  UNL     1      -3.068   4.451  11.949  1.00  0.00    -0.342 N 
ATOM      7  H4  UNL     1      -2.736   3.896  11.160  1.00  0.00     0.167 HD
HETATM    8  C23 UNL     1      -4.261   4.404  12.507  1.00  0.00     0.108 A 
HETATM    9  C24 UNL     1      -5.421   3.532  12.170  1.00  0.00     0.245 C 
HETATM   10  O4  UNL     1      -6.695   4.083  12.568  1.00  0.00    -0.375 OA
ENDROOT
BRANCH   1  11
HETATM   11  C9  UNL     1      -8.094   5.500  13.957  1.00  0.00     0.157 C 
BRANCH  11  12
HETATM   12  N2  UNL     1      -9.159   6.050  13.122  1.00  0.00    -0.341 N 
HETATM   13  C1  UNL     1     -10.090   6.930  13.619  1.00  0.00     0.316 C 
HETATM   14  O1  UNL     1     -10.047   7.433  14.729  1.00  0.00    -0.247 OA
HETATM   15  N1  UNL     1     -11.040   7.242  12.681  1.00  0.00    -0.339 N 
HETATM   16  H1  UNL     1     -11.142   6.647  11.876  1.00  0.00     0.164 HD
HETATM   17  H9  UNL     1      -9.534   5.415  12.432  1.00  0.00     0.164 HD
BRANCH  15  18
HETATM   18  C2  UNL     1     -12.158   8.102  13.004  1.00  0.00     0.162 C 
BRANCH  18  19
HETATM   19  C3  UNL     1     -13.390   7.290  13.310  1.00  0.00    -0.040 A 
HETATM   20  C4  UNL     1     -13.351   6.288  14.290  1.00  0.00     0.009 A 
HETATM   21  C5  UNL     1     -14.488   5.524  14.571  1.00  0.00     0.001 A 
HETATM   22  C6  UNL     1     -15.670   5.748  13.869  1.00  0.00     0.000 A 
HETATM   23  C7  UNL     1     -15.717   6.734  12.883  1.00  0.00     0.001 A 
HETATM   24  C8  UNL     1     -14.582   7.501  12.602  1.00  0.00     0.009 A 
ENDBRANCH  18  19
ENDBRANCH  15  18
ENDBRANCH  11  12
ENDBRANCH   1  11
BRANCH   5  25
HETATM   25  C14 UNL     1      -0.972   5.744  12.358  1.00  0.00    -0.005 A 
HETATM   26  C15 UNL     1      -0.045   5.823  13.407  1.00  0.00     0.017 A 
HETATM   27  C16 UNL     1       1.290   6.155  13.160  1.00  0.00     0.040 A 
HETATM   28  C17 UNL     1       1.724   6.406  11.859  1.00  0.00     0.102 A 
HETATM   29  O2  UNL     1       3.062   6.689  11.739  1.00  0.00    -0.348 OA
HETATM   30  C21 UNL     1       0.801   6.369  10.804  1.00  0.00     0.102 A 
HETATM   31  C18 UNL     1       3.644   6.161  10.547  1.00  0.00     0.178 C 
HETATM   32  C19 UNL     1       3.460   7.110   9.373  1.00  0.00     0.053 C 
HETATM   33  C20 UNL     1       2.056   7.682   9.324  1.00  0.00     0.178 C 
HETATM   34  O3  UNL     1       1.078   6.656   9.490  1.00  0.00    -0.348 OA
HETATM   35  C22 UNL     1      -0.530   6.011  11.055  1.00  0.00     0.053 A 
ENDBRANCH   5  25
TORSDOF 5
ENDMDL
MODEL 6
REMARK minimizedAffinity -9.01093292
REMARK  5 active torsions:
REMARK  status: ('A' for Active; 'I' for Inactive)
REMARK       I    between atoms: C1_2  and  N1_3 
REMARK       I    between atoms: C1_2  and  N2_11 
REMARK    1  A    between atoms: N1_3  and  C2_4 
REMARK    2  A    between atoms: C2_4  and  C3_5 
REMARK    3  A    between atoms: N2_11  and  C9_12 
REMARK    4  A    between atoms: C9_12  and  C10_13 
REMARK    5  A    between atoms: C13_17  and  C14_18 
ROOT
HETATM    1  C10 UNL     1       0.136   9.362  16.910  1.00  0.00     0.158 C 
HETATM    2  C11 UNL     1      -0.734   9.656  15.688  1.00  0.00     0.163 C 
HETATM    3  N3  UNL     1      -1.212   8.387  15.189  1.00  0.00    -0.340 N 
HETATM    4  C12 UNL     1      -2.432   8.051  14.697  1.00  0.00     0.122 A 
HETATM    5  C13 UNL     1      -2.338   6.698  14.430  1.00  0.00     0.059 A 
HETATM    6  N4  UNL     1      -1.083   6.230  14.777  1.00  0.00    -0.342 N 
ATOM      7  H4  UNL     1      -0.738   5.274  14.693  1.00  0.00     0.167 HD
HETATM    8  C23 UNL     1      -0.424   7.274  15.239  1.00  0.00     0.108 A 
HETATM    9  C24 UNL     1       0.981   7.356  15.728  1.00  0.00     0.245 C 
HETATM   10  O4  UNL     1       1.213   8.450  16.642  1.00  0.00    -0.375 OA
ENDROOT
BRANCH   1  11
HETATM   11  C9  UNL     1       0.709  10.641  17.558  1.00  0.00     0.157 C 
BRANCH  11  12
HETATM   12  N2  UNL     1       1.755  10.459  18.562  1.00  0.00    -0.341 N 
HETATM   13  C1  UNL     1       1.533  10.713  19.894  1.00  0.00     0.316 C 
HETATM   14  O1  UNL     1       0.445  10.974  20.380  1.00  0.00    -0.247 OA
HETATM   15  N1  UNL     1       2.677  10.559  20.634  1.00  0.00    -0.339 N 
HETATM   16  H1  UNL     1       3.565  10.554  20.160  1.00  0.00     0.164 HD
HETATM   17  H9  UNL     1       2.687  10.697  18.256  1.00  0.00     0.164 HD
BRANCH  15  18
HETATM   18  C2  UNL     1       2.696  10.838  22.053  1.00  0.00     0.162 C 
BRANCH  18  19
HETATM   19  C3  UNL     1       3.881  11.695  22.417  1.00  0.00    -0.040 A 
HETATM   20  C4  UNL     1       3.766  13.093  22.430  1.00  0.00     0.009 A 
HETATM   21  C5  UNL     1       4.865  13.894  22.756  1.00  0.00     0.001 A 
HETATM   22  C6  UNL     1       6.090  13.305  23.062  1.00  0.00     0.000 A 
HETATM   23  C7  UNL     1       6.219  11.916  23.040  1.00  0.00     0.001 A 
HETATM   24  C8  UNL     1       5.121  11.114  22.717  1.00  0.00     0.009 A 
ENDBRANCH  18  19
ENDBRANCH  15  18
ENDBRANCH  11  12
ENDBRANCH   1  11
BRANCH   5  25
HETATM   25  C14 UNL     1      -3.370   5.847  13.852  1.00  0.00    -0.005 A 
HETATM   26  C15 UNL     1      -3.000   4.822  12.970  1.00  0.00     0.017 A 
HETATM   27  C16 UNL     1      -3.964   3.995  12.387  1.00  0.00     0.040 A 
HETATM   28  C17 UNL     1      -5.315   4.172  12.684  1.00  0.00     0.102 A 
HETATM   29  O2  UNL     1      -6.162   3.278  12.078  1.00  0.00    -0.348 OA
HETATM   30  C21 UNL     1      -5.704   5.217  13.534  1.00  0.00     0.102 A 
HETATM   31  C18 UNL     1      -7.268   2.905  12.901  1.00  0.00     0.178 C 
HETATM   32  C19 UNL     1      -8.415   3.896  12.773  1.00  0.00     0.053 C 
HETATM   33  C20 UNL     1      -7.924   5.332  12.794  1.00  0.00     0.178 C 
HETATM   34  O3  UNL     1      -6.998   5.542  13.859  1.00  0.00    -0.348 OA
HETATM   35  C22 UNL     1      -4.730   6.026  14.133  1.00  0.00     0.053 A 
ENDBRANCH   5  25
TORSDOF 5
ENDMDL
MODEL 7
REMARK minimizedAffinity -8.92174244
REMARK  5 active torsions:
REMARK  status: ('A' for Active; 'I' for Inactive)
REMARK       I    between atoms: C1_2  and  N1_3 
REMARK       I    between atoms: C1_2  and  N2_11 
REMARK    1  A    between atoms: N1_3  and  C2_4 
REMARK    2  A    between atoms: C2_4  and  C3_5 
REMARK    3  A    between atoms: N2_11  and  C9_12 
REMARK    4  A    between atoms: C9_12  and  C10_13 
REMARK    5  A    between atoms: C13_17  and  C14_18 
ROOT
HETATM    1  C10 UNL     1       1.244   8.656  15.007  1.00  0.00     0.158 C 
HETATM    2  C11 UNL     1       0.472   7.508  15.659  1.00  0.00     0.163 C 
HETATM    3  N3  UNL     1      -0.932   7.745  15.414  1.00  0.00    -0.340 N 
HETATM    4  C12 UNL     1      -1.919   6.868  15.100  1.00  0.00     0.122 A 
HETATM    5  C13 UNL     1      -3.040   7.656  14.923  1.00  0.00     0.059 A 
HETATM    6  N4  UNL     1      -2.720   8.990  15.112  1.00  0.00    -0.342 N 
ATOM      7  H4  UNL     1      -3.350   9.789  15.041  1.00  0.00     0.167 HD
HETATM    8  C23 UNL     1      -1.435   9.013  15.404  1.00  0.00     0.108 A 
HETATM    9  C24 UNL     1      -0.569  10.180  15.730  1.00  0.00     0.245 C 
HETATM   10  O4  UNL     1       0.833   9.955  15.461  1.00  0.00    -0.375 OA
ENDROOT
BRANCH   1  11
HETATM   11  C9  UNL     1       2.773   8.523  15.183  1.00  0.00     0.157 C 
BRANCH  11  12
HETATM   12  N2  UNL     1       3.460   7.593  14.289  1.00  0.00    -0.341 N 
HETATM   13  C1  UNL     1       4.091   8.019  13.145  1.00  0.00     0.316 C 
HETATM   14  O1  UNL     1       4.258   9.188  12.838  1.00  0.00    -0.247 OA
HETATM   15  N1  UNL     1       4.588   6.966  12.421  1.00  0.00    -0.339 N 
HETATM   16  H1  UNL     1       4.241   6.040  12.610  1.00  0.00     0.164 HD
HETATM   17  H9  UNL     1       3.022   6.689  14.194  1.00  0.00     0.164 HD
BRANCH  15  18
HETATM   18  C2  UNL     1       5.236   7.173  11.145  1.00  0.00     0.162 C 
BRANCH  18  19
HETATM   19  C3  UNL     1       4.231   7.155  10.022  1.00  0.00    -0.040 A 
HETATM   20  C4  UNL     1       3.907   8.338   9.343  1.00  0.00     0.009 A 
HETATM   21  C5  UNL     1       2.968   8.330   8.307  1.00  0.00     0.001 A 
HETATM   22  C6  UNL     1       2.337   7.140   7.948  1.00  0.00     0.000 A 
HETATM   23  C7  UNL     1       2.642   5.959   8.625  1.00  0.00     0.001 A 
HETATM   24  C8  UNL     1       3.584   5.965   9.658  1.00  0.00     0.009 A 
ENDBRANCH  18  19
ENDBRANCH  15  18
ENDBRANCH  11  12
ENDBRANCH   1  11
BRANCH   5  25
HETATM   25  C14 UNL     1      -4.387   7.202  14.604  1.00  0.00    -0.005 A 
HETATM   26  C15 UNL     1      -5.481   8.023  14.914  1.00  0.00     0.017 A 
HETATM   27  C16 UNL     1      -6.787   7.613  14.634  1.00  0.00     0.040 A 
HETATM   28  C17 UNL     1      -7.023   6.379  14.029  1.00  0.00     0.102 A 
HETATM   29  O2  UNL     1      -8.343   6.103  13.773  1.00  0.00    -0.348 OA
HETATM   30  C21 UNL     1      -5.943   5.531  13.748  1.00  0.00     0.102 A 
HETATM   31  C18 UNL     1      -8.541   5.382  12.556  1.00  0.00     0.178 C 
HETATM   32  C19 UNL     1      -8.392   3.884  12.769  1.00  0.00     0.053 C 
HETATM   33  C20 UNL     1      -7.196   3.553  13.642  1.00  0.00     0.178 C 
HETATM   34  O3  UNL     1      -6.037   4.268  13.215  1.00  0.00    -0.348 OA
HETATM   35  C22 UNL     1      -4.635   5.958  14.010  1.00  0.00     0.053 A 
ENDBRANCH   5  25
TORSDOF 5
ENDMDL
MODEL 8
REMARK minimizedAffinity -8.88489914
REMARK  5 active torsions:
REMARK  status: ('A' for Active; 'I' for Inactive)
REMARK       I    between atoms: C1_2  and  N1_3 
REMARK       I    between atoms: C1_2  and  N2_11 
REMARK    1  A    between atoms: N1_3  and  C2_4 
REMARK    2  A    between atoms: C2_4  and  C3_5 
REMARK    3  A    between atoms: N2_11  and  C9_12 
REMARK    4  A    between atoms: C9_12  and  C10_13 
REMARK    5  A    between atoms: C13_17  and  C14_18 
ROOT
HETATM    1  C10 UNL     1      -6.297   3.247  12.051  1.00  0.00     0.158 C 
HETATM    2  C11 UNL     1      -5.405   3.862  13.129  1.00  0.00     0.163 C 
HETATM    3  N3  UNL     1      -4.082   3.992  12.565  1.00  0.00    -0.340 N 
HETATM    4  C12 UNL     1      -3.176   4.996  12.694  1.00  0.00     0.122 A 
HETATM    5  C13 UNL     1      -2.117   4.614  11.892  1.00  0.00     0.059 A 
HETATM    6  N4  UNL     1      -2.396   3.405  11.279  1.00  0.00    -0.342 N 
ATOM      7  H4  UNL     1      -1.798   2.890  10.632  1.00  0.00     0.167 HD
HETATM    8  C23 UNL     1      -3.595   3.055  11.701  1.00  0.00     0.108 A 
HETATM    9  C24 UNL     1      -4.380   1.829  11.384  1.00  0.00     0.245 C 
HETATM   10  O4  UNL     1      -5.806   1.997  11.543  1.00  0.00    -0.375 OA
ENDROOT
BRANCH   1  11
HETATM   11  C9  UNL     1      -7.757   3.061  12.519  1.00  0.00     0.157 C 
BRANCH  11  12
HETATM   12  N2  UNL     1      -8.131   3.698  13.780  1.00  0.00    -0.341 N 
HETATM   13  C1  UNL     1      -8.117   5.063  13.936  1.00  0.00     0.316 C 
HETATM   14  O1  UNL     1      -7.932   5.863  13.034  1.00  0.00    -0.247 OA
HETATM   15  N1  UNL     1      -8.418   5.426  15.224  1.00  0.00    -0.339 N 
HETATM   16  H1  UNL     1      -8.350   4.735  15.952  1.00  0.00     0.164 HD
HETATM   17  H9  UNL     1      -7.856   3.194  14.611  1.00  0.00     0.164 HD
BRANCH  15  18
HETATM   18  C2  UNL     1      -8.397   6.813  15.635  1.00  0.00     0.162 C 
BRANCH  18  19
HETATM   19  C3  UNL     1      -7.004   7.380  15.546  1.00  0.00    -0.040 A 
HETATM   20  C4  UNL     1      -6.810   8.735  15.239  1.00  0.00     0.009 A 
HETATM   21  C5  UNL     1      -5.520   9.265  15.144  1.00  0.00     0.001 A 
HETATM   22  C6  UNL     1      -4.413   8.444  15.346  1.00  0.00     0.000 A 
HETATM   23  C7  UNL     1      -4.593   7.092  15.639  1.00  0.00     0.001 A 
HETATM   24  C8  UNL     1      -5.883   6.561  15.737  1.00  0.00     0.009 A 
ENDBRANCH  18  19
ENDBRANCH  15  18
ENDBRANCH  11  12
ENDBRANCH   1  11
BRANCH   5  25
HETATM   25  C14 UNL     1      -0.863   5.329  11.701  1.00  0.00    -0.005 A 
HETATM   26  C15 UNL     1      -0.801   6.698  11.996  1.00  0.00     0.017 A 
HETATM   27  C16 UNL     1       0.383   7.418  11.812  1.00  0.00     0.040 A 
HETATM   28  C17 UNL     1       1.529   6.780  11.339  1.00  0.00     0.102 A 
HETATM   29  O2  UNL     1       2.637   7.583  11.232  1.00  0.00    -0.348 OA
HETATM   30  C21 UNL     1       1.472   5.420  11.003  1.00  0.00     0.102 A 
HETATM   31  C18 UNL     1       3.853   6.909  11.555  1.00  0.00     0.178 C 
HETATM   32  C19 UNL     1       4.417   6.174  10.349  1.00  0.00     0.053 C 
HETATM   33  C20 UNL     1       3.337   5.432   9.584  1.00  0.00     0.178 C 
HETATM   34  O3  UNL     1       2.503   4.685  10.469  1.00  0.00    -0.348 OA
HETATM   35  C22 UNL     1       0.290   4.699  11.213  1.00  0.00     0.053 A 
ENDBRANCH   5  25
TORSDOF 5
ENDMDL
MODEL 9
REMARK minimizedAffinity -8.79756069
REMARK  5 active torsions:
REMARK  status: ('A' for Active; 'I' for Inactive)
REMARK       I    between atoms: C1_2  and  N1_3 
REMARK       I    between atoms: C1_2  and  N2_11 
REMARK    1  A    between atoms: N1_3  and  C2_4 
REMARK    2  A    between atoms: C2_4  and  C3_5 
REMARK    3  A    between atoms: N2_11  and  C9_12 
REMARK    4  A    between atoms: C9_12  and  C10_13 
REMARK    5  A    between atoms: C13_17  and  C14_18 
ROOT
HETATM    1  C10 UNL     1      -7.774   6.461  14.496  1.00  0.00     0.158 C 
HETATM    2  C11 UNL     1      -6.502   6.166  15.290  1.00  0.00     0.163 C 
HETATM    3  N3  UNL     1      -5.527   5.650  14.358  1.00  0.00    -0.340 N 
HETATM    4  C12 UNL     1      -4.192   5.886  14.277  1.00  0.00     0.122 A 
HETATM    5  C13 UNL     1      -3.781   5.179  13.163  1.00  0.00     0.059 A 
HETATM    6  N4  UNL     1      -4.862   4.544  12.576  1.00  0.00    -0.342 N 
ATOM      7  H4  UNL     1      -4.853   3.959  11.741  1.00  0.00     0.167 HD
HETATM    8  C23 UNL     1      -5.907   4.851  13.319  1.00  0.00     0.108 A 
HETATM    9  C24 UNL     1      -7.324   4.419  13.169  1.00  0.00     0.245 C 
HETATM   10  O4  UNL     1      -8.274   5.326  13.770  1.00  0.00    -0.375 OA
ENDROOT
BRANCH   1  11
HETATM   11  C9  UNL     1      -8.907   7.035  15.375  1.00  0.00     0.157 C 
BRANCH  11  12
HETATM   12  N2  UNL     1     -10.264   6.578  15.081  1.00  0.00    -0.341 N 
HETATM   13  C1  UNL     1     -11.142   7.337  14.346  1.00  0.00     0.316 C 
HETATM   14  O1  UNL     1     -10.850   8.370  13.766  1.00  0.00    -0.247 OA
HETATM   15  N1  UNL     1     -12.378   6.749  14.273  1.00  0.00    -0.339 N 
HETATM   16  H1  UNL     1     -12.612   6.025  14.933  1.00  0.00     0.164 HD
HETATM   17  H9  UNL     1     -10.707   6.051  15.820  1.00  0.00     0.164 HD
BRANCH  15  18
HETATM   18  C2  UNL     1     -13.481   7.403  13.603  1.00  0.00     0.162 C 
BRANCH  18  19
HETATM   19  C3  UNL     1     -14.707   6.527  13.604  1.00  0.00    -0.040 A 
HETATM   20  C4  UNL     1     -15.759   6.780  12.712  1.00  0.00     0.009 A 
HETATM   21  C5  UNL     1     -16.903   5.977  12.715  1.00  0.00     0.001 A 
HETATM   22  C6  UNL     1     -17.011   4.920  13.617  1.00  0.00     0.000 A 
HETATM   23  C7  UNL     1     -15.977   4.667  14.518  1.00  0.00     0.001 A 
HETATM   24  C8  UNL     1     -14.830   5.467  14.514  1.00  0.00     0.009 A 
ENDBRANCH  18  19
ENDBRANCH  15  18
ENDBRANCH  11  12
ENDBRANCH   1  11
BRANCH   5  25
HETATM   25  C14 UNL     1      -2.422   5.069  12.649  1.00  0.00    -0.005 A 
HETATM   26  C15 UNL     1      -1.997   3.858  12.085  1.00  0.00     0.017 A 
HETATM   27  C16 UNL     1      -0.697   3.713  11.594  1.00  0.00     0.040 A 
HETATM   28  C17 UNL     1       0.199   4.780  11.649  1.00  0.00     0.102 A 
HETATM   29  O2  UNL     1       1.434   4.528  11.106  1.00  0.00    -0.348 OA
HETATM   30  C21 UNL     1      -0.199   5.985  12.245  1.00  0.00     0.102 A 
HETATM   31  C18 UNL     1       1.996   5.657  10.437  1.00  0.00     0.178 C 
HETATM   32  C19 UNL     1       2.740   6.562  11.407  1.00  0.00     0.053 C 
HETATM   33  C20 UNL     1       1.963   6.770  12.694  1.00  0.00     0.178 C 
HETATM   34  O3  UNL     1       0.598   7.089  12.423  1.00  0.00    -0.348 OA
HETATM   35  C22 UNL     1      -1.511   6.131  12.713  1.00  0.00     0.053 A 
ENDBRANCH   5  25
TORSDOF 5
ENDMDL
