MODEL 1
REMARK minimizedAffinity -7.86576176
REMARK CNNscore 0.441322416
REMARK CNNaffinity 6.3878417
REMARK  14 active torsions:
REMARK  status: ('A' for Active; 'I' for Inactive)
REMARK    1  A    between atoms: C19_21  and  O3_22 
REMARK    2  A    between atoms: C19_21  and  C20_23 
REMARK    3  A    between atoms: C20_23  and  C21_25 
REMARK    4  A    between atoms: C21_25  and  O5_26 
REMARK    5  A    between atoms: O5_26  and  C22_27 
REMARK    6  A    between atoms: C22_27  and  C23_29 
REMARK    7  A    between atoms: C23_29  and  C24_30 
REMARK    8  A    between atoms: C24_30  and  C25_31 
REMARK       I    between atoms: C25_31  and  N1_33 
REMARK    9  A    between atoms: N1_33  and  C26_34 
REMARK   10  A    between atoms: C26_34  and  C27_35 
REMARK   11  A    between atoms: C26_34  and  C30_40 
REMARK   12  A    between atoms: C27_35  and  C28_36 
REMARK   13  A    between atoms: C28_36  and  C29_37 
REMARK       I    between atoms: C29_37  and  N2_38 
REMARK   14  A    between atoms: C30_40  and  O10_42 
ROOT
HETATM    1  C20 UNL     1      -6.707   6.179  15.235  1.00  0.00     0.185 C 
HETATM    2  O4  UNL     1      -6.234   5.813  16.317  1.00  0.00    -0.292 OA
ENDROOT
BRANCH   1   3
HETATM    3  C19 UNL     1      -5.889   7.047  14.232  1.00  0.00     0.128 C 
HETATM    4  C14 UNL     1      -4.383   6.640  14.107  1.00  0.00     0.005 C 
HETATM    5  C13 UNL     1      -4.067   5.527  13.102  1.00  0.00     0.091 C 
HETATM    6  C15 UNL     1      -3.790   6.251  15.489  1.00  0.00     0.019 C 
HETATM    7  C16 UNL     1      -3.789   7.953  13.533  1.00  0.00     0.002 C 
HETATM    8  C12 UNL     1      -2.565   5.449  12.862  1.00  0.00     0.133 C 
HETATM    9  C11 UNL     1      -1.855   6.756  12.444  1.00  0.00     0.072 C 
HETATM   10  O2  UNL     1      -1.999   4.359  12.928  1.00  0.00    -0.297 OA
HETATM   11  C2  UNL     1      -0.300   6.645  12.235  1.00  0.00    -0.009 C 
HETATM   12  C10 UNL     1      -2.259   7.914  13.404  1.00  0.00     0.003 C 
HETATM   13  C1  UNL     1       0.426   6.138  13.500  1.00  0.00     0.021 C 
HETATM   14  C3  UNL     1      -0.022   5.677  11.044  1.00  0.00     0.022 C 
HETATM   15  C7  UNL     1       0.267   8.037  11.897  1.00  0.00    -0.067 C 
HETATM   16  C4  UNL     1       1.404   5.751  10.514  1.00  0.00     0.084 C 
HETATM   17  C5  UNL     1       1.739   7.162  10.116  1.00  0.00     0.149 C 
HETATM   18  O1  UNL     1       2.524   7.422   9.207  1.00  0.00    -0.293 OA
HETATM   19  C6  UNL     1       1.154   8.265  10.911  1.00  0.00     0.053 C 
HETATM   20  C8  UNL     1      -0.191   9.191  12.756  1.00  0.00     0.035 C 
HETATM   21  C9  UNL     1      -1.707   9.245  12.879  1.00  0.00     0.010 C 
HETATM   22  C17 UNL     1      -4.402   9.036  14.413  1.00  0.00     0.009 C 
HETATM   23  C18 UNL     1      -5.817   8.520  14.734  1.00  0.00     0.047 C 
BRANCH   3  24
HETATM   24  O3  UNL     1      -6.467   7.125  12.927  1.00  0.00    -0.381 OA
HETATM   25  H25 UNL     1      -6.663   6.223  12.614  1.00  0.00     0.211 HD
ENDBRANCH   3  24
ENDBRANCH   1   3
BRANCH   1  26
HETATM   26  C21 UNL     1      -8.062   5.639  14.777  1.00  0.00     0.260 C 
BRANCH  26  27
HETATM   27  O5  UNL     1      -9.082   6.607  14.548  1.00  0.00    -0.314 OA
BRANCH  27  28
HETATM   28  C22 UNL     1      -9.666   6.512  13.317  1.00  0.00     0.259 C 
HETATM   29  O6  UNL     1      -9.143   6.009  12.332  1.00  0.00    -0.265 OA
BRANCH  28  30
HETATM   30  C23 UNL     1     -11.095   6.996  13.344  1.00  0.00     0.120 C 
BRANCH  30  31
HETATM   31  C24 UNL     1     -11.633   7.268  14.742  1.00  0.00     0.112 C 
BRANCH  31  32
HETATM   32  C25 UNL     1     -13.135   7.471  14.720  1.00  0.00     0.218 C 
HETATM   33  O7  UNL     1     -13.775   7.728  15.732  1.00  0.00    -0.274 OA
HETATM   34  N1  UNL     1     -13.713   7.289  13.493  1.00  0.00    -0.347 N 
HETATM   35  H32 UNL     1     -13.140   7.213  12.656  1.00  0.00     0.163 HD
BRANCH  34  36
HETATM   36  C26 UNL     1     -15.132   7.542  13.242  1.00  0.00     0.182 C 
BRANCH  36  37
HETATM   37  C27 UNL     1     -16.006   6.275  13.263  1.00  0.00     0.045 C 
BRANCH  37  38
HETATM   38  C28 UNL     1     -16.792   5.982  14.542  1.00  0.00     0.105 C 
BRANCH  38  39
HETATM   39  C29 UNL     1     -16.333   4.766  15.311  1.00  0.00     0.215 C 
HETATM   40  N2  UNL     1     -15.248   4.141  14.769  1.00  0.00    -0.370 N 
HETATM   41  H38 UNL     1     -14.659   4.598  14.088  1.00  0.00     0.159 HD
HETATM   42  H39 UNL     1     -14.853   3.372  15.296  1.00  0.00     0.159 HD
HETATM   43  O8  UNL     1     -16.872   4.324  16.315  1.00  0.00    -0.274 OA
ENDBRANCH  38  39
ENDBRANCH  37  38
ENDBRANCH  36  37
BRANCH  36  44
HETATM   44  C30 UNL     1     -15.323   8.355  11.952  1.00  0.00     0.163 C 
HETATM   45  O9  UNL     1     -16.086   8.098  11.035  1.00  0.00    -0.648 OA
BRANCH  44  46
HETATM   46  O10 UNL     1     -14.591   9.493  11.925  1.00  0.00    -0.775 OA
HETATM   47  H40 UNL     1     -14.790   9.861  11.036  1.00  0.00     0.167 HD
ENDBRANCH  44  46
ENDBRANCH  36  44
ENDBRANCH  34  36
ENDBRANCH  31  32
ENDBRANCH  30  31
ENDBRANCH  28  30
ENDBRANCH  27  28
ENDBRANCH  26  27
ENDBRANCH   1  26
TORSDOF 14
ENDMDL
MODEL 2
REMARK minimizedAffinity -8.47466469
REMARK CNNscore 0.416478664
REMARK CNNaffinity 6.92502165
REMARK  14 active torsions:
REMARK  status: ('A' for Active; 'I' for Inactive)
REMARK    1  A    between atoms: C19_21  and  O3_22 
REMARK    2  A    between atoms: C19_21  and  C20_23 
REMARK    3  A    between atoms: C20_23  and  C21_25 
REMARK    4  A    between atoms: C21_25  and  O5_26 
REMARK    5  A    between atoms: O5_26  and  C22_27 
REMARK    6  A    between atoms: C22_27  and  C23_29 
REMARK    7  A    between atoms: C23_29  and  C24_30 
REMARK    8  A    between atoms: C24_30  and  C25_31 
REMARK       I    between atoms: C25_31  and  N1_33 
REMARK    9  A    between atoms: N1_33  and  C26_34 
REMARK   10  A    between atoms: C26_34  and  C27_35 
REMARK   11  A    between atoms: C26_34  and  C30_40 
REMARK   12  A    between atoms: C27_35  and  C28_36 
REMARK   13  A    between atoms: C28_36  and  C29_37 
REMARK       I    between atoms: C29_37  and  N2_38 
REMARK   14  A    between atoms: C30_40  and  O10_42 
ROOT
HETATM    1  C20 UNL     1      -0.650   8.568  14.136  1.00  0.00     0.185 C 
HETATM    2  O4  UNL     1      -0.376   9.772  14.204  1.00  0.00    -0.292 OA
ENDROOT
BRANCH   1   3
HETATM    3  C19 UNL     1      -1.885   8.049  13.341  1.00  0.00     0.128 C 
HETATM    4  C14 UNL     1      -3.178   7.871  14.203  1.00  0.00     0.005 C 
HETATM    5  C13 UNL     1      -4.053   9.118  14.371  1.00  0.00     0.091 C 
HETATM    6  C15 UNL     1      -2.842   7.303  15.609  1.00  0.00     0.019 C 
HETATM    7  C16 UNL     1      -3.969   6.877  13.314  1.00  0.00     0.002 C 
HETATM    8  C12 UNL     1      -5.405   8.735  14.959  1.00  0.00     0.133 C 
HETATM    9  C11 UNL     1      -6.197   7.629  14.227  1.00  0.00     0.072 C 
HETATM   10  O2  UNL     1      -5.843   9.361  15.922  1.00  0.00    -0.297 OA
HETATM   11  C2  UNL     1      -7.574   7.237  14.879  1.00  0.00    -0.009 C 
HETATM   12  C10 UNL     1      -5.277   6.400  13.963  1.00  0.00     0.003 C 
HETATM   13  C1  UNL     1      -7.416   6.769  16.342  1.00  0.00     0.021 C 
HETATM   14  C3  UNL     1      -8.525   8.472  14.821  1.00  0.00     0.022 C 
HETATM   15  C7  UNL     1      -8.201   6.078  14.082  1.00  0.00    -0.067 C 
HETATM   16  C4  UNL     1      -9.985   8.134  15.094  1.00  0.00     0.084 C 
HETATM   17  C5  UNL     1     -10.461   7.074  14.139  1.00  0.00     0.149 C 
HETATM   18  O1  UNL     1     -11.627   7.007  13.756  1.00  0.00    -0.293 OA
HETATM   19  C6  UNL     1      -9.496   6.035  13.717  1.00  0.00     0.053 C 
HETATM   20  C8  UNL     1      -7.298   4.920  13.730  1.00  0.00     0.035 C 
HETATM   21  C9  UNL     1      -6.005   5.383  13.074  1.00  0.00     0.010 C 
HETATM   22  C17 UNL     1      -2.931   5.825  12.945  1.00  0.00     0.009 C 
HETATM   23  C18 UNL     1      -1.614   6.609  12.809  1.00  0.00     0.047 C 
BRANCH   3  24
HETATM   24  O3  UNL     1      -2.194   8.824  12.179  1.00  0.00    -0.381 OA
HETATM   25  H25 UNL     1      -2.242   9.764  12.430  1.00  0.00     0.211 HD
ENDBRANCH   3  24
ENDBRANCH   1   3
BRANCH   1  26
HETATM   26  C21 UNL     1       0.327   7.535  14.698  1.00  0.00     0.260 C 
BRANCH  26  27
HETATM   27  O5  UNL     1       0.705   7.701  16.062  1.00  0.00    -0.314 OA
BRANCH  27  28
HETATM   28  C22 UNL     1       1.962   8.210  16.229  1.00  0.00     0.259 C 
HETATM   29  O6  UNL     1       2.327   8.865  17.194  1.00  0.00    -0.265 OA
BRANCH  28  30
HETATM   30  C23 UNL     1       2.890   7.760  15.128  1.00  0.00     0.120 C 
BRANCH  30  31
HETATM   31  C24 UNL     1       4.330   7.550  15.575  1.00  0.00     0.112 C 
BRANCH  31  32
HETATM   32  C25 UNL     1       5.300   7.833  14.446  1.00  0.00     0.218 C 
HETATM   33  O7  UNL     1       5.360   8.925  13.893  1.00  0.00    -0.274 OA
HETATM   34  N1  UNL     1       6.057   6.758  14.066  1.00  0.00    -0.347 N 
HETATM   35  H32 UNL     1       6.079   5.914  14.633  1.00  0.00     0.163 HD
BRANCH  34  36
HETATM   36  C26 UNL     1       7.123   6.853  13.069  1.00  0.00     0.182 C 
BRANCH  36  37
HETATM   37  C27 UNL     1       8.010   8.102  13.220  1.00  0.00     0.045 C 
BRANCH  37  38
HETATM   38  C28 UNL     1       9.193   8.014  14.186  1.00  0.00     0.105 C 
BRANCH  38  39
HETATM   39  C29 UNL     1       8.956   8.626  15.546  1.00  0.00     0.215 C 
HETATM   40  N2  UNL     1       8.791   7.714  16.546  1.00  0.00    -0.370 N 
HETATM   41  H38 UNL     1       9.068   6.749  16.434  1.00  0.00     0.159 HD
HETATM   42  H39 UNL     1       8.715   8.077  17.489  1.00  0.00     0.159 HD
HETATM   43  O8  UNL     1       8.877   9.825  15.774  1.00  0.00    -0.274 OA
ENDBRANCH  38  39
ENDBRANCH  37  38
ENDBRANCH  36  37
BRANCH  36  44
HETATM   44  C30 UNL     1       6.557   6.714  11.647  1.00  0.00     0.163 C 
HETATM   45  O9  UNL     1       7.116   7.025  10.607  1.00  0.00    -0.648 OA
BRANCH  44  46
HETATM   46  O10 UNL     1       5.343   6.118  11.611  1.00  0.00    -0.775 OA
HETATM   47  H40 UNL     1       5.111   6.149  10.657  1.00  0.00     0.167 HD
ENDBRANCH  44  46
ENDBRANCH  36  44
ENDBRANCH  34  36
ENDBRANCH  31  32
ENDBRANCH  30  31
ENDBRANCH  28  30
ENDBRANCH  27  28
ENDBRANCH  26  27
ENDBRANCH   1  26
TORSDOF 14
ENDMDL
MODEL 3
REMARK minimizedAffinity -8.03600883
REMARK CNNscore 0.409540802
REMARK CNNaffinity 6.28186655
REMARK  14 active torsions:
REMARK  status: ('A' for Active; 'I' for Inactive)
REMARK    1  A    between atoms: C19_21  and  O3_22 
REMARK    2  A    between atoms: C19_21  and  C20_23 
REMARK    3  A    between atoms: C20_23  and  C21_25 
REMARK    4  A    between atoms: C21_25  and  O5_26 
REMARK    5  A    between atoms: O5_26  and  C22_27 
REMARK    6  A    between atoms: C22_27  and  C23_29 
REMARK    7  A    between atoms: C23_29  and  C24_30 
REMARK    8  A    between atoms: C24_30  and  C25_31 
REMARK       I    between atoms: C25_31  and  N1_33 
REMARK    9  A    between atoms: N1_33  and  C26_34 
REMARK   10  A    between atoms: C26_34  and  C27_35 
REMARK   11  A    between atoms: C26_34  and  C30_40 
REMARK   12  A    between atoms: C27_35  and  C28_36 
REMARK   13  A    between atoms: C28_36  and  C29_37 
REMARK       I    between atoms: C29_37  and  N2_38 
REMARK   14  A    between atoms: C30_40  and  O10_42 
ROOT
HETATM    1  C20 UNL     1      -1.386  11.675  18.409  1.00  0.00     0.185 C 
HETATM    2  O4  UNL     1      -1.175  12.808  17.960  1.00  0.00    -0.292 OA
ENDROOT
BRANCH   1   3
HETATM    3  C19 UNL     1      -2.630  10.841  17.981  1.00  0.00     0.128 C 
HETATM    4  C14 UNL     1      -2.390   9.918  16.740  1.00  0.00     0.005 C 
HETATM    5  C13 UNL     1      -1.804   8.533  17.034  1.00  0.00     0.091 C 
HETATM    6  C15 UNL     1      -1.503  10.623  15.679  1.00  0.00     0.019 C 
HETATM    7  C16 UNL     1      -3.853   9.702  16.269  1.00  0.00     0.002 C 
HETATM    8  C12 UNL     1      -1.910   7.646  15.799  1.00  0.00     0.133 C 
HETATM    9  C11 UNL     1      -3.310   7.502  15.161  1.00  0.00     0.072 C 
HETATM   10  O2  UNL     1      -0.921   7.026  15.414  1.00  0.00    -0.297 OA
HETATM   11  C2  UNL     1      -3.377   6.605  13.871  1.00  0.00    -0.009 C 
HETATM   12  C10 UNL     1      -3.951   8.907  14.959  1.00  0.00     0.003 C 
HETATM   13  C1  UNL     1      -2.436   7.111  12.756  1.00  0.00     0.021 C 
HETATM   14  C3  UNL     1      -2.996   5.142  14.257  1.00  0.00     0.022 C 
HETATM   15  C7  UNL     1      -4.813   6.623  13.315  1.00  0.00    -0.067 C 
HETATM   16  C4  UNL     1      -3.356   4.114  13.193  1.00  0.00     0.084 C 
HETATM   17  C5  UNL     1      -4.822   4.193  12.867  1.00  0.00     0.149 C 
HETATM   18  O1  UNL     1      -5.472   3.213  12.512  1.00  0.00    -0.293 OA
HETATM   19  C6  UNL     1      -5.471   5.523  12.904  1.00  0.00     0.053 C 
HETATM   20  C8  UNL     1      -5.489   7.968  13.203  1.00  0.00     0.035 C 
HETATM   21  C9  UNL     1      -5.408   8.757  14.503  1.00  0.00     0.010 C 
HETATM   22  C17 UNL     1      -4.447  11.105  16.299  1.00  0.00     0.009 C 
HETATM   23  C18 UNL     1      -3.771  11.788  17.502  1.00  0.00     0.047 C 
BRANCH   3  24
HETATM   24  O3  UNL     1      -3.204  10.069  19.039  1.00  0.00    -0.381 OA
HETATM   25  H25 UNL     1      -2.500   9.552  19.471  1.00  0.00     0.211 HD
ENDBRANCH   3  24
ENDBRANCH   1   3
BRANCH   1  26
HETATM   26  C21 UNL     1      -0.328  10.993  19.277  1.00  0.00     0.260 C 
BRANCH  26  27
HETATM   27  O5  UNL     1       0.774  10.412  18.586  1.00  0.00    -0.314 OA
BRANCH  27  28
HETATM   28  C22 UNL     1       1.943  10.435  19.294  1.00  0.00     0.259 C 
HETATM   29  O6  UNL     1       3.059  10.486  18.798  1.00  0.00    -0.265 OA
BRANCH  28  30
HETATM   30  C23 UNL     1       1.688  10.512  20.779  1.00  0.00     0.120 C 
BRANCH  30  31
HETATM   31  C24 UNL     1       2.808   9.935  21.634  1.00  0.00     0.112 C 
BRANCH  31  32
HETATM   32  C25 UNL     1       3.683  11.034  22.203  1.00  0.00     0.218 C 
HETATM   33  O7  UNL     1       3.640  11.360  23.383  1.00  0.00    -0.274 OA
HETATM   34  N1  UNL     1       4.477  11.660  21.281  1.00  0.00    -0.347 N 
HETATM   35  H32 UNL     1       4.588  11.276  20.346  1.00  0.00     0.163 HD
BRANCH  34  36
HETATM   36  C26 UNL     1       5.468  12.672  21.647  1.00  0.00     0.182 C 
BRANCH  36  37
HETATM   37  C27 UNL     1       6.188  12.388  22.978  1.00  0.00     0.045 C 
BRANCH  37  38
HETATM   38  C28 UNL     1       7.531  13.081  23.215  1.00  0.00     0.105 C 
BRANCH  38  39
HETATM   39  C29 UNL     1       8.748  12.238  22.912  1.00  0.00     0.215 C 
HETATM   40  N2  UNL     1       9.559  12.759  21.947  1.00  0.00    -0.370 N 
HETATM   41  H38 UNL     1       9.494  13.727  21.665  1.00  0.00     0.159 HD
HETATM   42  H39 UNL     1      10.430  12.273  21.770  1.00  0.00     0.159 HD
HETATM   43  O8  UNL     1       9.007  11.163  23.433  1.00  0.00    -0.274 OA
ENDBRANCH  38  39
ENDBRANCH  37  38
ENDBRANCH  36  37
BRANCH  36  44
HETATM   44  C30 UNL     1       4.854  14.079  21.610  1.00  0.00     0.163 C 
HETATM   45  O9  UNL     1       4.993  14.912  20.729  1.00  0.00    -0.648 OA
BRANCH  44  46
HETATM   46  O10 UNL     1       4.032  14.331  22.656  1.00  0.00    -0.775 OA
HETATM   47  H40 UNL     1       3.767  15.265  22.507  1.00  0.00     0.167 HD
ENDBRANCH  44  46
ENDBRANCH  36  44
ENDBRANCH  34  36
ENDBRANCH  31  32
ENDBRANCH  30  31
ENDBRANCH  28  30
ENDBRANCH  27  28
ENDBRANCH  26  27
ENDBRANCH   1  26
TORSDOF 14
ENDMDL
MODEL 4
REMARK minimizedAffinity -8.4299078
REMARK CNNscore 0.385679215
REMARK CNNaffinity 6.70226145
REMARK  14 active torsions:
REMARK  status: ('A' for Active; 'I' for Inactive)
REMARK    1  A    between atoms: C19_21  and  O3_22 
REMARK    2  A    between atoms: C19_21  and  C20_23 
REMARK    3  A    between atoms: C20_23  and  C21_25 
REMARK    4  A    between atoms: C21_25  and  O5_26 
REMARK    5  A    between atoms: O5_26  and  C22_27 
REMARK    6  A    between atoms: C22_27  and  C23_29 
REMARK    7  A    between atoms: C23_29  and  C24_30 
REMARK    8  A    between atoms: C24_30  and  C25_31 
REMARK       I    between atoms: C25_31  and  N1_33 
REMARK    9  A    between atoms: N1_33  and  C26_34 
REMARK   10  A    between atoms: C26_34  and  C27_35 
REMARK   11  A    between atoms: C26_34  and  C30_40 
REMARK   12  A    between atoms: C27_35  and  C28_36 
REMARK   13  A    between atoms: C28_36  and  C29_37 
REMARK       I    between atoms: C29_37  and  N2_38 
REMARK   14  A    between atoms: C30_40  and  O10_42 
ROOT
HETATM    1  C20 UNL     1      -4.996   8.091  15.554  1.00  0.00     0.185 C 
HETATM    2  O4  UNL     1      -5.012   9.324  15.647  1.00  0.00    -0.292 OA
ENDROOT
BRANCH   1   3
HETATM    3  C19 UNL     1      -3.662   7.294  15.442  1.00  0.00     0.128 C 
HETATM    4  C14 UNL     1      -2.910   7.484  14.084  1.00  0.00     0.005 C 
HETATM    5  C13 UNL     1      -1.970   8.691  13.997  1.00  0.00     0.091 C 
HETATM    6  C15 UNL     1      -3.905   7.537  12.893  1.00  0.00     0.019 C 
HETATM    7  C16 UNL     1      -2.019   6.214  14.080  1.00  0.00     0.002 C 
HETATM    8  C12 UNL     1      -1.088   8.582  12.759  1.00  0.00     0.133 C 
HETATM    9  C11 UNL     1      -0.284   7.274  12.587  1.00  0.00     0.072 C 
HETATM   10  O2  UNL     1      -0.986   9.546  12.004  1.00  0.00    -0.297 OA
HETATM   11  C2  UNL     1       0.591   7.182  11.284  1.00  0.00    -0.009 C 
HETATM   12  C10 UNL     1      -1.220   6.043  12.780  1.00  0.00     0.003 C 
HETATM   13  C1  UNL     1      -0.251   7.351  10.001  1.00  0.00     0.021 C 
HETATM   14  C3  UNL     1       1.691   8.286  11.340  1.00  0.00     0.022 C 
HETATM   15  C7  UNL     1       1.266   5.799  11.222  1.00  0.00    -0.067 C 
HETATM   16  C4  UNL     1       2.810   8.090  10.325  1.00  0.00     0.084 C 
HETATM   17  C5  UNL     1       3.436   6.733  10.497  1.00  0.00     0.149 C 
HETATM   18  O1  UNL     1       4.619   6.517  10.246  1.00  0.00    -0.293 OA
HETATM   19  C6  UNL     1       2.561   5.611  10.907  1.00  0.00     0.053 C 
HETATM   20  C8  UNL     1       0.396   4.598  11.503  1.00  0.00     0.035 C 
HETATM   21  C9  UNL     1      -0.391   4.753  12.797  1.00  0.00     0.010 C 
HETATM   22  C17 UNL     1      -2.983   5.101  14.476  1.00  0.00     0.009 C 
HETATM   23  C18 UNL     1      -3.949   5.762  15.476  1.00  0.00     0.047 C 
BRANCH   3  24
HETATM   24  O3  UNL     1      -2.754   7.527  16.522  1.00  0.00    -0.381 OA
HETATM   25  H25 UNL     1      -2.642   8.488  16.637  1.00  0.00     0.211 HD
ENDBRANCH   3  24
ENDBRANCH   1   3
BRANCH   1  26
HETATM   26  C21 UNL     1      -6.293   7.299  15.717  1.00  0.00     0.260 C 
BRANCH  26  27
HETATM   27  O5  UNL     1      -6.524   6.263  14.767  1.00  0.00    -0.314 OA
BRANCH  27  28
HETATM   28  C22 UNL     1      -7.693   6.399  14.074  1.00  0.00     0.259 C 
HETATM   29  O6  UNL     1      -7.825   6.186  12.877  1.00  0.00    -0.265 OA
BRANCH  28  30
HETATM   30  C23 UNL     1      -8.843   6.732  14.991  1.00  0.00     0.120 C 
BRANCH  30  31
HETATM   31  C24 UNL     1      -9.420   8.126  14.787  1.00  0.00     0.112 C 
BRANCH  31  32
HETATM   32  C25 UNL     1     -10.735   8.070  14.038  1.00  0.00     0.218 C 
HETATM   33  O7  UNL     1     -10.998   7.174  13.244  1.00  0.00    -0.274 OA
HETATM   34  N1  UNL     1     -11.572   9.125  14.281  1.00  0.00    -0.347 N 
HETATM   35  H32 UNL     1     -11.382   9.772  15.042  1.00  0.00     0.163 HD
BRANCH  34  36
HETATM   36  C26 UNL     1     -12.928   9.201  13.738  1.00  0.00     0.182 C 
BRANCH  36  37
HETATM   37  C27 UNL     1     -13.728   7.893  13.870  1.00  0.00     0.045 C 
BRANCH  37  38
HETATM   38  C28 UNL     1     -14.019   7.112  12.588  1.00  0.00     0.105 C 
BRANCH  38  39
HETATM   39  C29 UNL     1     -15.464   7.121  12.146  1.00  0.00     0.215 C 
HETATM   40  N2  UNL     1     -16.279   6.319  12.891  1.00  0.00    -0.370 N 
HETATM   41  H38 UNL     1     -15.998   5.975  13.798  1.00  0.00     0.159 HD
HETATM   42  H39 UNL     1     -17.270   6.359  12.686  1.00  0.00     0.159 HD
HETATM   43  O8  UNL     1     -15.904   7.747  11.193  1.00  0.00    -0.274 OA
ENDBRANCH  38  39
ENDBRANCH  37  38
ENDBRANCH  36  37
BRANCH  36  44
HETATM   44  C30 UNL     1     -12.911   9.726  12.294  1.00  0.00     0.163 C 
HETATM   45  O9  UNL     1     -13.820  10.300  11.716  1.00  0.00    -0.648 OA
BRANCH  44  46
HETATM   46  O10 UNL     1     -11.716   9.562  11.680  1.00  0.00    -0.775 OA
HETATM   47  H40 UNL     1     -11.886   9.900  10.774  1.00  0.00     0.167 HD
ENDBRANCH  44  46
ENDBRANCH  36  44
ENDBRANCH  34  36
ENDBRANCH  31  32
ENDBRANCH  30  31
ENDBRANCH  28  30
ENDBRANCH  27  28
ENDBRANCH  26  27
ENDBRANCH   1  26
TORSDOF 14
ENDMDL
MODEL 5
REMARK minimizedAffinity -8.99131489
REMARK CNNscore 0.357005715
REMARK CNNaffinity 6.92679834
REMARK  14 active torsions:
REMARK  status: ('A' for Active; 'I' for Inactive)
REMARK    1  A    between atoms: C19_21  and  O3_22 
REMARK    2  A    between atoms: C19_21  and  C20_23 
REMARK    3  A    between atoms: C20_23  and  C21_25 
REMARK    4  A    between atoms: C21_25  and  O5_26 
REMARK    5  A    between atoms: O5_26  and  C22_27 
REMARK    6  A    between atoms: C22_27  and  C23_29 
REMARK    7  A    between atoms: C23_29  and  C24_30 
REMARK    8  A    between atoms: C24_30  and  C25_31 
REMARK       I    between atoms: C25_31  and  N1_33 
REMARK    9  A    between atoms: N1_33  and  C26_34 
REMARK   10  A    between atoms: C26_34  and  C27_35 
REMARK   11  A    between atoms: C26_34  and  C30_40 
REMARK   12  A    between atoms: C27_35  and  C28_36 
REMARK   13  A    between atoms: C28_36  and  C29_37 
REMARK       I    between atoms: C29_37  and  N2_38 
REMARK   14  A    between atoms: C30_40  and  O10_42 
ROOT
HETATM    1  C20 UNL     1      -0.125   6.213  13.645  1.00  0.00     0.185 C 
HETATM    2  O4  UNL     1      -0.023   6.707  14.774  1.00  0.00    -0.292 OA
ENDROOT
BRANCH   1   3
HETATM    3  C19 UNL     1      -1.495   6.126  12.907  1.00  0.00     0.128 C 
HETATM    4  C14 UNL     1      -2.741   6.246  13.846  1.00  0.00     0.005 C 
HETATM    5  C13 UNL     1      -3.217   7.669  14.154  1.00  0.00     0.091 C 
HETATM    6  C15 UNL     1      -2.510   5.494  15.185  1.00  0.00     0.019 C 
HETATM    7  C16 UNL     1      -3.825   5.587  12.953  1.00  0.00     0.002 C 
HETATM    8  C12 UNL     1      -4.592   7.632  14.811  1.00  0.00     0.133 C 
HETATM    9  C11 UNL     1      -5.700   6.853  14.068  1.00  0.00     0.072 C 
HETATM   10  O2  UNL     1      -4.786   8.275  15.841  1.00  0.00    -0.297 OA
HETATM   11  C2  UNL     1      -7.097   6.809  14.789  1.00  0.00    -0.009 C 
HETATM   12  C10 UNL     1      -5.180   5.443  13.661  1.00  0.00     0.003 C 
HETATM   13  C1  UNL     1      -7.006   6.198  16.204  1.00  0.00     0.021 C 
HETATM   14  C3  UNL     1      -7.662   8.260  14.878  1.00  0.00     0.022 C 
HETATM   15  C7  UNL     1      -8.066   5.940  13.966  1.00  0.00    -0.067 C 
HETATM   16  C4  UNL     1      -9.142   8.322  15.231  1.00  0.00     0.084 C 
HETATM   17  C5  UNL     1      -9.946   7.518  14.246  1.00  0.00     0.149 C 
HETATM   18  O1  UNL     1     -11.100   7.810  13.943  1.00  0.00    -0.293 OA
HETATM   19  C6  UNL     1      -9.336   6.289  13.691  1.00  0.00     0.053 C 
HETATM   20  C8  UNL     1      -7.547   4.608  13.477  1.00  0.00     0.035 C 
HETATM   21  C9  UNL     1      -6.209   4.745  12.763  1.00  0.00     0.010 C 
HETATM   22  C17 UNL     1      -3.147   4.321  12.445  1.00  0.00     0.009 C 
HETATM   23  C18 UNL     1      -1.670   4.716  12.267  1.00  0.00     0.047 C 
BRANCH   3  24
HETATM   24  O3  UNL     1      -1.630   7.048  11.822  1.00  0.00    -0.381 OA
HETATM   25  H25 UNL     1      -1.397   7.940  12.136  1.00  0.00     0.211 HD
ENDBRANCH   3  24
ENDBRANCH   1   3
BRANCH   1  26
HETATM   26  C21 UNL     1       1.134   5.826  12.868  1.00  0.00     0.260 C 
BRANCH  26  27
HETATM   27  O5  UNL     1       1.661   6.816  11.989  1.00  0.00    -0.314 OA
BRANCH  27  28
HETATM   28  C22 UNL     1       1.684   6.433  10.677  1.00  0.00     0.259 C 
HETATM   29  O6  UNL     1       0.727   5.981  10.065  1.00  0.00    -0.265 OA
BRANCH  28  30
HETATM   30  C23 UNL     1       3.011   6.748  10.033  1.00  0.00     0.120 C 
BRANCH  30  31
HETATM   31  C24 UNL     1       4.219   6.276  10.831  1.00  0.00     0.112 C 
BRANCH  31  32
HETATM   32  C25 UNL     1       4.771   7.390  11.698  1.00  0.00     0.218 C 
HETATM   33  O7  UNL     1       4.756   8.563  11.344  1.00  0.00    -0.274 OA
HETATM   34  N1  UNL     1       5.331   6.969  12.873  1.00  0.00    -0.347 N 
HETATM   35  H32 UNL     1       5.203   6.012  13.195  1.00  0.00     0.163 HD
BRANCH  34  36
HETATM   36  C26 UNL     1       5.822   7.896  13.893  1.00  0.00     0.182 C 
BRANCH  36  37
HETATM   37  C27 UNL     1       7.320   7.740  14.209  1.00  0.00     0.045 C 
BRANCH  37  38
HETATM   38  C28 UNL     1       8.033   8.933  14.849  1.00  0.00     0.105 C 
BRANCH  38  39
HETATM   39  C29 UNL     1       9.118   8.575  15.837  1.00  0.00     0.215 C 
HETATM   40  N2  UNL     1      10.365   8.992  15.471  1.00  0.00    -0.370 N 
HETATM   41  H38 UNL     1      10.500   9.695  14.758  1.00  0.00     0.159 HD
HETATM   42  H39 UNL     1      11.110   8.850  16.141  1.00  0.00     0.159 HD
HETATM   43  O8  UNL     1       8.949   7.940  16.867  1.00  0.00    -0.274 OA
ENDBRANCH  38  39
ENDBRANCH  37  38
ENDBRANCH  36  37
BRANCH  36  44
HETATM   44  C30 UNL     1       4.953   7.828  15.158  1.00  0.00     0.163 C 
HETATM   45  O9  UNL     1       4.229   8.709  15.593  1.00  0.00    -0.648 OA
BRANCH  44  46
HETATM   46  O10 UNL     1       4.988   6.619  15.766  1.00  0.00    -0.775 OA
HETATM   47  H40 UNL     1       4.430   6.757  16.562  1.00  0.00     0.167 HD
ENDBRANCH  44  46
ENDBRANCH  36  44
ENDBRANCH  34  36
ENDBRANCH  31  32
ENDBRANCH  30  31
ENDBRANCH  28  30
ENDBRANCH  27  28
ENDBRANCH  26  27
ENDBRANCH   1  26
TORSDOF 14
ENDMDL
MODEL 6
REMARK minimizedAffinity -8.74112034
REMARK CNNscore 0.349456251
REMARK CNNaffinity 6.97563171
REMARK  14 active torsions:
REMARK  status: ('A' for Active; 'I' for Inactive)
REMARK    1  A    between atoms: C19_21  and  O3_22 
REMARK    2  A    between atoms: C19_21  and  C20_23 
REMARK    3  A    between atoms: C20_23  and  C21_25 
REMARK    4  A    between atoms: C21_25  and  O5_26 
REMARK    5  A    between atoms: O5_26  and  C22_27 
REMARK    6  A    between atoms: C22_27  and  C23_29 
REMARK    7  A    between atoms: C23_29  and  C24_30 
REMARK    8  A    between atoms: C24_30  and  C25_31 
REMARK       I    between atoms: C25_31  and  N1_33 
REMARK    9  A    between atoms: N1_33  and  C26_34 
REMARK   10  A    between atoms: C26_34  and  C27_35 
REMARK   11  A    between atoms: C26_34  and  C30_40 
REMARK   12  A    between atoms: C27_35  and  C28_36 
REMARK   13  A    between atoms: C28_36  and  C29_37 
REMARK       I    between atoms: C29_37  and  N2_38 
REMARK   14  A    between atoms: C30_40  and  O10_42 
ROOT
HETATM    1  C20 UNL     1      -0.450   6.335  13.986  1.00  0.00     0.185 C 
HETATM    2  O4  UNL     1      -0.367   6.826  15.118  1.00  0.00    -0.292 OA
ENDROOT
BRANCH   1   3
HETATM    3  C19 UNL     1      -1.796   6.298  13.203  1.00  0.00     0.128 C 
HETATM    4  C14 UNL     1      -3.069   6.439  14.102  1.00  0.00     0.005 C 
HETATM    5  C13 UNL     1      -3.515   7.870  14.418  1.00  0.00     0.091 C 
HETATM    6  C15 UNL     1      -2.903   5.659  15.435  1.00  0.00     0.019 C 
HETATM    7  C16 UNL     1      -4.140   5.826  13.163  1.00  0.00     0.002 C 
HETATM    8  C12 UNL     1      -4.911   7.861  15.029  1.00  0.00     0.133 C 
HETATM    9  C11 UNL     1      -6.016   7.126  14.237  1.00  0.00     0.072 C 
HETATM   10  O2  UNL     1      -5.122   8.492  16.063  1.00  0.00    -0.297 OA
HETATM   11  C2  UNL     1      -7.436   7.110  14.910  1.00  0.00    -0.009 C 
HETATM   12  C10 UNL     1      -5.522   5.708  13.823  1.00  0.00     0.003 C 
HETATM   13  C1  UNL     1      -7.410   6.474  16.317  1.00  0.00     0.021 C 
HETATM   14  C3  UNL     1      -7.963   8.575  15.005  1.00  0.00     0.022 C 
HETATM   15  C7  UNL     1      -8.401   6.282  14.041  1.00  0.00    -0.067 C 
HETATM   16  C4  UNL     1      -9.452   8.673  15.310  1.00  0.00     0.084 C 
HETATM   17  C5  UNL     1     -10.245   7.908  14.286  1.00  0.00     0.149 C 
HETATM   18  O1  UNL     1     -11.379   8.237  13.951  1.00  0.00    -0.293 OA
HETATM   19  C6  UNL     1      -9.651   6.671  13.730  1.00  0.00     0.053 C 
HETATM   20  C8  UNL     1      -7.903   4.944  13.548  1.00  0.00     0.035 C 
HETATM   21  C9  UNL     1      -6.539   5.054  12.880  1.00  0.00     0.010 C 
HETATM   22  C17 UNL     1      -3.481   4.548  12.656  1.00  0.00     0.009 C 
HETATM   23  C18 UNL     1      -1.988   4.904  12.533  1.00  0.00     0.047 C 
BRANCH   3  24
HETATM   24  O3  UNL     1      -1.869   7.241  12.130  1.00  0.00    -0.381 OA
HETATM   25  H25 UNL     1      -1.621   8.121  12.466  1.00  0.00     0.211 HD
ENDBRANCH   3  24
ENDBRANCH   1   3
BRANCH   1  26
HETATM   26  C21 UNL     1       0.819   5.899  13.254  1.00  0.00     0.260 C 
BRANCH  26  27
HETATM   27  O5  UNL     1       1.286   6.772  12.229  1.00  0.00    -0.314 OA
BRANCH  27  28
HETATM   28  C22 UNL     1       1.084   6.297  10.964  1.00  0.00     0.259 C 
HETATM   29  O6  UNL     1       0.396   6.845  10.114  1.00  0.00    -0.265 OA
BRANCH  28  30
HETATM   30  C23 UNL     1       1.913   5.066  10.697  1.00  0.00     0.120 C 
BRANCH  30  31
HETATM   31  C24 UNL     1       3.083   5.296   9.750  1.00  0.00     0.112 C 
BRANCH  31  32
HETATM   32  C25 UNL     1       3.952   6.444  10.225  1.00  0.00     0.218 C 
HETATM   33  O7  UNL     1       4.185   7.421   9.523  1.00  0.00    -0.274 OA
HETATM   34  N1  UNL     1       4.490   6.270  11.471  1.00  0.00    -0.347 N 
HETATM   35  H32 UNL     1       4.167   5.519  12.075  1.00  0.00     0.163 HD
BRANCH  34  36
HETATM   36  C26 UNL     1       5.268   7.307  12.149  1.00  0.00     0.182 C 
BRANCH  36  37
HETATM   37  C27 UNL     1       4.530   8.651  12.286  1.00  0.00     0.045 C 
BRANCH  37  38
HETATM   38  C28 UNL     1       3.855   8.951  13.625  1.00  0.00     0.105 C 
BRANCH  38  39
HETATM   39  C29 UNL     1       4.659   8.573  14.847  1.00  0.00     0.215 C 
HETATM   40  N2  UNL     1       5.792   9.313  15.018  1.00  0.00    -0.370 N 
HETATM   41  H38 UNL     1       5.930  10.190  14.537  1.00  0.00     0.159 HD
HETATM   42  H39 UNL     1       6.318   9.153  15.869  1.00  0.00     0.159 HD
HETATM   43  O8  UNL     1       4.378   7.670  15.621  1.00  0.00    -0.274 OA
ENDBRANCH  38  39
ENDBRANCH  37  38
ENDBRANCH  36  37
BRANCH  36  44
HETATM   44  C30 UNL     1       6.650   7.469  11.497  1.00  0.00     0.163 C 
HETATM   45  O9  UNL     1       7.488   8.315  11.766  1.00  0.00    -0.648 OA
BRANCH  44  46
HETATM   46  O10 UNL     1       6.929   6.504  10.590  1.00  0.00    -0.775 OA
HETATM   47  H40 UNL     1       7.807   6.776  10.244  1.00  0.00     0.167 HD
ENDBRANCH  44  46
ENDBRANCH  36  44
ENDBRANCH  34  36
ENDBRANCH  31  32
ENDBRANCH  30  31
ENDBRANCH  28  30
ENDBRANCH  27  28
ENDBRANCH  26  27
ENDBRANCH   1  26
TORSDOF 14
ENDMDL
MODEL 7
REMARK minimizedAffinity -7.96843529
REMARK CNNscore 0.337657422
REMARK CNNaffinity 6.75322485
REMARK  14 active torsions:
REMARK  status: ('A' for Active; 'I' for Inactive)
REMARK    1  A    between atoms: C19_21  and  O3_22 
REMARK    2  A    between atoms: C19_21  and  C20_23 
REMARK    3  A    between atoms: C20_23  and  C21_25 
REMARK    4  A    between atoms: C21_25  and  O5_26 
REMARK    5  A    between atoms: O5_26  and  C22_27 
REMARK    6  A    between atoms: C22_27  and  C23_29 
REMARK    7  A    between atoms: C23_29  and  C24_30 
REMARK    8  A    between atoms: C24_30  and  C25_31 
REMARK       I    between atoms: C25_31  and  N1_33 
REMARK    9  A    between atoms: N1_33  and  C26_34 
REMARK   10  A    between atoms: C26_34  and  C27_35 
REMARK   11  A    between atoms: C26_34  and  C30_40 
REMARK   12  A    between atoms: C27_35  and  C28_36 
REMARK   13  A    between atoms: C28_36  and  C29_37 
REMARK       I    between atoms: C29_37  and  N2_38 
REMARK   14  A    between atoms: C30_40  and  O10_42 
ROOT
HETATM    1  C20 UNL     1      -7.222   5.910  15.233  1.00  0.00     0.185 C 
HETATM    2  O4  UNL     1      -7.307   4.676  15.252  1.00  0.00    -0.292 OA
ENDROOT
BRANCH   1   3
HETATM    3  C19 UNL     1      -6.434   6.662  14.120  1.00  0.00     0.128 C 
HETATM    4  C14 UNL     1      -4.905   6.334  14.080  1.00  0.00     0.005 C 
HETATM    5  C13 UNL     1      -4.502   5.102  13.262  1.00  0.00     0.091 C 
HETATM    6  C15 UNL     1      -4.321   6.197  15.513  1.00  0.00     0.019 C 
HETATM    7  C16 UNL     1      -4.374   7.577  13.319  1.00  0.00     0.002 C 
HETATM    8  C12 UNL     1      -2.992   5.079  13.058  1.00  0.00     0.133 C 
HETATM    9  C11 UNL     1      -2.350   6.347  12.453  1.00  0.00     0.072 C 
HETATM   10  O2  UNL     1      -2.366   4.048  13.298  1.00  0.00    -0.297 OA
HETATM   11  C2  UNL     1      -0.787   6.301  12.284  1.00  0.00    -0.009 C 
HETATM   12  C10 UNL     1      -2.842   7.611  13.218  1.00  0.00     0.003 C 
HETATM   13  C1  UNL     1      -0.061   6.038  13.622  1.00  0.00     0.021 C 
HETATM   14  C3  UNL     1      -0.426   5.180  11.261  1.00  0.00     0.022 C 
HETATM   15  C7  UNL     1      -0.294   7.656  11.744  1.00  0.00    -0.067 C 
HETATM   16  C4  UNL     1       1.005   5.259  10.745  1.00  0.00     0.084 C 
HETATM   17  C5  UNL     1       1.267   6.611  10.139  1.00  0.00     0.149 C 
HETATM   18  O1  UNL     1       2.055   6.776   9.212  1.00  0.00    -0.293 OA
HETATM   19  C6  UNL     1       0.601   7.785  10.747  1.00  0.00     0.053 C 
HETATM   20  C8  UNL     1      -0.837   8.898  12.409  1.00  0.00     0.035 C 
HETATM   21  C9  UNL     1      -2.356   8.878  12.502  1.00  0.00     0.010 C 
HETATM   22  C17 UNL     1      -5.069   8.742  14.013  1.00  0.00     0.009 C 
HETATM   23  C18 UNL     1      -6.458   8.197  14.390  1.00  0.00     0.047 C 
BRANCH   3  24
HETATM   24  O3  UNL     1      -6.986   6.505  12.811  1.00  0.00    -0.381 OA
HETATM   25  H25 UNL     1      -7.122   5.556  12.638  1.00  0.00     0.211 HD
ENDBRANCH   3  24
ENDBRANCH   1   3
BRANCH   1  26
HETATM   26  C21 UNL     1      -8.042   6.742  16.220  1.00  0.00     0.260 C 
BRANCH  26  27
HETATM   27  O5  UNL     1      -9.457   6.702  16.056  1.00  0.00    -0.314 OA
BRANCH  27  28
HETATM   28  C22 UNL     1      -9.934   7.609  15.152  1.00  0.00     0.259 C 
HETATM   29  O6  UNL     1      -9.940   8.820  15.316  1.00  0.00    -0.265 OA
BRANCH  28  30
HETATM   30  C23 UNL     1     -10.346   6.941  13.864  1.00  0.00     0.120 C 
BRANCH  30  31
HETATM   31  C24 UNL     1     -11.834   6.633  13.771  1.00  0.00     0.112 C 
BRANCH  31  32
HETATM   32  C25 UNL     1     -12.574   7.726  13.026  1.00  0.00     0.218 C 
HETATM   33  O7  UNL     1     -12.009   8.482  12.245  1.00  0.00    -0.274 OA
HETATM   34  N1  UNL     1     -13.902   7.828  13.341  1.00  0.00    -0.347 N 
HETATM   35  H32 UNL     1     -14.362   7.102  13.885  1.00  0.00     0.163 HD
BRANCH  34  36
HETATM   36  C26 UNL     1     -14.809   8.747  12.655  1.00  0.00     0.182 C 
BRANCH  36  37
HETATM   37  C27 UNL     1     -15.559   9.705  13.598  1.00  0.00     0.045 C 
BRANCH  37  38
HETATM   38  C28 UNL     1     -15.087  11.159  13.647  1.00  0.00     0.105 C 
BRANCH  38  39
HETATM   39  C29 UNL     1     -13.877  11.409  14.517  1.00  0.00     0.215 C 
HETATM   40  N2  UNL     1     -14.156  12.056  15.685  1.00  0.00    -0.370 N 
HETATM   41  H38 UNL     1     -15.097  12.115  16.047  1.00  0.00     0.159 HD
HETATM   42  H39 UNL     1     -13.391  12.171  16.339  1.00  0.00     0.159 HD
HETATM   43  O8  UNL     1     -12.728  11.110  14.227  1.00  0.00    -0.274 OA
ENDBRANCH  38  39
ENDBRANCH  37  38
ENDBRANCH  36  37
BRANCH  36  44
HETATM   44  C30 UNL     1     -15.766   7.981  11.728  1.00  0.00     0.163 C 
HETATM   45  O9  UNL     1     -16.177   6.842  11.885  1.00  0.00    -0.648 OA
BRANCH  44  46
HETATM   46  O10 UNL     1     -16.212   8.725  10.689  1.00  0.00    -0.775 OA
HETATM   47  H40 UNL     1     -16.762   8.087  10.183  1.00  0.00     0.167 HD
ENDBRANCH  44  46
ENDBRANCH  36  44
ENDBRANCH  34  36
ENDBRANCH  31  32
ENDBRANCH  30  31
ENDBRANCH  28  30
ENDBRANCH  27  28
ENDBRANCH  26  27
ENDBRANCH   1  26
TORSDOF 14
ENDMDL
MODEL 8
REMARK minimizedAffinity -7.8003273
REMARK CNNscore 0.326763093
REMARK CNNaffinity 6.27127457
REMARK  14 active torsions:
REMARK  status: ('A' for Active; 'I' for Inactive)
REMARK    1  A    between atoms: C19_21  and  O3_22 
REMARK    2  A    between atoms: C19_21  and  C20_23 
REMARK    3  A    between atoms: C20_23  and  C21_25 
REMARK    4  A    between atoms: C21_25  and  O5_26 
REMARK    5  A    between atoms: O5_26  and  C22_27 
REMARK    6  A    between atoms: C22_27  and  C23_29 
REMARK    7  A    between atoms: C23_29  and  C24_30 
REMARK    8  A    between atoms: C24_30  and  C25_31 
REMARK       I    between atoms: C25_31  and  N1_33 
REMARK    9  A    between atoms: N1_33  and  C26_34 
REMARK   10  A    between atoms: C26_34  and  C27_35 
REMARK   11  A    between atoms: C26_34  and  C30_40 
REMARK   12  A    between atoms: C27_35  and  C28_36 
REMARK   13  A    between atoms: C28_36  and  C29_37 
REMARK       I    between atoms: C29_37  and  N2_38 
REMARK   14  A    between atoms: C30_40  and  O10_42 
ROOT
HETATM    1  C20 UNL     1      -6.706   6.199  15.304  1.00  0.00     0.185 C 
HETATM    2  O4  UNL     1      -6.253   5.826  16.392  1.00  0.00    -0.292 OA
ENDROOT
BRANCH   1   3
HETATM    3  C19 UNL     1      -5.877   7.089  14.331  1.00  0.00     0.128 C 
HETATM    4  C14 UNL     1      -4.383   6.653  14.173  1.00  0.00     0.005 C 
HETATM    5  C13 UNL     1      -4.103   5.577  13.118  1.00  0.00     0.091 C 
HETATM    6  C15 UNL     1      -3.787   6.190  15.531  1.00  0.00     0.019 C 
HETATM    7  C16 UNL     1      -3.762   7.974  13.650  1.00  0.00     0.002 C 
HETATM    8  C12 UNL     1      -2.605   5.473  12.860  1.00  0.00     0.133 C 
HETATM    9  C11 UNL     1      -1.867   6.779  12.490  1.00  0.00     0.072 C 
HETATM   10  O2  UNL     1      -2.065   4.368  12.873  1.00  0.00    -0.297 OA
HETATM   11  C2  UNL     1      -0.318   6.641  12.261  1.00  0.00    -0.009 C 
HETATM   12  C10 UNL     1      -2.234   7.904  13.503  1.00  0.00     0.003 C 
HETATM   13  C1  UNL     1       0.408   6.062  13.496  1.00  0.00     0.021 C 
HETATM   14  C3  UNL     1      -0.074   5.718  11.027  1.00  0.00     0.022 C 
HETATM   15  C7  UNL     1       0.280   8.032  11.977  1.00  0.00    -0.067 C 
HETATM   16  C4  UNL     1       1.348   5.781  10.486  1.00  0.00     0.084 C 
HETATM   17  C5  UNL     1       1.714   7.200  10.146  1.00  0.00     0.149 C 
HETATM   18  O1  UNL     1       2.496   7.480   9.241  1.00  0.00    -0.293 OA
HETATM   19  C6  UNL     1       1.163   8.281  10.993  1.00  0.00     0.053 C 
HETATM   20  C8  UNL     1      -0.142   9.159  12.890  1.00  0.00     0.035 C 
HETATM   21  C9  UNL     1      -1.655   9.243  13.031  1.00  0.00     0.010 C 
HETATM   22  C17 UNL     1      -4.341   9.033  14.581  1.00  0.00     0.009 C 
HETATM   23  C18 UNL     1      -5.764   8.538  14.895  1.00  0.00     0.047 C 
BRANCH   3  24
HETATM   24  O3  UNL     1      -6.465   7.238  13.036  1.00  0.00    -0.381 OA
HETATM   25  H25 UNL     1      -6.686   6.355  12.687  1.00  0.00     0.211 HD
ENDBRANCH   3  24
ENDBRANCH   1   3
BRANCH   1  26
HETATM   26  C21 UNL     1      -8.043   5.648  14.808  1.00  0.00     0.260 C 
BRANCH  26  27
HETATM   27  O5  UNL     1      -9.051   6.611  14.511  1.00  0.00    -0.314 OA
BRANCH  27  28
HETATM   28  C22 UNL     1      -9.636   6.437  13.288  1.00  0.00     0.259 C 
HETATM   29  O6  UNL     1      -9.090   5.931  12.318  1.00  0.00    -0.265 OA
BRANCH  28  30
HETATM   30  C23 UNL     1     -11.090   6.838  13.310  1.00  0.00     0.120 C 
BRANCH  30  31
HETATM   31  C24 UNL     1     -11.613   7.209  14.691  1.00  0.00     0.112 C 
BRANCH  31  32
HETATM   32  C25 UNL     1     -13.121   7.071  14.760  1.00  0.00     0.218 C 
HETATM   33  O7  UNL     1     -13.773   7.494  15.707  1.00  0.00    -0.274 OA
HETATM   34  N1  UNL     1     -13.677   6.392  13.710  1.00  0.00    -0.347 N 
HETATM   35  H32 UNL     1     -13.127   6.179  12.882  1.00  0.00     0.163 HD
BRANCH  34  36
HETATM   36  C26 UNL     1     -15.122   6.246  13.539  1.00  0.00     0.182 C 
BRANCH  36  37
HETATM   37  C27 UNL     1     -15.879   7.583  13.453  1.00  0.00     0.045 C 
BRANCH  37  38
HETATM   38  C28 UNL     1     -16.767   7.813  12.229  1.00  0.00     0.105 C 
BRANCH  38  39
HETATM   39  C29 UNL     1     -16.315   8.922  11.309  1.00  0.00     0.215 C 
HETATM   40  N2  UNL     1     -15.171   9.548  11.712  1.00  0.00    -0.370 N 
HETATM   41  H38 UNL     1     -14.554   9.135  12.397  1.00  0.00     0.159 HD
HETATM   42  H39 UNL     1     -14.783  10.241  11.084  1.00  0.00     0.159 HD
HETATM   43  O8  UNL     1     -16.905   9.287  10.303  1.00  0.00    -0.274 OA
ENDBRANCH  38  39
ENDBRANCH  37  38
ENDBRANCH  36  37
BRANCH  36  44
HETATM   44  C30 UNL     1     -15.709   5.316  14.612  1.00  0.00     0.163 C 
HETATM   45  O9  UNL     1     -16.703   5.521  15.289  1.00  0.00    -0.648 OA
BRANCH  44  46
HETATM   46  O10 UNL     1     -15.049   4.139  14.718  1.00  0.00    -0.775 OA
HETATM   47  H40 UNL     1     -15.513   3.693  15.460  1.00  0.00     0.167 HD
ENDBRANCH  44  46
ENDBRANCH  36  44
ENDBRANCH  34  36
ENDBRANCH  31  32
ENDBRANCH  30  31
ENDBRANCH  28  30
ENDBRANCH  27  28
ENDBRANCH  26  27
ENDBRANCH   1  26
TORSDOF 14
ENDMDL
MODEL 9
REMARK minimizedAffinity -8.22358227
REMARK CNNscore 0.290441185
REMARK CNNaffinity 6.33300972
REMARK  14 active torsions:
REMARK  status: ('A' for Active; 'I' for Inactive)
REMARK    1  A    between atoms: C19_21  and  O3_22 
REMARK    2  A    between atoms: C19_21  and  C20_23 
REMARK    3  A    between atoms: C20_23  and  C21_25 
REMARK    4  A    between atoms: C21_25  and  O5_26 
REMARK    5  A    between atoms: O5_26  and  C22_27 
REMARK    6  A    between atoms: C22_27  and  C23_29 
REMARK    7  A    between atoms: C23_29  and  C24_30 
REMARK    8  A    between atoms: C24_30  and  C25_31 
REMARK       I    between atoms: C25_31  and  N1_33 
REMARK    9  A    between atoms: N1_33  and  C26_34 
REMARK   10  A    between atoms: C26_34  and  C27_35 
REMARK   11  A    between atoms: C26_34  and  C30_40 
REMARK   12  A    between atoms: C27_35  and  C28_36 
REMARK   13  A    between atoms: C28_36  and  C29_37 
REMARK       I    between atoms: C29_37  and  N2_38 
REMARK   14  A    between atoms: C30_40  and  O10_42 
ROOT
HETATM    1  C20 UNL     1       0.415   9.790  14.168  1.00  0.00     0.185 C 
HETATM    2  O4  UNL     1       1.527   9.428  14.571  1.00  0.00    -0.292 OA
ENDROOT
BRANCH   1   3
HETATM    3  C19 UNL     1      -0.455   8.892  13.239  1.00  0.00     0.128 C 
HETATM    4  C14 UNL     1      -1.715   8.278  13.934  1.00  0.00     0.005 C 
HETATM    5  C13 UNL     1      -2.973   9.153  13.942  1.00  0.00     0.091 C 
HETATM    6  C15 UNL     1      -1.398   7.843  15.391  1.00  0.00     0.019 C 
HETATM    7  C16 UNL     1      -1.999   7.083  12.986  1.00  0.00     0.002 C 
HETATM    8  C12 UNL     1      -4.183   8.329  14.365  1.00  0.00     0.133 C 
HETATM    9  C11 UNL     1      -4.451   7.027  13.577  1.00  0.00     0.072 C 
HETATM   10  O2  UNL     1      -4.931   8.759  15.240  1.00  0.00    -0.297 OA
HETATM   11  C2  UNL     1      -5.689   6.185  14.060  1.00  0.00    -0.009 C 
HETATM   12  C10 UNL     1      -3.144   6.185  13.478  1.00  0.00     0.003 C 
HETATM   13  C1  UNL     1      -5.579   5.783  15.547  1.00  0.00     0.021 C 
HETATM   14  C3  UNL     1      -6.984   7.025  13.835  1.00  0.00     0.022 C 
HETATM   15  C7  UNL     1      -5.776   4.890  13.230  1.00  0.00    -0.067 C 
HETATM   16  C4  UNL     1      -8.267   6.210  13.929  1.00  0.00     0.084 C 
HETATM   17  C5  UNL     1      -8.226   5.061  12.959  1.00  0.00     0.149 C 
HETATM   18  O1  UNL     1      -9.239   4.607  12.433  1.00  0.00    -0.293 OA
HETATM   19  C6  UNL     1      -6.919   4.414  12.703  1.00  0.00     0.053 C 
HETATM   20  C8  UNL     1      -4.498   4.110  13.039  1.00  0.00     0.035 C 
HETATM   21  C9  UNL     1      -3.361   4.991  12.540  1.00  0.00     0.010 C 
HETATM   22  C17 UNL     1      -0.628   6.448  12.793  1.00  0.00     0.009 C 
HETATM   23  C18 UNL     1       0.354   7.634  12.799  1.00  0.00     0.047 C 
BRANCH   3  24
HETATM   24  O3  UNL     1      -0.849   9.527  12.021  1.00  0.00    -0.381 OA
HETATM   25  H25 UNL     1      -1.244  10.393  12.230  1.00  0.00     0.211 HD
ENDBRANCH   3  24
ENDBRANCH   1   3
BRANCH   1  26
HETATM   26  C21 UNL     1      -0.210  11.073  14.717  1.00  0.00     0.260 C 
BRANCH  26  27
HETATM   27  O5  UNL     1       0.591  11.827  15.622  1.00  0.00    -0.314 OA
BRANCH  27  28
HETATM   28  C22 UNL     1       0.336  11.562  16.938  1.00  0.00     0.259 C 
HETATM   29  O6  UNL     1      -0.719  11.118  17.369  1.00  0.00    -0.265 OA
BRANCH  28  30
HETATM   30  C23 UNL     1       1.562  11.769  17.792  1.00  0.00     0.120 C 
BRANCH  30  31
HETATM   31  C24 UNL     1       2.016  10.524  18.542  1.00  0.00     0.112 C 
BRANCH  31  32
HETATM   32  C25 UNL     1       1.708  10.636  20.022  1.00  0.00     0.218 C 
HETATM   33  O7  UNL     1       0.604  10.970  20.437  1.00  0.00    -0.274 OA
HETATM   34  N1  UNL     1       2.774  10.386  20.843  1.00  0.00    -0.347 N 
HETATM   35  H32 UNL     1       3.629   9.980  20.472  1.00  0.00     0.163 HD
BRANCH  34  36
HETATM   36  C26 UNL     1       2.656  10.338  22.300  1.00  0.00     0.182 C 
BRANCH  36  37
HETATM   37  C27 UNL     1       3.836  10.988  23.044  1.00  0.00     0.045 C 
BRANCH  37  38
HETATM   38  C28 UNL     1       4.292  12.370  22.572  1.00  0.00     0.105 C 
BRANCH  38  39
HETATM   39  C29 UNL     1       5.694  12.755  22.981  1.00  0.00     0.215 C 
HETATM   40  N2  UNL     1       6.537  11.695  23.146  1.00  0.00    -0.370 N 
HETATM   41  H38 UNL     1       6.320  10.782  22.773  1.00  0.00     0.159 HD
HETATM   42  H39 UNL     1       7.508  11.908  23.337  1.00  0.00     0.159 HD
HETATM   43  O8  UNL     1       6.077  13.896  23.190  1.00  0.00    -0.274 OA
ENDBRANCH  38  39
ENDBRANCH  37  38
ENDBRANCH  36  37
BRANCH  36  44
HETATM   44  C30 UNL     1       2.389   8.903  22.781  1.00  0.00     0.163 C 
HETATM   45  O9  UNL     1       2.029   7.960  22.095  1.00  0.00    -0.648 OA
BRANCH  44  46
HETATM   46  O10 UNL     1       2.665   8.719  24.093  1.00  0.00    -0.775 OA
HETATM   47  H40 UNL     1       2.403   7.785  24.244  1.00  0.00     0.167 HD
ENDBRANCH  44  46
ENDBRANCH  36  44
ENDBRANCH  34  36
ENDBRANCH  31  32
ENDBRANCH  30  31
ENDBRANCH  28  30
ENDBRANCH  27  28
ENDBRANCH  26  27
ENDBRANCH   1  26
TORSDOF 14
ENDMDL
