MODEL 1
REMARK minimizedAffinity -7.15153837
REMARK CNNscore 0.519494295
REMARK CNNaffinity 6.97301531
REMARK  6 active torsions:
REMARK  status: ('A' for Active; 'I' for Inactive)
REMARK    1  A    between atoms: C2_2  and  C3_3 
REMARK    2  A    between atoms: C2_2  and  C9_10 
REMARK    3  A    between atoms: C3_3  and  C4_4 
REMARK    4  A    between atoms: C4_4  and  C5_5 
REMARK    5  A    between atoms: C17_18  and  C18_19 
REMARK    6  A    between atoms: C18_19  and  O2_22 
ROOT
HETATM    1  C9  UNL     1      -8.982   6.926  13.892  1.00  0.00    -0.002 C 
HETATM    2  C10 UNL     1      -8.458   6.742  15.353  1.00  0.00     0.006 C 
HETATM    3  C11 UNL     1      -9.410   7.530  16.282  1.00  0.00     0.011 C 
HETATM    4  C12 UNL     1     -10.201   8.444  15.332  1.00  0.00    -0.032 C 
HETATM    5  C13 UNL     1      -9.249   9.647  15.019  1.00  0.00     0.016 C 
HETATM    6  C14 UNL     1     -11.580   8.941  15.861  1.00  0.00     0.003 C 
HETATM    7  C15 UNL     1     -11.549   9.709  17.194  1.00  0.00     0.009 C 
HETATM    8  C16 UNL     1     -12.779  10.592  17.417  1.00  0.00     0.042 C 
HETATM    9  C17 UNL     1     -14.141  10.081  16.848  1.00  0.00     0.095 C 
HETATM   10  O3  UNL     1     -14.959  11.271  16.918  1.00  0.00    -0.377 OA
HETATM   11  C21 UNL     1     -16.232  11.280  16.294  1.00  0.00     0.169 C 
HETATM   12  C22 UNL     1     -16.316  10.507  14.991  1.00  0.00     0.027 C 
HETATM   13  C23 UNL     1     -14.950  10.322  14.368  1.00  0.00     0.010 C 
HETATM   14  C24 UNL     1     -13.956   9.638  15.337  1.00  0.00     0.032 C 
HETATM   15  C25 UNL     1     -12.457   9.667  14.779  1.00  0.00    -0.033 C 
HETATM   16  C26 UNL     1     -11.973  11.124  14.512  1.00  0.00     0.016 C 
HETATM   17  C27 UNL     1     -12.426   8.895  13.407  1.00  0.00     0.011 C 
HETATM   18  C28 UNL     1     -11.072   8.290  12.975  1.00  0.00     0.011 C 
HETATM   19  C29 UNL     1     -10.431   7.466  14.106  1.00  0.00    -0.032 C 
HETATM   20  C30 UNL     1     -11.374   6.262  14.405  1.00  0.00     0.016 C 
ENDROOT
BRANCH   1  21
HETATM   21  C2  UNL     1      -8.634   5.736  12.947  1.00  0.00    -0.014 C 
HETATM   22  C1  UNL     1      -8.981   5.893  11.462  1.00  0.00     0.010 C 
BRANCH  21  23
HETATM   23  C3  UNL     1      -7.167   5.286  13.122  1.00  0.00     0.007 C 
BRANCH  23  24
HETATM   24  C4  UNL     1      -6.949   3.789  12.866  1.00  0.00     0.035 C 
BRANCH  24  25
HETATM   25  C5  UNL     1      -5.546   3.523  12.408  1.00  0.00     0.156 A 
HETATM   26  O1  UNL     1      -5.364   3.554  10.985  1.00  0.00    -0.370 OA
HETATM   27  C6  UNL     1      -5.137   2.287  11.623  1.00  0.00     0.080 A 
HETATM   28  C7  UNL     1      -3.697   1.874  11.639  1.00  0.00     0.048 C 
HETATM   29  C8  UNL     1      -6.129   1.230  11.251  1.00  0.00     0.048 C 
ENDBRANCH  24  25
ENDBRANCH  23  24
ENDBRANCH  21  23
ENDBRANCH   1  21
BRANCH   9  30
HETATM   30  C18 UNL     1     -14.717   8.923  17.812  1.00  0.00     0.082 C 
HETATM   31  C19 UNL     1     -14.091   8.984  19.223  1.00  0.00     0.049 C 
HETATM   32  C20 UNL     1     -16.243   8.890  18.004  1.00  0.00     0.049 C 
BRANCH  30  33
HETATM   33  O2  UNL     1     -14.396   7.634  17.261  1.00  0.00    -0.388 OA
HETATM   34  H35 UNL     1     -14.571   6.958  17.941  1.00  0.00     0.210 HD
ENDBRANCH  30  33
ENDBRANCH   9  30
TORSDOF 6
ENDMDL
MODEL 2
REMARK minimizedAffinity -5.61800814
REMARK CNNscore 0.504464984
REMARK CNNaffinity 6.61649704
REMARK  6 active torsions:
REMARK  status: ('A' for Active; 'I' for Inactive)
REMARK    1  A    between atoms: C2_2  and  C3_3 
REMARK    2  A    between atoms: C2_2  and  C9_10 
REMARK    3  A    between atoms: C3_3  and  C4_4 
REMARK    4  A    between atoms: C4_4  and  C5_5 
REMARK    5  A    between atoms: C17_18  and  C18_19 
REMARK    6  A    between atoms: C18_19  and  O2_22 
ROOT
HETATM    1  C9  UNL     1     -13.106 -11.812  27.918  1.00  0.00    -0.002 C 
HETATM    2  C10 UNL     1     -13.583 -11.279  26.528  1.00  0.00     0.006 C 
HETATM    3  C11 UNL     1     -14.329  -9.949  26.780  1.00  0.00     0.011 C 
HETATM    4  C12 UNL     1     -14.600  -9.943  28.294  1.00  0.00    -0.032 C 
HETATM    5  C13 UNL     1     -15.848 -10.868  28.498  1.00  0.00     0.016 C 
HETATM    6  C14 UNL     1     -14.826  -8.543  28.938  1.00  0.00     0.003 C 
HETATM    7  C15 UNL     1     -15.973  -7.708  28.340  1.00  0.00     0.009 C 
HETATM    8  C16 UNL     1     -16.485  -6.615  29.281  1.00  0.00     0.042 C 
HETATM    9  C17 UNL     1     -15.443  -5.937  30.227  1.00  0.00     0.095 C 
HETATM   10  O3  UNL     1     -16.298  -5.257  31.174  1.00  0.00    -0.377 OA
HETATM   11  C21 UNL     1     -15.729  -4.678  32.337  1.00  0.00     0.169 C 
HETATM   12  C22 UNL     1     -14.573  -5.453  32.942  1.00  0.00     0.027 C 
HETATM   13  C23 UNL     1     -14.591  -6.902  32.508  1.00  0.00     0.010 C 
HETATM   14  C24 UNL     1     -14.590  -7.050  30.967  1.00  0.00     0.032 C 
HETATM   15  C25 UNL     1     -14.860  -8.558  30.508  1.00  0.00    -0.033 C 
HETATM   16  C26 UNL     1     -16.216  -9.092  31.061  1.00  0.00     0.016 C 
HETATM   17  C27 UNL     1     -13.715  -9.466  31.095  1.00  0.00     0.011 C 
HETATM   18  C28 UNL     1     -13.417 -10.786  30.351  1.00  0.00     0.011 C 
HETATM   19  C29 UNL     1     -13.244 -10.559  28.838  1.00  0.00    -0.032 C 
HETATM   20  C30 UNL     1     -11.994  -9.650  28.638  1.00  0.00     0.016 C 
ENDROOT
BRANCH   1  21
HETATM   21  C2  UNL     1     -11.821 -12.691  27.843  1.00  0.00    -0.014 C 
HETATM   22  C1  UNL     1     -11.856 -14.048  28.556  1.00  0.00     0.010 C 
BRANCH  21  23
HETATM   23  C3  UNL     1     -11.329 -12.850  26.387  1.00  0.00     0.007 C 
BRANCH  23  24
HETATM   24  C4  UNL     1      -9.842 -13.212  26.278  1.00  0.00     0.035 C 
BRANCH  24  25
HETATM   25  C5  UNL     1      -9.090 -12.161  25.516  1.00  0.00     0.156 A 
HETATM   26  O1  UNL     1      -9.685 -11.786  24.266  1.00  0.00    -0.370 OA
HETATM   27  C6  UNL     1      -8.397 -12.419  24.187  1.00  0.00     0.080 A 
HETATM   28  C7  UNL     1      -7.299 -11.493  23.762  1.00  0.00     0.048 C 
HETATM   29  C8  UNL     1      -8.419 -13.768  23.540  1.00  0.00     0.048 C 
ENDBRANCH  24  25
ENDBRANCH  23  24
ENDBRANCH  21  23
ENDBRANCH   1  21
BRANCH   9  30
HETATM   30  C18 UNL     1     -14.564  -4.884  29.378  1.00  0.00     0.082 C 
HETATM   31  C19 UNL     1     -13.060  -5.235  29.404  1.00  0.00     0.049 C 
HETATM   32  C20 UNL     1     -14.953  -4.705  27.901  1.00  0.00     0.049 C 
BRANCH  30  33
HETATM   33  O2  UNL     1     -14.703  -3.571  29.948  1.00  0.00    -0.388 OA
HETATM   34  H35 UNL     1     -14.024  -2.993  29.556  1.00  0.00     0.210 HD
ENDBRANCH  30  33
ENDBRANCH   9  30
TORSDOF 6
ENDMDL
MODEL 3
REMARK minimizedAffinity -6.21151781
REMARK CNNscore 0.491374522
REMARK CNNaffinity 6.55689383
REMARK  6 active torsions:
REMARK  status: ('A' for Active; 'I' for Inactive)
REMARK    1  A    between atoms: C2_2  and  C3_3 
REMARK    2  A    between atoms: C2_2  and  C9_10 
REMARK    3  A    between atoms: C3_3  and  C4_4 
REMARK    4  A    between atoms: C4_4  and  C5_5 
REMARK    5  A    between atoms: C17_18  and  C18_19 
REMARK    6  A    between atoms: C18_19  and  O2_22 
ROOT
HETATM    1  C9  UNL     1     -14.419 -11.783  26.954  1.00  0.00    -0.002 C 
HETATM    2  C10 UNL     1     -15.953 -11.546  26.771  1.00  0.00     0.006 C 
HETATM    3  C11 UNL     1     -16.325 -10.300  27.607  1.00  0.00     0.011 C 
HETATM    4  C12 UNL     1     -15.118 -10.087  28.535  1.00  0.00    -0.032 C 
HETATM    5  C13 UNL     1     -15.298 -11.121  29.698  1.00  0.00     0.016 C 
HETATM    6  C14 UNL     1     -14.934  -8.643  29.090  1.00  0.00     0.003 C 
HETATM    7  C15 UNL     1     -16.126  -8.070  29.876  1.00  0.00     0.009 C 
HETATM    8  C16 UNL     1     -15.745  -6.915  30.806  1.00  0.00     0.042 C 
HETATM    9  C17 UNL     1     -14.597  -5.966  30.337  1.00  0.00     0.095 C 
HETATM   10  O3  UNL     1     -14.277  -5.259  31.556  1.00  0.00    -0.377 OA
HETATM   11  C21 UNL     1     -13.126  -4.434  31.603  1.00  0.00     0.169 C 
HETATM   12  C22 UNL     1     -11.934  -4.946  30.815  1.00  0.00     0.027 C 
HETATM   13  C23 UNL     1     -12.031  -6.436  30.571  1.00  0.00     0.010 C 
HETATM   14  C24 UNL     1     -13.352  -6.827  29.865  1.00  0.00     0.032 C 
HETATM   15  C25 UNL     1     -13.569  -8.411  29.831  1.00  0.00    -0.033 C 
HETATM   16  C26 UNL     1     -13.570  -9.020  31.266  1.00  0.00     0.016 C 
HETATM   17  C27 UNL     1     -12.371  -9.057  29.040  1.00  0.00     0.011 C 
HETATM   18  C28 UNL     1     -12.628 -10.430  28.379  1.00  0.00     0.011 C 
HETATM   19  C29 UNL     1     -13.924 -10.427  27.549  1.00  0.00    -0.032 C 
HETATM   20  C30 UNL     1     -13.736  -9.409  26.385  1.00  0.00     0.016 C 
ENDROOT
BRANCH   1  21
HETATM   21  C2  UNL     1     -13.746 -12.489  25.738  1.00  0.00    -0.014 C 
HETATM   22  C1  UNL     1     -13.915 -11.833  24.362  1.00  0.00     0.010 C 
BRANCH  21  23
HETATM   23  C3  UNL     1     -12.259 -12.801  26.017  1.00  0.00     0.007 C 
BRANCH  23  24
HETATM   24  C4  UNL     1     -11.569 -13.569  24.883  1.00  0.00     0.035 C 
BRANCH  24  25
HETATM   25  C5  UNL     1     -10.188 -13.037  24.638  1.00  0.00     0.156 A 
HETATM   26  O1  UNL     1     -10.116 -11.614  24.469  1.00  0.00    -0.370 OA
HETATM   27  C6  UNL     1      -9.750 -12.405  23.327  1.00  0.00     0.080 A 
HETATM   28  C7  UNL     1      -8.286 -12.359  23.010  1.00  0.00     0.048 C 
HETATM   29  C8  UNL     1     -10.687 -12.273  22.168  1.00  0.00     0.048 C 
ENDBRANCH  24  25
ENDBRANCH  23  24
ENDBRANCH  21  23
ENDBRANCH   1  21
BRANCH   9  30
HETATM   30  C18 UNL     1     -15.169  -4.958  29.214  1.00  0.00     0.082 C 
HETATM   31  C19 UNL     1     -14.649  -5.311  27.804  1.00  0.00     0.049 C 
HETATM   32  C20 UNL     1     -16.699  -4.850  29.110  1.00  0.00     0.049 C 
BRANCH  30  33
HETATM   33  O2  UNL     1     -14.732  -3.618  29.504  1.00  0.00    -0.388 OA
HETATM   34  H35 UNL     1     -14.913  -3.062  28.725  1.00  0.00     0.210 HD
ENDBRANCH  30  33
ENDBRANCH   9  30
TORSDOF 6
ENDMDL
MODEL 4
REMARK minimizedAffinity -6.14598227
REMARK CNNscore 0.484268963
REMARK CNNaffinity 6.44860983
REMARK  6 active torsions:
REMARK  status: ('A' for Active; 'I' for Inactive)
REMARK    1  A    between atoms: C2_2  and  C3_3 
REMARK    2  A    between atoms: C2_2  and  C9_10 
REMARK    3  A    between atoms: C3_3  and  C4_4 
REMARK    4  A    between atoms: C4_4  and  C5_5 
REMARK    5  A    between atoms: C17_18  and  C18_19 
REMARK    6  A    between atoms: C18_19  and  O2_22 
ROOT
HETATM    1  C9  UNL     1     -15.162   5.648  23.793  1.00  0.00    -0.002 C 
HETATM    2  C10 UNL     1     -16.454   6.303  24.380  1.00  0.00     0.006 C 
HETATM    3  C11 UNL     1     -16.113   7.776  24.701  1.00  0.00     0.011 C 
HETATM    4  C12 UNL     1     -14.577   7.831  24.664  1.00  0.00    -0.032 C 
HETATM    5  C13 UNL     1     -14.105   7.252  26.041  1.00  0.00     0.016 C 
HETATM    6  C14 UNL     1     -13.954   9.233  24.400  1.00  0.00     0.003 C 
HETATM    7  C15 UNL     1     -14.352  10.341  25.392  1.00  0.00     0.009 C 
HETATM    8  C16 UNL     1     -13.371  11.517  25.419  1.00  0.00     0.042 C 
HETATM    9  C17 UNL     1     -12.667  11.893  24.076  1.00  0.00     0.095 C 
HETATM   10  O3  UNL     1     -11.601  12.757  24.531  1.00  0.00    -0.377 OA
HETATM   11  C21 UNL     1     -10.589  13.155  23.621  1.00  0.00     0.169 C 
HETATM   12  C22 UNL     1     -10.187  12.103  22.604  1.00  0.00     0.027 C 
HETATM   13  C23 UNL     1     -10.556  10.712  23.072  1.00  0.00     0.010 C 
HETATM   14  C24 UNL     1     -12.062  10.590  23.406  1.00  0.00     0.032 C 
HETATM   15  C25 UNL     1     -12.406   9.207  24.132  1.00  0.00    -0.033 C 
HETATM   16  C26 UNL     1     -11.586   9.030  25.445  1.00  0.00     0.016 C 
HETATM   17  C27 UNL     1     -12.014   8.029  23.163  1.00  0.00     0.011 C 
HETATM   18  C28 UNL     1     -12.753   6.687  23.358  1.00  0.00     0.011 C 
HETATM   19  C29 UNL     1     -14.279   6.882  23.429  1.00  0.00    -0.032 C 
HETATM   20  C30 UNL     1     -14.746   7.444  22.053  1.00  0.00     0.016 C 
ENDROOT
BRANCH   1  21
HETATM   21  C2  UNL     1     -15.447   4.471  22.812  1.00  0.00    -0.014 C 
HETATM   22  C1  UNL     1     -14.337   4.095  21.824  1.00  0.00     0.010 C 
BRANCH  21  23
HETATM   23  C3  UNL     1     -15.959   3.221  23.562  1.00  0.00     0.007 C 
BRANCH  23  24
HETATM   24  C4  UNL     1     -15.131   2.870  24.805  1.00  0.00     0.035 C 
BRANCH  24  25
HETATM   25  C5  UNL     1     -13.937   2.040  24.436  1.00  0.00     0.156 A 
HETATM   26  O1  UNL     1     -13.840   0.788  25.130  1.00  0.00    -0.370 OA
HETATM   27  C6  UNL     1     -12.794   1.737  25.391  1.00  0.00     0.080 A 
HETATM   28  C7  UNL     1     -11.468   1.342  24.817  1.00  0.00     0.048 C 
HETATM   29  C8  UNL     1     -12.783   2.262  26.792  1.00  0.00     0.048 C 
ENDBRANCH  24  25
ENDBRANCH  23  24
ENDBRANCH  21  23
ENDBRANCH   1  21
BRANCH   9  30
HETATM   30  C18 UNL     1     -13.706  12.698  23.141  1.00  0.00     0.082 C 
HETATM   31  C19 UNL     1     -13.977  11.960  21.812  1.00  0.00     0.049 C 
HETATM   32  C20 UNL     1     -15.078  13.016  23.760  1.00  0.00     0.049 C 
BRANCH  30  33
HETATM   33  O2  UNL     1     -13.156  13.984  22.806  1.00  0.00    -0.388 OA
HETATM   34  H35 UNL     1     -13.694  14.372  22.093  1.00  0.00     0.210 HD
ENDBRANCH  30  33
ENDBRANCH   9  30
TORSDOF 6
ENDMDL
MODEL 5
REMARK minimizedAffinity -7.40121841
REMARK CNNscore 0.418854088
REMARK CNNaffinity 6.79676628
REMARK  6 active torsions:
REMARK  status: ('A' for Active; 'I' for Inactive)
REMARK    1  A    between atoms: C2_2  and  C3_3 
REMARK    2  A    between atoms: C2_2  and  C9_10 
REMARK    3  A    between atoms: C3_3  and  C4_4 
REMARK    4  A    between atoms: C4_4  and  C5_5 
REMARK    5  A    between atoms: C17_18  and  C18_19 
REMARK    6  A    between atoms: C18_19  and  O2_22 
ROOT
HETATM    1  C9  UNL     1      -2.309   6.903  13.320  1.00  0.00    -0.002 C 
HETATM    2  C10 UNL     1      -3.748   7.373  12.928  1.00  0.00     0.006 C 
HETATM    3  C11 UNL     1      -3.965   8.762  13.570  1.00  0.00     0.011 C 
HETATM    4  C12 UNL     1      -2.838   8.884  14.609  1.00  0.00    -0.032 C 
HETATM    5  C13 UNL     1      -3.320   8.056  15.848  1.00  0.00     0.016 C 
HETATM    6  C14 UNL     1      -2.447  10.335  15.019  1.00  0.00     0.003 C 
HETATM    7  C15 UNL     1      -3.586  11.201  15.586  1.00  0.00     0.009 C 
HETATM    8  C16 UNL     1      -3.093  12.384  16.423  1.00  0.00     0.042 C 
HETATM    9  C17 UNL     1      -1.748  13.054  15.995  1.00  0.00     0.095 C 
HETATM   10  O3  UNL     1      -1.427  13.849  17.159  1.00  0.00    -0.377 OA
HETATM   11  C21 UNL     1      -0.153  14.464  17.253  1.00  0.00     0.169 C 
HETATM   12  C22 UNL     1       0.996  13.658  16.677  1.00  0.00     0.027 C 
HETATM   13  C23 UNL     1       0.651  12.188  16.589  1.00  0.00     0.010 C 
HETATM   14  C24 UNL     1      -0.642  11.940  15.775  1.00  0.00     0.032 C 
HETATM   15  C25 UNL     1      -1.144  10.425  15.890  1.00  0.00    -0.033 C 
HETATM   16  C26 UNL     1      -1.399  10.017  17.372  1.00  0.00     0.016 C 
HETATM   17  C27 UNL     1      -0.013   9.487  15.326  1.00  0.00     0.011 C 
HETATM   18  C28 UNL     1      -0.451   8.104  14.794  1.00  0.00     0.011 C 
HETATM   19  C29 UNL     1      -1.635   8.220  13.817  1.00  0.00    -0.032 C 
HETATM   20  C30 UNL     1      -1.148   9.031  12.579  1.00  0.00     0.016 C 
ENDROOT
BRANCH   1  21
HETATM   21  C2  UNL     1      -1.661   5.940  12.280  1.00  0.00    -0.014 C 
HETATM   22  C1  UNL     1      -0.141   6.030  12.090  1.00  0.00     0.010 C 
BRANCH  21  23
HETATM   23  C3  UNL     1      -2.097   4.477  12.515  1.00  0.00     0.007 C 
BRANCH  23  24
HETATM   24  C4  UNL     1      -3.618   4.297  12.609  1.00  0.00     0.035 C 
BRANCH  24  25
HETATM   25  C5  UNL     1      -4.065   3.103  11.819  1.00  0.00     0.156 A 
HETATM   26  O1  UNL     1      -4.862   3.411  10.667  1.00  0.00    -0.370 OA
HETATM   27  C6  UNL     1      -5.516   2.665  11.706  1.00  0.00     0.080 A 
HETATM   28  C7  UNL     1      -5.806   1.244  11.331  1.00  0.00     0.048 C 
HETATM   29  C8  UNL     1      -6.617   3.410  12.392  1.00  0.00     0.048 C 
ENDBRANCH  24  25
ENDBRANCH  23  24
ENDBRANCH  21  23
ENDBRANCH   1  21
BRANCH   9  30
HETATM   30  C18 UNL     1      -2.010  13.991  14.707  1.00  0.00     0.082 C 
HETATM   31  C19 UNL     1      -3.515  14.263  14.489  1.00  0.00     0.049 C 
HETATM   32  C20 UNL     1      -1.307  15.358  14.703  1.00  0.00     0.049 C 
BRANCH  30  33
HETATM   33  O2  UNL     1      -1.523  13.331  13.526  1.00  0.00    -0.388 OA
HETATM   34  H35 UNL     1      -1.861  13.809  12.747  1.00  0.00     0.210 HD
ENDBRANCH  30  33
ENDBRANCH   9  30
TORSDOF 6
ENDMDL
MODEL 6
REMARK minimizedAffinity -6.43797112
REMARK CNNscore 0.410468161
REMARK CNNaffinity 5.98251343
REMARK  6 active torsions:
REMARK  status: ('A' for Active; 'I' for Inactive)
REMARK    1  A    between atoms: C2_2  and  C3_3 
REMARK    2  A    between atoms: C2_2  and  C9_10 
REMARK    3  A    between atoms: C3_3  and  C4_4 
REMARK    4  A    between atoms: C4_4  and  C5_5 
REMARK    5  A    between atoms: C17_18  and  C18_19 
REMARK    6  A    between atoms: C18_19  and  O2_22 
ROOT
HETATM    1  C9  UNL     1     -17.393   2.487  14.844  1.00  0.00    -0.002 C 
HETATM    2  C10 UNL     1     -17.611   1.950  16.295  1.00  0.00     0.006 C 
HETATM    3  C11 UNL     1     -17.322   0.432  16.269  1.00  0.00     0.011 C 
HETATM    4  C12 UNL     1     -17.330   0.067  14.775  1.00  0.00    -0.032 C 
HETATM    5  C13 UNL     1     -18.842  -0.049  14.381  1.00  0.00     0.016 C 
HETATM    6  C14 UNL     1     -16.547  -1.222  14.388  1.00  0.00     0.003 C 
HETATM    7  C15 UNL     1     -16.989  -2.514  15.099  1.00  0.00     0.009 C 
HETATM    8  C16 UNL     1     -16.578  -3.789  14.358  1.00  0.00     0.042 C 
HETATM    9  C17 UNL     1     -15.228  -3.758  13.572  1.00  0.00     0.095 C 
HETATM   10  O3  UNL     1     -15.339  -4.938  12.744  1.00  0.00    -0.377 OA
HETATM   11  C21 UNL     1     -14.388  -5.161  11.716  1.00  0.00     0.169 C 
HETATM   12  C22 UNL     1     -13.901  -3.910  11.008  1.00  0.00     0.027 C 
HETATM   13  C23 UNL     1     -14.875  -2.765  11.175  1.00  0.00     0.010 C 
HETATM   14  C24 UNL     1     -15.168  -2.461  12.664  1.00  0.00     0.032 C 
HETATM   15  C25 UNL     1     -16.377  -1.428  12.840  1.00  0.00    -0.033 C 
HETATM   16  C26 UNL     1     -17.682  -1.953  12.171  1.00  0.00     0.016 C 
HETATM   17  C27 UNL     1     -15.984  -0.081  12.125  1.00  0.00     0.011 C 
HETATM   18  C28 UNL     1     -16.675   1.206  12.627  1.00  0.00     0.011 C 
HETATM   19  C29 UNL     1     -16.598   1.332  14.160  1.00  0.00    -0.032 C 
HETATM   20  C30 UNL     1     -15.094   1.461  14.547  1.00  0.00     0.016 C 
ENDROOT
BRANCH   1  21
HETATM   21  C2  UNL     1     -16.961   3.984  14.788  1.00  0.00    -0.014 C 
HETATM   22  C1  UNL     1     -15.458   4.284  14.850  1.00  0.00     0.010 C 
BRANCH  21  23
HETATM   23  C3  UNL     1     -17.617   4.718  13.598  1.00  0.00     0.007 C 
BRANCH  23  24
HETATM   24  C4  UNL     1     -17.832   6.217  13.845  1.00  0.00     0.035 C 
BRANCH  24  25
HETATM   25  C5  UNL     1     -17.535   7.011  12.608  1.00  0.00     0.156 A 
HETATM   26  O1  UNL     1     -16.412   6.540  11.849  1.00  0.00    -0.370 OA
HETATM   27  C6  UNL     1     -16.280   7.849  12.426  1.00  0.00     0.080 A 
HETATM   28  C7  UNL     1     -16.298   8.955  11.416  1.00  0.00     0.048 C 
HETATM   29  C8  UNL     1     -15.237   7.941  13.495  1.00  0.00     0.048 C 
ENDBRANCH  24  25
ENDBRANCH  23  24
ENDBRANCH  21  23
ENDBRANCH   1  21
BRANCH   9  30
HETATM   30  C18 UNL     1     -14.005  -3.894  14.616  1.00  0.00     0.082 C 
HETATM   31  C19 UNL     1     -14.042  -5.239  15.374  1.00  0.00     0.049 C 
HETATM   32  C20 UNL     1     -12.590  -3.752  14.031  1.00  0.00     0.049 C 
BRANCH  30  33
HETATM   33  O2  UNL     1     -14.095  -2.850  15.601  1.00  0.00    -0.388 OA
HETATM   34  H35 UNL     1     -13.479  -3.059  16.326  1.00  0.00     0.210 HD
ENDBRANCH  30  33
ENDBRANCH   9  30
TORSDOF 6
ENDMDL
MODEL 7
REMARK minimizedAffinity -6.58263397
REMARK CNNscore 0.388547242
REMARK CNNaffinity 5.32271767
REMARK  6 active torsions:
REMARK  status: ('A' for Active; 'I' for Inactive)
REMARK    1  A    between atoms: C2_2  and  C3_3 
REMARK    2  A    between atoms: C2_2  and  C9_10 
REMARK    3  A    between atoms: C3_3  and  C4_4 
REMARK    4  A    between atoms: C4_4  and  C5_5 
REMARK    5  A    between atoms: C17_18  and  C18_19 
REMARK    6  A    between atoms: C18_19  and  O2_22 
ROOT
HETATM    1  C9  UNL     1      -6.535  -9.917   9.914  1.00  0.00    -0.002 C 
HETATM    2  C10 UNL     1      -7.477  -9.229   8.873  1.00  0.00     0.006 C 
HETATM    3  C11 UNL     1      -8.863  -9.081   9.539  1.00  0.00     0.011 C 
HETATM    4  C12 UNL     1      -8.802 -10.011  10.762  1.00  0.00    -0.032 C 
HETATM    5  C13 UNL     1      -9.046 -11.454  10.202  1.00  0.00     0.016 C 
HETATM    6  C14 UNL     1      -9.794  -9.681  11.917  1.00  0.00     0.003 C 
HETATM    7  C15 UNL     1     -11.284  -9.652  11.533  1.00  0.00     0.009 C 
HETATM    8  C16 UNL     1     -12.225  -9.831  12.727  1.00  0.00     0.042 C 
HETATM    9  C17 UNL     1     -11.765  -9.239  14.097  1.00  0.00     0.095 C 
HETATM   10  O3  UNL     1     -12.675  -9.880  15.019  1.00  0.00    -0.377 OA
HETATM   11  C21 UNL     1     -12.452  -9.761  16.415  1.00  0.00     0.169 C 
HETATM   12  C22 UNL     1     -10.994  -9.754  16.836  1.00  0.00     0.027 C 
HETATM   13  C23 UNL     1     -10.110 -10.376  15.778  1.00  0.00     0.010 C 
HETATM   14  C24 UNL     1     -10.276  -9.689  14.401  1.00  0.00     0.032 C 
HETATM   15  C25 UNL     1      -9.537 -10.496  13.234  1.00  0.00    -0.033 C 
HETATM   16  C26 UNL     1     -10.061 -11.960  13.130  1.00  0.00     0.016 C 
HETATM   17  C27 UNL     1      -8.002 -10.563  13.575  1.00  0.00     0.011 C 
HETATM   18  C28 UNL     1      -7.029 -10.751  12.390  1.00  0.00     0.011 C 
HETATM   19  C29 UNL     1      -7.317  -9.752  11.254  1.00  0.00    -0.032 C 
HETATM   20  C30 UNL     1      -7.060  -8.319  11.810  1.00  0.00     0.016 C 
ENDROOT
BRANCH   1  21
HETATM   21  C2  UNL     1      -5.032  -9.546   9.739  1.00  0.00    -0.014 C 
HETATM   22  C1  UNL     1      -4.141  -9.615  10.986  1.00  0.00     0.010 C 
BRANCH  21  23
HETATM   23  C3  UNL     1      -4.391 -10.318   8.565  1.00  0.00     0.007 C 
BRANCH  23  24
HETATM   24  C4  UNL     1      -3.709  -9.411   7.533  1.00  0.00     0.035 C 
BRANCH  24  25
HETATM   25  C5  UNL     1      -2.953 -10.223   6.523  1.00  0.00     0.156 A 
HETATM   26  O1  UNL     1      -2.617  -9.519   5.319  1.00  0.00    -0.370 OA
HETATM   27  C6  UNL     1      -3.521 -10.626   5.171  1.00  0.00     0.080 A 
HETATM   28  C7  UNL     1      -2.920 -11.802   4.465  1.00  0.00     0.048 C 
HETATM   29  C8  UNL     1      -4.903 -10.233   4.752  1.00  0.00     0.048 C 
ENDBRANCH  24  25
ENDBRANCH  23  24
ENDBRANCH  21  23
ENDBRANCH   1  21
BRANCH   9  30
HETATM   30  C18 UNL     1     -11.984  -7.640  14.082  1.00  0.00     0.082 C 
HETATM   31  C19 UNL     1     -13.201  -7.234  13.223  1.00  0.00     0.049 C 
HETATM   32  C20 UNL     1     -12.161  -6.963  15.452  1.00  0.00     0.049 C 
BRANCH  30  33
HETATM   33  O2  UNL     1     -10.829  -7.001  13.512  1.00  0.00    -0.388 OA
HETATM   34  H35 UNL     1     -11.052  -6.071  13.328  1.00  0.00     0.210 HD
ENDBRANCH  30  33
ENDBRANCH   9  30
TORSDOF 6
ENDMDL
MODEL 8
REMARK minimizedAffinity -7.70365381
REMARK CNNscore 0.378629804
REMARK CNNaffinity 6.68539667
REMARK  6 active torsions:
REMARK  status: ('A' for Active; 'I' for Inactive)
REMARK    1  A    between atoms: C2_2  and  C3_3 
REMARK    2  A    between atoms: C2_2  and  C9_10 
REMARK    3  A    between atoms: C3_3  and  C4_4 
REMARK    4  A    between atoms: C4_4  and  C5_5 
REMARK    5  A    between atoms: C17_18  and  C18_19 
REMARK    6  A    between atoms: C18_19  and  O2_22 
ROOT
HETATM    1  C9  UNL     1      -6.509   6.803  14.701  1.00  0.00    -0.002 C 
HETATM    2  C10 UNL     1      -6.229   8.091  15.540  1.00  0.00     0.006 C 
HETATM    3  C11 UNL     1      -4.705   8.348  15.488  1.00  0.00     0.011 C 
HETATM    4  C12 UNL     1      -4.113   7.027  14.970  1.00  0.00    -0.032 C 
HETATM    5  C13 UNL     1      -4.073   6.071  16.210  1.00  0.00     0.016 C 
HETATM    6  C14 UNL     1      -2.713   7.130  14.295  1.00  0.00     0.003 C 
HETATM    7  C15 UNL     1      -1.594   7.737  15.160  1.00  0.00     0.009 C 
HETATM    8  C16 UNL     1      -0.187   7.367  14.685  1.00  0.00     0.042 C 
HETATM    9  C17 UNL     1       0.028   7.195  13.147  1.00  0.00     0.095 C 
HETATM   10  O3  UNL     1       1.309   6.525  13.099  1.00  0.00    -0.377 OA
HETATM   11  C21 UNL     1       1.775   5.999  11.867  1.00  0.00     0.169 C 
HETATM   12  C22 UNL     1       0.700   5.417  10.968  1.00  0.00     0.027 C 
HETATM   13  C23 UNL     1      -0.541   5.052  11.753  1.00  0.00     0.010 C 
HETATM   14  C24 UNL     1      -1.100   6.254  12.552  1.00  0.00     0.032 C 
HETATM   15  C25 UNL     1      -2.252   5.815  13.570  1.00  0.00    -0.033 C 
HETATM   16  C26 UNL     1      -1.748   4.736  14.576  1.00  0.00     0.016 C 
HETATM   17  C27 UNL     1      -3.429   5.178  12.739  1.00  0.00     0.011 C 
HETATM   18  C28 UNL     1      -4.836   5.217  13.376  1.00  0.00     0.011 C 
HETATM   19  C29 UNL     1      -5.193   6.627  13.881  1.00  0.00    -0.032 C 
HETATM   20  C30 UNL     1      -5.245   7.572  12.643  1.00  0.00     0.016 C 
ENDROOT
BRANCH   1  21
HETATM   21  C2  UNL     1      -7.933   6.765  14.069  1.00  0.00    -0.014 C 
HETATM   22  C1  UNL     1      -8.305   5.523  13.249  1.00  0.00     0.010 C 
BRANCH  21  23
HETATM   23  C3  UNL     1      -9.025   7.078  15.116  1.00  0.00     0.007 C 
BRANCH  23  24
HETATM   24  C4  UNL     1     -10.085   8.070  14.619  1.00  0.00     0.035 C 
BRANCH  24  25
HETATM   25  C5  UNL     1     -11.261   7.347  14.031  1.00  0.00     0.156 A 
HETATM   26  O1  UNL     1     -11.229   7.214  12.603  1.00  0.00    -0.370 OA
HETATM   27  C6  UNL     1     -12.297   8.011  13.139  1.00  0.00     0.080 A 
HETATM   28  C7  UNL     1     -13.645   7.371  13.011  1.00  0.00     0.048 C 
HETATM   29  C8  UNL     1     -12.212   9.462  12.784  1.00  0.00     0.048 C 
ENDBRANCH  24  25
ENDBRANCH  23  24
ENDBRANCH  21  23
ENDBRANCH   1  21
BRANCH   9  30
HETATM   30  C18 UNL     1       0.109   8.651  12.458  1.00  0.00     0.082 C 
HETATM   31  C19 UNL     1       1.498   8.919  11.838  1.00  0.00     0.049 C 
HETATM   32  C20 UNL     1      -0.930   8.947  11.364  1.00  0.00     0.049 C 
BRANCH  30  33
HETATM   33  O2  UNL     1      -0.115   9.667  13.451  1.00  0.00    -0.388 OA
HETATM   34  H35 UNL     1       0.130  10.529  13.069  1.00  0.00     0.210 HD
ENDBRANCH  30  33
ENDBRANCH   9  30
TORSDOF 6
ENDMDL
MODEL 9
REMARK minimizedAffinity -5.66342354
REMARK CNNscore 0.368217409
REMARK CNNaffinity 6.32998848
REMARK  6 active torsions:
REMARK  status: ('A' for Active; 'I' for Inactive)
REMARK    1  A    between atoms: C2_2  and  C3_3 
REMARK    2  A    between atoms: C2_2  and  C9_10 
REMARK    3  A    between atoms: C3_3  and  C4_4 
REMARK    4  A    between atoms: C4_4  and  C5_5 
REMARK    5  A    between atoms: C17_18  and  C18_19 
REMARK    6  A    between atoms: C18_19  and  O2_22 
ROOT
HETATM    1  C9  UNL     1     -11.496   9.330  16.099  1.00  0.00    -0.002 C 
HETATM    2  C10 UNL     1     -10.799   9.512  14.712  1.00  0.00     0.006 C 
HETATM    3  C11 UNL     1     -11.804   9.050  13.632  1.00  0.00     0.011 C 
HETATM    4  C12 UNL     1     -12.872   8.266  14.414  1.00  0.00    -0.032 C 
HETATM    5  C13 UNL     1     -12.249   6.852  14.670  1.00  0.00     0.016 C 
HETATM    6  C14 UNL     1     -14.266   8.151  13.728  1.00  0.00     0.003 C 
HETATM    7  C15 UNL     1     -14.273   7.514  12.327  1.00  0.00     0.009 C 
HETATM    8  C16 UNL     1     -15.641   6.964  11.915  1.00  0.00     0.042 C 
HETATM    9  C17 UNL     1     -16.904   7.726  12.427  1.00  0.00     0.095 C 
HETATM   10  O3  UNL     1     -17.956   6.770  12.166  1.00  0.00    -0.377 OA
HETATM   11  C21 UNL     1     -19.256   7.003  12.684  1.00  0.00     0.169 C 
HETATM   12  C22 UNL     1     -19.296   7.660  14.051  1.00  0.00     0.027 C 
HETATM   13  C23 UNL     1     -17.993   7.468  14.795  1.00  0.00     0.010 C 
HETATM   14  C24 UNL     1     -16.778   7.983  13.987  1.00  0.00     0.032 C 
HETATM   15  C25 UNL     1     -15.388   7.559  14.654  1.00  0.00    -0.033 C 
HETATM   16  C26 UNL     1     -15.271   6.012  14.801  1.00  0.00     0.016 C 
HETATM   17  C27 UNL     1     -15.324   8.181  16.099  1.00  0.00     0.011 C 
HETATM   18  C28 UNL     1     -13.919   8.415  16.699  1.00  0.00     0.011 C 
HETATM   19  C29 UNL     1     -12.999   9.162  15.716  1.00  0.00    -0.032 C 
HETATM   20  C30 UNL     1     -13.614  10.573  15.474  1.00  0.00     0.016 C 
ENDROOT
BRANCH   1  21
HETATM   21  C2  UNL     1     -10.987  10.321  17.190  1.00  0.00    -0.014 C 
HETATM   22  C1  UNL     1     -11.251  11.814  16.959  1.00  0.00     0.010 C 
BRANCH  21  23
HETATM   23  C3  UNL     1     -11.449   9.895  18.601  1.00  0.00     0.007 C 
BRANCH  23  24
HETATM   24  C4  UNL     1     -11.557  11.062  19.590  1.00  0.00     0.035 C 
BRANCH  24  25
HETATM   25  C5  UNL     1     -10.814  10.760  20.858  1.00  0.00     0.156 A 
HETATM   26  O1  UNL     1     -10.961   9.413  21.331  1.00  0.00    -0.370 OA
HETATM   27  C6  UNL     1     -11.497  10.442  22.178  1.00  0.00     0.080 A 
HETATM   28  C7  UNL     1     -10.725  10.637  23.447  1.00  0.00     0.048 C 
HETATM   29  C8  UNL     1     -12.988  10.414  22.303  1.00  0.00     0.048 C 
ENDBRANCH  24  25
ENDBRANCH  23  24
ENDBRANCH  21  23
ENDBRANCH   1  21
BRANCH   9  30
HETATM   30  C18 UNL     1     -17.106   9.065  11.550  1.00  0.00     0.082 C 
HETATM   31  C19 UNL     1     -18.451   9.058  10.790  1.00  0.00     0.049 C 
HETATM   32  C20 UNL     1     -17.034  10.399  12.312  1.00  0.00     0.049 C 
BRANCH  30  33
HETATM   33  O2  UNL     1     -16.063   9.156  10.564  1.00  0.00    -0.388 OA
HETATM   34  H35 UNL     1     -16.305   9.849   9.924  1.00  0.00     0.210 HD
ENDBRANCH  30  33
ENDBRANCH   9  30
TORSDOF 6
ENDMDL
