MODEL 1
REMARK minimizedAffinity -9.61743832
REMARK CNNscore 0.511928618
REMARK CNNaffinity 6.83566523
REMARK  15 active torsions:
REMARK  status: ('A' for Active; 'I' for Inactive)
REMARK    1  A    between atoms: C2_2  and  C26_34 
REMARK    2  A    between atoms: C3_3  and  C4_4 
REMARK    3  A    between atoms: C5_5  and  C6_6 
REMARK    4  A    between atoms: C6_6  and  C7_7 
REMARK    5  A    between atoms: C7_7  and  O1_8 
REMARK    6  A    between atoms: C7_7  and  C8_9 
REMARK    7  A    between atoms: C8_9  and  C9_10 
REMARK    8  A    between atoms: C14_16  and  O3_17 
REMARK    9  A    between atoms: C22_28  and  O7_29 
REMARK   10  A    between atoms: C23_30  and  O8_31 
REMARK   11  A    between atoms: C26_34  and  C27_35 
REMARK   12  A    between atoms: C28_36  and  C29_37 
REMARK   13  A    between atoms: C30_38  and  C31_39 
REMARK   14  A    between atoms: C31_39  and  C32_40 
REMARK   15  A    between atoms: C32_40  and  O9_41 
ROOT
HETATM    1  C9  UNL     1      -0.964  50.387 -19.793  1.00  0.00     0.134 C 
HETATM    2  C10 UNL     1       0.211  50.869 -20.660  1.00  0.00     0.033 C 
HETATM    3  C11 UNL     1      -0.117  50.974 -22.156  1.00  0.00     0.005 C 
HETATM    4  C12 UNL     1      -1.134  52.075 -22.489  1.00  0.00     0.032 C 
HETATM    5  C13 UNL     1      -1.658  52.048 -23.940  1.00  0.00     0.131 C 
HETATM    6  O2  UNL     1      -2.460  50.872 -24.091  1.00  0.00    -0.347 OA
HETATM    7  C14 UNL     1      -3.266  50.847 -25.265  1.00  0.00     0.191 C 
HETATM    8  C15 UNL     1      -3.446  49.351 -25.637  1.00  0.00     0.074 C 
HETATM    9  C16 UNL     1      -4.408  48.496 -24.785  1.00  0.00     0.037 C 
HETATM   10  C17 UNL     1      -4.191  48.537 -23.275  1.00  0.00     0.122 C 
HETATM   11  C18 UNL     1      -5.136  47.610 -22.521  1.00  0.00     0.035 C 
HETATM   12  C19 UNL     1      -4.341  47.175 -21.302  1.00  0.00     0.045 C 
HETATM   13  C20 UNL     1      -2.951  47.760 -21.519  1.00  0.00     0.221 C 
HETATM   14  O4  UNL     1      -2.881  48.082 -22.918  1.00  0.00    -0.371 OA
HETATM   15  C21 UNL     1      -2.723  48.997 -20.638  1.00  0.00     0.288 C 
HETATM   16  O5  UNL     1      -3.607  49.756 -20.264  1.00  0.00    -0.262 OA
HETATM   17  O6  UNL     1      -1.398  49.126 -20.350  1.00  0.00    -0.314 OA
HETATM   18  C22 UNL     1      -2.642  51.664 -26.447  1.00  0.00     0.209 C 
HETATM   19  C23 UNL     1      -1.113  51.650 -26.410  1.00  0.00     0.158 C 
HETATM   20  C24 UNL     1      -0.551  52.046 -25.021  1.00  0.00     0.042 C 
HETATM   21  C25 UNL     1       0.154  53.406 -25.073  1.00  0.00     0.015 C 
ENDROOT
BRANCH   1  22
HETATM   22  C8  UNL     1      -0.504  50.171 -18.340  1.00  0.00     0.064 C 
BRANCH  22  23
HETATM   23  C7  UNL     1      -0.235  51.502 -17.630  1.00  0.00     0.124 C 
BRANCH  23  24
HETATM   24  C6  UNL     1       0.874  51.418 -16.562  1.00  0.00     0.059 C 
BRANCH  24  25
HETATM   25  C5  UNL     1       1.815  52.596 -16.545  1.00  0.00    -0.024 C 
HETATM   26  C4  UNL     1       3.062  52.660 -16.052  1.00  0.00    -0.004 C 
BRANCH  26  27
HETATM   27  C3  UNL     1       3.812  51.577 -15.456  1.00  0.00     0.002 C 
HETATM   28  C2  UNL     1       3.597  51.020 -14.246  1.00  0.00    -0.080 C 
HETATM   29  C1  UNL     1       4.474  49.888 -13.767  1.00  0.00     0.043 C 
BRANCH  28  30
HETATM   30  C26 UNL     1       2.524  51.435 -13.256  1.00  0.00     0.060 C 
BRANCH  30  31
HETATM   31  C27 UNL     1       3.001  51.266 -11.839  1.00  0.00    -0.022 C 
HETATM   32  C28 UNL     1       3.278  52.213 -10.929  1.00  0.00    -0.004 C 
BRANCH  32  33
HETATM   33  C29 UNL     1       3.125  53.637 -11.117  1.00  0.00    -0.004 C 
HETATM   34  C30 UNL     1       3.754  54.605 -10.432  1.00  0.00    -0.025 C 
BRANCH  34  35
HETATM   35  C31 UNL     1       4.798  54.469  -9.354  1.00  0.00     0.053 C 
BRANCH  35  36
HETATM   36  C32 UNL     1       6.146  55.062  -9.780  1.00  0.00     0.168 C 
BRANCH  36  37
HETATM   37  O9  UNL     1       7.247  54.325  -9.258  1.00  0.00    -0.401 OA
HETATM   38  H50 UNL     1       7.027  54.068  -8.346  1.00  0.00     0.209 HD
ENDBRANCH  36  37
ENDBRANCH  35  36
ENDBRANCH  34  35
ENDBRANCH  32  33
ENDBRANCH  30  31
ENDBRANCH  28  30
ENDBRANCH  26  27
ENDBRANCH  24  25
ENDBRANCH  23  24
BRANCH  23  39
HETATM   39  O1  UNL     1       0.103  52.477 -18.618  1.00  0.00    -0.395 OA
HETATM   40  H10 UNL     1       0.322  53.304 -18.155  1.00  0.00     0.210 HD
ENDBRANCH  23  39
ENDBRANCH  22  23
ENDBRANCH   1  22
BRANCH   7  41
HETATM   41  O3  UNL     1      -4.525  51.473 -24.979  1.00  0.00    -0.363 OA
HETATM   42  H21 UNL     1      -5.226  50.812 -25.097  1.00  0.00     0.213 HD
ENDBRANCH   7  41
BRANCH  19  43
HETATM   43  O8  UNL     1      -0.612  50.364 -26.810  1.00  0.00    -0.392 OA
HETATM   44  H35 UNL     1      -0.541  49.796 -26.018  1.00  0.00     0.210 HD
ENDBRANCH  19  43
BRANCH  18  45
HETATM   45  O7  UNL     1      -3.076  53.043 -26.378  1.00  0.00    -0.387 OA
HETATM   46  H33 UNL     1      -3.914  53.014 -25.866  1.00  0.00     0.210 HD
ENDBRANCH  18  45
TORSDOF 15
ENDMDL
MODEL 2
REMARK minimizedAffinity -7.42038059
REMARK CNNscore 0.432144523
REMARK CNNaffinity 5.64707327
REMARK  15 active torsions:
REMARK  status: ('A' for Active; 'I' for Inactive)
REMARK    1  A    between atoms: C2_2  and  C26_34 
REMARK    2  A    between atoms: C3_3  and  C4_4 
REMARK    3  A    between atoms: C5_5  and  C6_6 
REMARK    4  A    between atoms: C6_6  and  C7_7 
REMARK    5  A    between atoms: C7_7  and  O1_8 
REMARK    6  A    between atoms: C7_7  and  C8_9 
REMARK    7  A    between atoms: C8_9  and  C9_10 
REMARK    8  A    between atoms: C14_16  and  O3_17 
REMARK    9  A    between atoms: C22_28  and  O7_29 
REMARK   10  A    between atoms: C23_30  and  O8_31 
REMARK   11  A    between atoms: C26_34  and  C27_35 
REMARK   12  A    between atoms: C28_36  and  C29_37 
REMARK   13  A    between atoms: C30_38  and  C31_39 
REMARK   14  A    between atoms: C31_39  and  C32_40 
REMARK   15  A    between atoms: C32_40  and  O9_41 
ROOT
HETATM    1  C9  UNL     1      -9.481  46.157 -24.819  1.00  0.00     0.134 C 
HETATM    2  C10 UNL     1     -10.308  46.778 -23.680  1.00  0.00     0.033 C 
HETATM    3  C11 UNL     1     -11.825  46.604 -23.840  1.00  0.00     0.005 C 
HETATM    4  C12 UNL     1     -12.294  45.149 -23.716  1.00  0.00     0.032 C 
HETATM    5  C13 UNL     1     -13.769  44.914 -24.105  1.00  0.00     0.131 C 
HETATM    6  O2  UNL     1     -13.885  45.126 -25.517  1.00  0.00    -0.347 OA
HETATM    7  C14 UNL     1     -15.101  44.657 -26.091  1.00  0.00     0.191 C 
HETATM    8  C15 UNL     1     -15.378  45.562 -27.322  1.00  0.00     0.074 C 
HETATM    9  C16 UNL     1     -14.527  45.348 -28.592  1.00  0.00     0.037 C 
HETATM   10  C17 UNL     1     -13.014  45.340 -28.399  1.00  0.00     0.122 C 
HETATM   11  C18 UNL     1     -12.254  45.197 -29.713  1.00  0.00     0.035 C 
HETATM   12  C19 UNL     1     -10.962  45.961 -29.484  1.00  0.00     0.045 C 
HETATM   13  C20 UNL     1     -11.135  46.613 -28.118  1.00  0.00     0.221 C 
HETATM   14  O4  UNL     1     -12.546  46.578 -27.849  1.00  0.00    -0.371 OA
HETATM   15  C21 UNL     1     -10.331  45.870 -27.041  1.00  0.00     0.288 C 
HETATM   16  O5  UNL     1     -10.066  44.676 -27.071  1.00  0.00    -0.262 OA
HETATM   17  O6  UNL     1      -9.973  46.733 -26.049  1.00  0.00    -0.314 OA
HETATM   18  C22 UNL     1     -16.298  44.678 -25.081  1.00  0.00     0.209 C 
HETATM   19  C23 UNL     1     -16.168  45.809 -24.060  1.00  0.00     0.158 C 
HETATM   20  C24 UNL     1     -14.779  45.830 -23.374  1.00  0.00     0.042 C 
HETATM   21  C25 UNL     1     -14.884  45.443 -21.894  1.00  0.00     0.015 C 
ENDROOT
BRANCH   1  22
HETATM   22  C8  UNL     1      -7.992  46.506 -24.652  1.00  0.00     0.064 C 
BRANCH  22  23
HETATM   23  C7  UNL     1      -7.775  48.019 -24.549  1.00  0.00     0.124 C 
BRANCH  23  24
HETATM   24  C6  UNL     1      -6.379  48.408 -24.022  1.00  0.00     0.059 C 
BRANCH  24  25
HETATM   25  C5  UNL     1      -5.293  48.403 -25.068  1.00  0.00    -0.024 C 
HETATM   26  C4  UNL     1      -3.964  48.464 -24.890  1.00  0.00    -0.004 C 
BRANCH  26  27
HETATM   27  C3  UNL     1      -3.262  48.504 -23.627  1.00  0.00     0.002 C 
HETATM   28  C2  UNL     1      -2.327  49.402 -23.253  1.00  0.00    -0.080 C 
HETATM   29  C1  UNL     1      -1.687  49.305 -21.889  1.00  0.00     0.043 C 
BRANCH  28  30
HETATM   30  C26 UNL     1      -1.813  50.551 -24.100  1.00  0.00     0.060 C 
BRANCH  30  31
HETATM   31  C27 UNL     1      -1.567  51.775 -23.259  1.00  0.00    -0.022 C 
HETATM   32  C28 UNL     1      -0.470  52.546 -23.201  1.00  0.00    -0.004 C 
BRANCH  32  33
HETATM   33  C29 UNL     1       0.723  52.379 -23.996  1.00  0.00    -0.004 C 
HETATM   34  C30 UNL     1       0.923  52.836 -25.243  1.00  0.00    -0.025 C 
BRANCH  34  35
HETATM   35  C31 UNL     1       0.004  53.668 -26.098  1.00  0.00     0.053 C 
BRANCH  35  36
HETATM   36  C32 UNL     1      -0.920  52.802 -26.963  1.00  0.00     0.168 C 
BRANCH  36  37
HETATM   37  O9  UNL     1      -1.176  53.391 -28.234  1.00  0.00    -0.401 OA
HETATM   38  H50 UNL     1      -1.291  54.347 -28.101  1.00  0.00     0.209 HD
ENDBRANCH  36  37
ENDBRANCH  35  36
ENDBRANCH  34  35
ENDBRANCH  32  33
ENDBRANCH  30  31
ENDBRANCH  28  30
ENDBRANCH  26  27
ENDBRANCH  24  25
ENDBRANCH  23  24
BRANCH  23  39
HETATM   39  O1  UNL     1      -7.994  48.593 -25.839  1.00  0.00    -0.395 OA
HETATM   40  H10 UNL     1      -7.804  49.544 -25.776  1.00  0.00     0.210 HD
ENDBRANCH  23  39
ENDBRANCH  22  23
ENDBRANCH   1  22
BRANCH   7  41
HETATM   41  O3  UNL     1     -14.936  43.284 -26.474  1.00  0.00    -0.363 OA
HETATM   42  H21 UNL     1     -15.050  43.221 -27.436  1.00  0.00     0.213 HD
ENDBRANCH   7  41
BRANCH  19  43
HETATM   43  O8  UNL     1     -16.445  47.077 -24.677  1.00  0.00    -0.392 OA
HETATM   44  H35 UNL     1     -15.612  47.437 -25.040  1.00  0.00     0.210 HD
ENDBRANCH  19  43
BRANCH  18  45
HETATM   45  O7  UNL     1     -16.353  43.427 -24.354  1.00  0.00    -0.387 OA
HETATM   46  H33 UNL     1     -15.891  42.783 -24.934  1.00  0.00     0.210 HD
ENDBRANCH  18  45
TORSDOF 15
ENDMDL
MODEL 3
REMARK minimizedAffinity -9.39421177
REMARK CNNscore 0.395757109
REMARK CNNaffinity 6.53020811
REMARK  15 active torsions:
REMARK  status: ('A' for Active; 'I' for Inactive)
REMARK    1  A    between atoms: C2_2  and  C26_34 
REMARK    2  A    between atoms: C3_3  and  C4_4 
REMARK    3  A    between atoms: C5_5  and  C6_6 
REMARK    4  A    between atoms: C6_6  and  C7_7 
REMARK    5  A    between atoms: C7_7  and  O1_8 
REMARK    6  A    between atoms: C7_7  and  C8_9 
REMARK    7  A    between atoms: C8_9  and  C9_10 
REMARK    8  A    between atoms: C14_16  and  O3_17 
REMARK    9  A    between atoms: C22_28  and  O7_29 
REMARK   10  A    between atoms: C23_30  and  O8_31 
REMARK   11  A    between atoms: C26_34  and  C27_35 
REMARK   12  A    between atoms: C28_36  and  C29_37 
REMARK   13  A    between atoms: C30_38  and  C31_39 
REMARK   14  A    between atoms: C31_39  and  C32_40 
REMARK   15  A    between atoms: C32_40  and  O9_41 
ROOT
HETATM    1  C9  UNL     1      -5.577  47.643 -28.151  1.00  0.00     0.134 C 
HETATM    2  C10 UNL     1      -6.093  47.966 -26.738  1.00  0.00     0.033 C 
HETATM    3  C11 UNL     1      -7.592  47.700 -26.543  1.00  0.00     0.005 C 
HETATM    4  C12 UNL     1      -7.967  46.213 -26.605  1.00  0.00     0.032 C 
HETATM    5  C13 UNL     1      -9.484  45.935 -26.649  1.00  0.00     0.131 C 
HETATM    6  O2  UNL     1      -9.975  46.401 -27.911  1.00  0.00    -0.347 OA
HETATM    7  C14 UNL     1     -11.285  45.949 -28.243  1.00  0.00     0.191 C 
HETATM    8  C15 UNL     1     -11.904  47.045 -29.153  1.00  0.00     0.074 C 
HETATM    9  C16 UNL     1     -11.413  47.148 -30.612  1.00  0.00     0.037 C 
HETATM   10  C17 UNL     1      -9.902  47.229 -30.813  1.00  0.00     0.122 C 
HETATM   11  C18 UNL     1      -9.512  47.401 -32.276  1.00  0.00     0.035 C 
HETATM   12  C19 UNL     1      -8.230  48.213 -32.229  1.00  0.00     0.045 C 
HETATM   13  C20 UNL     1      -8.056  48.578 -30.760  1.00  0.00     0.221 C 
HETATM   14  O4  UNL     1      -9.344  48.374 -30.157  1.00  0.00    -0.371 OA
HETATM   15  C21 UNL     1      -6.974  47.714 -30.096  1.00  0.00     0.288 C 
HETATM   16  O5  UNL     1      -6.689  46.573 -30.436  1.00  0.00    -0.262 OA
HETATM   17  O6  UNL     1      -6.394  48.399 -29.071  1.00  0.00    -0.314 OA
HETATM   18  C22 UNL     1     -12.173  45.679 -26.982  1.00  0.00     0.209 C 
HETATM   19  C23 UNL     1     -11.813  46.603 -25.818  1.00  0.00     0.158 C 
HETATM   20  C24 UNL     1     -10.293  46.609 -25.514  1.00  0.00     0.042 C 
HETATM   21  C25 UNL     1      -9.992  45.940 -24.168  1.00  0.00     0.015 C 
ENDROOT
BRANCH   1  22
HETATM   22  C8  UNL     1      -4.108  48.076 -28.297  1.00  0.00     0.064 C 
BRANCH  22  23
HETATM   23  C7  UNL     1      -3.909  49.541 -27.894  1.00  0.00     0.124 C 
BRANCH  23  24
HETATM   24  C6  UNL     1      -2.774  49.752 -26.872  1.00  0.00     0.059 C 
BRANCH  24  25
HETATM   25  C5  UNL     1      -2.651  48.656 -25.843  1.00  0.00    -0.024 C 
HETATM   26  C4  UNL     1      -2.948  48.704 -24.535  1.00  0.00    -0.004 C 
BRANCH  26  27
HETATM   27  C3  UNL     1      -3.506  49.828 -23.816  1.00  0.00     0.002 C 
HETATM   28  C2  UNL     1      -2.820  50.834 -23.236  1.00  0.00    -0.080 C 
HETATM   29  C1  UNL     1      -3.558  51.940 -22.521  1.00  0.00     0.043 C 
BRANCH  28  30
HETATM   30  C26 UNL     1      -1.309  50.978 -23.212  1.00  0.00     0.060 C 
BRANCH  30  31
HETATM   31  C27 UNL     1      -0.875  52.232 -23.923  1.00  0.00    -0.022 C 
HETATM   32  C28 UNL     1      -0.096  52.352 -25.009  1.00  0.00    -0.004 C 
BRANCH  32  33
HETATM   33  C29 UNL     1       0.467  51.262 -25.771  1.00  0.00    -0.004 C 
HETATM   34  C30 UNL     1       0.529  51.172 -27.109  1.00  0.00    -0.025 C 
BRANCH  34  35
HETATM   35  C31 UNL     1       0.094  52.179 -28.141  1.00  0.00     0.053 C 
BRANCH  35  36
HETATM   36  C32 UNL     1      -0.636  53.371 -27.512  1.00  0.00     0.168 C 
BRANCH  36  37
HETATM   37  O9  UNL     1      -1.878  53.642 -28.154  1.00  0.00    -0.401 OA
HETATM   38  H50 UNL     1      -1.751  53.523 -29.110  1.00  0.00     0.209 HD
ENDBRANCH  36  37
ENDBRANCH  35  36
ENDBRANCH  34  35
ENDBRANCH  32  33
ENDBRANCH  30  31
ENDBRANCH  28  30
ENDBRANCH  26  27
ENDBRANCH  24  25
ENDBRANCH  23  24
BRANCH  23  39
HETATM   39  O1  UNL     1      -3.656  50.301 -29.078  1.00  0.00    -0.395 OA
HETATM   40  H10 UNL     1      -3.480  51.219 -28.808  1.00  0.00     0.210 HD
ENDBRANCH  23  39
ENDBRANCH  22  23
ENDBRANCH   1  22
BRANCH   7  41
HETATM   41  O3  UNL     1     -11.185  44.693 -28.929  1.00  0.00    -0.363 OA
HETATM   42  H21 UNL     1     -11.546  44.804 -29.822  1.00  0.00     0.213 HD
ENDBRANCH   7  41
BRANCH  19  43
HETATM   43  O8  UNL     1     -12.282  47.937 -26.071  1.00  0.00    -0.392 OA
HETATM   44  H35 UNL     1     -11.586  48.427 -26.551  1.00  0.00     0.210 HD
ENDBRANCH  19  43
BRANCH  18  45
HETATM   45  O7  UNL     1     -11.995  44.312 -26.537  1.00  0.00    -0.387 OA
HETATM   46  H33 UNL     1     -11.683  43.831 -27.334  1.00  0.00     0.210 HD
ENDBRANCH  18  45
TORSDOF 15
ENDMDL
MODEL 4
REMARK minimizedAffinity -7.61426306
REMARK CNNscore 0.391669601
REMARK CNNaffinity 5.72599649
REMARK  15 active torsions:
REMARK  status: ('A' for Active; 'I' for Inactive)
REMARK    1  A    between atoms: C2_2  and  C26_34 
REMARK    2  A    between atoms: C3_3  and  C4_4 
REMARK    3  A    between atoms: C5_5  and  C6_6 
REMARK    4  A    between atoms: C6_6  and  C7_7 
REMARK    5  A    between atoms: C7_7  and  O1_8 
REMARK    6  A    between atoms: C7_7  and  C8_9 
REMARK    7  A    between atoms: C8_9  and  C9_10 
REMARK    8  A    between atoms: C14_16  and  O3_17 
REMARK    9  A    between atoms: C22_28  and  O7_29 
REMARK   10  A    between atoms: C23_30  and  O8_31 
REMARK   11  A    between atoms: C26_34  and  C27_35 
REMARK   12  A    between atoms: C28_36  and  C29_37 
REMARK   13  A    between atoms: C30_38  and  C31_39 
REMARK   14  A    between atoms: C31_39  and  C32_40 
REMARK   15  A    between atoms: C32_40  and  O9_41 
ROOT
HETATM    1  C9  UNL     1      -2.870  48.704 -22.363  1.00  0.00     0.134 C 
HETATM    2  C10 UNL     1      -2.832  47.376 -21.588  1.00  0.00     0.033 C 
HETATM    3  C11 UNL     1      -2.445  47.524 -20.110  1.00  0.00     0.005 C 
HETATM    4  C12 UNL     1      -3.493  48.266 -19.270  1.00  0.00     0.032 C 
HETATM    5  C13 UNL     1      -3.030  48.636 -17.846  1.00  0.00     0.131 C 
HETATM    6  O2  UNL     1      -2.010  49.634 -17.965  1.00  0.00    -0.347 OA
HETATM    7  C14 UNL     1      -1.690  50.306 -16.751  1.00  0.00     0.191 C 
HETATM    8  C15 UNL     1      -0.203  50.738 -16.873  1.00  0.00     0.074 C 
HETATM    9  C16 UNL     1       0.138  51.930 -17.792  1.00  0.00     0.037 C 
HETATM   10  C17 UNL     1      -0.405  51.864 -19.216  1.00  0.00     0.122 C 
HETATM   11  C18 UNL     1       0.041  53.044 -20.071  1.00  0.00     0.035 C 
HETATM   12  C19 UNL     1       0.126  52.477 -21.477  1.00  0.00     0.045 C 
HETATM   13  C20 UNL     1      -0.128  50.984 -21.308  1.00  0.00     0.221 C 
HETATM   14  O4  UNL     1       0.083  50.711 -19.914  1.00  0.00    -0.371 OA
HETATM   15  C21 UNL     1      -1.549  50.608 -21.753  1.00  0.00     0.288 C 
HETATM   16  O5  UNL     1      -2.515  51.358 -21.704  1.00  0.00    -0.262 OA
HETATM   17  O6  UNL     1      -1.574  49.318 -22.194  1.00  0.00    -0.314 OA
HETATM   18  C22 UNL     1      -1.929  49.419 -15.483  1.00  0.00     0.209 C 
HETATM   19  C23 UNL     1      -1.702  47.934 -15.771  1.00  0.00     0.158 C 
HETATM   20  C24 UNL     1      -2.478  47.448 -17.022  1.00  0.00     0.042 C 
HETATM   21  C25 UNL     1      -3.609  46.487 -16.636  1.00  0.00     0.015 C 
ENDROOT
BRANCH   1  22
HETATM   22  C8  UNL     1      -3.120  48.444 -23.859  1.00  0.00     0.064 C 
BRANCH  22  23
HETATM   23  C7  UNL     1      -4.505  48.935 -24.294  1.00  0.00     0.124 C 
BRANCH  23  24
HETATM   24  C6  UNL     1      -5.658  48.026 -23.825  1.00  0.00     0.059 C 
BRANCH  24  25
HETATM   25  C5  UNL     1      -7.020  48.438 -24.324  1.00  0.00    -0.024 C 
HETATM   26  C4  UNL     1      -7.612  48.121 -25.487  1.00  0.00    -0.004 C 
BRANCH  26  27
HETATM   27  C3  UNL     1      -7.082  47.261 -26.521  1.00  0.00     0.002 C 
HETATM   28  C2  UNL     1      -7.512  47.176 -27.796  1.00  0.00    -0.080 C 
HETATM   29  C1  UNL     1      -6.845  46.221 -28.758  1.00  0.00     0.043 C 
BRANCH  28  30
HETATM   30  C26 UNL     1      -8.660  47.965 -28.400  1.00  0.00     0.060 C 
BRANCH  30  31
HETATM   31  C27 UNL     1      -9.787  47.054 -28.808  1.00  0.00    -0.022 C 
HETATM   32  C28 UNL     1     -10.132  46.648 -30.039  1.00  0.00    -0.004 C 
BRANCH  32  33
HETATM   33  C29 UNL     1      -9.440  46.976 -31.263  1.00  0.00    -0.004 C 
HETATM   34  C30 UNL     1      -9.904  46.808 -32.512  1.00  0.00    -0.025 C 
BRANCH  34  35
HETATM   35  C31 UNL     1     -11.251  46.300 -32.956  1.00  0.00     0.053 C 
BRANCH  35  36
HETATM   36  C32 UNL     1     -11.130  45.135 -33.945  1.00  0.00     0.168 C 
BRANCH  36  37
HETATM   37  O9  UNL     1     -12.257  44.265 -33.892  1.00  0.00    -0.401 OA
HETATM   38  H50 UNL     1     -12.511  44.165 -32.959  1.00  0.00     0.209 HD
ENDBRANCH  36  37
ENDBRANCH  35  36
ENDBRANCH  34  35
ENDBRANCH  32  33
ENDBRANCH  30  31
ENDBRANCH  28  30
ENDBRANCH  26  27
ENDBRANCH  24  25
ENDBRANCH  23  24
BRANCH  23  39
HETATM   39  O1  UNL     1      -4.687  50.262 -23.796  1.00  0.00    -0.395 OA
HETATM   40  H10 UNL     1      -5.586  50.546 -24.033  1.00  0.00     0.210 HD
ENDBRANCH  23  39
ENDBRANCH  22  23
ENDBRANCH   1  22
BRANCH   7  41
HETATM   41  O3  UNL     1      -2.557  51.441 -16.604  1.00  0.00    -0.363 OA
HETATM   42  H21 UNL     1      -2.010  52.242 -16.600  1.00  0.00     0.213 HD
ENDBRANCH   7  41
BRANCH  19  43
HETATM   43  O8  UNL     1      -0.299  47.657 -15.909  1.00  0.00    -0.392 OA
HETATM   44  H35 UNL     1      -0.046  47.780 -16.845  1.00  0.00     0.210 HD
ENDBRANCH  19  43
BRANCH  18  45
HETATM   45  O7  UNL     1      -3.291  49.578 -15.018  1.00  0.00    -0.387 OA
HETATM   46  H33 UNL     1      -3.571  50.452 -15.368  1.00  0.00     0.210 HD
ENDBRANCH  18  45
TORSDOF 15
ENDMDL
MODEL 5
REMARK minimizedAffinity -8.04277897
REMARK CNNscore 0.333645463
REMARK CNNaffinity 5.67273283
REMARK  15 active torsions:
REMARK  status: ('A' for Active; 'I' for Inactive)
REMARK    1  A    between atoms: C2_2  and  C26_34 
REMARK    2  A    between atoms: C3_3  and  C4_4 
REMARK    3  A    between atoms: C5_5  and  C6_6 
REMARK    4  A    between atoms: C6_6  and  C7_7 
REMARK    5  A    between atoms: C7_7  and  O1_8 
REMARK    6  A    between atoms: C7_7  and  C8_9 
REMARK    7  A    between atoms: C8_9  and  C9_10 
REMARK    8  A    between atoms: C14_16  and  O3_17 
REMARK    9  A    between atoms: C22_28  and  O7_29 
REMARK   10  A    between atoms: C23_30  and  O8_31 
REMARK   11  A    between atoms: C26_34  and  C27_35 
REMARK   12  A    between atoms: C28_36  and  C29_37 
REMARK   13  A    between atoms: C30_38  and  C31_39 
REMARK   14  A    between atoms: C31_39  and  C32_40 
REMARK   15  A    between atoms: C32_40  and  O9_41 
ROOT
HETATM    1  C9  UNL     1      -1.289  50.117 -19.616  1.00  0.00     0.134 C 
HETATM    2  C10 UNL     1      -0.077  50.603 -20.427  1.00  0.00     0.033 C 
HETATM    3  C11 UNL     1      -0.351  50.762 -21.929  1.00  0.00     0.005 C 
HETATM    4  C12 UNL     1      -1.334  51.892 -22.260  1.00  0.00     0.032 C 
HETATM    5  C13 UNL     1      -1.809  51.923 -23.728  1.00  0.00     0.131 C 
HETATM    6  O2  UNL     1      -2.628  50.768 -23.943  1.00  0.00    -0.347 OA
HETATM    7  C14 UNL     1      -3.394  50.797 -25.144  1.00  0.00     0.191 C 
HETATM    8  C15 UNL     1      -3.590  49.317 -25.570  1.00  0.00     0.074 C 
HETATM    9  C16 UNL     1      -4.597  48.456 -24.779  1.00  0.00     0.037 C 
HETATM   10  C17 UNL     1      -4.431  48.445 -23.262  1.00  0.00     0.122 C 
HETATM   11  C18 UNL     1      -5.419  47.513 -22.570  1.00  0.00     0.035 C 
HETATM   12  C19 UNL     1      -4.675  47.025 -21.340  1.00  0.00     0.045 C 
HETATM   13  C20 UNL     1      -3.267  47.587 -21.491  1.00  0.00     0.221 C 
HETATM   14  O4  UNL     1      -3.143  47.952 -22.875  1.00  0.00    -0.371 OA
HETATM   15  C21 UNL     1      -3.045  48.791 -20.563  1.00  0.00     0.288 C 
HETATM   16  O5  UNL     1      -3.926  49.556 -20.195  1.00  0.00    -0.262 OA
HETATM   17  O6  UNL     1      -1.728  48.884 -20.227  1.00  0.00    -0.314 OA
HETATM   18  C22 UNL     1      -2.715  51.638 -26.278  1.00  0.00     0.209 C 
HETATM   19  C23 UNL     1      -1.188  51.592 -26.190  1.00  0.00     0.158 C 
HETATM   20  C24 UNL     1      -0.666  51.932 -24.771  1.00  0.00     0.042 C 
HETATM   21  C25 UNL     1       0.067  53.278 -24.756  1.00  0.00     0.015 C 
ENDROOT
BRANCH   1  22
HETATM   22  C8  UNL     1      -0.883  49.847 -18.156  1.00  0.00     0.064 C 
BRANCH  22  23
HETATM   23  C7  UNL     1      -1.112  51.075 -17.269  1.00  0.00     0.124 C 
BRANCH  23  24
HETATM   24  C6  UNL     1      -1.679  50.734 -15.877  1.00  0.00     0.059 C 
BRANCH  24  25
HETATM   25  C5  UNL     1      -0.737  51.019 -14.733  1.00  0.00    -0.024 C 
HETATM   26  C4  UNL     1      -1.024  51.531 -13.526  1.00  0.00    -0.004 C 
BRANCH  26  27
HETATM   27  C3  UNL     1      -2.333  51.890 -13.028  1.00  0.00     0.002 C 
HETATM   28  C2  UNL     1      -2.602  52.632 -11.934  1.00  0.00    -0.080 C 
HETATM   29  C1  UNL     1      -4.034  52.920 -11.548  1.00  0.00     0.043 C 
BRANCH  28  30
HETATM   30  C26 UNL     1      -1.573  53.229 -10.992  1.00  0.00     0.060 C 
BRANCH  30  31
HETATM   31  C27 UNL     1      -2.064  53.203  -9.569  1.00  0.00    -0.022 C 
HETATM   32  C28 UNL     1      -1.349  53.268  -8.435  1.00  0.00    -0.004 C 
BRANCH  32  33
HETATM   33  C29 UNL     1       0.083  53.430  -8.346  1.00  0.00    -0.004 C 
HETATM   34  C30 UNL     1       0.921  52.714  -7.578  1.00  0.00    -0.025 C 
BRANCH  34  35
HETATM   35  C31 UNL     1       0.608  51.551  -6.675  1.00  0.00     0.053 C 
BRANCH  35  36
HETATM   36  C32 UNL     1      -0.901  51.311  -6.545  1.00  0.00     0.168 C 
BRANCH  36  37
HETATM   37  O9  UNL     1      -1.353  51.441  -5.201  1.00  0.00    -0.401 OA
HETATM   38  H50 UNL     1      -0.685  51.038  -4.622  1.00  0.00     0.209 HD
ENDBRANCH  36  37
ENDBRANCH  35  36
ENDBRANCH  34  35
ENDBRANCH  32  33
ENDBRANCH  30  31
ENDBRANCH  28  30
ENDBRANCH  26  27
ENDBRANCH  24  25
ENDBRANCH  23  24
BRANCH  23  39
HETATM   39  O1  UNL     1       0.128  51.773 -17.141  1.00  0.00    -0.395 OA
HETATM   40  H10 UNL     1      -0.015  52.521 -16.537  1.00  0.00     0.210 HD
ENDBRANCH  23  39
ENDBRANCH  22  23
ENDBRANCH   1  22
BRANCH   7  41
HETATM   41  O3  UNL     1      -4.650  51.439 -24.880  1.00  0.00    -0.363 OA
HETATM   42  H21 UNL     1      -5.359  50.797 -25.042  1.00  0.00     0.213 HD
ENDBRANCH   7  41
BRANCH  19  43
HETATM   43  O8  UNL     1      -0.699  50.309 -26.614  1.00  0.00    -0.392 OA
HETATM   44  H35 UNL     1      -0.666  49.715 -25.839  1.00  0.00     0.210 HD
ENDBRANCH  19  43
BRANCH  18  45
HETATM   45  O7  UNL     1      -3.124  53.023 -26.179  1.00  0.00    -0.387 OA
HETATM   46  H33 UNL     1      -3.979  52.994 -25.696  1.00  0.00     0.210 HD
ENDBRANCH  18  45
TORSDOF 15
ENDMDL
MODEL 6
REMARK minimizedAffinity -7.43487978
REMARK CNNscore 0.305325389
REMARK CNNaffinity 6.10507393
REMARK  15 active torsions:
REMARK  status: ('A' for Active; 'I' for Inactive)
REMARK    1  A    between atoms: C2_2  and  C26_34 
REMARK    2  A    between atoms: C3_3  and  C4_4 
REMARK    3  A    between atoms: C5_5  and  C6_6 
REMARK    4  A    between atoms: C6_6  and  C7_7 
REMARK    5  A    between atoms: C7_7  and  O1_8 
REMARK    6  A    between atoms: C7_7  and  C8_9 
REMARK    7  A    between atoms: C8_9  and  C9_10 
REMARK    8  A    between atoms: C14_16  and  O3_17 
REMARK    9  A    between atoms: C22_28  and  O7_29 
REMARK   10  A    between atoms: C23_30  and  O8_31 
REMARK   11  A    between atoms: C26_34  and  C27_35 
REMARK   12  A    between atoms: C28_36  and  C29_37 
REMARK   13  A    between atoms: C30_38  and  C31_39 
REMARK   14  A    between atoms: C31_39  and  C32_40 
REMARK   15  A    between atoms: C32_40  and  O9_41 
ROOT
HETATM    1  C9  UNL     1      -6.494  46.923 -32.406  1.00  0.00     0.134 C 
HETATM    2  C10 UNL     1      -6.322  47.701 -33.721  1.00  0.00     0.033 C 
HETATM    3  C11 UNL     1      -7.203  47.191 -34.871  1.00  0.00     0.005 C 
HETATM    4  C12 UNL     1      -8.703  47.422 -34.646  1.00  0.00     0.032 C 
HETATM    5  C13 UNL     1      -9.621  46.715 -35.664  1.00  0.00     0.131 C 
HETATM    6  O2  UNL     1      -9.518  45.305 -35.436  1.00  0.00    -0.347 OA
HETATM    7  C14 UNL     1     -10.523  44.523 -36.076  1.00  0.00     0.191 C 
HETATM    8  C15 UNL     1      -9.884  43.134 -36.348  1.00  0.00     0.074 C 
HETATM    9  C16 UNL     1      -9.691  42.172 -35.157  1.00  0.00     0.037 C 
HETATM   10  C17 UNL     1      -8.970  42.742 -33.939  1.00  0.00     0.122 C 
HETATM   11  C18 UNL     1      -8.759  41.704 -32.843  1.00  0.00     0.035 C 
HETATM   12  C19 UNL     1      -7.466  42.128 -32.169  1.00  0.00     0.045 C 
HETATM   13  C20 UNL     1      -6.949  43.283 -33.017  1.00  0.00     0.221 C 
HETATM   14  O4  UNL     1      -7.649  43.188 -34.268  1.00  0.00    -0.371 OA
HETATM   15  C21 UNL     1      -7.195  44.633 -32.328  1.00  0.00     0.288 C 
HETATM   16  O5  UNL     1      -8.118  44.862 -31.557  1.00  0.00    -0.262 OA
HETATM   17  O6  UNL     1      -6.247  45.533 -32.713  1.00  0.00    -0.314 OA
HETATM   18  C22 UNL     1     -11.057  45.180 -37.393  1.00  0.00     0.209 C 
HETATM   19  C23 UNL     1      -9.981  46.007 -38.099  1.00  0.00     0.158 C 
HETATM   20  C24 UNL     1      -9.285  47.011 -37.145  1.00  0.00     0.042 C 
HETATM   21  C25 UNL     1      -9.647  48.458 -37.501  1.00  0.00     0.015 C 
ENDROOT
BRANCH   1  22
HETATM   22  C8  UNL     1      -5.472  47.405 -31.361  1.00  0.00     0.064 C 
BRANCH  22  23
HETATM   23  C7  UNL     1      -5.945  48.679 -30.654  1.00  0.00     0.124 C 
BRANCH  23  24
HETATM   24  C6  UNL     1      -6.968  48.418 -29.530  1.00  0.00     0.059 C 
BRANCH  24  25
HETATM   25  C5  UNL     1      -6.998  46.994 -29.032  1.00  0.00    -0.024 C 
HETATM   26  C4  UNL     1      -6.911  46.552 -27.767  1.00  0.00    -0.004 C 
BRANCH  26  27
HETATM   27  C3  UNL     1      -6.812  47.362 -26.573  1.00  0.00     0.002 C 
HETATM   28  C2  UNL     1      -5.726  48.039 -26.147  1.00  0.00    -0.080 C 
HETATM   29  C1  UNL     1      -5.788  48.844 -24.872  1.00  0.00     0.043 C 
BRANCH  28  30
HETATM   30  C26 UNL     1      -4.374  48.072 -26.837  1.00  0.00     0.060 C 
BRANCH  30  31
HETATM   31  C27 UNL     1      -3.297  48.537 -25.894  1.00  0.00    -0.022 C 
HETATM   32  C28 UNL     1      -2.553  49.652 -25.956  1.00  0.00    -0.004 C 
BRANCH  32  33
HETATM   33  C29 UNL     1      -2.670  50.692 -26.951  1.00  0.00    -0.004 C 
HETATM   34  C30 UNL     1      -1.662  51.398 -27.490  1.00  0.00    -0.025 C 
BRANCH  34  35
HETATM   35  C31 UNL     1      -0.182  51.259 -27.250  1.00  0.00     0.053 C 
BRANCH  35  36
HETATM   36  C32 UNL     1       0.587  52.528 -27.637  1.00  0.00     0.168 C 
BRANCH  36  37
HETATM   37  O9  UNL     1       0.009  53.186 -28.760  1.00  0.00    -0.401 OA
HETATM   38  H50 UNL     1      -0.272  52.503 -29.393  1.00  0.00     0.209 HD
ENDBRANCH  36  37
ENDBRANCH  35  36
ENDBRANCH  34  35
ENDBRANCH  32  33
ENDBRANCH  30  31
ENDBRANCH  28  30
ENDBRANCH  26  27
ENDBRANCH  24  25
ENDBRANCH  23  24
BRANCH  23  39
HETATM   39  O1  UNL     1      -4.799  49.354 -30.132  1.00  0.00    -0.395 OA
HETATM   40  H10 UNL     1      -5.112  50.133 -29.642  1.00  0.00     0.210 HD
ENDBRANCH  23  39
ENDBRANCH  22  23
ENDBRANCH   1  22
BRANCH   7  41
HETATM   41  O3  UNL     1     -11.657  44.418 -35.203  1.00  0.00    -0.363 OA
HETATM   42  H21 UNL     1     -11.785  43.482 -34.982  1.00  0.00     0.213 HD
ENDBRANCH   7  41
BRANCH  19  43
HETATM   43  O8  UNL     1      -9.012  45.146 -38.720  1.00  0.00    -0.392 OA
HETATM   44  H35 UNL     1      -8.305  44.954 -38.073  1.00  0.00     0.210 HD
ENDBRANCH  19  43
BRANCH  18  45
HETATM   45  O7  UNL     1     -12.167  46.060 -37.092  1.00  0.00    -0.387 OA
HETATM   46  H33 UNL     1     -12.523  45.725 -36.240  1.00  0.00     0.210 HD
ENDBRANCH  18  45
TORSDOF 15
ENDMDL
MODEL 7
REMARK minimizedAffinity -8.03997612
REMARK CNNscore 0.292322934
REMARK CNNaffinity 6.42019463
REMARK  15 active torsions:
REMARK  status: ('A' for Active; 'I' for Inactive)
REMARK    1  A    between atoms: C2_2  and  C26_34 
REMARK    2  A    between atoms: C3_3  and  C4_4 
REMARK    3  A    between atoms: C5_5  and  C6_6 
REMARK    4  A    between atoms: C6_6  and  C7_7 
REMARK    5  A    between atoms: C7_7  and  O1_8 
REMARK    6  A    between atoms: C7_7  and  C8_9 
REMARK    7  A    between atoms: C8_9  and  C9_10 
REMARK    8  A    between atoms: C14_16  and  O3_17 
REMARK    9  A    between atoms: C22_28  and  O7_29 
REMARK   10  A    between atoms: C23_30  and  O8_31 
REMARK   11  A    between atoms: C26_34  and  C27_35 
REMARK   12  A    between atoms: C28_36  and  C29_37 
REMARK   13  A    between atoms: C30_38  and  C31_39 
REMARK   14  A    between atoms: C31_39  and  C32_40 
REMARK   15  A    between atoms: C32_40  and  O9_41 
ROOT
HETATM    1  C9  UNL     1      -3.549  49.360 -19.753  1.00  0.00     0.134 C 
HETATM    2  C10 UNL     1      -3.561  47.877 -19.349  1.00  0.00     0.033 C 
HETATM    3  C11 UNL     1      -2.767  47.569 -18.071  1.00  0.00     0.005 C 
HETATM    4  C12 UNL     1      -3.383  48.173 -16.803  1.00  0.00     0.032 C 
HETATM    5  C13 UNL     1      -2.489  48.083 -15.548  1.00  0.00     0.131 C 
HETATM    6  O2  UNL     1      -1.366  48.948 -15.752  1.00  0.00    -0.347 OA
HETATM    7  C14 UNL     1      -0.605  49.221 -14.580  1.00  0.00     0.191 C 
HETATM    8  C15 UNL     1       0.848  49.491 -15.059  1.00  0.00     0.074 C 
HETATM    9  C16 UNL     1       1.152  50.839 -15.746  1.00  0.00     0.037 C 
HETATM   10  C17 UNL     1       0.241  51.228 -16.906  1.00  0.00     0.122 C 
HETATM   11  C18 UNL     1       0.659  52.535 -17.569  1.00  0.00     0.035 C 
HETATM   12  C19 UNL     1       0.248  52.366 -19.021  1.00  0.00     0.045 C 
HETATM   13  C20 UNL     1      -0.236  50.925 -19.122  1.00  0.00     0.221 C 
HETATM   14  O4  UNL     1       0.288  50.260 -17.961  1.00  0.00    -0.371 OA
HETATM   15  C21 UNL     1      -1.769  50.855 -19.174  1.00  0.00     0.288 C 
HETATM   16  O5  UNL     1      -2.520  51.672 -18.659  1.00  0.00    -0.262 OA
HETATM   17  O6  UNL     1      -2.162  49.747 -19.863  1.00  0.00    -0.314 OA
HETATM   18  C22 UNL     1      -0.659  48.057 -13.535  1.00  0.00     0.209 C 
HETATM   19  C23 UNL     1      -0.811  46.690 -14.205  1.00  0.00     0.158 C 
HETATM   20  C24 UNL     1      -1.976  46.659 -15.227  1.00  0.00     0.042 C 
HETATM   21  C25 UNL     1      -3.125  45.771 -14.735  1.00  0.00     0.015 C 
ENDROOT
BRANCH   1  22
HETATM   22  C8  UNL     1      -4.241  49.550 -21.115  1.00  0.00     0.064 C 
BRANCH  22  23
HETATM   23  C7  UNL     1      -4.469  51.031 -21.432  1.00  0.00     0.124 C 
BRANCH  23  24
HETATM   24  C6  UNL     1      -4.121  51.412 -22.885  1.00  0.00     0.059 C 
BRANCH  24  25
HETATM   25  C5  UNL     1      -3.314  50.375 -23.626  1.00  0.00    -0.024 C 
HETATM   26  C4  UNL     1      -1.980  50.235 -23.672  1.00  0.00    -0.004 C 
BRANCH  26  27
HETATM   27  C3  UNL     1      -1.002  51.037 -22.971  1.00  0.00     0.002 C 
HETATM   28  C2  UNL     1      -0.296  52.069 -23.477  1.00  0.00    -0.080 C 
HETATM   29  C1  UNL     1       0.692  52.809 -22.606  1.00  0.00     0.043 C 
BRANCH  28  30
HETATM   30  C26 UNL     1      -0.380  52.589 -24.900  1.00  0.00     0.060 C 
BRANCH  30  31
HETATM   31  C27 UNL     1       0.069  51.542 -25.885  1.00  0.00    -0.022 C 
HETATM   32  C28 UNL     1      -0.592  51.051 -26.945  1.00  0.00    -0.004 C 
BRANCH  32  33
HETATM   33  C29 UNL     1      -1.895  51.475 -27.400  1.00  0.00    -0.004 C 
HETATM   34  C30 UNL     1      -2.982  50.700 -27.541  1.00  0.00    -0.025 C 
BRANCH  34  35
HETATM   35  C31 UNL     1      -3.144  49.238 -27.219  1.00  0.00     0.053 C 
BRANCH  35  36
HETATM   36  C32 UNL     1      -4.445  48.662 -27.790  1.00  0.00     0.168 C 
BRANCH  36  37
HETATM   37  O9  UNL     1      -4.215  47.830 -28.923  1.00  0.00    -0.401 OA
HETATM   38  H50 UNL     1      -3.520  48.247 -29.461  1.00  0.00     0.209 HD
ENDBRANCH  36  37
ENDBRANCH  35  36
ENDBRANCH  34  35
ENDBRANCH  32  33
ENDBRANCH  30  31
ENDBRANCH  28  30
ENDBRANCH  26  27
ENDBRANCH  24  25
ENDBRANCH  23  24
BRANCH  23  39
HETATM   39  O1  UNL     1      -5.834  51.345 -21.151  1.00  0.00    -0.395 OA
HETATM   40  H10 UNL     1      -5.982  52.273 -21.403  1.00  0.00     0.210 HD
ENDBRANCH  23  39
ENDBRANCH  22  23
ENDBRANCH   1  22
BRANCH   7  41
HETATM   41  O3  UNL     1      -1.162  50.367 -13.919  1.00  0.00    -0.363 OA
HETATM   42  H21 UNL     1      -0.489  51.066 -13.905  1.00  0.00     0.213 HD
ENDBRANCH   7  41
BRANCH  19  43
HETATM   43  O8  UNL     1       0.420  46.298 -14.832  1.00  0.00    -0.392 OA
HETATM   44  H35 UNL     1       0.429  46.640 -15.747  1.00  0.00     0.210 HD
ENDBRANCH  19  43
BRANCH  18  45
HETATM   45  O7  UNL     1      -1.786  48.243 -12.645  1.00  0.00    -0.387 OA
HETATM   46  H33 UNL     1      -1.975  49.206 -12.684  1.00  0.00     0.210 HD
ENDBRANCH  18  45
TORSDOF 15
ENDMDL
MODEL 8
REMARK minimizedAffinity -8.39127445
REMARK CNNscore 0.28581059
REMARK CNNaffinity 6.10100889
REMARK  15 active torsions:
REMARK  status: ('A' for Active; 'I' for Inactive)
REMARK    1  A    between atoms: C2_2  and  C26_34 
REMARK    2  A    between atoms: C3_3  and  C4_4 
REMARK    3  A    between atoms: C5_5  and  C6_6 
REMARK    4  A    between atoms: C6_6  and  C7_7 
REMARK    5  A    between atoms: C7_7  and  O1_8 
REMARK    6  A    between atoms: C7_7  and  C8_9 
REMARK    7  A    between atoms: C8_9  and  C9_10 
REMARK    8  A    between atoms: C14_16  and  O3_17 
REMARK    9  A    between atoms: C22_28  and  O7_29 
REMARK   10  A    between atoms: C23_30  and  O8_31 
REMARK   11  A    between atoms: C26_34  and  C27_35 
REMARK   12  A    between atoms: C28_36  and  C29_37 
REMARK   13  A    between atoms: C30_38  and  C31_39 
REMARK   14  A    between atoms: C31_39  and  C32_40 
REMARK   15  A    between atoms: C32_40  and  O9_41 
ROOT
HETATM    1  C9  UNL     1      -3.388  49.194 -17.587  1.00  0.00     0.134 C 
HETATM    2  C10 UNL     1      -2.993  48.083 -16.599  1.00  0.00     0.033 C 
HETATM    3  C11 UNL     1      -1.783  48.427 -15.719  1.00  0.00     0.005 C 
HETATM    4  C12 UNL     1      -2.052  49.559 -14.718  1.00  0.00     0.032 C 
HETATM    5  C13 UNL     1      -0.797  50.085 -13.991  1.00  0.00     0.131 C 
HETATM    6  O2  UNL     1       0.018  50.755 -14.958  1.00  0.00    -0.347 OA
HETATM    7  C14 UNL     1       1.056  51.560 -14.408  1.00  0.00     0.191 C 
HETATM    8  C15 UNL     1       2.197  51.579 -15.462  1.00  0.00     0.074 C 
HETATM    9  C16 UNL     1       2.006  52.438 -16.729  1.00  0.00     0.037 C 
HETATM   10  C17 UNL     1       0.711  52.220 -17.506  1.00  0.00     0.122 C 
HETATM   11  C18 UNL     1       0.641  53.054 -18.779  1.00  0.00     0.035 C 
HETATM   12  C19 UNL     1      -0.183  52.211 -19.736  1.00  0.00     0.045 C 
HETATM   13  C20 UNL     1      -0.398  50.893 -19.002  1.00  0.00     0.221 C 
HETATM   14  O4  UNL     1       0.589  50.866 -17.958  1.00  0.00    -0.371 OA
HETATM   15  C21 UNL     1      -1.824  50.796 -18.439  1.00  0.00     0.288 C 
HETATM   16  O5  UNL     1      -2.503  51.755 -18.097  1.00  0.00    -0.262 OA
HETATM   17  O6  UNL     1      -2.209  49.491 -18.366  1.00  0.00    -0.314 OA
HETATM   18  C22 UNL     1       1.562  51.035 -13.022  1.00  0.00     0.209 C 
HETATM   19  C23 UNL     1       1.454  49.513 -12.910  1.00  0.00     0.158 C 
HETATM   20  C24 UNL     1       0.046  48.990 -13.294  1.00  0.00     0.042 C 
HETATM   21  C25 UNL     1      -0.694  48.436 -12.071  1.00  0.00     0.015 C 
ENDROOT
BRANCH   1  22
HETATM   22  C8  UNL     1      -4.508  48.705 -18.522  1.00  0.00     0.064 C 
BRANCH  22  23
HETATM   23  C7  UNL     1      -4.002  47.643 -19.503  1.00  0.00     0.124 C 
BRANCH  23  24
HETATM   24  C6  UNL     1      -2.478  47.686 -19.727  1.00  0.00     0.059 C 
BRANCH  24  25
HETATM   25  C5  UNL     1      -2.031  47.180 -21.076  1.00  0.00    -0.024 C 
HETATM   26  C4  UNL     1      -2.201  47.753 -22.279  1.00  0.00    -0.004 C 
BRANCH  26  27
HETATM   27  C3  UNL     1      -2.824  49.029 -22.548  1.00  0.00     0.002 C 
HETATM   28  C2  UNL     1      -4.078  49.233 -23.003  1.00  0.00    -0.080 C 
HETATM   29  C1  UNL     1      -4.581  50.639 -23.232  1.00  0.00     0.043 C 
BRANCH  28  30
HETATM   30  C26 UNL     1      -5.086  48.151 -23.340  1.00  0.00     0.060 C 
BRANCH  30  31
HETATM   31  C27 UNL     1      -5.595  48.305 -24.748  1.00  0.00    -0.022 C 
HETATM   32  C28 UNL     1      -4.892  48.422 -25.885  1.00  0.00    -0.004 C 
BRANCH  32  33
HETATM   33  C29 UNL     1      -3.454  48.377 -25.998  1.00  0.00    -0.004 C 
HETATM   34  C30 UNL     1      -2.669  49.300 -26.576  1.00  0.00    -0.025 C 
BRANCH  34  35
HETATM   35  C31 UNL     1      -3.062  50.617 -27.191  1.00  0.00     0.053 C 
BRANCH  35  36
HETATM   36  C32 UNL     1      -2.336  51.799 -26.538  1.00  0.00     0.168 C 
BRANCH  36  37
HETATM   37  O9  UNL     1      -3.242  52.736 -25.963  1.00  0.00    -0.401 OA
HETATM   38  H50 UNL     1      -3.998  52.827 -26.567  1.00  0.00     0.209 HD
ENDBRANCH  36  37
ENDBRANCH  35  36
ENDBRANCH  34  35
ENDBRANCH  32  33
ENDBRANCH  30  31
ENDBRANCH  28  30
ENDBRANCH  26  27
ENDBRANCH  24  25
ENDBRANCH  23  24
BRANCH  23  39
HETATM   39  O1  UNL     1      -4.394  46.358 -19.014  1.00  0.00    -0.395 OA
HETATM   40  H10 UNL     1      -4.026  45.688 -19.614  1.00  0.00     0.210 HD
ENDBRANCH  23  39
ENDBRANCH  22  23
ENDBRANCH   1  22
BRANCH   7  41
HETATM   41  O3  UNL     1       0.544  52.878 -14.164  1.00  0.00    -0.363 OA
HETATM   42  H21 UNL     1       1.043  53.504 -14.712  1.00  0.00     0.213 HD
ENDBRANCH   7  41
BRANCH  19  43
HETATM   43  O8  UNL     1       2.464  48.878 -13.711  1.00  0.00    -0.392 OA
HETATM   44  H35 UNL     1       2.110  48.742 -14.611  1.00  0.00     0.210 HD
ENDBRANCH  19  43
BRANCH  18  45
HETATM   45  O7  UNL     1       0.773  51.616 -11.955  1.00  0.00    -0.387 OA
HETATM   46  H33 UNL     1       0.408  52.442 -12.340  1.00  0.00     0.210 HD
ENDBRANCH  18  45
TORSDOF 15
ENDMDL
MODEL 9
REMARK minimizedAffinity -8.9050808
REMARK CNNscore 0.280990541
REMARK CNNaffinity 5.49789
REMARK  15 active torsions:
REMARK  status: ('A' for Active; 'I' for Inactive)
REMARK    1  A    between atoms: C2_2  and  C26_34 
REMARK    2  A    between atoms: C3_3  and  C4_4 
REMARK    3  A    between atoms: C5_5  and  C6_6 
REMARK    4  A    between atoms: C6_6  and  C7_7 
REMARK    5  A    between atoms: C7_7  and  O1_8 
REMARK    6  A    between atoms: C7_7  and  C8_9 
REMARK    7  A    between atoms: C8_9  and  C9_10 
REMARK    8  A    between atoms: C14_16  and  O3_17 
REMARK    9  A    between atoms: C22_28  and  O7_29 
REMARK   10  A    between atoms: C23_30  and  O8_31 
REMARK   11  A    between atoms: C26_34  and  C27_35 
REMARK   12  A    between atoms: C28_36  and  C29_37 
REMARK   13  A    between atoms: C30_38  and  C31_39 
REMARK   14  A    between atoms: C31_39  and  C32_40 
REMARK   15  A    between atoms: C32_40  and  O9_41 
ROOT
HETATM    1  C9  UNL     1      -1.203  50.642 -19.663  1.00  0.00     0.134 C 
HETATM    2  C10 UNL     1       0.026  51.145 -20.440  1.00  0.00     0.033 C 
HETATM    3  C11 UNL     1      -0.174  51.199 -21.962  1.00  0.00     0.005 C 
HETATM    4  C12 UNL     1      -1.195  52.251 -22.412  1.00  0.00     0.032 C 
HETATM    5  C13 UNL     1      -1.589  52.168 -23.902  1.00  0.00     0.131 C 
HETATM    6  O2  UNL     1      -2.334  50.959 -24.087  1.00  0.00    -0.347 OA
HETATM    7  C14 UNL     1      -3.034  50.874 -25.325  1.00  0.00     0.191 C 
HETATM    8  C15 UNL     1      -3.129  49.362 -25.667  1.00  0.00     0.074 C 
HETATM    9  C16 UNL     1      -4.132  48.495 -24.876  1.00  0.00     0.037 C 
HETATM   10  C17 UNL     1      -4.049  48.585 -23.355  1.00  0.00     0.122 C 
HETATM   11  C18 UNL     1      -5.024  47.643 -22.657  1.00  0.00     0.035 C 
HETATM   12  C19 UNL     1      -4.323  47.270 -21.363  1.00  0.00     0.045 C 
HETATM   13  C20 UNL     1      -2.940  47.900 -21.476  1.00  0.00     0.221 C 
HETATM   14  O4  UNL     1      -2.760  48.187 -22.872  1.00  0.00    -0.371 OA
HETATM   15  C21 UNL     1      -2.833  49.167 -20.615  1.00  0.00     0.288 C 
HETATM   16  O5  UNL     1      -3.771  49.903 -20.342  1.00  0.00    -0.262 OA
HETATM   17  O6  UNL     1      -1.542  49.353 -20.218  1.00  0.00    -0.314 OA
HETATM   18  C22 UNL     1      -2.338  51.682 -26.472  1.00  0.00     0.209 C 
HETATM   19  C23 UNL     1      -0.819  51.725 -26.304  1.00  0.00     0.158 C 
HETATM   20  C24 UNL     1      -0.394  52.178 -24.883  1.00  0.00     0.042 C 
HETATM   21  C25 UNL     1       0.266  53.561 -24.915  1.00  0.00     0.015 C 
ENDROOT
BRANCH   1  22
HETATM   22  C8  UNL     1      -0.864  50.482 -18.171  1.00  0.00     0.064 C 
BRANCH  22  23
HETATM   23  C7  UNL     1      -2.107  50.636 -17.289  1.00  0.00     0.124 C 
BRANCH  23  24
HETATM   24  C6  UNL     1      -1.809  51.233 -15.900  1.00  0.00     0.059 C 
BRANCH  24  25
HETATM   25  C5  UNL     1      -1.976  50.265 -14.755  1.00  0.00    -0.024 C 
HETATM   26  C4  UNL     1      -2.442  50.508 -13.520  1.00  0.00    -0.004 C 
BRANCH  26  27
HETATM   27  C3  UNL     1      -2.939  51.768 -13.016  1.00  0.00     0.002 C 
HETATM   28  C2  UNL     1      -3.252  52.056 -11.736  1.00  0.00    -0.080 C 
HETATM   29  C1  UNL     1      -3.761  53.430 -11.371  1.00  0.00     0.043 C 
BRANCH  28  30
HETATM   30  C26 UNL     1      -3.157  51.098 -10.562  1.00  0.00     0.060 C 
BRANCH  30  31
HETATM   31  C27 UNL     1      -3.648  49.726 -10.942  1.00  0.00    -0.022 C 
HETATM   32  C28 UNL     1      -4.863  49.190 -10.755  1.00  0.00    -0.004 C 
BRANCH  32  33
HETATM   33  C29 UNL     1      -6.002  49.859 -10.172  1.00  0.00    -0.004 C 
HETATM   34  C30 UNL     1      -7.294  49.537 -10.349  1.00  0.00    -0.025 C 
BRANCH  34  35
HETATM   35  C31 UNL     1      -7.880  48.393 -11.133  1.00  0.00     0.053 C 
BRANCH  35  36
HETATM   36  C32 UNL     1      -9.290  48.708 -11.647  1.00  0.00     0.168 C 
BRANCH  36  37
HETATM   37  O9  UNL     1      -9.707  47.803 -12.664  1.00  0.00    -0.401 OA
HETATM   38  H50 UNL     1      -8.943  47.630 -13.240  1.00  0.00     0.209 HD
ENDBRANCH  36  37
ENDBRANCH  35  36
ENDBRANCH  34  35
ENDBRANCH  32  33
ENDBRANCH  30  31
ENDBRANCH  28  30
ENDBRANCH  26  27
ENDBRANCH  24  25
ENDBRANCH  23  24
BRANCH  23  39
HETATM   39  O1  UNL     1      -3.053  51.450 -17.986  1.00  0.00    -0.395 OA
HETATM   40  H10 UNL     1      -3.817  51.584 -17.399  1.00  0.00     0.210 HD
ENDBRANCH  23  39
ENDBRANCH  22  23
ENDBRANCH   1  22
BRANCH   7  41
HETATM   41  O3  UNL     1      -4.334  51.460 -25.166  1.00  0.00    -0.363 OA
HETATM   42  H21 UNL     1      -4.999  50.771 -25.324  1.00  0.00     0.213 HD
ENDBRANCH   7  41
BRANCH  19  43
HETATM   43  O8  UNL     1      -0.241  50.449 -26.620  1.00  0.00    -0.392 OA
HETATM   44  H35 UNL     1      -0.220  49.905 -25.809  1.00  0.00     0.210 HD
ENDBRANCH  19  43
BRANCH  18  45
HETATM   45  O7  UNL     1      -2.824  53.046 -26.481  1.00  0.00    -0.387 OA
HETATM   46  H33 UNL     1      -3.701  52.998 -26.042  1.00  0.00     0.210 HD
ENDBRANCH  18  45
TORSDOF 15
ENDMDL
