MODEL 1
REMARK minimizedAffinity -8.04357338
REMARK CNNscore 0.604602814
REMARK CNNaffinity 7.65060472
REMARK  19 active torsions:
REMARK  status: ('A' for Active; 'I' for Inactive)
REMARK    1  A    between atoms: C19_20  and  O2_21 
REMARK    2  A    between atoms: C19_20  and  C20_22 
REMARK    3  A    between atoms: C20_22  and  C21_24 
REMARK    4  A    between atoms: C21_24  and  O4_25 
REMARK    5  A    between atoms: O4_25  and  C22_26 
REMARK    6  A    between atoms: C22_26  and  C23_28 
REMARK    7  A    between atoms: C23_28  and  C24_29 
REMARK    8  A    between atoms: C24_29  and  C25_30 
REMARK       I    between atoms: C25_30  and  N1_32 
REMARK    9  A    between atoms: N1_32  and  C26_33 
REMARK   10  A    between atoms: C26_33  and  C27_34 
REMARK   11  A    between atoms: C27_34  and  C28_35 
REMARK   12  A    between atoms: C28_35  and  C29_36 
REMARK   13  A    between atoms: C29_36  and  C30_37 
REMARK   14  A    between atoms: C30_37  and  C31_38 
REMARK       I    between atoms: C31_38  and  N2_40 
REMARK   15  A    between atoms: N2_40  and  C32_41 
REMARK   16  A    between atoms: C32_41  and  C33_42 
REMARK   17  A    between atoms: C32_41  and  C40_49 
REMARK   18  A    between atoms: C33_42  and  C34_43 
REMARK   19  A    between atoms: C40_49  and  O9_51 
ROOT
HETATM    1  C22 UNL     1      -8.613   6.421  14.187  1.00  0.00     0.259 C 
HETATM    2  O5  UNL     1      -8.159   6.449  13.050  1.00  0.00    -0.265 OA
ENDROOT
BRANCH   1   3
HETATM    3  O4  UNL     1      -8.001   5.838  15.250  1.00  0.00    -0.314 OA
BRANCH   3   4
HETATM    4  C21 UNL     1      -7.348   6.758  16.124  1.00  0.00     0.260 C 
BRANCH   4   5
HETATM    5  C20 UNL     1      -6.226   7.474  15.378  1.00  0.00     0.185 C 
HETATM    6  O3  UNL     1      -6.309   8.667  15.073  1.00  0.00    -0.292 OA
BRANCH   5   7
HETATM    7  C19 UNL     1      -4.972   6.632  15.052  1.00  0.00     0.128 C 
HETATM    8  C14 UNL     1      -3.943   7.326  14.105  1.00  0.00    -0.002 C 
HETATM    9  C13 UNL     1      -2.962   8.318  14.753  1.00  0.00     0.013 C 
HETATM   10  C15 UNL     1      -4.677   8.023  12.929  1.00  0.00     0.019 C 
HETATM   11  C16 UNL     1      -3.117   6.090  13.666  1.00  0.00     0.002 C 
HETATM   12  C12 UNL     1      -1.803   8.689  13.810  1.00  0.00     0.007 C 
HETATM   13  C11 UNL     1      -1.050   7.459  13.242  1.00  0.00     0.002 C 
HETATM   14  C2  UNL     1       0.134   7.833  12.271  1.00  0.00    -0.016 C 
HETATM   15  C10 UNL     1      -2.032   6.415  12.631  1.00  0.00    -0.004 C 
HETATM   16  C1  UNL     1      -0.342   8.679  11.069  1.00  0.00     0.020 C 
HETATM   17  C3  UNL     1       1.189   8.651  13.075  1.00  0.00     0.022 C 
HETATM   18  C7  UNL     1       0.775   6.548  11.727  1.00  0.00    -0.068 C 
HETATM   19  C4  UNL     1       2.541   8.754  12.388  1.00  0.00     0.084 C 
HETATM   20  C5  UNL     1       3.072   7.385  12.065  1.00  0.00     0.149 C 
HETATM   21  O1  UNL     1       4.273   7.130  12.056  1.00  0.00    -0.293 OA
HETATM   22  C6  UNL     1       2.102   6.338  11.672  1.00  0.00     0.053 C 
HETATM   23  C8  UNL     1      -0.165   5.486  11.210  1.00  0.00     0.035 C 
HETATM   24  C9  UNL     1      -1.266   5.153  12.210  1.00  0.00     0.010 C 
HETATM   25  C17 UNL     1      -4.177   5.059  13.298  1.00  0.00     0.009 C 
HETATM   26  C18 UNL     1      -5.339   5.335  14.271  1.00  0.00     0.047 C 
BRANCH   7  27
HETATM   27  O2  UNL     1      -4.333   6.285  16.287  1.00  0.00    -0.381 OA
HETATM   28  H27 UNL     1      -4.335   5.316  16.405  1.00  0.00     0.211 HD
ENDBRANCH   7  27
ENDBRANCH   5   7
ENDBRANCH   4   5
ENDBRANCH   3   4
ENDBRANCH   1   3
BRANCH   1  29
HETATM   29  C23 UNL     1      -9.983   6.951  14.547  1.00  0.00     0.120 C 
BRANCH  29  30
HETATM   30  C24 UNL     1     -10.917   7.124  13.354  1.00  0.00     0.112 C 
BRANCH  30  31
HETATM   31  C25 UNL     1     -12.278   7.641  13.775  1.00  0.00     0.217 C 
HETATM   32  O6  UNL     1     -13.043   8.219  13.013  1.00  0.00    -0.274 OA
HETATM   33  N1  UNL     1     -12.567   7.385  15.097  1.00  0.00    -0.361 N 
HETATM   34  H34 UNL     1     -11.917   6.842  15.651  1.00  0.00     0.162 HD
BRANCH  33  35
HETATM   35  C26 UNL     1     -13.860   7.709  15.666  1.00  0.00     0.122 C 
BRANCH  35  36
HETATM   36  C27 UNL     1     -14.800   6.507  15.607  1.00  0.00     0.020 C 
BRANCH  36  37
HETATM   37  C28 UNL     1     -15.854   6.503  16.717  1.00  0.00     0.002 C 
BRANCH  37  38
HETATM   38  C29 UNL     1     -15.398   7.249  17.977  1.00  0.00     0.009 C 
BRANCH  38  39
HETATM   39  C30 UNL     1     -15.873   6.572  19.263  1.00  0.00     0.103 C 
BRANCH  39  40
HETATM   40  C31 UNL     1     -14.876   6.658  20.403  1.00  0.00     0.218 C 
HETATM   41  O7  UNL     1     -13.890   7.386  20.402  1.00  0.00    -0.274 OA
HETATM   42  N2  UNL     1     -15.200   5.823  21.453  1.00  0.00    -0.346 N 
HETATM   43  H45 UNL     1     -15.774   5.023  21.208  1.00  0.00     0.163 HD
BRANCH  42  44
HETATM   44  C32 UNL     1     -14.221   5.576  22.526  1.00  0.00     0.186 C 
BRANCH  44  45
HETATM   45  C33 UNL     1     -14.551   6.464  23.735  1.00  0.00     0.074 C 
BRANCH  45  46
HETATM   46  C34 UNL     1     -13.435   7.405  24.123  1.00  0.00    -0.056 A 
HETATM   47  C35 UNL     1     -13.649   8.425  25.059  1.00  0.00     0.007 A 
HETATM   48  C36 UNL     1     -12.608   9.283  25.420  1.00  0.00     0.001 A 
HETATM   49  C37 UNL     1     -11.347   9.130  24.849  1.00  0.00     0.000 A 
HETATM   50  C38 UNL     1     -11.125   8.122  23.910  1.00  0.00     0.001 A 
HETATM   51  C39 UNL     1     -12.163   7.262  23.551  1.00  0.00     0.007 A 
ENDBRANCH  45  46
ENDBRANCH  44  45
BRANCH  44  52
HETATM   52  C40 UNL     1     -14.269   4.095  22.930  1.00  0.00     0.163 C 
HETATM   53  O8  UNL     1     -13.848   3.144  22.292  1.00  0.00    -0.648 OA
BRANCH  52  54
HETATM   54  O9  UNL     1     -14.774   3.883  24.171  1.00  0.00    -0.775 OA
HETATM   55  H54 UNL     1     -14.763   2.904  24.255  1.00  0.00     0.167 HD
ENDBRANCH  52  54
ENDBRANCH  44  52
ENDBRANCH  42  44
ENDBRANCH  39  40
ENDBRANCH  38  39
ENDBRANCH  37  38
ENDBRANCH  36  37
ENDBRANCH  35  36
ENDBRANCH  33  35
ENDBRANCH  30  31
ENDBRANCH  29  30
ENDBRANCH   1  29
TORSDOF 19
ENDMDL
MODEL 2
REMARK minimizedAffinity -8.30685139
REMARK CNNscore 0.523615599
REMARK CNNaffinity 7.12953806
REMARK  19 active torsions:
REMARK  status: ('A' for Active; 'I' for Inactive)
REMARK    1  A    between atoms: C19_20  and  O2_21 
REMARK    2  A    between atoms: C19_20  and  C20_22 
REMARK    3  A    between atoms: C20_22  and  C21_24 
REMARK    4  A    between atoms: C21_24  and  O4_25 
REMARK    5  A    between atoms: O4_25  and  C22_26 
REMARK    6  A    between atoms: C22_26  and  C23_28 
REMARK    7  A    between atoms: C23_28  and  C24_29 
REMARK    8  A    between atoms: C24_29  and  C25_30 
REMARK       I    between atoms: C25_30  and  N1_32 
REMARK    9  A    between atoms: N1_32  and  C26_33 
REMARK   10  A    between atoms: C26_33  and  C27_34 
REMARK   11  A    between atoms: C27_34  and  C28_35 
REMARK   12  A    between atoms: C28_35  and  C29_36 
REMARK   13  A    between atoms: C29_36  and  C30_37 
REMARK   14  A    between atoms: C30_37  and  C31_38 
REMARK       I    between atoms: C31_38  and  N2_40 
REMARK   15  A    between atoms: N2_40  and  C32_41 
REMARK   16  A    between atoms: C32_41  and  C33_42 
REMARK   17  A    between atoms: C32_41  and  C40_49 
REMARK   18  A    between atoms: C33_42  and  C34_43 
REMARK   19  A    between atoms: C40_49  and  O9_51 
ROOT
HETATM    1  C22 UNL     1      -9.299   8.197  16.137  1.00  0.00     0.259 C 
HETATM    2  O5  UNL     1      -9.805   8.219  17.252  1.00  0.00    -0.265 OA
ENDROOT
BRANCH   1   3
HETATM    3  O4  UNL     1      -7.965   8.119  15.895  1.00  0.00    -0.314 OA
BRANCH   3   4
HETATM    4  C21 UNL     1      -7.343   6.946  16.417  1.00  0.00     0.260 C 
BRANCH   4   5
HETATM    5  C20 UNL     1      -6.935   6.023  15.273  1.00  0.00     0.185 C 
HETATM    6  O3  UNL     1      -7.283   4.840  15.238  1.00  0.00    -0.292 OA
BRANCH   5   7
HETATM    7  C19 UNL     1      -6.087   6.659  14.147  1.00  0.00     0.128 C 
HETATM    8  C14 UNL     1      -4.563   6.328  14.205  1.00  0.00    -0.002 C 
HETATM    9  C13 UNL     1      -4.123   4.978  13.610  1.00  0.00     0.013 C 
HETATM   10  C15 UNL     1      -4.041   6.441  15.662  1.00  0.00     0.019 C 
HETATM   11  C16 UNL     1      -4.018   7.437  13.270  1.00  0.00     0.002 C 
HETATM   12  C12 UNL     1      -2.597   4.895  13.424  1.00  0.00     0.007 C 
HETATM   13  C11 UNL     1      -2.008   6.076  12.612  1.00  0.00     0.002 C 
HETATM   14  C2  UNL     1      -0.444   5.999  12.423  1.00  0.00    -0.016 C 
HETATM   15  C10 UNL     1      -2.487   7.451  13.165  1.00  0.00    -0.004 C 
HETATM   16  C1  UNL     1       0.303   5.949  13.774  1.00  0.00     0.020 C 
HETATM   17  C3  UNL     1      -0.111   4.710  11.615  1.00  0.00     0.022 C 
HETATM   18  C7  UNL     1       0.040   7.237  11.655  1.00  0.00    -0.068 C 
HETATM   19  C4  UNL     1       1.295   4.694  11.035  1.00  0.00     0.084 C 
HETATM   20  C5  UNL     1       1.529   5.918  10.193  1.00  0.00     0.149 C 
HETATM   21  O1  UNL     1       2.265   5.909   9.211  1.00  0.00    -0.293 OA
HETATM   22  C6  UNL     1       0.903   7.188  10.624  1.00  0.00     0.053 C 
HETATM   23  C8  UNL     1      -0.483   8.575  12.121  1.00  0.00     0.035 C 
HETATM   24  C9  UNL     1      -2.001   8.586  12.252  1.00  0.00     0.010 C 
HETATM   25  C17 UNL     1      -4.718   8.699  13.760  1.00  0.00     0.009 C 
HETATM   26  C18 UNL     1      -6.105   8.216  14.226  1.00  0.00     0.047 C 
BRANCH   7  27
HETATM   27  O2  UNL     1      -6.626   6.237  12.889  1.00  0.00    -0.381 OA
HETATM   28  H27 UNL     1      -6.955   7.007  12.389  1.00  0.00     0.211 HD
ENDBRANCH   7  27
ENDBRANCH   5   7
ENDBRANCH   4   5
ENDBRANCH   3   4
ENDBRANCH   1   3
BRANCH   1  29
HETATM   29  C23 UNL     1     -10.095   8.356  14.862  1.00  0.00     0.120 C 
BRANCH  29  30
HETATM   30  C24 UNL     1     -11.264   7.385  14.732  1.00  0.00     0.112 C 
BRANCH  30  31
HETATM   31  C25 UNL     1     -12.591   8.059  15.017  1.00  0.00     0.217 C 
HETATM   32  O6  UNL     1     -13.487   8.158  14.187  1.00  0.00    -0.274 OA
HETATM   33  N1  UNL     1     -12.687   8.540  16.304  1.00  0.00    -0.361 N 
HETATM   34  H34 UNL     1     -11.935   8.362  16.957  1.00  0.00     0.162 HD
BRANCH  33  35
HETATM   35  C26 UNL     1     -13.914   9.127  16.804  1.00  0.00     0.122 C 
BRANCH  35  36
HETATM   36  C27 UNL     1     -14.018   8.970  18.319  1.00  0.00     0.020 C 
BRANCH  36  37
HETATM   37  C28 UNL     1     -13.256  10.047  19.096  1.00  0.00     0.002 C 
BRANCH  37  38
HETATM   38  C29 UNL     1     -11.988   9.511  19.771  1.00  0.00     0.009 C 
BRANCH  38  39
HETATM   39  C30 UNL     1     -11.531  10.386  20.939  1.00  0.00     0.103 C 
BRANCH  39  40
HETATM   40  C31 UNL     1     -11.502   9.659  22.272  1.00  0.00     0.218 C 
HETATM   41  O7  UNL     1     -10.495   9.165  22.764  1.00  0.00    -0.274 OA
HETATM   42  N2  UNL     1     -12.742   9.616  22.877  1.00  0.00    -0.346 N 
HETATM   43  H45 UNL     1     -13.533   9.697  22.248  1.00  0.00     0.163 HD
BRANCH  42  44
HETATM   44  C32 UNL     1     -12.963   8.735  24.038  1.00  0.00     0.186 C 
BRANCH  44  45
HETATM   45  C33 UNL     1     -12.341   7.359  23.761  1.00  0.00     0.074 C 
BRANCH  45  46
HETATM   46  C34 UNL     1     -13.258   6.412  23.023  1.00  0.00    -0.056 A 
HETATM   47  C35 UNL     1     -13.620   5.180  23.583  1.00  0.00     0.007 A 
HETATM   48  C36 UNL     1     -14.478   4.317  22.898  1.00  0.00     0.001 A 
HETATM   49  C37 UNL     1     -14.980   4.678  21.649  1.00  0.00     0.000 A 
HETATM   50  C38 UNL     1     -14.621   5.899  21.080  1.00  0.00     0.001 A 
HETATM   51  C39 UNL     1     -13.766   6.764  21.764  1.00  0.00     0.007 A 
ENDBRANCH  45  46
ENDBRANCH  44  45
BRANCH  44  52
HETATM   52  C40 UNL     1     -12.322   9.363  25.285  1.00  0.00     0.163 C 
HETATM   53  O8  UNL     1     -11.248   9.073  25.786  1.00  0.00    -0.648 OA
BRANCH  52  54
HETATM   54  O9  UNL     1     -13.032  10.398  25.801  1.00  0.00    -0.775 OA
HETATM   55  H54 UNL     1     -12.510  10.656  26.592  1.00  0.00     0.167 HD
ENDBRANCH  52  54
ENDBRANCH  44  52
ENDBRANCH  42  44
ENDBRANCH  39  40
ENDBRANCH  38  39
ENDBRANCH  37  38
ENDBRANCH  36  37
ENDBRANCH  35  36
ENDBRANCH  33  35
ENDBRANCH  30  31
ENDBRANCH  29  30
ENDBRANCH   1  29
TORSDOF 19
ENDMDL
MODEL 3
REMARK minimizedAffinity -8.8440361
REMARK CNNscore 0.477147341
REMARK CNNaffinity 7.8988266
REMARK  19 active torsions:
REMARK  status: ('A' for Active; 'I' for Inactive)
REMARK    1  A    between atoms: C19_20  and  O2_21 
REMARK    2  A    between atoms: C19_20  and  C20_22 
REMARK    3  A    between atoms: C20_22  and  C21_24 
REMARK    4  A    between atoms: C21_24  and  O4_25 
REMARK    5  A    between atoms: O4_25  and  C22_26 
REMARK    6  A    between atoms: C22_26  and  C23_28 
REMARK    7  A    between atoms: C23_28  and  C24_29 
REMARK    8  A    between atoms: C24_29  and  C25_30 
REMARK       I    between atoms: C25_30  and  N1_32 
REMARK    9  A    between atoms: N1_32  and  C26_33 
REMARK   10  A    between atoms: C26_33  and  C27_34 
REMARK   11  A    between atoms: C27_34  and  C28_35 
REMARK   12  A    between atoms: C28_35  and  C29_36 
REMARK   13  A    between atoms: C29_36  and  C30_37 
REMARK   14  A    between atoms: C30_37  and  C31_38 
REMARK       I    between atoms: C31_38  and  N2_40 
REMARK   15  A    between atoms: N2_40  and  C32_41 
REMARK   16  A    between atoms: C32_41  and  C33_42 
REMARK   17  A    between atoms: C32_41  and  C40_49 
REMARK   18  A    between atoms: C33_42  and  C34_43 
REMARK   19  A    between atoms: C40_49  and  O9_51 
ROOT
HETATM    1  C22 UNL     1      -4.936   3.126  11.113  1.00  0.00     0.259 C 
HETATM    2  O5  UNL     1      -5.800   2.868  10.284  1.00  0.00    -0.265 OA
ENDROOT
BRANCH   1   3
HETATM    3  O4  UNL     1      -5.135   3.146  12.456  1.00  0.00    -0.314 OA
BRANCH   3   4
HETATM    4  C21 UNL     1      -6.303   3.856  12.864  1.00  0.00     0.260 C 
BRANCH   4   5
HETATM    5  C20 UNL     1      -5.934   4.901  13.912  1.00  0.00     0.185 C 
HETATM    6  O3  UNL     1      -4.814   5.419  13.946  1.00  0.00    -0.292 OA
BRANCH   5   7
HETATM    7  C19 UNL     1      -7.047   5.296  14.910  1.00  0.00     0.128 C 
HETATM    8  C14 UNL     1      -8.010   6.418  14.410  1.00  0.00    -0.002 C 
HETATM    9  C13 UNL     1      -9.159   5.985  13.482  1.00  0.00     0.013 C 
HETATM   10  C15 UNL     1      -7.205   7.557  13.731  1.00  0.00     0.019 C 
HETATM   11  C16 UNL     1      -8.647   6.837  15.759  1.00  0.00     0.002 C 
HETATM   12  C12 UNL     1     -10.219   7.088  13.316  1.00  0.00     0.007 C 
HETATM   13  C11 UNL     1     -10.768   7.626  14.662  1.00  0.00     0.002 C 
HETATM   14  C2  UNL     1     -11.850   8.762  14.498  1.00  0.00    -0.016 C 
HETATM   15  C10 UNL     1      -9.618   8.018  15.637  1.00  0.00    -0.004 C 
HETATM   16  C1  UNL     1     -11.310   9.971  13.702  1.00  0.00     0.020 C 
HETATM   17  C3  UNL     1     -13.074   8.166  13.739  1.00  0.00     0.022 C 
HETATM   18  C7  UNL     1     -12.285   9.258  15.883  1.00  0.00    -0.068 C 
HETATM   19  C4  UNL     1     -14.332   9.016  13.838  1.00  0.00     0.084 C 
HETATM   20  C5  UNL     1     -14.679   9.272  15.279  1.00  0.00     0.149 C 
HETATM   21  O1  UNL     1     -15.838   9.401  15.663  1.00  0.00    -0.293 OA
HETATM   22  C6  UNL     1     -13.568   9.451  16.241  1.00  0.00     0.053 C 
HETATM   23  C8  UNL     1     -11.187   9.560  16.874  1.00  0.00     0.035 C 
HETATM   24  C9  UNL     1     -10.195   8.410  17.004  1.00  0.00     0.010 C 
HETATM   25  C17 UNL     1      -7.452   6.980  16.694  1.00  0.00     0.009 C 
HETATM   26  C18 UNL     1      -6.457   5.905  16.217  1.00  0.00     0.047 C 
BRANCH   7  27
HETATM   27  O2  UNL     1      -7.801   4.119  15.227  1.00  0.00    -0.381 OA
HETATM   28  H27 UNL     1      -7.718   3.913  16.177  1.00  0.00     0.211 HD
ENDBRANCH   7  27
ENDBRANCH   5   7
ENDBRANCH   4   5
ENDBRANCH   3   4
ENDBRANCH   1   3
BRANCH   1  29
HETATM   29  C23 UNL     1      -3.536   3.560  10.744  1.00  0.00     0.120 C 
BRANCH  29  30
HETATM   30  C24 UNL     1      -2.625   3.811  11.940  1.00  0.00     0.112 C 
BRANCH  30  31
HETATM   31  C25 UNL     1      -1.269   4.339  11.516  1.00  0.00     0.217 C 
HETATM   32  O6  UNL     1      -0.395   3.632  11.030  1.00  0.00    -0.274 OA
HETATM   33  N1  UNL     1      -1.127   5.693  11.728  1.00  0.00    -0.361 N 
HETATM   34  H34 UNL     1      -1.915   6.226  12.069  1.00  0.00     0.162 HD
BRANCH  33  35
HETATM   35  C26 UNL     1       0.058   6.406  11.296  1.00  0.00     0.122 C 
BRANCH  35  36
HETATM   36  C27 UNL     1       1.205   6.211  12.285  1.00  0.00     0.020 C 
BRANCH  36  37
HETATM   37  C28 UNL     1       1.717   7.521  12.890  1.00  0.00     0.002 C 
BRANCH  37  38
HETATM   38  C29 UNL     1       2.299   7.342  14.297  1.00  0.00     0.009 C 
BRANCH  38  39
HETATM   39  C30 UNL     1       3.478   8.278  14.567  1.00  0.00     0.103 C 
BRANCH  39  40
HETATM   40  C31 UNL     1       4.376   8.493  13.363  1.00  0.00     0.218 C 
HETATM   41  O7  UNL     1       4.796   9.587  13.004  1.00  0.00    -0.274 OA
HETATM   42  N2  UNL     1       4.674   7.314  12.709  1.00  0.00    -0.346 N 
HETATM   43  H45 UNL     1       4.001   6.566  12.839  1.00  0.00     0.163 HD
BRANCH  42  44
HETATM   44  C32 UNL     1       5.310   7.350  11.381  1.00  0.00     0.186 C 
BRANCH  44  45
HETATM   45  C33 UNL     1       4.582   8.370  10.493  1.00  0.00     0.074 C 
BRANCH  45  46
HETATM   46  C34 UNL     1       3.746   7.742   9.403  1.00  0.00    -0.056 A 
HETATM   47  C35 UNL     1       3.549   6.356   9.357  1.00  0.00     0.007 A 
HETATM   48  C36 UNL     1       2.765   5.785   8.353  1.00  0.00     0.001 A 
HETATM   49  C37 UNL     1       2.172   6.594   7.386  1.00  0.00     0.000 A 
HETATM   50  C38 UNL     1       2.368   7.974   7.418  1.00  0.00     0.001 A 
HETATM   51  C39 UNL     1       3.148   8.546   8.422  1.00  0.00     0.007 A 
ENDBRANCH  45  46
ENDBRANCH  44  45
BRANCH  44  52
HETATM   52  C40 UNL     1       6.788   7.742  11.533  1.00  0.00     0.163 C 
HETATM   53  O8  UNL     1       7.697   7.040  11.945  1.00  0.00    -0.648 OA
BRANCH  52  54
HETATM   54  O9  UNL     1       7.073   8.987  11.075  1.00  0.00    -0.775 OA
HETATM   55  H54 UNL     1       8.030   9.085  11.273  1.00  0.00     0.167 HD
ENDBRANCH  52  54
ENDBRANCH  44  52
ENDBRANCH  42  44
ENDBRANCH  39  40
ENDBRANCH  38  39
ENDBRANCH  37  38
ENDBRANCH  36  37
ENDBRANCH  35  36
ENDBRANCH  33  35
ENDBRANCH  30  31
ENDBRANCH  29  30
ENDBRANCH   1  29
TORSDOF 19
ENDMDL
MODEL 4
REMARK minimizedAffinity -9.62789345
REMARK CNNscore 0.445225209
REMARK CNNaffinity 7.03275442
REMARK  19 active torsions:
REMARK  status: ('A' for Active; 'I' for Inactive)
REMARK    1  A    between atoms: C19_20  and  O2_21 
REMARK    2  A    between atoms: C19_20  and  C20_22 
REMARK    3  A    between atoms: C20_22  and  C21_24 
REMARK    4  A    between atoms: C21_24  and  O4_25 
REMARK    5  A    between atoms: O4_25  and  C22_26 
REMARK    6  A    between atoms: C22_26  and  C23_28 
REMARK    7  A    between atoms: C23_28  and  C24_29 
REMARK    8  A    between atoms: C24_29  and  C25_30 
REMARK       I    between atoms: C25_30  and  N1_32 
REMARK    9  A    between atoms: N1_32  and  C26_33 
REMARK   10  A    between atoms: C26_33  and  C27_34 
REMARK   11  A    between atoms: C27_34  and  C28_35 
REMARK   12  A    between atoms: C28_35  and  C29_36 
REMARK   13  A    between atoms: C29_36  and  C30_37 
REMARK   14  A    between atoms: C30_37  and  C31_38 
REMARK       I    between atoms: C31_38  and  N2_40 
REMARK   15  A    between atoms: N2_40  and  C32_41 
REMARK   16  A    between atoms: C32_41  and  C33_42 
REMARK   17  A    between atoms: C32_41  and  C40_49 
REMARK   18  A    between atoms: C33_42  and  C34_43 
REMARK   19  A    between atoms: C40_49  and  O9_51 
ROOT
HETATM    1  C22 UNL     1       6.054   7.562  11.030  1.00  0.00     0.259 C 
HETATM    2  O5  UNL     1       6.840   8.405  10.616  1.00  0.00    -0.265 OA
ENDROOT
BRANCH   1   3
HETATM    3  O4  UNL     1       4.844   7.294  10.475  1.00  0.00    -0.314 OA
BRANCH   3   4
HETATM    4  C21 UNL     1       3.917   6.672  11.364  1.00  0.00     0.260 C 
BRANCH   4   5
HETATM    5  C20 UNL     1       2.628   7.487  11.420  1.00  0.00     0.185 C 
HETATM    6  O3  UNL     1       2.631   8.685  11.717  1.00  0.00    -0.292 OA
BRANCH   5   7
HETATM    7  C19 UNL     1       1.326   6.737  11.058  1.00  0.00     0.128 C 
HETATM    8  C14 UNL     1       0.234   6.738  12.174  1.00  0.00    -0.002 C 
HETATM    9  C13 UNL     1      -0.655   7.990  12.275  1.00  0.00     0.013 C 
HETATM   10  C15 UNL     1       0.877   6.452  13.557  1.00  0.00     0.019 C 
HETATM   11  C16 UNL     1      -0.662   5.582  11.664  1.00  0.00     0.002 C 
HETATM   12  C12 UNL     1      -1.884   7.758  13.172  1.00  0.00     0.007 C 
HETATM   13  C11 UNL     1      -2.720   6.517  12.767  1.00  0.00     0.002 C 
HETATM   14  C2  UNL     1      -3.977   6.271  13.686  1.00  0.00    -0.016 C 
HETATM   15  C10 UNL     1      -1.828   5.251  12.605  1.00  0.00    -0.004 C 
HETATM   16  C1  UNL     1      -3.589   6.103  15.172  1.00  0.00     0.020 C 
HETATM   17  C3  UNL     1      -4.930   7.497  13.551  1.00  0.00     0.022 C 
HETATM   18  C7  UNL     1      -4.700   4.995  13.234  1.00  0.00    -0.068 C 
HETATM   19  C4  UNL     1      -6.337   7.242  14.071  1.00  0.00     0.084 C 
HETATM   20  C5  UNL     1      -6.933   6.035  13.401  1.00  0.00     0.149 C 
HETATM   21  O1  UNL     1      -8.137   5.932  13.181  1.00  0.00    -0.293 OA
HETATM   22  C6  UNL     1      -6.033   4.907  13.071  1.00  0.00     0.053 C 
HETATM   23  C8  UNL     1      -3.842   3.778  12.986  1.00  0.00     0.035 C 
HETATM   24  C9  UNL     1      -2.664   4.080  12.067  1.00  0.00     0.010 C 
HETATM   25  C17 UNL     1       0.330   4.475  11.329  1.00  0.00     0.009 C 
HETATM   26  C18 UNL     1       1.584   5.218  10.828  1.00  0.00     0.047 C 
BRANCH   7  27
HETATM   27  O2  UNL     1       0.793   7.320   9.861  1.00  0.00    -0.381 OA
HETATM   28  H27 UNL     1       0.779   6.659   9.144  1.00  0.00     0.211 HD
ENDBRANCH   7  27
ENDBRANCH   5   7
ENDBRANCH   4   5
ENDBRANCH   3   4
ENDBRANCH   1   3
BRANCH   1  29
HETATM   29  C23 UNL     1       6.283   6.762  12.293  1.00  0.00     0.120 C 
BRANCH  29  30
HETATM   30  C24 UNL     1       6.402   7.610  13.555  1.00  0.00     0.112 C 
BRANCH  30  31
HETATM   31  C25 UNL     1       7.845   7.783  13.984  1.00  0.00     0.217 C 
HETATM   32  O6  UNL     1       8.757   8.014  13.200  1.00  0.00    -0.274 OA
HETATM   33  N1  UNL     1       8.021   7.663  15.345  1.00  0.00    -0.361 N 
HETATM   34  H34 UNL     1       7.212   7.541  15.940  1.00  0.00     0.162 HD
BRANCH  33  35
HETATM   35  C26 UNL     1       9.309   7.896  15.965  1.00  0.00     0.122 C 
BRANCH  35  36
HETATM   36  C27 UNL     1       9.211   8.976  17.041  1.00  0.00     0.020 C 
BRANCH  36  37
HETATM   37  C28 UNL     1       9.461  10.389  16.509  1.00  0.00     0.002 C 
BRANCH  37  38
HETATM   38  C29 UNL     1       8.745  11.470  17.328  1.00  0.00     0.009 C 
BRANCH  38  39
HETATM   39  C30 UNL     1       8.764  11.176  18.829  1.00  0.00     0.103 C 
BRANCH  39  40
HETATM   40  C31 UNL     1       8.053  12.224  19.666  1.00  0.00     0.218 C 
HETATM   41  O7  UNL     1       7.437  13.175  19.199  1.00  0.00    -0.274 OA
HETATM   42  N2  UNL     1       8.172  11.989  21.021  1.00  0.00    -0.346 N 
HETATM   43  H45 UNL     1       8.980  11.440  21.295  1.00  0.00     0.163 HD
BRANCH  42  44
HETATM   44  C32 UNL     1       7.775  13.029  21.985  1.00  0.00     0.186 C 
BRANCH  44  45
HETATM   45  C33 UNL     1       7.119  12.370  23.207  1.00  0.00     0.074 C 
BRANCH  45  46
HETATM   46  C34 UNL     1       5.659  12.038  23.011  1.00  0.00    -0.056 A 
HETATM   47  C35 UNL     1       5.217  10.709  23.023  1.00  0.00     0.007 A 
HETATM   48  C36 UNL     1       3.863  10.413  22.853  1.00  0.00     0.001 A 
HETATM   49  C37 UNL     1       2.941  11.440  22.669  1.00  0.00     0.000 A 
HETATM   50  C38 UNL     1       3.371  12.767  22.648  1.00  0.00     0.001 A 
HETATM   51  C39 UNL     1       4.723  13.065  22.822  1.00  0.00     0.007 A 
ENDBRANCH  45  46
ENDBRANCH  44  45
BRANCH  44  52
HETATM   52  C40 UNL     1       9.015  13.826  22.416  1.00  0.00     0.163 C 
HETATM   53  O8  UNL     1       9.860  14.323  21.689  1.00  0.00    -0.648 OA
BRANCH  52  54
HETATM   54  O9  UNL     1       9.093  14.035  23.754  1.00  0.00    -0.775 OA
HETATM   55  H54 UNL     1       9.941  14.519  23.857  1.00  0.00     0.167 HD
ENDBRANCH  52  54
ENDBRANCH  44  52
ENDBRANCH  42  44
ENDBRANCH  39  40
ENDBRANCH  38  39
ENDBRANCH  37  38
ENDBRANCH  36  37
ENDBRANCH  35  36
ENDBRANCH  33  35
ENDBRANCH  30  31
ENDBRANCH  29  30
ENDBRANCH   1  29
TORSDOF 19
ENDMDL
MODEL 5
REMARK minimizedAffinity -7.77961493
REMARK CNNscore 0.364165753
REMARK CNNaffinity 7.6787467
REMARK  19 active torsions:
REMARK  status: ('A' for Active; 'I' for Inactive)
REMARK    1  A    between atoms: C19_20  and  O2_21 
REMARK    2  A    between atoms: C19_20  and  C20_22 
REMARK    3  A    between atoms: C20_22  and  C21_24 
REMARK    4  A    between atoms: C21_24  and  O4_25 
REMARK    5  A    between atoms: O4_25  and  C22_26 
REMARK    6  A    between atoms: C22_26  and  C23_28 
REMARK    7  A    between atoms: C23_28  and  C24_29 
REMARK    8  A    between atoms: C24_29  and  C25_30 
REMARK       I    between atoms: C25_30  and  N1_32 
REMARK    9  A    between atoms: N1_32  and  C26_33 
REMARK   10  A    between atoms: C26_33  and  C27_34 
REMARK   11  A    between atoms: C27_34  and  C28_35 
REMARK   12  A    between atoms: C28_35  and  C29_36 
REMARK   13  A    between atoms: C29_36  and  C30_37 
REMARK   14  A    between atoms: C30_37  and  C31_38 
REMARK       I    between atoms: C31_38  and  N2_40 
REMARK   15  A    between atoms: N2_40  and  C32_41 
REMARK   16  A    between atoms: C32_41  and  C33_42 
REMARK   17  A    between atoms: C32_41  and  C40_49 
REMARK   18  A    between atoms: C33_42  and  C34_43 
REMARK   19  A    between atoms: C40_49  and  O9_51 
ROOT
HETATM    1  C22 UNL     1      -3.928   3.481  10.558  1.00  0.00     0.259 C 
HETATM    2  O5  UNL     1      -4.492   3.541   9.472  1.00  0.00    -0.265 OA
ENDROOT
BRANCH   1   3
HETATM    3  O4  UNL     1      -2.724   4.045  10.835  1.00  0.00    -0.314 OA
BRANCH   3   4
HETATM    4  C21 UNL     1      -2.551   4.410  12.204  1.00  0.00     0.260 C 
BRANCH   4   5
HETATM    5  C20 UNL     1      -1.065   4.565  12.515  1.00  0.00     0.185 C 
HETATM    6  O3  UNL     1      -0.274   3.627  12.385  1.00  0.00    -0.292 OA
BRANCH   5   7
HETATM    7  C19 UNL     1      -0.603   5.968  12.972  1.00  0.00     0.128 C 
HETATM    8  C14 UNL     1      -1.690   6.811  13.708  1.00  0.00    -0.002 C 
HETATM    9  C13 UNL     1      -1.897   6.522  15.206  1.00  0.00     0.013 C 
HETATM   10  C15 UNL     1      -3.051   6.698  12.971  1.00  0.00     0.019 C 
HETATM   11  C16 UNL     1      -1.049   8.218  13.600  1.00  0.00     0.002 C 
HETATM   12  C12 UNL     1      -2.740   7.608  15.896  1.00  0.00     0.007 C 
HETATM   13  C11 UNL     1      -2.197   9.044  15.679  1.00  0.00     0.002 C 
HETATM   14  C2  UNL     1      -3.060  10.162  16.380  1.00  0.00    -0.016 C 
HETATM   15  C10 UNL     1      -1.928   9.336  14.174  1.00  0.00    -0.004 C 
HETATM   16  C1  UNL     1      -4.530  10.147  15.903  1.00  0.00     0.020 C 
HETATM   17  C3  UNL     1      -3.028   9.915  17.918  1.00  0.00     0.022 C 
HETATM   18  C7  UNL     1      -2.468  11.541  16.060  1.00  0.00    -0.068 C 
HETATM   19  C4  UNL     1      -3.491  11.107  18.742  1.00  0.00     0.084 C 
HETATM   20  C5  UNL     1      -2.691  12.331  18.389  1.00  0.00     0.149 C 
HETATM   21  O1  UNL     1      -2.438  13.209  19.207  1.00  0.00    -0.293 OA
HETATM   22  C6  UNL     1      -2.269  12.503  16.980  1.00  0.00     0.053 C 
HETATM   23  C8  UNL     1      -2.118  11.814  14.617  1.00  0.00     0.035 C 
HETATM   24  C9  UNL     1      -1.259  10.709  14.013  1.00  0.00     0.010 C 
HETATM   25  C17 UNL     1      -0.626   8.311  12.139  1.00  0.00     0.009 C 
HETATM   26  C18 UNL     1      -0.228   6.872  11.759  1.00  0.00     0.047 C 
BRANCH   7  27
HETATM   27  O2  UNL     1       0.541   5.806  13.821  1.00  0.00    -0.381 OA
HETATM   28  H27 UNL     1       1.320   6.233  13.418  1.00  0.00     0.211 HD
ENDBRANCH   7  27
ENDBRANCH   5   7
ENDBRANCH   4   5
ENDBRANCH   3   4
ENDBRANCH   1   3
BRANCH   1  29
HETATM   29  C23 UNL     1      -4.456   2.677  11.724  1.00  0.00     0.120 C 
BRANCH  29  30
HETATM   30  C24 UNL     1      -5.870   2.142  11.524  1.00  0.00     0.112 C 
BRANCH  30  31
HETATM   31  C25 UNL     1      -6.872   2.849  12.413  1.00  0.00     0.217 C 
HETATM   32  O6  UNL     1      -7.877   2.307  12.857  1.00  0.00    -0.274 OA
HETATM   33  N1  UNL     1      -6.532   4.158  12.676  1.00  0.00    -0.361 N 
HETATM   34  H34 UNL     1      -5.651   4.519  12.333  1.00  0.00     0.162 HD
BRANCH  33  35
HETATM   35  C26 UNL     1      -7.307   4.973  13.588  1.00  0.00     0.122 C 
BRANCH  35  36
HETATM   36  C27 UNL     1      -6.454   5.440  14.765  1.00  0.00     0.020 C 
BRANCH  36  37
HETATM   37  C28 UNL     1      -6.310   6.962  14.847  1.00  0.00     0.002 C 
BRANCH  37  38
HETATM   38  C29 UNL     1      -7.242   7.595  15.887  1.00  0.00     0.009 C 
BRANCH  38  39
HETATM   39  C30 UNL     1      -8.166   8.652  15.280  1.00  0.00     0.103 C 
BRANCH  39  40
HETATM   40  C31 UNL     1      -9.558   8.137  14.963  1.00  0.00     0.218 C 
HETATM   41  O7  UNL     1      -9.815   6.969  14.695  1.00  0.00    -0.274 OA
HETATM   42  N2  UNL     1     -10.513   9.133  15.010  1.00  0.00    -0.346 N 
HETATM   43  H45 UNL     1     -10.165  10.073  14.858  1.00  0.00     0.163 HD
BRANCH  42  44
HETATM   44  C32 UNL     1     -11.865   8.880  14.481  1.00  0.00     0.186 C 
BRANCH  44  45
HETATM   45  C33 UNL     1     -12.908   9.241  15.548  1.00  0.00     0.074 C 
BRANCH  45  46
HETATM   46  C34 UNL     1     -12.367  10.110  16.659  1.00  0.00    -0.056 A 
HETATM   47  C35 UNL     1     -11.351  11.041  16.413  1.00  0.00     0.007 A 
HETATM   48  C36 UNL     1     -10.866  11.848  17.444  1.00  0.00     0.001 A 
HETATM   49  C37 UNL     1     -11.391  11.731  18.729  1.00  0.00     0.000 A 
HETATM   50  C38 UNL     1     -12.399  10.801  18.987  1.00  0.00     0.001 A 
HETATM   51  C39 UNL     1     -12.887   9.997  17.957  1.00  0.00     0.007 A 
ENDBRANCH  45  46
ENDBRANCH  44  45
BRANCH  44  52
HETATM   52  C40 UNL     1     -12.085   9.728  13.219  1.00  0.00     0.163 C 
HETATM   53  O8  UNL     1     -12.361   9.325  12.100  1.00  0.00    -0.648 OA
BRANCH  52  54
HETATM   54  O9  UNL     1     -12.031  11.065  13.442  1.00  0.00    -0.775 OA
HETATM   55  H54 UNL     1     -12.157  11.447  12.546  1.00  0.00     0.167 HD
ENDBRANCH  52  54
ENDBRANCH  44  52
ENDBRANCH  42  44
ENDBRANCH  39  40
ENDBRANCH  38  39
ENDBRANCH  37  38
ENDBRANCH  36  37
ENDBRANCH  35  36
ENDBRANCH  33  35
ENDBRANCH  30  31
ENDBRANCH  29  30
ENDBRANCH   1  29
TORSDOF 19
ENDMDL
MODEL 6
REMARK minimizedAffinity -8.59224415
REMARK CNNscore 0.283152461
REMARK CNNaffinity 6.46614647
REMARK  19 active torsions:
REMARK  status: ('A' for Active; 'I' for Inactive)
REMARK    1  A    between atoms: C19_20  and  O2_21 
REMARK    2  A    between atoms: C19_20  and  C20_22 
REMARK    3  A    between atoms: C20_22  and  C21_24 
REMARK    4  A    between atoms: C21_24  and  O4_25 
REMARK    5  A    between atoms: O4_25  and  C22_26 
REMARK    6  A    between atoms: C22_26  and  C23_28 
REMARK    7  A    between atoms: C23_28  and  C24_29 
REMARK    8  A    between atoms: C24_29  and  C25_30 
REMARK       I    between atoms: C25_30  and  N1_32 
REMARK    9  A    between atoms: N1_32  and  C26_33 
REMARK   10  A    between atoms: C26_33  and  C27_34 
REMARK   11  A    between atoms: C27_34  and  C28_35 
REMARK   12  A    between atoms: C28_35  and  C29_36 
REMARK   13  A    between atoms: C29_36  and  C30_37 
REMARK   14  A    between atoms: C30_37  and  C31_38 
REMARK       I    between atoms: C31_38  and  N2_40 
REMARK   15  A    between atoms: N2_40  and  C32_41 
REMARK   16  A    between atoms: C32_41  and  C33_42 
REMARK   17  A    between atoms: C32_41  and  C40_49 
REMARK   18  A    between atoms: C33_42  and  C34_43 
REMARK   19  A    between atoms: C40_49  and  O9_51 
ROOT
HETATM    1  C22 UNL     1       5.773   7.164  10.941  1.00  0.00     0.259 C 
HETATM    2  O5  UNL     1       6.833   6.831  10.424  1.00  0.00    -0.265 OA
ENDROOT
BRANCH   1   3
HETATM    3  O4  UNL     1       5.572   7.287  12.278  1.00  0.00    -0.314 OA
BRANCH   3   4
HETATM    4  C21 UNL     1       6.737   7.656  13.014  1.00  0.00     0.260 C 
BRANCH   4   5
HETATM    5  C20 UNL     1       6.375   8.694  14.071  1.00  0.00     0.185 C 
HETATM    6  O3  UNL     1       5.466   9.510  13.895  1.00  0.00    -0.292 OA
BRANCH   5   7
HETATM    7  C19 UNL     1       7.189   8.649  15.385  1.00  0.00     0.128 C 
HETATM    8  C14 UNL     1       7.397  10.033  16.077  1.00  0.00    -0.002 C 
HETATM    9  C13 UNL     1       6.242  10.553  16.951  1.00  0.00     0.013 C 
HETATM   10  C15 UNL     1       7.771  11.111  15.026  1.00  0.00     0.019 C 
HETATM   11  C16 UNL     1       8.565   9.675  17.031  1.00  0.00     0.002 C 
HETATM   12  C12 UNL     1       6.669  11.741  17.830  1.00  0.00     0.007 C 
HETATM   13  C11 UNL     1       7.926  11.454  18.690  1.00  0.00     0.002 C 
HETATM   14  C2  UNL     1       8.372  12.671  19.589  1.00  0.00    -0.016 C 
HETATM   15  C10 UNL     1       9.089  10.874  17.832  1.00  0.00    -0.004 C 
HETATM   16  C1  UNL     1       8.661  13.937  18.753  1.00  0.00     0.020 C 
HETATM   17  C3  UNL     1       7.223  12.983  20.595  1.00  0.00     0.022 C 
HETATM   18  C7  UNL     1       9.649  12.300  20.354  1.00  0.00    -0.068 C 
HETATM   19  C4  UNL     1       7.648  13.866  21.758  1.00  0.00     0.084 C 
HETATM   20  C5  UNL     1       8.824  13.260  22.474  1.00  0.00     0.149 C 
HETATM   21  O1  UNL     1       9.004  13.402  23.680  1.00  0.00    -0.293 OA
HETATM   22  C6  UNL     1       9.832  12.536  21.667  1.00  0.00     0.053 C 
HETATM   23  C8  UNL     1      10.758  11.656  19.557  1.00  0.00     0.035 C 
HETATM   24  C9  UNL     1      10.263  10.471  18.736  1.00  0.00     0.010 C 
HETATM   25  C17 UNL     1       9.543   8.921  16.138  1.00  0.00     0.009 C 
HETATM   26  C18 UNL     1       8.650   8.164  15.138  1.00  0.00     0.047 C 
BRANCH   7  27
HETATM   27  O2  UNL     1       6.532   7.751  16.287  1.00  0.00    -0.381 OA
HETATM   28  H27 UNL     1       7.113   6.995  16.491  1.00  0.00     0.211 HD
ENDBRANCH   7  27
ENDBRANCH   5   7
ENDBRANCH   4   5
ENDBRANCH   3   4
ENDBRANCH   1   3
BRANCH   1  29
HETATM   29  C23 UNL     1       4.502   7.390  10.156  1.00  0.00     0.120 C 
BRANCH  29  30
HETATM   30  C24 UNL     1       3.574   8.438  10.760  1.00  0.00     0.112 C 
BRANCH  30  31
HETATM   31  C25 UNL     1       2.147   7.938  10.861  1.00  0.00     0.217 C 
HETATM   32  O6  UNL     1       1.182   8.571  10.452  1.00  0.00    -0.274 OA
HETATM   33  N1  UNL     1       2.051   6.697  11.452  1.00  0.00    -0.361 N 
HETATM   34  H34 UNL     1       2.896   6.201  11.703  1.00  0.00     0.162 HD
BRANCH  33  35
HETATM   35  C26 UNL     1       0.784   6.001  11.550  1.00  0.00     0.122 C 
BRANCH  35  36
HETATM   36  C27 UNL     1       0.994   4.491  11.626  1.00  0.00     0.020 C 
BRANCH  36  37
HETATM   37  C28 UNL     1      -0.313   3.694  11.636  1.00  0.00     0.002 C 
BRANCH  37  38
HETATM   38  C29 UNL     1      -1.551   4.575  11.435  1.00  0.00     0.009 C 
BRANCH  38  39
HETATM   39  C30 UNL     1      -2.822   3.756  11.208  1.00  0.00     0.103 C 
BRANCH  39  40
HETATM   40  C31 UNL     1      -3.914   4.028  12.226  1.00  0.00     0.218 C 
HETATM   41  O7  UNL     1      -3.723   4.559  13.315  1.00  0.00    -0.274 OA
HETATM   42  N2  UNL     1      -5.157   3.614  11.792  1.00  0.00    -0.346 N 
HETATM   43  H45 UNL     1      -5.148   2.877  11.095  1.00  0.00     0.163 HD
BRANCH  42  44
HETATM   44  C32 UNL     1      -6.285   3.555  12.739  1.00  0.00     0.186 C 
BRANCH  44  45
HETATM   45  C33 UNL     1      -7.114   4.843  12.627  1.00  0.00     0.074 C 
BRANCH  45  46
HETATM   46  C34 UNL     1      -7.148   5.659  13.897  1.00  0.00    -0.056 A 
HETATM   47  C35 UNL     1      -7.393   5.052  15.135  1.00  0.00     0.007 A 
HETATM   48  C36 UNL     1      -7.410   5.813  16.305  1.00  0.00     0.001 A 
HETATM   49  C37 UNL     1      -7.183   7.187  16.249  1.00  0.00     0.000 A 
HETATM   50  C38 UNL     1      -6.944   7.802  15.020  1.00  0.00     0.001 A 
HETATM   51  C39 UNL     1      -6.924   7.043  13.850  1.00  0.00     0.007 A 
ENDBRANCH  45  46
ENDBRANCH  44  45
BRANCH  44  52
HETATM   52  C40 UNL     1      -7.159   2.334  12.418  1.00  0.00     0.163 C 
HETATM   53  O8  UNL     1      -8.277   2.095  12.845  1.00  0.00    -0.648 OA
BRANCH  52  54
HETATM   54  O9  UNL     1      -6.614   1.500  11.497  1.00  0.00    -0.775 OA
HETATM   55  H54 UNL     1      -7.273   0.774  11.435  1.00  0.00     0.167 HD
ENDBRANCH  52  54
ENDBRANCH  44  52
ENDBRANCH  42  44
ENDBRANCH  39  40
ENDBRANCH  38  39
ENDBRANCH  37  38
ENDBRANCH  36  37
ENDBRANCH  35  36
ENDBRANCH  33  35
ENDBRANCH  30  31
ENDBRANCH  29  30
ENDBRANCH   1  29
TORSDOF 19
ENDMDL
MODEL 7
REMARK minimizedAffinity -7.77688932
REMARK CNNscore 0.282106549
REMARK CNNaffinity 7.15957689
REMARK  19 active torsions:
REMARK  status: ('A' for Active; 'I' for Inactive)
REMARK    1  A    between atoms: C19_20  and  O2_21 
REMARK    2  A    between atoms: C19_20  and  C20_22 
REMARK    3  A    between atoms: C20_22  and  C21_24 
REMARK    4  A    between atoms: C21_24  and  O4_25 
REMARK    5  A    between atoms: O4_25  and  C22_26 
REMARK    6  A    between atoms: C22_26  and  C23_28 
REMARK    7  A    between atoms: C23_28  and  C24_29 
REMARK    8  A    between atoms: C24_29  and  C25_30 
REMARK       I    between atoms: C25_30  and  N1_32 
REMARK    9  A    between atoms: N1_32  and  C26_33 
REMARK   10  A    between atoms: C26_33  and  C27_34 
REMARK   11  A    between atoms: C27_34  and  C28_35 
REMARK   12  A    between atoms: C28_35  and  C29_36 
REMARK   13  A    between atoms: C29_36  and  C30_37 
REMARK   14  A    between atoms: C30_37  and  C31_38 
REMARK       I    between atoms: C31_38  and  N2_40 
REMARK   15  A    between atoms: N2_40  and  C32_41 
REMARK   16  A    between atoms: C32_41  and  C33_42 
REMARK   17  A    between atoms: C32_41  and  C40_49 
REMARK   18  A    between atoms: C33_42  and  C34_43 
REMARK   19  A    between atoms: C40_49  and  O9_51 
ROOT
HETATM    1  C22 UNL     1       2.210   6.562  10.834  1.00  0.00     0.259 C 
HETATM    2  O5  UNL     1       1.614   5.826  10.057  1.00  0.00    -0.265 OA
ENDROOT
BRANCH   1   3
HETATM    3  O4  UNL     1       2.015   6.589  12.177  1.00  0.00    -0.314 OA
BRANCH   3   4
HETATM    4  C21 UNL     1       0.717   7.035  12.570  1.00  0.00     0.260 C 
BRANCH   4   5
HETATM    5  C20 UNL     1      -0.108   5.853  13.068  1.00  0.00     0.185 C 
HETATM    6  O3  UNL     1       0.341   5.047  13.888  1.00  0.00    -0.292 OA
BRANCH   5   7
HETATM    7  C19 UNL     1      -1.546   5.738  12.513  1.00  0.00     0.128 C 
HETATM    8  C14 UNL     1      -2.678   5.937  13.570  1.00  0.00    -0.002 C 
HETATM    9  C13 UNL     1      -3.056   7.387  13.917  1.00  0.00     0.013 C 
HETATM   10  C15 UNL     1      -2.338   5.168  14.874  1.00  0.00     0.019 C 
HETATM   11  C16 UNL     1      -3.872   5.328  12.792  1.00  0.00     0.002 C 
HETATM   12  C12 UNL     1      -4.375   7.470  14.705  1.00  0.00     0.007 C 
HETATM   13  C11 UNL     1      -5.555   6.741  14.014  1.00  0.00     0.002 C 
HETATM   14  C2  UNL     1      -6.909   6.818  14.820  1.00  0.00    -0.016 C 
HETATM   15  C10 UNL     1      -5.174   5.288  13.604  1.00  0.00    -0.004 C 
HETATM   16  C1  UNL     1      -6.773   6.233  16.243  1.00  0.00     0.020 C 
HETATM   17  C3  UNL     1      -7.330   8.314  14.930  1.00  0.00     0.022 C 
HETATM   18  C7  UNL     1      -7.992   6.024  14.078  1.00  0.00    -0.068 C 
HETATM   19  C4  UNL     1      -8.780   8.516  15.341  1.00  0.00     0.084 C 
HETATM   20  C5  UNL     1      -9.698   7.779  14.405  1.00  0.00     0.149 C 
HETATM   21  O1  UNL     1     -10.824   8.184  14.133  1.00  0.00    -0.293 OA
HETATM   22  C6  UNL     1      -9.239   6.480  13.861  1.00  0.00     0.053 C 
HETATM   23  C8  UNL     1      -7.614   4.645  13.594  1.00  0.00     0.035 C 
HETATM   24  C9  UNL     1      -6.314   4.649  12.799  1.00  0.00     0.010 C 
HETATM   25  C17 UNL     1      -3.320   4.015  12.252  1.00  0.00     0.009 C 
HETATM   26  C18 UNL     1      -1.835   4.309  11.963  1.00  0.00     0.047 C 
BRANCH   7  27
HETATM   27  O2  UNL     1      -1.696   6.697  11.458  1.00  0.00    -0.381 OA
HETATM   28  H27 UNL     1      -1.872   6.242  10.614  1.00  0.00     0.211 HD
ENDBRANCH   7  27
ENDBRANCH   5   7
ENDBRANCH   4   5
ENDBRANCH   3   4
ENDBRANCH   1   3
BRANCH   1  29
HETATM   29  C23 UNL     1       3.188   7.625  10.385  1.00  0.00     0.120 C 
BRANCH  29  30
HETATM   30  C24 UNL     1       4.633   7.145  10.296  1.00  0.00     0.112 C 
BRANCH  30  31
HETATM   31  C25 UNL     1       5.540   7.911  11.237  1.00  0.00     0.217 C 
HETATM   32  O6  UNL     1       5.354   9.081  11.547  1.00  0.00    -0.274 OA
HETATM   33  N1  UNL     1       6.589   7.153  11.710  1.00  0.00    -0.361 N 
HETATM   34  H34 UNL     1       6.642   6.173  11.466  1.00  0.00     0.162 HD
BRANCH  33  35
HETATM   35  C26 UNL     1       7.511   7.672  12.700  1.00  0.00     0.122 C 
BRANCH  35  36
HETATM   36  C27 UNL     1       6.969   7.468  14.113  1.00  0.00     0.020 C 
BRANCH  36  37
HETATM   37  C28 UNL     1       6.961   8.748  14.952  1.00  0.00     0.002 C 
BRANCH  37  38
HETATM   38  C29 UNL     1       7.555   8.548  16.352  1.00  0.00     0.009 C 
BRANCH  38  39
HETATM   39  C30 UNL     1       9.083   8.482  16.336  1.00  0.00     0.103 C 
BRANCH  39  40
HETATM   40  C31 UNL     1       9.745   9.772  15.889  1.00  0.00     0.218 C 
HETATM   41  O7  UNL     1       9.519  10.869  16.387  1.00  0.00    -0.274 OA
HETATM   42  N2  UNL     1      10.639   9.577  14.856  1.00  0.00    -0.346 N 
HETATM   43  H45 UNL     1      10.470   8.754  14.288  1.00  0.00     0.163 HD
BRANCH  42  44
HETATM   44  C32 UNL     1      11.178  10.736  14.122  1.00  0.00     0.186 C 
BRANCH  44  45
HETATM   45  C33 UNL     1      12.711  10.734  14.217  1.00  0.00     0.074 C 
BRANCH  45  46
HETATM   46  C34 UNL     1      13.251  11.548  15.369  1.00  0.00    -0.056 A 
HETATM   47  C35 UNL     1      12.558  12.668  15.844  1.00  0.00     0.007 A 
HETATM   48  C36 UNL     1      13.059  13.407  16.917  1.00  0.00     0.001 A 
HETATM   49  C37 UNL     1      14.257  13.034  17.523  1.00  0.00     0.000 A 
HETATM   50  C38 UNL     1      14.959  11.925  17.053  1.00  0.00     0.001 A 
HETATM   51  C39 UNL     1      14.457  11.183  15.983  1.00  0.00     0.007 A 
ENDBRANCH  45  46
ENDBRANCH  44  45
BRANCH  44  52
HETATM   52  C40 UNL     1      10.740  10.657  12.652  1.00  0.00     0.163 C 
HETATM   53  O8  UNL     1       9.597  10.611  12.225  1.00  0.00    -0.648 OA
BRANCH  52  54
HETATM   54  O9  UNL     1      11.769  10.725  11.770  1.00  0.00    -0.775 OA
HETATM   55  H54 UNL     1      11.325  10.630  10.899  1.00  0.00     0.167 HD
ENDBRANCH  52  54
ENDBRANCH  44  52
ENDBRANCH  42  44
ENDBRANCH  39  40
ENDBRANCH  38  39
ENDBRANCH  37  38
ENDBRANCH  36  37
ENDBRANCH  35  36
ENDBRANCH  33  35
ENDBRANCH  30  31
ENDBRANCH  29  30
ENDBRANCH   1  29
TORSDOF 19
ENDMDL
MODEL 8
REMARK minimizedAffinity -8.77217102
REMARK CNNscore 0.272086263
REMARK CNNaffinity 6.59271669
REMARK  19 active torsions:
REMARK  status: ('A' for Active; 'I' for Inactive)
REMARK    1  A    between atoms: C19_20  and  O2_21 
REMARK    2  A    between atoms: C19_20  and  C20_22 
REMARK    3  A    between atoms: C20_22  and  C21_24 
REMARK    4  A    between atoms: C21_24  and  O4_25 
REMARK    5  A    between atoms: O4_25  and  C22_26 
REMARK    6  A    between atoms: C22_26  and  C23_28 
REMARK    7  A    between atoms: C23_28  and  C24_29 
REMARK    8  A    between atoms: C24_29  and  C25_30 
REMARK       I    between atoms: C25_30  and  N1_32 
REMARK    9  A    between atoms: N1_32  and  C26_33 
REMARK   10  A    between atoms: C26_33  and  C27_34 
REMARK   11  A    between atoms: C27_34  and  C28_35 
REMARK   12  A    between atoms: C28_35  and  C29_36 
REMARK   13  A    between atoms: C29_36  and  C30_37 
REMARK   14  A    between atoms: C30_37  and  C31_38 
REMARK       I    between atoms: C31_38  and  N2_40 
REMARK   15  A    between atoms: N2_40  and  C32_41 
REMARK   16  A    between atoms: C32_41  and  C33_42 
REMARK   17  A    between atoms: C32_41  and  C40_49 
REMARK   18  A    between atoms: C33_42  and  C34_43 
REMARK   19  A    between atoms: C40_49  and  O9_51 
ROOT
HETATM    1  C22 UNL     1       5.020   7.239  10.712  1.00  0.00     0.259 C 
HETATM    2  O5  UNL     1       4.721   6.340   9.935  1.00  0.00    -0.265 OA
ENDROOT
BRANCH   1   3
HETATM    3  O4  UNL     1       4.128   8.036  11.353  1.00  0.00    -0.314 OA
BRANCH   3   4
HETATM    4  C21 UNL     1       3.128   7.325  12.083  1.00  0.00     0.260 C 
BRANCH   4   5
HETATM    5  C20 UNL     1       1.801   8.075  12.008  1.00  0.00     0.185 C 
HETATM    6  O3  UNL     1       1.713   9.268  12.311  1.00  0.00    -0.292 OA
BRANCH   5   7
HETATM    7  C19 UNL     1       0.583   7.266  11.505  1.00  0.00     0.128 C 
HETATM    8  C14 UNL     1      -0.565   7.091  12.547  1.00  0.00    -0.002 C 
HETATM    9  C13 UNL     1      -1.554   8.261  12.695  1.00  0.00     0.013 C 
HETATM   10  C15 UNL     1       0.020   6.735  13.939  1.00  0.00     0.019 C 
HETATM   11  C16 UNL     1      -1.340   5.921  11.890  1.00  0.00     0.002 C 
HETATM   12  C12 UNL     1      -2.809   7.865  13.492  1.00  0.00     0.007 C 
HETATM   13  C11 UNL     1      -3.522   6.605  12.936  1.00  0.00     0.002 C 
HETATM   14  C2  UNL     1      -4.806   6.191  13.752  1.00  0.00    -0.016 C 
HETATM   15  C10 UNL     1      -2.526   5.426  12.726  1.00  0.00    -0.004 C 
HETATM   16  C1  UNL     1      -4.489   5.923  15.240  1.00  0.00     0.020 C 
HETATM   17  C3  UNL     1      -5.842   7.350  13.659  1.00  0.00     0.022 C 
HETATM   18  C7  UNL     1      -5.401   4.909  13.152  1.00  0.00    -0.068 C 
HETATM   19  C4  UNL     1      -7.251   6.950  14.068  1.00  0.00     0.084 C 
HETATM   20  C5  UNL     1      -7.714   5.765  13.265  1.00  0.00     0.149 C 
HETATM   21  O1  UNL     1      -8.891   5.594  12.963  1.00  0.00    -0.293 OA
HETATM   22  C6  UNL     1      -6.712   4.738  12.900  1.00  0.00     0.053 C 
HETATM   23  C8  UNL     1      -4.438   3.784  12.860  1.00  0.00     0.035 C 
HETATM   24  C9  UNL     1      -3.238   4.249  12.044  1.00  0.00     0.010 C 
HETATM   25  C17 UNL     1      -0.247   4.923  11.528  1.00  0.00     0.009 C 
HETATM   26  C18 UNL     1       0.971   5.795  11.168  1.00  0.00     0.047 C 
BRANCH   7  27
HETATM   27  O2  UNL     1       0.075   7.909  10.329  1.00  0.00    -0.381 OA
HETATM   28  H27 UNL     1       0.152   7.313   9.561  1.00  0.00     0.211 HD
ENDBRANCH   7  27
ENDBRANCH   5   7
ENDBRANCH   4   5
ENDBRANCH   3   4
ENDBRANCH   1   3
BRANCH   1  29
HETATM   29  C23 UNL     1       6.447   7.653  10.990  1.00  0.00     0.120 C 
BRANCH  29  30
HETATM   30  C24 UNL     1       6.582   8.789  11.998  1.00  0.00     0.112 C 
BRANCH  30  31
HETATM   31  C25 UNL     1       7.644   8.497  13.038  1.00  0.00     0.217 C 
HETATM   32  O6  UNL     1       8.524   7.659  12.884  1.00  0.00    -0.274 OA
HETATM   33  N1  UNL     1       7.522   9.276  14.168  1.00  0.00    -0.361 N 
HETATM   34  H34 UNL     1       6.812   9.996  14.199  1.00  0.00     0.162 HD
BRANCH  33  35
HETATM   35  C26 UNL     1       8.499   9.220  15.236  1.00  0.00     0.122 C 
BRANCH  35  36
HETATM   36  C27 UNL     1       8.432  10.474  16.105  1.00  0.00     0.020 C 
BRANCH  36  37
HETATM   37  C28 UNL     1       9.591  10.589  17.098  1.00  0.00     0.002 C 
BRANCH  37  38
HETATM   38  C29 UNL     1       9.617  11.935  17.832  1.00  0.00     0.009 C 
BRANCH  38  39
HETATM   39  C30 UNL     1       8.485  12.068  18.852  1.00  0.00     0.103 C 
BRANCH  39  40
HETATM   40  C31 UNL     1       8.967  12.213  20.284  1.00  0.00     0.218 C 
HETATM   41  O7  UNL     1       9.855  11.531  20.783  1.00  0.00    -0.274 OA
HETATM   42  N2  UNL     1       8.295  13.204  20.970  1.00  0.00    -0.346 N 
HETATM   43  H45 UNL     1       7.370  13.423  20.616  1.00  0.00     0.163 HD
BRANCH  42  44
HETATM   44  C32 UNL     1       8.440  13.313  22.432  1.00  0.00     0.186 C 
BRANCH  44  45
HETATM   45  C33 UNL     1       7.672  14.545  22.932  1.00  0.00     0.074 C 
BRANCH  45  46
HETATM   46  C34 UNL     1       8.564  15.660  23.426  1.00  0.00    -0.056 A 
HETATM   47  C35 UNL     1       9.363  16.389  22.536  1.00  0.00     0.007 A 
HETATM   48  C36 UNL     1      10.174  17.426  23.001  1.00  0.00     0.001 A 
HETATM   49  C37 UNL     1      10.195  17.742  24.357  1.00  0.00     0.000 A 
HETATM   50  C38 UNL     1       9.409  17.018  25.253  1.00  0.00     0.001 A 
HETATM   51  C39 UNL     1       8.595  15.984  24.790  1.00  0.00     0.007 A 
ENDBRANCH  45  46
ENDBRANCH  44  45
BRANCH  44  52
HETATM   52  C40 UNL     1       7.889  12.042  23.097  1.00  0.00     0.163 C 
HETATM   53  O8  UNL     1       6.717  11.729  23.228  1.00  0.00    -0.648 OA
BRANCH  52  54
HETATM   54  O9  UNL     1       8.851  11.173  23.496  1.00  0.00    -0.775 OA
HETATM   55  H54 UNL     1       8.339  10.449  23.918  1.00  0.00     0.167 HD
ENDBRANCH  52  54
ENDBRANCH  44  52
ENDBRANCH  42  44
ENDBRANCH  39  40
ENDBRANCH  38  39
ENDBRANCH  37  38
ENDBRANCH  36  37
ENDBRANCH  35  36
ENDBRANCH  33  35
ENDBRANCH  30  31
ENDBRANCH  29  30
ENDBRANCH   1  29
TORSDOF 19
ENDMDL
MODEL 9
REMARK minimizedAffinity -7.84507895
REMARK CNNscore 0.258691072
REMARK CNNaffinity 6.48395109
REMARK  19 active torsions:
REMARK  status: ('A' for Active; 'I' for Inactive)
REMARK    1  A    between atoms: C19_20  and  O2_21 
REMARK    2  A    between atoms: C19_20  and  C20_22 
REMARK    3  A    between atoms: C20_22  and  C21_24 
REMARK    4  A    between atoms: C21_24  and  O4_25 
REMARK    5  A    between atoms: O4_25  and  C22_26 
REMARK    6  A    between atoms: C22_26  and  C23_28 
REMARK    7  A    between atoms: C23_28  and  C24_29 
REMARK    8  A    between atoms: C24_29  and  C25_30 
REMARK       I    between atoms: C25_30  and  N1_32 
REMARK    9  A    between atoms: N1_32  and  C26_33 
REMARK   10  A    between atoms: C26_33  and  C27_34 
REMARK   11  A    between atoms: C27_34  and  C28_35 
REMARK   12  A    between atoms: C28_35  and  C29_36 
REMARK   13  A    between atoms: C29_36  and  C30_37 
REMARK   14  A    between atoms: C30_37  and  C31_38 
REMARK       I    between atoms: C31_38  and  N2_40 
REMARK   15  A    between atoms: N2_40  and  C32_41 
REMARK   16  A    between atoms: C32_41  and  C33_42 
REMARK   17  A    between atoms: C32_41  and  C40_49 
REMARK   18  A    between atoms: C33_42  and  C34_43 
REMARK   19  A    between atoms: C40_49  and  O9_51 
ROOT
HETATM    1  C22 UNL     1       5.016   6.710  10.929  1.00  0.00     0.259 C 
HETATM    2  O5  UNL     1       4.622   6.058   9.970  1.00  0.00    -0.265 OA
ENDROOT
BRANCH   1   3
HETATM    3  O4  UNL     1       4.245   7.561  11.654  1.00  0.00    -0.314 OA
BRANCH   3   4
HETATM    4  C21 UNL     1       3.070   6.963  12.201  1.00  0.00     0.260 C 
BRANCH   4   5
HETATM    5  C20 UNL     1       1.846   7.795  11.832  1.00  0.00     0.185 C 
HETATM    6  O3  UNL     1       1.862   9.029  11.880  1.00  0.00    -0.292 OA
BRANCH   5   7
HETATM    7  C19 UNL     1       0.597   7.011  11.369  1.00  0.00     0.128 C 
HETATM    8  C14 UNL     1      -0.536   6.889  12.435  1.00  0.00    -0.002 C 
HETATM    9  C13 UNL     1      -1.489   8.089  12.576  1.00  0.00     0.013 C 
HETATM   10  C15 UNL     1       0.065   6.545  13.824  1.00  0.00     0.019 C 
HETATM   11  C16 UNL     1      -1.354   5.728  11.816  1.00  0.00     0.002 C 
HETATM   12  C12 UNL     1      -2.740   7.744  13.404  1.00  0.00     0.007 C 
HETATM   13  C11 UNL     1      -3.497   6.494  12.887  1.00  0.00     0.002 C 
HETATM   14  C2  UNL     1      -4.776   6.131  13.735  1.00  0.00    -0.016 C 
HETATM   15  C10 UNL     1      -2.538   5.283  12.685  1.00  0.00    -0.004 C 
HETATM   16  C1  UNL     1      -4.439   5.886  15.223  1.00  0.00     0.020 C 
HETATM   17  C3  UNL     1      -5.782   7.317  13.637  1.00  0.00     0.022 C 
HETATM   18  C7  UNL     1      -5.418   4.855  13.174  1.00  0.00    -0.068 C 
HETATM   19  C4  UNL     1      -7.194   6.964  14.079  1.00  0.00     0.084 C 
HETATM   20  C5  UNL     1      -7.704   5.777  13.310  1.00  0.00     0.149 C 
HETATM   21  O1  UNL     1      -8.891   5.633  13.034  1.00  0.00    -0.293 OA
HETATM   22  C6  UNL     1      -6.737   4.715  12.949  1.00  0.00     0.053 C 
HETATM   23  C8  UNL     1      -4.491   3.697  12.887  1.00  0.00     0.035 C 
HETATM   24  C9  UNL     1      -3.295   4.112  12.040  1.00  0.00     0.010 C 
HETATM   25  C17 UNL     1      -0.297   4.692  11.456  1.00  0.00     0.009 C 
HETATM   26  C18 UNL     1       0.938   5.523  11.056  1.00  0.00     0.047 C 
BRANCH   7  27
HETATM   27  O2  UNL     1       0.084   7.644  10.189  1.00  0.00    -0.381 OA
HETATM   28  H27 UNL     1       0.131   7.030   9.433  1.00  0.00     0.211 HD
ENDBRANCH   7  27
ENDBRANCH   5   7
ENDBRANCH   4   5
ENDBRANCH   3   4
ENDBRANCH   1   3
BRANCH   1  29
HETATM   29  C23 UNL     1       6.458   6.732  11.382  1.00  0.00     0.120 C 
BRANCH  29  30
HETATM   30  C24 UNL     1       6.644   7.080  12.855  1.00  0.00     0.112 C 
BRANCH  30  31
HETATM   31  C25 UNL     1       7.514   8.307  13.039  1.00  0.00     0.217 C 
HETATM   32  O6  UNL     1       7.699   9.138  12.158  1.00  0.00    -0.274 OA
HETATM   33  N1  UNL     1       8.066   8.394  14.298  1.00  0.00    -0.361 N 
HETATM   34  H34 UNL     1       7.814   7.708  14.997  1.00  0.00     0.162 HD
BRANCH  33  35
HETATM   35  C26 UNL     1       8.846   9.545  14.705  1.00  0.00     0.122 C 
BRANCH  35  36
HETATM   36  C27 UNL     1       9.314   9.404  16.152  1.00  0.00     0.020 C 
BRANCH  36  37
HETATM   37  C28 UNL     1       9.586  10.746  16.837  1.00  0.00     0.002 C 
BRANCH  37  38
HETATM   38  C29 UNL     1       9.047  10.803  18.271  1.00  0.00     0.009 C 
BRANCH  38  39
HETATM   39  C30 UNL     1      10.151  11.039  19.303  1.00  0.00     0.103 C 
BRANCH  39  40
HETATM   40  C31 UNL     1      10.393  12.504  19.615  1.00  0.00     0.218 C 
HETATM   41  O7  UNL     1      11.462  12.956  20.009  1.00  0.00    -0.274 OA
HETATM   42  N2  UNL     1       9.273  13.282  19.402  1.00  0.00    -0.346 N 
HETATM   43  H45 UNL     1       8.388  12.789  19.455  1.00  0.00     0.163 HD
BRANCH  42  44
HETATM   44  C32 UNL     1       9.238  14.670  19.894  1.00  0.00     0.186 C 
BRANCH  44  45
HETATM   45  C33 UNL     1       9.440  14.679  21.416  1.00  0.00     0.074 C 
BRANCH  45  46
HETATM   46  C34 UNL     1       8.441  15.535  22.159  1.00  0.00    -0.056 A 
HETATM   47  C35 UNL     1       7.921  16.699  21.579  1.00  0.00     0.007 A 
HETATM   48  C36 UNL     1       6.989  17.477  22.269  1.00  0.00     0.001 A 
HETATM   49  C37 UNL     1       6.571  17.100  23.543  1.00  0.00     0.000 A 
HETATM   50  C38 UNL     1       7.087  15.947  24.132  1.00  0.00     0.001 A 
HETATM   51  C39 UNL     1       8.016  15.166  23.443  1.00  0.00     0.007 A 
ENDBRANCH  45  46
ENDBRANCH  44  45
BRANCH  44  52
HETATM   52  C40 UNL     1      10.347  15.483  19.209  1.00  0.00     0.163 C 
HETATM   53  O8  UNL     1      10.403  15.807  18.034  1.00  0.00    -0.648 OA
BRANCH  52  54
HETATM   54  O9  UNL     1      11.304  15.928  20.062  1.00  0.00    -0.775 OA
HETATM   55  H54 UNL     1      11.936  16.389  19.468  1.00  0.00     0.167 HD
ENDBRANCH  52  54
ENDBRANCH  44  52
ENDBRANCH  42  44
ENDBRANCH  39  40
ENDBRANCH  38  39
ENDBRANCH  37  38
ENDBRANCH  36  37
ENDBRANCH  35  36
ENDBRANCH  33  35
ENDBRANCH  30  31
ENDBRANCH  29  30
ENDBRANCH   1  29
TORSDOF 19
ENDMDL
