MODEL 1
REMARK minimizedAffinity -11.0075741
REMARK CNNscore 0.724656343
REMARK CNNaffinity 8.05384827
REMARK  12 active torsions:
REMARK  status: ('A' for Active; 'I' for Inactive)
REMARK    1  A    between atoms: O1_2  and  C2_3 
REMARK    2  A    between atoms: C4_5  and  C5_6 
REMARK    3  A    between atoms: C8_10  and  O3_11 
REMARK    4  A    between atoms: O3_11  and  C9_12 
REMARK    5  A    between atoms: C9_12  and  C10_13 
REMARK    6  A    between atoms: C10_13  and  O4_14 
REMARK    7  A    between atoms: C15_19  and  O5_20 
REMARK    8  A    between atoms: C19_24  and  C20_25 
REMARK    9  A    between atoms: C20_25  and  C21_26 
REMARK   10  A    between atoms: C21_26  and  N1_27 
REMARK   11  A    between atoms: C32_39  and  O6_40 
REMARK   12  A    between atoms: C35_43  and  O7_44 
ROOT
HETATM    1  C5  UNL     1      -4.370  48.364 -26.654  1.00  0.00     0.191 C 
HETATM    2  O2  UNL     1      -3.843  49.668 -26.910  1.00  0.00    -0.338 OA
HETATM    3  C6  UNL     1      -3.056  50.200 -25.918  1.00  0.00     0.079 A 
HETATM    4  C7  UNL     1      -2.411  51.369 -26.309  1.00  0.00     0.075 A 
HETATM    5  C8  UNL     1      -1.606  52.065 -25.418  1.00  0.00     0.083 A 
HETATM    6  C11 UNL     1      -1.339  51.524 -24.133  1.00  0.00     0.015 A 
HETATM    7  C12 UNL     1      -0.472  52.236 -23.137  1.00  0.00    -0.016 A 
HETATM    8  C13 UNL     1       0.612  53.065 -23.475  1.00  0.00     0.015 A 
HETATM    9  C14 UNL     1       1.339  53.762 -22.503  1.00  0.00     0.037 A 
HETATM   10  C15 UNL     1       1.001  53.621 -21.166  1.00  0.00     0.066 A 
HETATM   11  C16 UNL     1      -0.023  52.769 -20.785  1.00  0.00     0.044 A 
HETATM   12  C17 UNL     1      -0.734  52.057 -21.761  1.00  0.00    -0.044 A 
HETATM   13  C18 UNL     1      -1.755  51.020 -21.362  1.00  0.00     0.049 C 
HETATM   14  C19 UNL     1      -1.584  49.807 -22.302  1.00  0.00     0.027 C 
HETATM   15  C29 UNL     1      -2.004  50.299 -23.724  1.00  0.00    -0.031 A 
HETATM   16  C30 UNL     1      -2.930  49.681 -24.613  1.00  0.00    -0.015 A 
HETATM   17  C31 UNL     1      -3.822  48.516 -24.253  1.00  0.00     0.076 C 
HETATM   18  C32 UNL     1      -4.979  48.307 -25.241  1.00  0.00     0.156 C 
ENDROOT
BRANCH  14  19
HETATM   19  C20 UNL     1      -2.150  48.478 -21.731  1.00  0.00     0.041 C 
BRANCH  19  20
HETATM   20  C21 UNL     1      -3.314  48.460 -20.672  1.00  0.00     0.038 C 
HETATM   21  C25 UNL     1      -2.831  48.891 -19.263  1.00  0.00     0.031 C 
HETATM   22  C26 UNL     1      -3.326  50.315 -19.080  1.00  0.00     0.002 C 
HETATM   23  C27 UNL     1      -4.657  50.338 -19.810  1.00  0.00     0.002 C 
HETATM   24  C28 UNL     1      -4.464  49.439 -21.026  1.00  0.00     0.031 C 
BRANCH  20  25
HETATM   25  N1  UNL     1      -3.922  47.065 -20.593  1.00  0.00    -0.342 N 
HETATM   26  C22 UNL     1      -4.867  46.553 -21.403  1.00  0.00     0.183 A 
HETATM   27  N2  UNL     1      -5.110  45.299 -21.007  1.00  0.00    -0.361 N 
HETATM   28  C23 UNL     1      -4.371  44.991 -19.894  1.00  0.00     0.106 A 
HETATM   29  H22 UNL     1      -5.764  44.670 -21.470  1.00  0.00     0.166 HD
HETATM   30  C24 UNL     1      -3.636  46.106 -19.607  1.00  0.00     0.109 A 
ENDBRANCH  20  25
ENDBRANCH  19  20
ENDBRANCH  14  19
BRANCH   5  31
HETATM   31  O3  UNL     1      -1.054  53.279 -25.736  1.00  0.00    -0.348 OA
BRANCH  31  32
HETATM   32  C9  UNL     1      -0.052  53.316 -26.765  1.00  0.00     0.201 C 
BRANCH  32  33
HETATM   33  C10 UNL     1      -0.497  54.316 -27.830  1.00  0.00     0.190 C 
BRANCH  33  34
HETATM   34  O4  UNL     1      -1.863  54.086 -28.175  1.00  0.00    -0.399 OA
HETATM   35  H11 UNL     1      -2.157  54.846 -28.707  1.00  0.00     0.209 HD
ENDBRANCH  33  34
ENDBRANCH  32  33
ENDBRANCH  31  32
ENDBRANCH   5  31
BRANCH  10  36
HETATM   36  O5  UNL     1       1.678  54.281 -20.184  1.00  0.00    -0.361 OA
HETATM   37  H14 UNL     1       2.274  54.928 -20.598  1.00  0.00     0.217 HD
ENDBRANCH  10  36
BRANCH  18  38
HETATM   38  O6  UNL     1      -6.001  49.290 -25.037  1.00  0.00    -0.392 OA
HETATM   39  H36 UNL     1      -5.913  49.702 -24.160  1.00  0.00     0.210 HD
ENDBRANCH  18  38
BRANCH   1  40
HETATM   40  C4  UNL     1      -5.260  47.974 -27.822  1.00  0.00    -0.024 A 
HETATM   41  C3  UNL     1      -6.506  47.374 -27.543  1.00  0.00     0.049 A 
HETATM   42  C2  UNL     1      -7.376  46.996 -28.570  1.00  0.00     0.101 A 
HETATM   43  C35 UNL     1      -7.009  47.230 -29.896  1.00  0.00     0.099 A 
HETATM   44  C34 UNL     1      -5.774  47.801 -30.197  1.00  0.00     0.040 A 
HETATM   45  C33 UNL     1      -4.905  48.165 -29.165  1.00  0.00     0.013 A 
BRANCH  42  46
HETATM   46  O1  UNL     1      -8.613  46.454 -28.338  1.00  0.00    -0.353 OA
HETATM   47  C1  UNL     1      -9.573  47.364 -27.815  1.00  0.00     0.210 C 
ENDBRANCH  42  46
BRANCH  43  48
HETATM   48  O7  UNL     1      -7.864  46.877 -30.905  1.00  0.00    -0.358 OA
HETATM   49  H39 UNL     1      -7.436  47.033 -31.759  1.00  0.00     0.217 HD
ENDBRANCH  43  48
ENDBRANCH   1  40
TORSDOF 12
ENDMDL
MODEL 2
REMARK minimizedAffinity -11.4431286
REMARK CNNscore 0.650767088
REMARK CNNaffinity 8.18589497
REMARK  12 active torsions:
REMARK  status: ('A' for Active; 'I' for Inactive)
REMARK    1  A    between atoms: O1_2  and  C2_3 
REMARK    2  A    between atoms: C4_5  and  C5_6 
REMARK    3  A    between atoms: C8_10  and  O3_11 
REMARK    4  A    between atoms: O3_11  and  C9_12 
REMARK    5  A    between atoms: C9_12  and  C10_13 
REMARK    6  A    between atoms: C10_13  and  O4_14 
REMARK    7  A    between atoms: C15_19  and  O5_20 
REMARK    8  A    between atoms: C19_24  and  C20_25 
REMARK    9  A    between atoms: C20_25  and  C21_26 
REMARK   10  A    between atoms: C21_26  and  N1_27 
REMARK   11  A    between atoms: C32_39  and  O6_40 
REMARK   12  A    between atoms: C35_43  and  O7_44 
ROOT
HETATM    1  C5  UNL     1      -4.244  48.419 -26.494  1.00  0.00     0.191 C 
HETATM    2  O2  UNL     1      -3.756  49.744 -26.722  1.00  0.00    -0.338 OA
HETATM    3  C6  UNL     1      -2.967  50.270 -25.729  1.00  0.00     0.079 A 
HETATM    4  C7  UNL     1      -2.360  51.466 -26.099  1.00  0.00     0.075 A 
HETATM    5  C8  UNL     1      -1.559  52.160 -25.202  1.00  0.00     0.083 A 
HETATM    6  C11 UNL     1      -1.257  51.592 -23.937  1.00  0.00     0.015 A 
HETATM    7  C12 UNL     1      -0.392  52.300 -22.935  1.00  0.00    -0.016 A 
HETATM    8  C13 UNL     1       0.664  53.167 -23.269  1.00  0.00     0.015 A 
HETATM    9  C14 UNL     1       1.388  53.857 -22.290  1.00  0.00     0.037 A 
HETATM   10  C15 UNL     1       1.076  53.671 -20.952  1.00  0.00     0.066 A 
HETATM   11  C16 UNL     1       0.082  52.782 -20.577  1.00  0.00     0.044 A 
HETATM   12  C17 UNL     1      -0.627  52.076 -21.561  1.00  0.00    -0.044 A 
HETATM   13  C18 UNL     1      -1.612  51.002 -21.175  1.00  0.00     0.049 C 
HETATM   14  C19 UNL     1      -1.425  49.820 -22.150  1.00  0.00     0.027 C 
HETATM   15  C29 UNL     1      -1.882  50.338 -23.550  1.00  0.00    -0.031 A 
HETATM   16  C30 UNL     1      -2.805  49.719 -24.441  1.00  0.00    -0.015 A 
HETATM   17  C31 UNL     1      -3.660  48.521 -24.098  1.00  0.00     0.076 C 
HETATM   18  C32 UNL     1      -4.827  48.307 -25.074  1.00  0.00     0.156 C 
ENDROOT
BRANCH  14  19
HETATM   19  C20 UNL     1      -1.945  48.461 -21.606  1.00  0.00     0.041 C 
BRANCH  19  20
HETATM   20  C21 UNL     1      -3.082  48.384 -20.521  1.00  0.00     0.038 C 
HETATM   21  C25 UNL     1      -2.671  49.070 -19.191  1.00  0.00     0.031 C 
HETATM   22  C26 UNL     1      -3.403  50.401 -19.178  1.00  0.00     0.002 C 
HETATM   23  C27 UNL     1      -4.723  50.101 -19.865  1.00  0.00     0.002 C 
HETATM   24  C28 UNL     1      -4.385  49.099 -20.963  1.00  0.00     0.031 C 
BRANCH  20  25
HETATM   25  N1  UNL     1      -3.439  46.928 -20.247  1.00  0.00    -0.342 N 
HETATM   26  C22 UNL     1      -3.726  45.985 -21.164  1.00  0.00     0.183 A 
HETATM   27  N2  UNL     1      -3.967  44.841 -20.513  1.00  0.00    -0.361 N 
HETATM   28  C23 UNL     1      -3.903  45.033 -19.157  1.00  0.00     0.106 A 
HETATM   29  H22 UNL     1      -4.179  43.957 -20.972  1.00  0.00     0.166 HD
HETATM   30  C24 UNL     1      -3.595  46.351 -18.975  1.00  0.00     0.109 A 
ENDBRANCH  20  25
ENDBRANCH  19  20
ENDBRANCH  14  19
BRANCH   5  31
HETATM   31  O3  UNL     1      -1.046  53.396 -25.496  1.00  0.00    -0.348 OA
BRANCH  31  32
HETATM   32  C9  UNL     1       0.033  53.472 -26.442  1.00  0.00     0.201 C 
BRANCH  32  33
HETATM   33  C10 UNL     1      -0.530  53.975 -27.769  1.00  0.00     0.190 C 
BRANCH  33  34
HETATM   34  O4  UNL     1      -0.219  53.051 -28.813  1.00  0.00    -0.399 OA
HETATM   35  H11 UNL     1      -0.746  53.309 -29.591  1.00  0.00     0.209 HD
ENDBRANCH  33  34
ENDBRANCH  32  33
ENDBRANCH  31  32
ENDBRANCH   5  31
BRANCH  10  36
HETATM   36  O5  UNL     1       1.751  54.322 -19.963  1.00  0.00    -0.361 OA
HETATM   37  H14 UNL     1       2.323  54.996 -20.369  1.00  0.00     0.217 HD
ENDBRANCH  10  36
BRANCH  18  38
HETATM   38  O6  UNL     1      -5.872  49.257 -24.827  1.00  0.00    -0.392 OA
HETATM   39  H36 UNL     1      -5.780  49.648 -23.940  1.00  0.00     0.210 HD
ENDBRANCH  18  38
BRANCH   1  40
HETATM   40  C4  UNL     1      -5.143  48.037 -27.657  1.00  0.00    -0.024 A 
HETATM   41  C3  UNL     1      -4.635  48.166 -28.967  1.00  0.00     0.049 A 
HETATM   42  C2  UNL     1      -5.407  47.827 -30.082  1.00  0.00     0.101 A 
HETATM   43  C35 UNL     1      -6.701  47.340 -29.894  1.00  0.00     0.099 A 
HETATM   44  C34 UNL     1      -7.233  47.225 -28.611  1.00  0.00     0.040 A 
HETATM   45  C33 UNL     1      -6.459  47.577 -27.502  1.00  0.00     0.013 A 
BRANCH  42  46
HETATM   46  O1  UNL     1      -4.932  47.894 -31.366  1.00  0.00    -0.353 OA
HETATM   47  C1  UNL     1      -4.357  46.686 -31.852  1.00  0.00     0.210 C 
ENDBRANCH  42  46
BRANCH  43  48
HETATM   48  O7  UNL     1      -7.455  46.991 -30.982  1.00  0.00    -0.358 OA
HETATM   49  H39 UNL     1      -8.346  46.747 -30.690  1.00  0.00     0.217 HD
ENDBRANCH  43  48
ENDBRANCH   1  40
TORSDOF 12
ENDMDL
MODEL 3
REMARK minimizedAffinity -11.0820522
REMARK CNNscore 0.450279295
REMARK CNNaffinity 7.83731794
REMARK  12 active torsions:
REMARK  status: ('A' for Active; 'I' for Inactive)
REMARK    1  A    between atoms: O1_2  and  C2_3 
REMARK    2  A    between atoms: C4_5  and  C5_6 
REMARK    3  A    between atoms: C8_10  and  O3_11 
REMARK    4  A    between atoms: O3_11  and  C9_12 
REMARK    5  A    between atoms: C9_12  and  C10_13 
REMARK    6  A    between atoms: C10_13  and  O4_14 
REMARK    7  A    between atoms: C15_19  and  O5_20 
REMARK    8  A    between atoms: C19_24  and  C20_25 
REMARK    9  A    between atoms: C20_25  and  C21_26 
REMARK   10  A    between atoms: C21_26  and  N1_27 
REMARK   11  A    between atoms: C32_39  and  O6_40 
REMARK   12  A    between atoms: C35_43  and  O7_44 
ROOT
HETATM    1  C5  UNL     1      -4.367  48.389 -26.644  1.00  0.00     0.191 C 
HETATM    2  O2  UNL     1      -3.784  49.669 -26.905  1.00  0.00    -0.338 OA
HETATM    3  C6  UNL     1      -3.027  50.199 -25.890  1.00  0.00     0.079 A 
HETATM    4  C7  UNL     1      -2.324  51.336 -26.277  1.00  0.00     0.075 A 
HETATM    5  C8  UNL     1      -1.539  52.027 -25.364  1.00  0.00     0.083 A 
HETATM    6  C11 UNL     1      -1.353  51.510 -24.056  1.00  0.00     0.015 A 
HETATM    7  C12 UNL     1      -0.510  52.218 -23.036  1.00  0.00    -0.016 A 
HETATM    8  C13 UNL     1       0.617  53.002 -23.342  1.00  0.00     0.015 A 
HETATM    9  C14 UNL     1       1.321  53.699 -22.352  1.00  0.00     0.037 A 
HETATM   10  C15 UNL     1       0.915  53.603 -21.030  1.00  0.00     0.066 A 
HETATM   11  C16 UNL     1      -0.155  52.795 -20.679  1.00  0.00     0.044 A 
HETATM   12  C17 UNL     1      -0.843  52.082 -21.671  1.00  0.00    -0.044 A 
HETATM   13  C18 UNL     1      -1.917  51.091 -21.297  1.00  0.00     0.049 C 
HETATM   14  C19 UNL     1      -1.743  49.849 -22.199  1.00  0.00     0.027 C 
HETATM   15  C29 UNL     1      -2.079  50.318 -23.650  1.00  0.00    -0.031 A 
HETATM   16  C30 UNL     1      -2.981  49.709 -24.568  1.00  0.00    -0.015 A 
HETATM   17  C31 UNL     1      -3.929  48.584 -24.224  1.00  0.00     0.076 C 
HETATM   18  C32 UNL     1      -5.044  48.388 -25.262  1.00  0.00     0.156 C 
ENDROOT
BRANCH  14  19
HETATM   19  C20 UNL     1      -2.382  48.555 -21.624  1.00  0.00     0.041 C 
BRANCH  19  20
HETATM   20  C21 UNL     1      -3.558  48.604 -20.580  1.00  0.00     0.038 C 
HETATM   21  C25 UNL     1      -4.343  49.940 -20.644  1.00  0.00     0.031 C 
HETATM   22  C26 UNL     1      -5.636  49.618 -21.373  1.00  0.00     0.002 C 
HETATM   23  C27 UNL     1      -5.964  48.203 -20.932  1.00  0.00     0.002 C 
HETATM   24  C28 UNL     1      -4.618  47.496 -20.817  1.00  0.00     0.031 C 
BRANCH  20  25
HETATM   25  N1  UNL     1      -3.010  48.407 -19.172  1.00  0.00    -0.342 N 
HETATM   26  C22 UNL     1      -2.637  47.242 -18.610  1.00  0.00     0.183 A 
HETATM   27  N2  UNL     1      -2.200  47.505 -17.373  1.00  0.00    -0.361 N 
HETATM   28  C23 UNL     1      -2.337  48.839 -17.085  1.00  0.00     0.106 A 
HETATM   29  H22 UNL     1      -1.827  46.802 -16.738  1.00  0.00     0.166 HD
HETATM   30  C24 UNL     1      -2.871  49.415 -18.203  1.00  0.00     0.109 A 
ENDBRANCH  20  25
ENDBRANCH  19  20
ENDBRANCH  14  19
BRANCH   5  31
HETATM   31  O3  UNL     1      -0.931  53.214 -25.685  1.00  0.00    -0.348 OA
BRANCH  31  32
HETATM   32  C9  UNL     1      -0.078  53.245 -26.840  1.00  0.00     0.201 C 
BRANCH  32  33
HETATM   33  C10 UNL     1      -0.517  54.409 -27.726  1.00  0.00     0.190 C 
BRANCH  33  34
HETATM   34  O4  UNL     1      -1.789  54.127 -28.310  1.00  0.00    -0.399 OA
HETATM   35  H11 UNL     1      -2.113  54.954 -28.708  1.00  0.00     0.209 HD
ENDBRANCH  33  34
ENDBRANCH  32  33
ENDBRANCH  31  32
ENDBRANCH   5  31
BRANCH  10  36
HETATM   36  O5  UNL     1       1.566  54.264 -20.033  1.00  0.00    -0.361 OA
HETATM   37  H14 UNL     1       2.204  54.880 -20.432  1.00  0.00     0.217 HD
ENDBRANCH  10  36
BRANCH  18  38
HETATM   38  O6  UNL     1      -6.041  49.411 -25.131  1.00  0.00    -0.392 OA
HETATM   39  H36 UNL     1      -5.980  49.842 -24.261  1.00  0.00     0.210 HD
ENDBRANCH  18  38
BRANCH   1  40
HETATM   40  C4  UNL     1      -5.214  48.000 -27.844  1.00  0.00    -0.024 A 
HETATM   41  C3  UNL     1      -4.748  48.340 -29.132  1.00  0.00     0.049 A 
HETATM   42  C2  UNL     1      -5.475  48.007 -30.279  1.00  0.00     0.101 A 
HETATM   43  C35 UNL     1      -6.679  47.315 -30.146  1.00  0.00     0.099 A 
HETATM   44  C34 UNL     1      -7.171  46.988 -28.885  1.00  0.00     0.040 A 
HETATM   45  C33 UNL     1      -6.445  47.334 -27.743  1.00  0.00     0.013 A 
BRANCH  42  46
HETATM   46  O1  UNL     1      -5.032  48.279 -31.547  1.00  0.00    -0.353 OA
HETATM   47  C1  UNL     1      -4.463  47.167 -32.229  1.00  0.00     0.210 C 
ENDBRANCH  42  46
BRANCH  43  48
HETATM   48  O7  UNL     1      -7.386  46.972 -31.267  1.00  0.00    -0.358 OA
HETATM   49  H39 UNL     1      -8.227  46.567 -31.006  1.00  0.00     0.217 HD
ENDBRANCH  43  48
ENDBRANCH   1  40
TORSDOF 12
ENDMDL
MODEL 4
REMARK minimizedAffinity -9.85907364
REMARK CNNscore 0.379958153
REMARK CNNaffinity 7.4541297
REMARK  12 active torsions:
REMARK  status: ('A' for Active; 'I' for Inactive)
REMARK    1  A    between atoms: O1_2  and  C2_3 
REMARK    2  A    between atoms: C4_5  and  C5_6 
REMARK    3  A    between atoms: C8_10  and  O3_11 
REMARK    4  A    between atoms: O3_11  and  C9_12 
REMARK    5  A    between atoms: C9_12  and  C10_13 
REMARK    6  A    between atoms: C10_13  and  O4_14 
REMARK    7  A    between atoms: C15_19  and  O5_20 
REMARK    8  A    between atoms: C19_24  and  C20_25 
REMARK    9  A    between atoms: C20_25  and  C21_26 
REMARK   10  A    between atoms: C21_26  and  N1_27 
REMARK   11  A    between atoms: C32_39  and  O6_40 
REMARK   12  A    between atoms: C35_43  and  O7_44 
ROOT
HETATM    1  C5  UNL     1      -2.150  49.716 -24.176  1.00  0.00     0.191 C 
HETATM    2  O2  UNL     1      -1.592  50.959 -23.739  1.00  0.00    -0.338 OA
HETATM    3  C6  UNL     1      -1.206  51.010 -22.423  1.00  0.00     0.079 A 
HETATM    4  C7  UNL     1      -0.488  52.162 -22.115  1.00  0.00     0.075 A 
HETATM    5  C8  UNL     1      -0.053  52.399 -20.818  1.00  0.00     0.083 A 
HETATM    6  C11 UNL     1      -0.234  51.409 -19.818  1.00  0.00     0.015 A 
HETATM    7  C12 UNL     1       0.223  51.617 -18.404  1.00  0.00    -0.016 A 
HETATM    8  C13 UNL     1       1.341  52.386 -18.035  1.00  0.00     0.015 A 
HETATM    9  C14 UNL     1       1.675  52.604 -16.693  1.00  0.00     0.037 A 
HETATM   10  C15 UNL     1       0.900  52.033 -15.695  1.00  0.00     0.066 A 
HETATM   11  C16 UNL     1      -0.176  51.221 -16.016  1.00  0.00     0.044 A 
HETATM   12  C17 UNL     1      -0.493  50.988 -17.362  1.00  0.00    -0.044 A 
HETATM   13  C18 UNL     1      -1.568  49.998 -17.736  1.00  0.00     0.049 C 
HETATM   14  C19 UNL     1      -1.060  49.190 -18.950  1.00  0.00     0.027 C 
HETATM   15  C29 UNL     1      -0.976  50.201 -20.137  1.00  0.00    -0.031 A 
HETATM   16  C30 UNL     1      -1.526  50.049 -21.443  1.00  0.00    -0.015 A 
HETATM   17  C31 UNL     1      -2.465  48.939 -21.856  1.00  0.00     0.076 C 
HETATM   18  C32 UNL     1      -3.206  49.227 -23.170  1.00  0.00     0.156 C 
ENDROOT
BRANCH  14  19
HETATM   19  C20 UNL     1      -1.762  47.816 -19.135  1.00  0.00     0.041 C 
BRANCH  19  20
HETATM   20  C21 UNL     1      -3.125  47.480 -18.424  1.00  0.00     0.038 C 
HETATM   21  C25 UNL     1      -3.334  45.952 -18.250  1.00  0.00     0.031 C 
HETATM   22  C26 UNL     1      -3.044  45.666 -16.787  1.00  0.00     0.002 C 
HETATM   23  C27 UNL     1      -3.543  46.904 -16.064  1.00  0.00     0.002 C 
HETATM   24  C28 UNL     1      -3.217  48.069 -16.992  1.00  0.00     0.031 C 
BRANCH  20  25
HETATM   25  N1  UNL     1      -4.285  48.059 -19.223  1.00  0.00    -0.342 N 
HETATM   26  C22 UNL     1      -4.967  47.447 -20.209  1.00  0.00     0.183 A 
HETATM   27  N2  UNL     1      -5.914  48.289 -20.637  1.00  0.00    -0.361 N 
HETATM   28  C23 UNL     1      -5.827  49.489 -19.979  1.00  0.00     0.106 A 
HETATM   29  H22 UNL     1      -6.595  48.063 -21.360  1.00  0.00     0.166 HD
HETATM   30  C24 UNL     1      -4.787  49.366 -19.102  1.00  0.00     0.109 A 
ENDBRANCH  20  25
ENDBRANCH  19  20
ENDBRANCH  14  19
BRANCH   5  31
HETATM   31  O3  UNL     1       0.550  53.578 -20.461  1.00  0.00    -0.348 OA
BRANCH  31  32
HETATM   32  C9  UNL     1       1.583  54.093 -21.316  1.00  0.00     0.201 C 
BRANCH  32  33
HETATM   33  C10 UNL     1       1.028  54.179 -22.737  1.00  0.00     0.190 C 
BRANCH  33  34
HETATM   34  O4  UNL     1       1.840  55.049 -23.526  1.00  0.00    -0.399 OA
HETATM   35  H11 UNL     1       1.569  54.932 -24.454  1.00  0.00     0.209 HD
ENDBRANCH  33  34
ENDBRANCH  32  33
ENDBRANCH  31  32
ENDBRANCH   5  31
BRANCH  10  36
HETATM   36  O5  UNL     1       1.184  52.218 -14.375  1.00  0.00    -0.361 OA
HETATM   37  H14 UNL     1       1.874  52.900 -14.298  1.00  0.00     0.217 HD
ENDBRANCH  10  36
BRANCH  18  38
HETATM   38  O6  UNL     1      -4.255  50.180 -22.959  1.00  0.00    -0.392 OA
HETATM   39  H36 UNL     1      -4.482  50.239 -22.014  1.00  0.00     0.210 HD
ENDBRANCH  18  38
BRANCH   1  40
HETATM   40  C4  UNL     1      -2.576  49.872 -25.626  1.00  0.00    -0.024 A 
HETATM   41  C3  UNL     1      -3.465  48.920 -26.169  1.00  0.00     0.049 A 
HETATM   42  C2  UNL     1      -3.902  49.007 -27.494  1.00  0.00     0.101 A 
HETATM   43  C35 UNL     1      -3.458  50.064 -28.291  1.00  0.00     0.099 A 
HETATM   44  C34 UNL     1      -2.562  51.003 -27.785  1.00  0.00     0.040 A 
HETATM   45  C33 UNL     1      -2.122  50.902 -26.463  1.00  0.00     0.013 A 
BRANCH  42  46
HETATM   46  O1  UNL     1      -4.801  48.130 -28.042  1.00  0.00    -0.353 OA
HETATM   47  C1  UNL     1      -5.848  47.727 -27.167  1.00  0.00     0.210 C 
ENDBRANCH  42  46
BRANCH  43  48
HETATM   48  O7  UNL     1      -3.896  50.162 -29.584  1.00  0.00    -0.358 OA
HETATM   49  H39 UNL     1      -3.442  50.898 -30.022  1.00  0.00     0.217 HD
ENDBRANCH  43  48
ENDBRANCH   1  40
TORSDOF 12
ENDMDL
MODEL 5
REMARK minimizedAffinity -11.4735689
REMARK CNNscore 0.349567384
REMARK CNNaffinity 7.9464736
REMARK  12 active torsions:
REMARK  status: ('A' for Active; 'I' for Inactive)
REMARK    1  A    between atoms: O1_2  and  C2_3 
REMARK    2  A    between atoms: C4_5  and  C5_6 
REMARK    3  A    between atoms: C8_10  and  O3_11 
REMARK    4  A    between atoms: O3_11  and  C9_12 
REMARK    5  A    between atoms: C9_12  and  C10_13 
REMARK    6  A    between atoms: C10_13  and  O4_14 
REMARK    7  A    between atoms: C15_19  and  O5_20 
REMARK    8  A    between atoms: C19_24  and  C20_25 
REMARK    9  A    between atoms: C20_25  and  C21_26 
REMARK   10  A    between atoms: C21_26  and  N1_27 
REMARK   11  A    between atoms: C32_39  and  O6_40 
REMARK   12  A    between atoms: C35_43  and  O7_44 
ROOT
HETATM    1  C5  UNL     1      -4.367  48.438 -26.318  1.00  0.00     0.191 C 
HETATM    2  O2  UNL     1      -3.774  49.717 -26.559  1.00  0.00    -0.338 OA
HETATM    3  C6  UNL     1      -3.017  50.227 -25.534  1.00  0.00     0.079 A 
HETATM    4  C7  UNL     1      -2.305  51.365 -25.903  1.00  0.00     0.075 A 
HETATM    5  C8  UNL     1      -1.517  52.038 -24.979  1.00  0.00     0.083 A 
HETATM    6  C11 UNL     1      -1.339  51.501 -23.677  1.00  0.00     0.015 A 
HETATM    7  C12 UNL     1      -0.494  52.188 -22.645  1.00  0.00    -0.016 A 
HETATM    8  C13 UNL     1       0.640  52.968 -22.936  1.00  0.00     0.015 A 
HETATM    9  C14 UNL     1       1.345  53.646 -21.934  1.00  0.00     0.037 A 
HETATM   10  C15 UNL     1       0.934  53.535 -20.615  1.00  0.00     0.066 A 
HETATM   11  C16 UNL     1      -0.142  52.730 -20.278  1.00  0.00     0.044 A 
HETATM   12  C17 UNL     1      -0.832  52.035 -21.283  1.00  0.00    -0.044 A 
HETATM   13  C18 UNL     1      -1.914  51.046 -20.926  1.00  0.00     0.049 C 
HETATM   14  C19 UNL     1      -1.746  49.816 -21.845  1.00  0.00     0.027 C 
HETATM   15  C29 UNL     1      -2.074  50.309 -23.290  1.00  0.00    -0.031 A 
HETATM   16  C30 UNL     1      -2.978  49.719 -24.220  1.00  0.00    -0.015 A 
HETATM   17  C31 UNL     1      -3.935  48.596 -23.894  1.00  0.00     0.076 C 
HETATM   18  C32 UNL     1      -5.048  48.422 -24.938  1.00  0.00     0.156 C 
ENDROOT
BRANCH  14  19
HETATM   19  C20 UNL     1      -2.395  48.518 -21.290  1.00  0.00     0.041 C 
BRANCH  19  20
HETATM   20  C21 UNL     1      -3.455  48.553 -20.128  1.00  0.00     0.038 C 
HETATM   21  C25 UNL     1      -3.674  47.155 -19.492  1.00  0.00     0.031 C 
HETATM   22  C26 UNL     1      -2.925  47.187 -18.171  1.00  0.00     0.002 C 
HETATM   23  C27 UNL     1      -3.086  48.619 -17.692  1.00  0.00     0.002 C 
HETATM   24  C28 UNL     1      -3.029  49.473 -18.954  1.00  0.00     0.031 C 
BRANCH  20  25
HETATM   25  N1  UNL     1      -4.784  49.082 -20.653  1.00  0.00    -0.342 N 
HETATM   26  C22 UNL     1      -5.132  50.374 -20.804  1.00  0.00     0.183 A 
HETATM   27  N2  UNL     1      -6.371  50.408 -21.307  1.00  0.00    -0.361 N 
HETATM   28  C23 UNL     1      -6.876  49.140 -21.435  1.00  0.00     0.106 A 
HETATM   29  H22 UNL     1      -6.865  51.265 -21.549  1.00  0.00     0.166 HD
HETATM   30  C24 UNL     1      -5.894  48.295 -21.002  1.00  0.00     0.109 A 
ENDBRANCH  20  25
ENDBRANCH  19  20
ENDBRANCH  14  19
BRANCH   5  31
HETATM   31  O3  UNL     1      -0.901  53.224 -25.280  1.00  0.00    -0.348 OA
BRANCH  31  32
HETATM   32  C9  UNL     1       0.136  53.213 -26.275  1.00  0.00     0.201 C 
BRANCH  32  33
HETATM   33  C10 UNL     1      -0.185  54.286 -27.312  1.00  0.00     0.190 C 
BRANCH  33  34
HETATM   34  O4  UNL     1       0.141  55.577 -26.796  1.00  0.00    -0.399 OA
HETATM   35  H11 UNL     1       0.099  56.204 -27.540  1.00  0.00     0.209 HD
ENDBRANCH  33  34
ENDBRANCH  32  33
ENDBRANCH  31  32
ENDBRANCH   5  31
BRANCH  10  36
HETATM   36  O5  UNL     1       1.588  54.177 -19.607  1.00  0.00    -0.361 OA
HETATM   37  H14 UNL     1       2.230  54.795 -19.996  1.00  0.00     0.217 HD
ENDBRANCH  10  36
BRANCH  18  38
HETATM   38  O6  UNL     1      -6.038  49.450 -24.796  1.00  0.00    -0.392 OA
HETATM   39  H36 UNL     1      -5.977  49.868 -23.919  1.00  0.00     0.210 HD
ENDBRANCH  18  38
BRANCH   1  40
HETATM   40  C4  UNL     1      -5.213  48.072 -27.526  1.00  0.00    -0.024 A 
HETATM   41  C3  UNL     1      -4.705  48.357 -28.811  1.00  0.00     0.049 A 
HETATM   42  C2  UNL     1      -5.428  48.041 -29.965  1.00  0.00     0.101 A 
HETATM   43  C35 UNL     1      -6.673  47.421 -29.841  1.00  0.00     0.099 A 
HETATM   44  C34 UNL     1      -7.206  47.151 -28.583  1.00  0.00     0.040 A 
HETATM   45  C33 UNL     1      -6.481  47.480 -27.435  1.00  0.00     0.013 A 
BRANCH  42  46
HETATM   46  O1  UNL     1      -4.948  48.259 -31.229  1.00  0.00    -0.353 OA
HETATM   47  C1  UNL     1      -5.654  47.578 -32.260  1.00  0.00     0.210 C 
ENDBRANCH  42  46
BRANCH  43  48
HETATM   48  O7  UNL     1      -7.378  47.096 -30.968  1.00  0.00    -0.358 OA
HETATM   49  H39 UNL     1      -8.245  46.745 -30.715  1.00  0.00     0.217 HD
ENDBRANCH  43  48
ENDBRANCH   1  40
TORSDOF 12
ENDMDL
MODEL 6
REMARK minimizedAffinity -10.2339334
REMARK CNNscore 0.328001708
REMARK CNNaffinity 7.61662865
REMARK  12 active torsions:
REMARK  status: ('A' for Active; 'I' for Inactive)
REMARK    1  A    between atoms: O1_2  and  C2_3 
REMARK    2  A    between atoms: C4_5  and  C5_6 
REMARK    3  A    between atoms: C8_10  and  O3_11 
REMARK    4  A    between atoms: O3_11  and  C9_12 
REMARK    5  A    between atoms: C9_12  and  C10_13 
REMARK    6  A    between atoms: C10_13  and  O4_14 
REMARK    7  A    between atoms: C15_19  and  O5_20 
REMARK    8  A    between atoms: C19_24  and  C20_25 
REMARK    9  A    between atoms: C20_25  and  C21_26 
REMARK   10  A    between atoms: C21_26  and  N1_27 
REMARK   11  A    between atoms: C32_39  and  O6_40 
REMARK   12  A    between atoms: C35_43  and  O7_44 
ROOT
HETATM    1  C5  UNL     1      -4.656  48.350 -25.705  1.00  0.00     0.191 C 
HETATM    2  O2  UNL     1      -3.796  49.430 -26.080  1.00  0.00    -0.338 OA
HETATM    3  C6  UNL     1      -3.039  49.970 -25.070  1.00  0.00     0.079 A 
HETATM    4  C7  UNL     1      -2.082  50.867 -25.532  1.00  0.00     0.075 A 
HETATM    5  C8  UNL     1      -1.254  51.540 -24.643  1.00  0.00     0.083 A 
HETATM    6  C11 UNL     1      -1.298  51.226 -23.260  1.00  0.00     0.015 A 
HETATM    7  C12 UNL     1      -0.420  51.921 -22.261  1.00  0.00    -0.016 A 
HETATM    8  C13 UNL     1       0.869  52.410 -22.539  1.00  0.00     0.015 A 
HETATM    9  C14 UNL     1       1.612  53.116 -21.586  1.00  0.00     0.037 A 
HETATM   10  C15 UNL     1       1.078  53.326 -20.323  1.00  0.00     0.066 A 
HETATM   11  C16 UNL     1      -0.164  52.811 -19.989  1.00  0.00     0.044 A 
HETATM   12  C17 UNL     1      -0.895  52.086 -20.942  1.00  0.00    -0.044 A 
HETATM   13  C18 UNL     1      -2.181  51.397 -20.559  1.00  0.00     0.049 C 
HETATM   14  C19 UNL     1      -2.192  50.011 -21.239  1.00  0.00     0.027 C 
HETATM   15  C29 UNL     1      -2.290  50.283 -22.774  1.00  0.00    -0.031 A 
HETATM   16  C30 UNL     1      -3.215  49.712 -23.695  1.00  0.00    -0.015 A 
HETATM   17  C31 UNL     1      -4.405  48.865 -23.305  1.00  0.00     0.076 C 
HETATM   18  C32 UNL     1      -5.439  48.714 -24.431  1.00  0.00     0.156 C 
ENDROOT
BRANCH  14  19
HETATM   19  C20 UNL     1      -3.136  48.980 -20.561  1.00  0.00     0.041 C 
BRANCH  19  20
HETATM   20  C21 UNL     1      -2.783  48.317 -19.178  1.00  0.00     0.038 C 
HETATM   21  C25 UNL     1      -1.265  48.380 -18.868  1.00  0.00     0.031 C 
HETATM   22  C26 UNL     1      -1.105  49.487 -17.840  1.00  0.00     0.002 C 
HETATM   23  C27 UNL     1      -2.366  49.395 -17.002  1.00  0.00     0.002 C 
HETATM   24  C28 UNL     1      -3.473  49.021 -17.981  1.00  0.00     0.031 C 
BRANCH  20  25
HETATM   25  N1  UNL     1      -3.240  46.864 -19.168  1.00  0.00    -0.342 N 
HETATM   26  C22 UNL     1      -3.220  46.022 -18.117  1.00  0.00     0.183 A 
HETATM   27  N2  UNL     1      -3.720  44.849 -18.522  1.00  0.00    -0.361 N 
HETATM   28  C23 UNL     1      -4.018  44.886 -19.860  1.00  0.00     0.106 A 
HETATM   29  H22 UNL     1      -3.848  44.043 -17.914  1.00  0.00     0.166 HD
HETATM   30  C24 UNL     1      -3.696  46.144 -20.285  1.00  0.00     0.109 A 
ENDBRANCH  20  25
ENDBRANCH  19  20
ENDBRANCH  14  19
BRANCH   5  31
HETATM   31  O3  UNL     1      -0.385  52.515 -25.059  1.00  0.00    -0.348 OA
BRANCH  31  32
HETATM   32  C9  UNL     1       0.275  52.337 -26.323  1.00  0.00     0.201 C 
BRANCH  32  33
HETATM   33  C10 UNL     1       1.532  51.501 -26.091  1.00  0.00     0.190 C 
BRANCH  33  34
HETATM   34  O4  UNL     1       2.683  52.213 -26.548  1.00  0.00    -0.399 OA
HETATM   35  H11 UNL     1       3.465  51.736 -26.218  1.00  0.00     0.209 HD
ENDBRANCH  33  34
ENDBRANCH  32  33
ENDBRANCH  31  32
ENDBRANCH   5  31
BRANCH  10  36
HETATM   36  O5  UNL     1       1.762  54.009 -19.363  1.00  0.00    -0.361 OA
HETATM   37  H14 UNL     1       2.548  54.414 -19.769  1.00  0.00     0.217 HD
ENDBRANCH  10  36
BRANCH  18  38
HETATM   38  O6  UNL     1      -6.206  49.916 -24.576  1.00  0.00    -0.392 OA
HETATM   39  H36 UNL     1      -6.135  50.469 -23.778  1.00  0.00     0.210 HD
ENDBRANCH  18  38
BRANCH   1  40
HETATM   40  C4  UNL     1      -5.455  47.934 -26.929  1.00  0.00    -0.024 A 
HETATM   41  C3  UNL     1      -4.865  48.092 -28.200  1.00  0.00     0.049 A 
HETATM   42  C2  UNL     1      -5.542  47.724 -29.367  1.00  0.00     0.101 A 
HETATM   43  C35 UNL     1      -6.823  47.178 -29.268  1.00  0.00     0.099 A 
HETATM   44  C34 UNL     1      -7.435  47.033 -28.026  1.00  0.00     0.040 A 
HETATM   45  C33 UNL     1      -6.756  47.414 -26.866  1.00  0.00     0.013 A 
BRANCH  42  46
HETATM   46  O1  UNL     1      -4.983  47.819 -30.614  1.00  0.00    -0.353 OA
HETATM   47  C1  UNL     1      -5.064  49.111 -31.205  1.00  0.00     0.210 C 
ENDBRANCH  42  46
BRANCH  43  48
HETATM   48  O7  UNL     1      -7.483  46.801 -30.406  1.00  0.00    -0.358 OA
HETATM   49  H39 UNL     1      -8.380  46.514 -30.177  1.00  0.00     0.217 HD
ENDBRANCH  43  48
ENDBRANCH   1  40
TORSDOF 12
ENDMDL
MODEL 7
REMARK minimizedAffinity -9.90681553
REMARK CNNscore 0.268441796
REMARK CNNaffinity 7.49070406
REMARK  12 active torsions:
REMARK  status: ('A' for Active; 'I' for Inactive)
REMARK    1  A    between atoms: O1_2  and  C2_3 
REMARK    2  A    between atoms: C4_5  and  C5_6 
REMARK    3  A    between atoms: C8_10  and  O3_11 
REMARK    4  A    between atoms: O3_11  and  C9_12 
REMARK    5  A    between atoms: C9_12  and  C10_13 
REMARK    6  A    between atoms: C10_13  and  O4_14 
REMARK    7  A    between atoms: C15_19  and  O5_20 
REMARK    8  A    between atoms: C19_24  and  C20_25 
REMARK    9  A    between atoms: C20_25  and  C21_26 
REMARK   10  A    between atoms: C21_26  and  N1_27 
REMARK   11  A    between atoms: C32_39  and  O6_40 
REMARK   12  A    between atoms: C35_43  and  O7_44 
ROOT
HETATM    1  C5  UNL     1      -4.570  48.391 -25.765  1.00  0.00     0.191 C 
HETATM    2  O2  UNL     1      -3.644  49.443 -26.052  1.00  0.00    -0.338 OA
HETATM    3  C6  UNL     1      -2.939  49.927 -24.979  1.00  0.00     0.079 A 
HETATM    4  C7  UNL     1      -1.917  50.795 -25.352  1.00  0.00     0.075 A 
HETATM    5  C8  UNL     1      -1.126  51.412 -24.392  1.00  0.00     0.083 A 
HETATM    6  C11 UNL     1      -1.278  51.069 -23.023  1.00  0.00     0.015 A 
HETATM    7  C12 UNL     1      -0.445  51.704 -21.949  1.00  0.00    -0.016 A 
HETATM    8  C13 UNL     1       0.879  52.146 -22.126  1.00  0.00     0.015 A 
HETATM    9  C14 UNL     1       1.581  52.799 -21.106  1.00  0.00     0.037 A 
HETATM   10  C15 UNL     1       0.970  53.001 -19.878  1.00  0.00     0.066 A 
HETATM   11  C16 UNL     1      -0.312  52.530 -19.643  1.00  0.00     0.044 A 
HETATM   12  C17 UNL     1      -1.003  51.858 -20.661  1.00  0.00    -0.044 A 
HETATM   13  C18 UNL     1      -2.340  51.215 -20.385  1.00  0.00     0.049 C 
HETATM   14  C19 UNL     1      -2.358  49.846 -21.100  1.00  0.00     0.027 C 
HETATM   15  C29 UNL     1      -2.339  50.156 -22.630  1.00  0.00    -0.031 A 
HETATM   16  C30 UNL     1      -3.219  49.646 -23.627  1.00  0.00    -0.015 A 
HETATM   17  C31 UNL     1      -4.465  48.840 -23.341  1.00  0.00     0.076 C 
HETATM   18  C32 UNL     1      -5.424  48.758 -24.539  1.00  0.00     0.156 C 
ENDROOT
BRANCH  14  19
HETATM   19  C20 UNL     1      -3.387  48.840 -20.514  1.00  0.00     0.041 C 
BRANCH  19  20
HETATM   20  C21 UNL     1      -3.181  48.169 -19.106  1.00  0.00     0.038 C 
HETATM   21  C25 UNL     1      -1.695  48.184 -18.660  1.00  0.00     0.031 C 
HETATM   22  C26 UNL     1      -1.593  49.287 -17.622  1.00  0.00     0.002 C 
HETATM   23  C27 UNL     1      -2.927  49.237 -16.900  1.00  0.00     0.002 C 
HETATM   24  C28 UNL     1      -3.953  48.897 -17.975  1.00  0.00     0.031 C 
BRANCH  20  25
HETATM   25  N1  UNL     1      -3.683  46.731 -19.138  1.00  0.00    -0.342 N 
HETATM   26  C22 UNL     1      -3.784  45.891 -18.091  1.00  0.00     0.183 A 
HETATM   27  N2  UNL     1      -4.283  44.734 -18.540  1.00  0.00    -0.361 N 
HETATM   28  C23 UNL     1      -4.459  44.778 -19.899  1.00  0.00     0.106 A 
HETATM   29  H22 UNL     1      -4.490  43.933 -17.946  1.00  0.00     0.166 HD
HETATM   30  C24 UNL     1      -4.061  46.024 -20.292  1.00  0.00     0.109 A 
ENDBRANCH  20  25
ENDBRANCH  19  20
ENDBRANCH  14  19
BRANCH   5  31
HETATM   31  O3  UNL     1      -0.193  52.360 -24.722  1.00  0.00    -0.348 OA
BRANCH  31  32
HETATM   32  C9  UNL     1       0.337  52.349 -26.057  1.00  0.00     0.201 C 
BRANCH  32  33
HETATM   33  C10 UNL     1       1.542  51.411 -26.085  1.00  0.00     0.190 C 
BRANCH  33  34
HETATM   34  O4  UNL     1       2.673  52.085 -26.639  1.00  0.00    -0.399 OA
HETATM   35  H11 UNL     1       3.452  51.526 -26.469  1.00  0.00     0.209 HD
ENDBRANCH  33  34
ENDBRANCH  32  33
ENDBRANCH  31  32
ENDBRANCH   5  31
BRANCH  10  36
HETATM   36  O5  UNL     1       1.612  53.633 -18.856  1.00  0.00    -0.361 OA
HETATM   37  H14 UNL     1       2.439  54.015 -19.197  1.00  0.00     0.217 HD
ENDBRANCH  10  36
BRANCH  18  38
HETATM   38  O6  UNL     1      -6.132  49.993 -24.704  1.00  0.00    -0.392 OA
HETATM   39  H36 UNL     1      -6.094  50.524 -23.889  1.00  0.00     0.210 HD
ENDBRANCH  18  38
BRANCH   1  40
HETATM   40  C4  UNL     1      -5.298  48.036 -27.051  1.00  0.00    -0.024 A 
HETATM   41  C3  UNL     1      -6.581  47.458 -26.956  1.00  0.00     0.049 A 
HETATM   42  C2  UNL     1      -7.309  47.112 -28.099  1.00  0.00     0.101 A 
HETATM   43  C35 UNL     1      -6.757  47.356 -29.358  1.00  0.00     0.099 A 
HETATM   44  C34 UNL     1      -5.482  47.905 -29.477  1.00  0.00     0.040 A 
HETATM   45  C33 UNL     1      -4.758  48.237 -28.330  1.00  0.00     0.013 A 
BRANCH  42  46
HETATM   46  O1  UNL     1      -8.575  46.593 -28.048  1.00  0.00    -0.353 OA
HETATM   47  C1  UNL     1      -8.647  45.240 -27.610  1.00  0.00     0.210 C 
ENDBRANCH  42  46
BRANCH  43  48
HETATM   48  O7  UNL     1      -7.472  47.034 -30.480  1.00  0.00    -0.358 OA
HETATM   49  H39 UNL     1      -6.927  47.192 -31.265  1.00  0.00     0.217 HD
ENDBRANCH  43  48
ENDBRANCH   1  40
TORSDOF 12
ENDMDL
MODEL 8
REMARK minimizedAffinity -9.3778038
REMARK CNNscore 0.262418479
REMARK CNNaffinity 7.0812149
REMARK  12 active torsions:
REMARK  status: ('A' for Active; 'I' for Inactive)
REMARK    1  A    between atoms: O1_2  and  C2_3 
REMARK    2  A    between atoms: C4_5  and  C5_6 
REMARK    3  A    between atoms: C8_10  and  O3_11 
REMARK    4  A    between atoms: O3_11  and  C9_12 
REMARK    5  A    between atoms: C9_12  and  C10_13 
REMARK    6  A    between atoms: C10_13  and  O4_14 
REMARK    7  A    between atoms: C15_19  and  O5_20 
REMARK    8  A    between atoms: C19_24  and  C20_25 
REMARK    9  A    between atoms: C20_25  and  C21_26 
REMARK   10  A    between atoms: C21_26  and  N1_27 
REMARK   11  A    between atoms: C32_39  and  O6_40 
REMARK   12  A    between atoms: C35_43  and  O7_44 
ROOT
HETATM    1  C5  UNL     1      -6.815  49.251 -22.205  1.00  0.00     0.191 C 
HETATM    2  O2  UNL     1      -6.011  49.372 -21.028  1.00  0.00    -0.338 OA
HETATM    3  C6  UNL     1      -4.849  50.089 -21.170  1.00  0.00     0.079 A 
HETATM    4  C7  UNL     1      -4.221  50.344 -19.955  1.00  0.00     0.075 A 
HETATM    5  C8  UNL     1      -3.011  51.023 -19.912  1.00  0.00     0.083 A 
HETATM    6  C11 UNL     1      -2.463  51.567 -21.102  1.00  0.00     0.015 A 
HETATM    7  C12 UNL     1      -1.161  52.313 -21.108  1.00  0.00    -0.016 A 
HETATM    8  C13 UNL     1      -0.683  53.086 -20.034  1.00  0.00     0.015 A 
HETATM    9  C14 UNL     1       0.575  53.699 -20.070  1.00  0.00     0.037 A 
HETATM   10  C15 UNL     1       1.370  53.563 -21.198  1.00  0.00     0.066 A 
HETATM   11  C16 UNL     1       0.913  52.858 -22.300  1.00  0.00     0.044 A 
HETATM   12  C17 UNL     1      -0.357  52.264 -22.267  1.00  0.00    -0.044 A 
HETATM   13  C18 UNL     1      -0.932  51.615 -23.502  1.00  0.00     0.049 C 
HETATM   14  C19 UNL     1      -2.424  52.004 -23.586  1.00  0.00     0.027 C 
HETATM   15  C29 UNL     1      -3.120  51.311 -22.373  1.00  0.00    -0.031 A 
HETATM   16  C30 UNL     1      -4.288  50.495 -22.397  1.00  0.00    -0.015 A 
HETATM   17  C31 UNL     1      -4.964  50.000 -23.654  1.00  0.00     0.076 C 
HETATM   18  C32 UNL     1      -5.941  48.841 -23.404  1.00  0.00     0.156 C 
ENDROOT
BRANCH  14  19
HETATM   19  C20 UNL     1      -3.029  51.888 -25.012  1.00  0.00     0.041 C 
BRANCH  19  20
HETATM   20  C21 UNL     1      -2.385  50.966 -26.113  1.00  0.00     0.038 C 
HETATM   21  C25 UNL     1      -1.871  49.625 -25.528  1.00  0.00     0.031 C 
HETATM   22  C26 UNL     1      -2.900  48.583 -25.933  1.00  0.00     0.002 C 
HETATM   23  C27 UNL     1      -3.372  49.045 -27.300  1.00  0.00     0.002 C 
HETATM   24  C28 UNL     1      -3.390  50.567 -27.226  1.00  0.00     0.031 C 
BRANCH  20  25
HETATM   25  N1  UNL     1      -1.232  51.695 -26.791  1.00  0.00    -0.342 N 
HETATM   26  C22 UNL     1      -1.265  52.932 -27.323  1.00  0.00     0.183 A 
HETATM   27  N2  UNL     1      -0.045  53.204 -27.801  1.00  0.00    -0.361 N 
HETATM   28  C23 UNL     1       0.788  52.126 -27.644  1.00  0.00     0.106 A 
HETATM   29  H22 UNL     1       0.215  54.090 -28.230  1.00  0.00     0.166 HD
HETATM   30  C24 UNL     1       0.044  51.159 -27.031  1.00  0.00     0.109 A 
ENDBRANCH  20  25
ENDBRANCH  19  20
ENDBRANCH  14  19
BRANCH   5  31
HETATM   31  O3  UNL     1      -2.311  51.184 -18.744  1.00  0.00    -0.348 OA
BRANCH  31  32
HETATM   32  C9  UNL     1      -2.096  50.027 -17.921  1.00  0.00     0.201 C 
BRANCH  32  33
HETATM   33  C10 UNL     1      -1.057  49.141 -18.606  1.00  0.00     0.190 C 
BRANCH  33  34
HETATM   34  O4  UNL     1      -1.568  47.816 -18.755  1.00  0.00    -0.399 OA
HETATM   35  H11 UNL     1      -0.962  47.340 -19.352  1.00  0.00     0.209 HD
ENDBRANCH  33  34
ENDBRANCH  32  33
ENDBRANCH  31  32
ENDBRANCH   5  31
BRANCH  10  36
HETATM   36  O5  UNL     1       2.602  54.139 -21.278  1.00  0.00    -0.361 OA
HETATM   37  H14 UNL     1       2.840  54.487 -20.401  1.00  0.00     0.217 HD
ENDBRANCH  10  36
BRANCH  18  38
HETATM   38  O6  UNL     1      -5.227  47.619 -23.178  1.00  0.00    -0.392 OA
HETATM   39  H36 UNL     1      -4.313  47.689 -23.504  1.00  0.00     0.210 HD
ENDBRANCH  18  38
BRANCH   1  40
HETATM   40  C4  UNL     1      -8.013  48.376 -21.874  1.00  0.00    -0.024 A 
HETATM   41  C3  UNL     1      -8.496  48.376 -20.548  1.00  0.00     0.049 A 
HETATM   42  C2  UNL     1      -9.597  47.599 -20.177  1.00  0.00     0.101 A 
HETATM   43  C35 UNL     1     -10.237  46.817 -21.140  1.00  0.00     0.099 A 
HETATM   44  C34 UNL     1      -9.764  46.783 -22.451  1.00  0.00     0.040 A 
HETATM   45  C33 UNL     1      -8.657  47.555 -22.811  1.00  0.00     0.013 A 
BRANCH  42  46
HETATM   46  O1  UNL     1     -10.124  47.609 -18.912  1.00  0.00    -0.353 OA
HETATM   47  C1  UNL     1      -9.179  47.851 -17.876  1.00  0.00     0.210 C 
ENDBRANCH  42  46
BRANCH  43  48
HETATM   48  O7  UNL     1     -11.326  46.067 -20.785  1.00  0.00    -0.358 OA
HETATM   49  H39 UNL     1     -11.606  45.529 -21.541  1.00  0.00     0.217 HD
ENDBRANCH  43  48
ENDBRANCH   1  40
TORSDOF 12
ENDMDL
MODEL 9
REMARK minimizedAffinity -7.86450624
REMARK CNNscore 0.248016939
REMARK CNNaffinity 6.9085145
REMARK  12 active torsions:
REMARK  status: ('A' for Active; 'I' for Inactive)
REMARK    1  A    between atoms: O1_2  and  C2_3 
REMARK    2  A    between atoms: C4_5  and  C5_6 
REMARK    3  A    between atoms: C8_10  and  O3_11 
REMARK    4  A    between atoms: O3_11  and  C9_12 
REMARK    5  A    between atoms: C9_12  and  C10_13 
REMARK    6  A    between atoms: C10_13  and  O4_14 
REMARK    7  A    between atoms: C15_19  and  O5_20 
REMARK    8  A    between atoms: C19_24  and  C20_25 
REMARK    9  A    between atoms: C20_25  and  C21_26 
REMARK   10  A    between atoms: C21_26  and  N1_27 
REMARK   11  A    between atoms: C32_39  and  O6_40 
REMARK   12  A    between atoms: C35_43  and  O7_44 
ROOT
HETATM    1  C5  UNL     1      -5.302  46.913 -19.577  1.00  0.00     0.191 C 
HETATM    2  O2  UNL     1      -4.773  47.392 -20.816  1.00  0.00    -0.338 OA
HETATM    3  C6  UNL     1      -3.805  48.360 -20.717  1.00  0.00     0.079 A 
HETATM    4  C7  UNL     1      -3.188  48.634 -21.934  1.00  0.00     0.075 A 
HETATM    5  C8  UNL     1      -2.212  49.617 -22.028  1.00  0.00     0.083 A 
HETATM    6  C11 UNL     1      -1.750  50.270 -20.856  1.00  0.00     0.015 A 
HETATM    7  C12 UNL     1      -0.694  51.335 -20.905  1.00  0.00    -0.016 A 
HETATM    8  C13 UNL     1       0.349  51.377 -21.847  1.00  0.00     0.015 A 
HETATM    9  C14 UNL     1       1.262  52.438 -21.889  1.00  0.00     0.037 A 
HETATM   10  C15 UNL     1       1.155  53.468 -20.967  1.00  0.00     0.066 A 
HETATM   11  C16 UNL     1       0.177  53.436 -19.986  1.00  0.00     0.044 A 
HETATM   12  C17 UNL     1      -0.722  52.361 -19.935  1.00  0.00    -0.044 A 
HETATM   13  C18 UNL     1      -1.701  52.233 -18.795  1.00  0.00     0.049 C 
HETATM   14  C19 UNL     1      -1.747  50.747 -18.379  1.00  0.00     0.027 C 
HETATM   15  C29 UNL     1      -2.386  49.981 -19.581  1.00  0.00    -0.031 A 
HETATM   16  C30 UNL     1      -3.477  49.066 -19.541  1.00  0.00    -0.015 A 
HETATM   17  C31 UNL     1      -4.341  48.812 -18.329  1.00  0.00     0.076 C 
HETATM   18  C32 UNL     1      -5.660  48.096 -18.661  1.00  0.00     0.156 C 
ENDROOT
BRANCH  14  19
HETATM   19  C20 UNL     1      -2.261  50.509 -16.933  1.00  0.00     0.041 C 
BRANCH  19  20
HETATM   20  C21 UNL     1      -1.279  50.425 -15.707  1.00  0.00     0.038 C 
HETATM   21  C25 UNL     1      -0.967  48.960 -15.304  1.00  0.00     0.031 C 
HETATM   22  C26 UNL     1       0.428  48.680 -15.835  1.00  0.00     0.002 C 
HETATM   23  C27 UNL     1       1.149  50.007 -15.689  1.00  0.00     0.002 C 
HETATM   24  C28 UNL     1       0.101  51.070 -15.997  1.00  0.00     0.031 C 
BRANCH  20  25
HETATM   25  N1  UNL     1      -1.875  51.160 -14.513  1.00  0.00    -0.342 N 
HETATM   26  C22 UNL     1      -3.167  51.502 -14.343  1.00  0.00     0.183 A 
HETATM   27  N2  UNL     1      -3.275  52.116 -13.159  1.00  0.00    -0.361 N 
HETATM   28  C23 UNL     1      -2.046  52.240 -12.564  1.00  0.00     0.106 A 
HETATM   29  H22 UNL     1      -4.154  52.450 -12.768  1.00  0.00     0.166 HD
HETATM   30  C24 UNL     1      -1.151  51.663 -13.420  1.00  0.00     0.109 A 
ENDBRANCH  20  25
ENDBRANCH  19  20
ENDBRANCH  14  19
BRANCH   5  31
HETATM   31  O3  UNL     1      -1.673  49.989 -23.232  1.00  0.00    -0.348 OA
BRANCH  31  32
HETATM   32  C9  UNL     1      -2.551  50.554 -24.219  1.00  0.00     0.201 C 
BRANCH  32  33
HETATM   33  C10 UNL     1      -2.189  52.027 -24.393  1.00  0.00     0.190 C 
BRANCH  33  34
HETATM   34  O4  UNL     1      -3.036  52.626 -25.375  1.00  0.00    -0.399 OA
HETATM   35  H11 UNL     1      -2.901  53.589 -25.322  1.00  0.00     0.209 HD
ENDBRANCH  33  34
ENDBRANCH  32  33
ENDBRANCH  31  32
ENDBRANCH   5  31
BRANCH  10  36
HETATM   36  O5  UNL     1       2.018  54.522 -20.970  1.00  0.00    -0.361 OA
HETATM   37  H14 UNL     1       2.561  54.478 -21.776  1.00  0.00     0.217 HD
ENDBRANCH  10  36
BRANCH  18  38
HETATM   38  O6  UNL     1      -6.589  49.006 -19.265  1.00  0.00    -0.392 OA
HETATM   39  H36 UNL     1      -6.332  49.928 -19.089  1.00  0.00     0.210 HD
ENDBRANCH  18  38
BRANCH   1  40
HETATM   40  C4  UNL     1      -6.397  45.906 -19.887  1.00  0.00    -0.024 A 
HETATM   41  C3  UNL     1      -6.916  45.862 -21.198  1.00  0.00     0.049 A 
HETATM   42  C2  UNL     1      -7.920  44.956 -21.553  1.00  0.00     0.101 A 
HETATM   43  C35 UNL     1      -8.410  44.070 -20.592  1.00  0.00     0.099 A 
HETATM   44  C34 UNL     1      -7.930  44.109 -19.285  1.00  0.00     0.040 A 
HETATM   45  C33 UNL     1      -6.934  45.025 -18.936  1.00  0.00     0.013 A 
BRANCH  42  46
HETATM   46  O1  UNL     1      -8.414  44.853 -22.827  1.00  0.00    -0.353 OA
HETATM   47  C1  UNL     1      -9.140  45.991 -23.278  1.00  0.00     0.210 C 
ENDBRANCH  42  46
BRANCH  43  48
HETATM   48  O7  UNL     1      -9.381  43.170 -20.939  1.00  0.00    -0.358 OA
HETATM   49  H39 UNL     1      -9.664  42.684 -20.150  1.00  0.00     0.217 HD
ENDBRANCH  43  48
ENDBRANCH   1  40
TORSDOF 12
ENDMDL
