MODEL 1
REMARK minimizedAffinity -9.05879402
REMARK  7 active torsions:
REMARK  status: ('A' for Active; 'I' for Inactive)
REMARK    1  A    between atoms: C4_4  and  C5_5 
REMARK    2  A    between atoms: C5_5  and  C6_6 
REMARK    3  A    between atoms: C6_6  and  C7_7 
REMARK    4  A    between atoms: C7_7  and  C9_9 
REMARK    5  A    between atoms: C23_23  and  O1_24 
REMARK    6  A    between atoms: C24_25  and  C26_27 
REMARK    7  A    between atoms: C26_27  and  O2_28 
ROOT
HETATM    1  C9  UNL     1       0.800   7.604  12.103  1.00  0.00    -0.002 C 
HETATM    2  C10 UNL     1      -0.179   7.391  10.936  1.00  0.00     0.006 C 
HETATM    3  C11 UNL     1      -0.725   5.992  11.137  1.00  0.00     0.010 C 
HETATM    4  C12 UNL     1      -0.789   5.785  12.659  1.00  0.00     0.023 C 
HETATM    5  C13 UNL     1      -2.220   5.574  13.111  1.00  0.00    -0.072 C 
HETATM    6  C14 UNL     1      -3.018   6.605  13.464  1.00  0.00    -0.068 C 
HETATM    7  C15 UNL     1      -2.449   8.003  13.466  1.00  0.00     0.036 C 
HETATM    8  C16 UNL     1      -0.991   8.057  13.910  1.00  0.00     0.014 C 
HETATM    9  C17 UNL     1      -0.028   6.988  13.304  1.00  0.00    -0.032 C 
HETATM   10  C18 UNL     1       0.809   6.465  14.488  1.00  0.00     0.016 C 
HETATM   11  C19 UNL     1      -4.503   6.409  13.853  1.00  0.00    -0.016 C 
HETATM   12  C20 UNL     1      -4.511   6.370  15.399  1.00  0.00     0.020 C 
HETATM   13  C21 UNL     1      -5.384   7.588  13.365  1.00  0.00     0.016 C 
HETATM   14  C22 UNL     1      -6.877   7.352  13.557  1.00  0.00     0.034 C 
HETATM   15  C23 UNL     1      -7.351   6.089  12.846  1.00  0.00     0.128 C 
HETATM   16  C24 UNL     1      -6.576   4.803  13.261  1.00  0.00     0.008 C 
HETATM   17  C25 UNL     1      -7.032   4.312  14.653  1.00  0.00     0.020 C 
HETATM   18  C27 UNL     1      -5.030   5.094  13.162  1.00  0.00     0.011 C 
HETATM   19  C28 UNL     1      -4.127   3.905  13.532  1.00  0.00     0.011 C 
HETATM   20  C29 UNL     1      -2.692   4.140  13.057  1.00  0.00     0.035 C 
ENDROOT
BRANCH   1  21
HETATM   21  C7  UNL     1       2.226   6.999  11.849  1.00  0.00    -0.014 C 
HETATM   22  C8  UNL     1       3.241   8.085  11.435  1.00  0.00     0.010 C 
BRANCH  21  23
HETATM   23  C6  UNL     1       2.294   5.835  10.823  1.00  0.00     0.008 C 
BRANCH  23  24
HETATM   24  C5  UNL     1       3.189   6.007   9.586  1.00  0.00     0.028 C 
BRANCH  24  25
HETATM   25  C4  UNL     1       2.479   6.163   8.273  1.00  0.00    -0.025 C 
HETATM   26  C2  UNL     1       2.354   7.290   7.543  1.00  0.00    -0.091 C 
HETATM   27  C1  UNL     1       1.659   7.260   6.208  1.00  0.00     0.042 C 
HETATM   28  C3  UNL     1       2.878   8.639   7.951  1.00  0.00     0.042 C 
ENDBRANCH  24  25
ENDBRANCH  23  24
ENDBRANCH  21  23
ENDBRANCH   1  21
BRANCH  16  29
HETATM   29  C26 UNL     1      -6.941   3.673  12.243  1.00  0.00     0.176 C 
BRANCH  29  30
HETATM   30  O2  UNL     1      -8.070   2.915  12.681  1.00  0.00    -0.400 OA
HETATM   31  H43 UNL     1      -8.187   2.188  12.043  1.00  0.00     0.209 HD
ENDBRANCH  29  30
ENDBRANCH  16  29
BRANCH  15  32
HETATM   32  O1  UNL     1      -8.748   5.970  13.093  1.00  0.00    -0.395 OA
HETATM   33  H37 UNL     1      -9.030   5.124  12.682  1.00  0.00     0.210 HD
ENDBRANCH  15  32
TORSDOF 7
ENDMDL
MODEL 2
REMARK minimizedAffinity -8.87243271
REMARK  7 active torsions:
REMARK  status: ('A' for Active; 'I' for Inactive)
REMARK    1  A    between atoms: C4_4  and  C5_5 
REMARK    2  A    between atoms: C5_5  and  C6_6 
REMARK    3  A    between atoms: C6_6  and  C7_7 
REMARK    4  A    between atoms: C7_7  and  C9_9 
REMARK    5  A    between atoms: C23_23  and  O1_24 
REMARK    6  A    between atoms: C24_25  and  C26_27 
REMARK    7  A    between atoms: C26_27  and  O2_28 
ROOT
HETATM    1  C9  UNL     1      -1.403   6.552  13.616  1.00  0.00    -0.002 C 
HETATM    2  C10 UNL     1      -0.379   5.410  13.726  1.00  0.00     0.006 C 
HETATM    3  C11 UNL     1       0.337   5.400  12.391  1.00  0.00     0.010 C 
HETATM    4  C12 UNL     1       0.394   6.869  11.939  1.00  0.00     0.023 C 
HETATM    5  C13 UNL     1       1.831   7.341  11.832  1.00  0.00    -0.072 C 
HETATM    6  C14 UNL     1       2.480   7.894  12.879  1.00  0.00    -0.068 C 
HETATM    7  C15 UNL     1       1.737   8.102  14.176  1.00  0.00     0.036 C 
HETATM    8  C16 UNL     1       0.274   8.485  13.974  1.00  0.00     0.014 C 
HETATM    9  C17 UNL     1      -0.529   7.671  12.913  1.00  0.00    -0.032 C 
HETATM   10  C18 UNL     1      -1.318   8.714  12.097  1.00  0.00     0.016 C 
HETATM   11  C19 UNL     1       3.970   8.308  12.804  1.00  0.00    -0.016 C 
HETATM   12  C20 UNL     1       3.949   9.825  12.506  1.00  0.00     0.020 C 
HETATM   13  C21 UNL     1       4.703   8.061  14.148  1.00  0.00     0.016 C 
HETATM   14  C22 UNL     1       6.208   8.276  14.068  1.00  0.00     0.034 C 
HETATM   15  C23 UNL     1       6.856   7.387  13.012  1.00  0.00     0.128 C 
HETATM   16  C24 UNL     1       6.245   7.550  11.589  1.00  0.00     0.008 C 
HETATM   17  C25 UNL     1       6.729   8.860  10.929  1.00  0.00     0.020 C 
HETATM   18  C27 UNL     1       4.677   7.433  11.700  1.00  0.00     0.011 C 
HETATM   19  C28 UNL     1       3.926   7.563  10.364  1.00  0.00     0.011 C 
HETATM   20  C29 UNL     1       2.484   7.072  10.498  1.00  0.00     0.035 C 
ENDROOT
BRANCH   1  21
HETATM   21  C7  UNL     1      -2.734   6.141  12.892  1.00  0.00    -0.014 C 
HETATM   22  C8  UNL     1      -3.940   6.949  13.413  1.00  0.00     0.010 C 
BRANCH  21  23
HETATM   23  C6  UNL     1      -3.089   4.630  12.938  1.00  0.00     0.008 C 
BRANCH  23  24
HETATM   24  C5  UNL     1      -4.103   4.089  11.919  1.00  0.00     0.028 C 
BRANCH  24  25
HETATM   25  C4  UNL     1      -5.475   3.787  12.448  1.00  0.00    -0.025 C 
HETATM   26  C2  UNL     1      -6.236   2.709  12.171  1.00  0.00    -0.091 C 
HETATM   27  C1  UNL     1      -7.573   2.527  12.839  1.00  0.00     0.042 C 
HETATM   28  C3  UNL     1      -5.852   1.609  11.219  1.00  0.00     0.042 C 
ENDBRANCH  24  25
ENDBRANCH  23  24
ENDBRANCH  21  23
ENDBRANCH   1  21
BRANCH  16  29
HETATM   29  C26 UNL     1       6.774   6.376  10.702  1.00  0.00     0.176 C 
BRANCH  29  30
HETATM   30  O2  UNL     1       5.918   5.234  10.774  1.00  0.00    -0.400 OA
HETATM   31  H43 UNL     1       6.350   4.525  10.265  1.00  0.00     0.209 HD
ENDBRANCH  29  30
ENDBRANCH  16  29
BRANCH  15  32
HETATM   32  O1  UNL     1       8.252   7.671  13.027  1.00  0.00    -0.395 OA
HETATM   33  H37 UNL     1       8.649   7.139  12.303  1.00  0.00     0.210 HD
ENDBRANCH  15  32
TORSDOF 7
ENDMDL
MODEL 3
REMARK minimizedAffinity -8.5168066
REMARK  7 active torsions:
REMARK  status: ('A' for Active; 'I' for Inactive)
REMARK    1  A    between atoms: C4_4  and  C5_5 
REMARK    2  A    between atoms: C5_5  and  C6_6 
REMARK    3  A    between atoms: C6_6  and  C7_7 
REMARK    4  A    between atoms: C7_7  and  C9_9 
REMARK    5  A    between atoms: C23_23  and  O1_24 
REMARK    6  A    between atoms: C24_25  and  C26_27 
REMARK    7  A    between atoms: C26_27  and  O2_28 
ROOT
HETATM    1  C9  UNL     1      -5.824   5.815  15.030  1.00  0.00    -0.002 C 
HETATM    2  C10 UNL     1      -6.769   5.586  16.222  1.00  0.00     0.006 C 
HETATM    3  C11 UNL     1      -7.304   6.961  16.565  1.00  0.00     0.010 C 
HETATM    4  C12 UNL     1      -7.407   7.712  15.227  1.00  0.00     0.023 C 
HETATM    5  C13 UNL     1      -8.848   8.075  14.926  1.00  0.00    -0.072 C 
HETATM    6  C14 UNL     1      -9.666   7.246  14.243  1.00  0.00    -0.068 C 
HETATM    7  C15 UNL     1      -9.113   5.946  13.712  1.00  0.00     0.036 C 
HETATM    8  C16 UNL     1      -7.668   6.058  13.236  1.00  0.00     0.014 C 
HETATM    9  C17 UNL     1      -6.678   6.829  14.163  1.00  0.00    -0.032 C 
HETATM   10  C18 UNL     1      -5.867   7.750  13.230  1.00  0.00     0.016 C 
HETATM   11  C19 UNL     1     -11.159   7.572  13.997  1.00  0.00    -0.016 C 
HETATM   12  C20 UNL     1     -11.208   8.175  12.574  1.00  0.00     0.020 C 
HETATM   13  C21 UNL     1     -12.040   6.297  14.044  1.00  0.00     0.016 C 
HETATM   14  C22 UNL     1     -13.534   6.588  13.995  1.00  0.00     0.034 C 
HETATM   15  C23 UNL     1     -13.974   7.502  15.134  1.00  0.00     0.128 C 
HETATM   16  C24 UNL     1     -13.197   8.850  15.197  1.00  0.00     0.008 C 
HETATM   17  C25 UNL     1     -13.684   9.818  14.097  1.00  0.00     0.020 C 
HETATM   18  C27 UNL     1     -11.652   8.542  15.138  1.00  0.00     0.011 C 
HETATM   19  C28 UNL     1     -10.746   9.783  15.203  1.00  0.00     0.011 C 
HETATM   20  C29 UNL     1      -9.302   9.389  15.516  1.00  0.00     0.035 C 
ENDROOT
BRANCH   1  21
HETATM   21  C7  UNL     1      -4.385   6.284  15.446  1.00  0.00    -0.014 C 
HETATM   22  C8  UNL     1      -4.212   7.808  15.282  1.00  0.00     0.010 C 
BRANCH  21  23
HETATM   23  C6  UNL     1      -3.207   5.569  14.729  1.00  0.00     0.008 C 
BRANCH  23  24
HETATM   24  C5  UNL     1      -3.377   5.195  13.249  1.00  0.00     0.028 C 
BRANCH  24  25
HETATM   25  C4  UNL     1      -3.704   3.758  12.963  1.00  0.00    -0.025 C 
HETATM   26  C2  UNL     1      -3.418   3.064  11.843  1.00  0.00    -0.091 C 
HETATM   27  C1  UNL     1      -3.764   1.603  11.742  1.00  0.00     0.042 C 
HETATM   28  C3  UNL     1      -2.742   3.638  10.628  1.00  0.00     0.042 C 
ENDBRANCH  24  25
ENDBRANCH  23  24
ENDBRANCH  21  23
ENDBRANCH   1  21
BRANCH  16  29
HETATM   29  C26 UNL     1     -13.521   9.528  16.569  1.00  0.00     0.176 C 
BRANCH  29  30
HETATM   30  O2  UNL     1     -12.962   8.797  17.662  1.00  0.00    -0.400 OA
HETATM   31  H43 UNL     1     -13.270   9.230  18.478  1.00  0.00     0.209 HD
ENDBRANCH  29  30
ENDBRANCH  16  29
BRANCH  15  32
HETATM   32  O1  UNL     1     -15.377   7.704  14.989  1.00  0.00    -0.395 OA
HETATM   33  H37 UNL     1     -15.638   8.341  15.690  1.00  0.00     0.210 HD
ENDBRANCH  15  32
TORSDOF 7
ENDMDL
MODEL 4
REMARK minimizedAffinity -8.31888676
REMARK  7 active torsions:
REMARK  status: ('A' for Active; 'I' for Inactive)
REMARK    1  A    between atoms: C4_4  and  C5_5 
REMARK    2  A    between atoms: C5_5  and  C6_6 
REMARK    3  A    between atoms: C6_6  and  C7_7 
REMARK    4  A    between atoms: C7_7  and  C9_9 
REMARK    5  A    between atoms: C23_23  and  O1_24 
REMARK    6  A    between atoms: C24_25  and  C26_27 
REMARK    7  A    between atoms: C26_27  and  O2_28 
ROOT
HETATM    1  C9  UNL     1      -1.763  10.299  15.716  1.00  0.00    -0.002 C 
HETATM    2  C10 UNL     1      -0.790  11.196  14.932  1.00  0.00     0.006 C 
HETATM    3  C11 UNL     1       0.505  10.412  14.880  1.00  0.00     0.010 C 
HETATM    4  C12 UNL     1       0.093   8.932  14.805  1.00  0.00     0.023 C 
HETATM    5  C13 UNL     1       0.565   8.309  13.506  1.00  0.00    -0.072 C 
HETATM    6  C14 UNL     1      -0.195   8.323  12.390  1.00  0.00    -0.068 C 
HETATM    7  C15 UNL     1      -1.578   8.924  12.453  1.00  0.00     0.036 C 
HETATM    8  C16 UNL     1      -2.283   8.667  13.781  1.00  0.00     0.014 C 
HETATM    9  C17 UNL     1      -1.445   8.884  15.079  1.00  0.00    -0.032 C 
HETATM   10  C18 UNL     1      -1.748   7.669  15.978  1.00  0.00     0.016 C 
HETATM   11  C19 UNL     1       0.308   7.759  11.039  1.00  0.00    -0.016 C 
HETATM   12  C20 UNL     1      -0.276   6.330  10.960  1.00  0.00     0.020 C 
HETATM   13  C21 UNL     1      -0.214   8.593   9.840  1.00  0.00     0.016 C 
HETATM   14  C22 UNL     1       0.403   8.192   8.506  1.00  0.00     0.034 C 
HETATM   15  C23 UNL     1       1.924   8.303   8.526  1.00  0.00     0.128 C 
HETATM   16  C24 UNL     1       2.601   7.484   9.664  1.00  0.00     0.008 C 
HETATM   17  C25 UNL     1       2.614   5.977   9.325  1.00  0.00     0.020 C 
HETATM   18  C27 UNL     1       1.882   7.826  11.025  1.00  0.00     0.011 C 
HETATM   19  C28 UNL     1       2.452   7.098  12.254  1.00  0.00     0.011 C 
HETATM   20  C29 UNL     1       1.968   7.751  13.549  1.00  0.00     0.035 C 
ENDROOT
BRANCH   1  21
HETATM   21  C7  UNL     1      -1.615  10.418  17.275  1.00  0.00    -0.014 C 
HETATM   22  C8  UNL     1      -2.987  10.413  17.980  1.00  0.00     0.010 C 
BRANCH  21  23
HETATM   23  C6  UNL     1      -0.796  11.635  17.785  1.00  0.00     0.008 C 
BRANCH  23  24
HETATM   24  C5  UNL     1      -0.603  11.799  19.300  1.00  0.00     0.028 C 
BRANCH  24  25
HETATM   25  C4  UNL     1       0.322  10.816  19.958  1.00  0.00    -0.025 C 
HETATM   26  C2  UNL     1       1.410  11.095  20.704  1.00  0.00    -0.091 C 
HETATM   27  C1  UNL     1       2.198   9.986  21.348  1.00  0.00     0.042 C 
HETATM   28  C3  UNL     1       1.931  12.480  20.977  1.00  0.00     0.042 C 
ENDBRANCH  24  25
ENDBRANCH  23  24
ENDBRANCH  21  23
ENDBRANCH   1  21
BRANCH  16  29
HETATM   29  C26 UNL     1       4.096   7.937   9.758  1.00  0.00     0.176 C 
BRANCH  29  30
HETATM   30  O2  UNL     1       4.957   6.844  10.081  1.00  0.00    -0.400 OA
HETATM   31  H43 UNL     1       5.850   7.213  10.200  1.00  0.00     0.209 HD
ENDBRANCH  29  30
ENDBRANCH  16  29
BRANCH  15  32
HETATM   32  O1  UNL     1       2.388   7.907   7.238  1.00  0.00    -0.395 OA
HETATM   33  H37 UNL     1       3.369   7.924   7.282  1.00  0.00     0.210 HD
ENDBRANCH  15  32
TORSDOF 7
ENDMDL
MODEL 5
REMARK minimizedAffinity -8.0250206
REMARK  7 active torsions:
REMARK  status: ('A' for Active; 'I' for Inactive)
REMARK    1  A    between atoms: C4_4  and  C5_5 
REMARK    2  A    between atoms: C5_5  and  C6_6 
REMARK    3  A    between atoms: C6_6  and  C7_7 
REMARK    4  A    between atoms: C7_7  and  C9_9 
REMARK    5  A    between atoms: C23_23  and  O1_24 
REMARK    6  A    between atoms: C24_25  and  C26_27 
REMARK    7  A    between atoms: C26_27  and  O2_28 
ROOT
HETATM    1  C9  UNL     1      -1.076   7.219  12.107  1.00  0.00    -0.002 C 
HETATM    2  C10 UNL     1      -0.661   8.695  12.234  1.00  0.00     0.006 C 
HETATM    3  C11 UNL     1       0.288   8.731  13.414  1.00  0.00     0.010 C 
HETATM    4  C12 UNL     1       1.041   7.391  13.384  1.00  0.00     0.023 C 
HETATM    5  C13 UNL     1       2.525   7.615  13.173  1.00  0.00    -0.072 C 
HETATM    6  C14 UNL     1       3.071   7.668  11.939  1.00  0.00    -0.068 C 
HETATM    7  C15 UNL     1       2.187   7.440  10.736  1.00  0.00     0.036 C 
HETATM    8  C16 UNL     1       1.100   6.398  10.980  1.00  0.00     0.014 C 
HETATM    9  C17 UNL     1       0.317   6.497  12.326  1.00  0.00    -0.032 C 
HETATM   10  C18 UNL     1       0.239   5.056  12.869  1.00  0.00     0.016 C 
HETATM   11  C19 UNL     1       4.571   7.973  11.708  1.00  0.00    -0.016 C 
HETATM   12  C20 UNL     1       5.237   6.590  11.527  1.00  0.00     0.020 C 
HETATM   13  C21 UNL     1       4.794   8.821  10.429  1.00  0.00     0.016 C 
HETATM   14  C22 UNL     1       6.229   9.304  10.263  1.00  0.00     0.034 C 
HETATM   15  C23 UNL     1       6.695  10.129  11.457  1.00  0.00     0.128 C 
HETATM   16  C24 UNL     1       6.563   9.393  12.823  1.00  0.00     0.008 C 
HETATM   17  C25 UNL     1       7.679   8.337  12.988  1.00  0.00     0.020 C 
HETATM   18  C27 UNL     1       5.106   8.803  12.937  1.00  0.00     0.011 C 
HETATM   19  C28 UNL     1       4.817   8.051  14.247  1.00  0.00     0.011 C 
HETATM   20  C29 UNL     1       3.314   7.846  14.439  1.00  0.00     0.035 C 
ENDROOT
BRANCH   1  21
HETATM   21  C7  UNL     1      -2.242   6.805  13.073  1.00  0.00    -0.014 C 
HETATM   22  C8  UNL     1      -1.897   7.108  14.545  1.00  0.00     0.010 C 
BRANCH  21  23
HETATM   23  C6  UNL     1      -2.718   5.330  12.965  1.00  0.00     0.008 C 
BRANCH  23  24
HETATM   24  C5  UNL     1      -4.211   5.063  12.721  1.00  0.00     0.028 C 
BRANCH  24  25
HETATM   25  C4  UNL     1      -4.553   3.744  12.093  1.00  0.00    -0.025 C 
HETATM   26  C2  UNL     1      -5.742   3.109  12.126  1.00  0.00    -0.091 C 
HETATM   27  C1  UNL     1      -5.935   1.812  11.386  1.00  0.00     0.042 C 
HETATM   28  C3  UNL     1      -6.958   3.604  12.859  1.00  0.00     0.042 C 
ENDBRANCH  24  25
ENDBRANCH  23  24
ENDBRANCH  21  23
ENDBRANCH   1  21
BRANCH  16  29
HETATM   29  C26 UNL     1       6.769  10.447  13.960  1.00  0.00     0.176 C 
BRANCH  29  30
HETATM   30  O2  UNL     1       7.998  10.235  14.657  1.00  0.00    -0.400 OA
HETATM   31  H43 UNL     1       8.018  10.873  15.393  1.00  0.00     0.209 HD
ENDBRANCH  29  30
ENDBRANCH  16  29
BRANCH  15  32
HETATM   32  O1  UNL     1       8.038  10.524  11.194  1.00  0.00    -0.395 OA
HETATM   33  H37 UNL     1       8.347  11.002  11.994  1.00  0.00     0.210 HD
ENDBRANCH  15  32
TORSDOF 7
ENDMDL
MODEL 6
REMARK minimizedAffinity -7.98562527
REMARK  7 active torsions:
REMARK  status: ('A' for Active; 'I' for Inactive)
REMARK    1  A    between atoms: C4_4  and  C5_5 
REMARK    2  A    between atoms: C5_5  and  C6_6 
REMARK    3  A    between atoms: C6_6  and  C7_7 
REMARK    4  A    between atoms: C7_7  and  C9_9 
REMARK    5  A    between atoms: C23_23  and  O1_24 
REMARK    6  A    between atoms: C24_25  and  C26_27 
REMARK    7  A    between atoms: C26_27  and  O2_28 
ROOT
HETATM    1  C9  UNL     1      -2.753   7.425  15.097  1.00  0.00    -0.002 C 
HETATM    2  C10 UNL     1      -2.230   6.105  14.505  1.00  0.00     0.006 C 
HETATM    3  C11 UNL     1      -2.117   6.365  13.017  1.00  0.00     0.010 C 
HETATM    4  C12 UNL     1      -1.724   7.845  12.882  1.00  0.00     0.023 C 
HETATM    5  C13 UNL     1      -0.365   7.982  12.225  1.00  0.00    -0.072 C 
HETATM    6  C14 UNL     1       0.777   8.000  12.944  1.00  0.00    -0.068 C 
HETATM    7  C15 UNL     1       0.695   7.941  14.451  1.00  0.00     0.036 C 
HETATM    8  C16 UNL     1      -0.504   8.696  15.016  1.00  0.00     0.014 C 
HETATM    9  C17 UNL     1      -1.875   8.478  14.303  1.00  0.00    -0.032 C 
HETATM   10  C18 UNL     1      -2.495   9.882  14.155  1.00  0.00     0.016 C 
HETATM   11  C19 UNL     1       2.174   8.061  12.280  1.00  0.00    -0.016 C 
HETATM   12  C20 UNL     1       2.572   9.554  12.323  1.00  0.00     0.020 C 
HETATM   13  C21 UNL     1       3.220   7.228  13.066  1.00  0.00     0.016 C 
HETATM   14  C22 UNL     1       4.559   7.104  12.352  1.00  0.00     0.034 C 
HETATM   15  C23 UNL     1       4.412   6.482  10.967  1.00  0.00     0.128 C 
HETATM   16  C24 UNL     1       3.411   7.234  10.041  1.00  0.00     0.008 C 
HETATM   17  C25 UNL     1       4.037   8.538   9.499  1.00  0.00     0.020 C 
HETATM   18  C27 UNL     1       2.064   7.453  10.830  1.00  0.00     0.011 C 
HETATM   19  C28 UNL     1       0.964   8.179  10.036  1.00  0.00     0.011 C 
HETATM   20  C29 UNL     1      -0.396   8.017  10.715  1.00  0.00     0.035 C 
ENDROOT
BRANCH   1  21
HETATM   21  C7  UNL     1      -4.311   7.590  14.995  1.00  0.00    -0.014 C 
HETATM   22  C8  UNL     1      -4.816   8.775  15.844  1.00  0.00     0.010 C 
BRANCH  21  23
HETATM   23  C6  UNL     1      -5.148   6.330  15.350  1.00  0.00     0.008 C 
BRANCH  23  24
HETATM   24  C5  UNL     1      -6.649   6.508  15.624  1.00  0.00     0.028 C 
BRANCH  24  25
HETATM   25  C4  UNL     1      -7.551   6.455  14.426  1.00  0.00    -0.025 C 
HETATM   26  C2  UNL     1      -7.481   5.594  13.391  1.00  0.00    -0.091 C 
HETATM   27  C1  UNL     1      -8.509   5.637  12.292  1.00  0.00     0.042 C 
HETATM   28  C3  UNL     1      -6.426   4.534  13.227  1.00  0.00     0.042 C 
ENDBRANCH  24  25
ENDBRANCH  23  24
ENDBRANCH  21  23
ENDBRANCH   1  21
BRANCH  16  29
HETATM   29  C26 UNL     1       3.125   6.323   8.802  1.00  0.00     0.176 C 
BRANCH  29  30
HETATM   30  O2  UNL     1       2.744   5.004   9.196  1.00  0.00    -0.400 OA
HETATM   31  H43 UNL     1       2.661   4.478   8.380  1.00  0.00     0.209 HD
ENDBRANCH  29  30
ENDBRANCH  16  29
BRANCH  15  32
HETATM   32  O1  UNL     1       5.716   6.416  10.398  1.00  0.00    -0.395 OA
HETATM   33  H37 UNL     1       5.601   6.071   9.486  1.00  0.00     0.210 HD
ENDBRANCH  15  32
TORSDOF 7
ENDMDL
MODEL 7
REMARK minimizedAffinity -7.93734455
REMARK  7 active torsions:
REMARK  status: ('A' for Active; 'I' for Inactive)
REMARK    1  A    between atoms: C4_4  and  C5_5 
REMARK    2  A    between atoms: C5_5  and  C6_6 
REMARK    3  A    between atoms: C6_6  and  C7_7 
REMARK    4  A    between atoms: C7_7  and  C9_9 
REMARK    5  A    between atoms: C23_23  and  O1_24 
REMARK    6  A    between atoms: C24_25  and  C26_27 
REMARK    7  A    between atoms: C26_27  and  O2_28 
ROOT
HETATM    1  C9  UNL     1       1.476   8.091  11.081  1.00  0.00    -0.002 C 
HETATM    2  C10 UNL     1       0.243   7.863  10.191  1.00  0.00     0.006 C 
HETATM    3  C11 UNL     1      -0.326   6.535  10.647  1.00  0.00     0.010 C 
HETATM    4  C12 UNL     1      -0.050   6.462  12.158  1.00  0.00     0.023 C 
HETATM    5  C13 UNL     1      -1.348   6.407  12.938  1.00  0.00    -0.072 C 
HETATM    6  C14 UNL     1      -1.977   7.526  13.356  1.00  0.00    -0.068 C 
HETATM    7  C15 UNL     1      -1.339   8.868  13.091  1.00  0.00     0.036 C 
HETATM    8  C16 UNL     1       0.183   8.838  13.190  1.00  0.00     0.014 C 
HETATM    9  C17 UNL     1       0.912   7.647  12.493  1.00  0.00    -0.032 C 
HETATM   10  C18 UNL     1       1.966   7.156  13.505  1.00  0.00     0.016 C 
HETATM   11  C19 UNL     1      -3.342   7.485  14.086  1.00  0.00    -0.016 C 
HETATM   12  C20 UNL     1      -2.995   7.576  15.590  1.00  0.00     0.020 C 
HETATM   13  C21 UNL     1      -4.238   8.688  13.693  1.00  0.00     0.016 C 
HETATM   14  C22 UNL     1      -5.658   8.593  14.238  1.00  0.00     0.034 C 
HETATM   15  C23 UNL     1      -6.359   7.319  13.780  1.00  0.00     0.128 C 
HETATM   16  C24 UNL     1      -5.590   6.012  14.136  1.00  0.00     0.008 C 
HETATM   17  C25 UNL     1      -5.741   5.677  15.637  1.00  0.00     0.020 C 
HETATM   18  C27 UNL     1      -4.094   6.166  13.665  1.00  0.00     0.011 C 
HETATM   19  C28 UNL     1      -3.204   4.941  13.939  1.00  0.00     0.011 C 
HETATM   20  C29 UNL     1      -1.907   5.018  13.134  1.00  0.00     0.035 C 
ENDROOT
BRANCH   1  21
HETATM   21  C7  UNL     1       2.766   7.351  10.575  1.00  0.00    -0.014 C 
HETATM   22  C8  UNL     1       2.633   5.820  10.707  1.00  0.00     0.010 C 
BRANCH  21  23
HETATM   23  C6  UNL     1       4.101   7.795  11.234  1.00  0.00     0.008 C 
BRANCH  23  24
HETATM   24  C5  UNL     1       5.154   6.719  11.540  1.00  0.00     0.028 C 
BRANCH  24  25
HETATM   25  C4  UNL     1       6.502   7.216  11.973  1.00  0.00    -0.025 C 
HETATM   26  C2  UNL     1       6.891   7.530  13.226  1.00  0.00    -0.091 C 
HETATM   27  C1  UNL     1       8.308   7.958  13.499  1.00  0.00     0.042 C 
HETATM   28  C3  UNL     1       6.002   7.479  14.438  1.00  0.00     0.042 C 
ENDBRANCH  24  25
ENDBRANCH  23  24
ENDBRANCH  21  23
ENDBRANCH   1  21
BRANCH  16  29
HETATM   29  C26 UNL     1      -6.249   4.836  13.344  1.00  0.00     0.176 C 
BRANCH  29  30
HETATM   30  O2  UNL     1      -7.479   5.234  12.737  1.00  0.00    -0.400 OA
HETATM   31  H43 UNL     1      -7.866   4.437  12.333  1.00  0.00     0.209 HD
ENDBRANCH  29  30
ENDBRANCH  16  29
BRANCH  15  32
HETATM   32  O1  UNL     1      -7.667   7.336  14.345  1.00  0.00    -0.395 OA
HETATM   33  H37 UNL     1      -8.087   6.485  14.094  1.00  0.00     0.210 HD
ENDBRANCH  15  32
TORSDOF 7
ENDMDL
MODEL 8
REMARK minimizedAffinity -7.85567713
REMARK  7 active torsions:
REMARK  status: ('A' for Active; 'I' for Inactive)
REMARK    1  A    between atoms: C4_4  and  C5_5 
REMARK    2  A    between atoms: C5_5  and  C6_6 
REMARK    3  A    between atoms: C6_6  and  C7_7 
REMARK    4  A    between atoms: C7_7  and  C9_9 
REMARK    5  A    between atoms: C23_23  and  O1_24 
REMARK    6  A    between atoms: C24_25  and  C26_27 
REMARK    7  A    between atoms: C26_27  and  O2_28 
ROOT
HETATM    1  C9  UNL     1       3.268   7.043  11.751  1.00  0.00    -0.002 C 
HETATM    2  C10 UNL     1       2.938   7.702  13.101  1.00  0.00     0.006 C 
HETATM    3  C11 UNL     1       1.828   8.685  12.793  1.00  0.00     0.010 C 
HETATM    4  C12 UNL     1       1.000   8.039  11.670  1.00  0.00     0.023 C 
HETATM    5  C13 UNL     1      -0.417   7.772  12.135  1.00  0.00    -0.072 C 
HETATM    6  C14 UNL     1      -0.768   6.610  12.726  1.00  0.00    -0.068 C 
HETATM    7  C15 UNL     1       0.269   5.522  12.875  1.00  0.00     0.036 C 
HETATM    8  C16 UNL     1       1.235   5.449  11.697  1.00  0.00     0.014 C 
HETATM    9  C17 UNL     1       1.813   6.800  11.173  1.00  0.00    -0.032 C 
HETATM   10  C18 UNL     1       1.713   6.727   9.637  1.00  0.00     0.016 C 
HETATM   11  C19 UNL     1      -2.193   6.355  13.274  1.00  0.00    -0.016 C 
HETATM   12  C20 UNL     1      -2.916   5.565  12.159  1.00  0.00     0.020 C 
HETATM   13  C21 UNL     1      -2.165   5.505  14.571  1.00  0.00     0.016 C 
HETATM   14  C22 UNL     1      -3.524   5.387  15.249  1.00  0.00     0.034 C 
HETATM   15  C23 UNL     1      -4.107   6.752  15.599  1.00  0.00     0.128 C 
HETATM   16  C24 UNL     1      -4.230   7.716  14.382  1.00  0.00     0.008 C 
HETATM   17  C25 UNL     1      -5.426   7.321  13.487  1.00  0.00     0.020 C 
HETATM   18  C27 UNL     1      -2.849   7.745  13.623  1.00  0.00     0.011 C 
HETATM   19  C28 UNL     1      -2.809   8.670  12.394  1.00  0.00     0.011 C 
HETATM   20  C29 UNL     1      -1.369   8.930  11.952  1.00  0.00     0.035 C 
ENDROOT
BRANCH   1  21
HETATM   21  C7  UNL     1       4.247   7.886  10.859  1.00  0.00    -0.014 C 
HETATM   22  C8  UNL     1       3.893   7.774   9.362  1.00  0.00     0.010 C 
BRANCH  21  23
HETATM   23  C6  UNL     1       5.759   7.578  11.038  1.00  0.00     0.008 C 
BRANCH  23  24
HETATM   24  C5  UNL     1       6.627   8.606  11.779  1.00  0.00     0.028 C 
BRANCH  24  25
HETATM   25  C4  UNL     1       6.559   8.571  13.278  1.00  0.00    -0.025 C 
HETATM   26  C2  UNL     1       7.566   8.302  14.134  1.00  0.00    -0.091 C 
HETATM   27  C1  UNL     1       7.341   8.370  15.621  1.00  0.00     0.042 C 
HETATM   28  C3  UNL     1       8.964   7.932  13.723  1.00  0.00     0.042 C 
ENDBRANCH  24  25
ENDBRANCH  23  24
ENDBRANCH  21  23
ENDBRANCH   1  21
BRANCH  16  29
HETATM   29  C26 UNL     1      -4.532   9.148  14.932  1.00  0.00     0.176 C 
BRANCH  29  30
HETATM   30  O2  UNL     1      -4.333   9.222  16.344  1.00  0.00    -0.400 OA
HETATM   31  H43 UNL     1      -4.615  10.112  16.623  1.00  0.00     0.209 HD
ENDBRANCH  29  30
ENDBRANCH  16  29
BRANCH  15  32
HETATM   32  O1  UNL     1      -5.366   6.521  16.223  1.00  0.00    -0.395 OA
HETATM   33  H37 UNL     1      -5.759   7.406  16.388  1.00  0.00     0.210 HD
ENDBRANCH  15  32
TORSDOF 7
ENDMDL
MODEL 9
REMARK minimizedAffinity -7.84200287
REMARK  7 active torsions:
REMARK  status: ('A' for Active; 'I' for Inactive)
REMARK    1  A    between atoms: C4_4  and  C5_5 
REMARK    2  A    between atoms: C5_5  and  C6_6 
REMARK    3  A    between atoms: C6_6  and  C7_7 
REMARK    4  A    between atoms: C7_7  and  C9_9 
REMARK    5  A    between atoms: C23_23  and  O1_24 
REMARK    6  A    between atoms: C24_25  and  C26_27 
REMARK    7  A    between atoms: C26_27  and  O2_28 
ROOT
HETATM    1  C9  UNL     1      -2.024   7.353  14.882  1.00  0.00    -0.002 C 
HETATM    2  C10 UNL     1      -1.142   6.094  14.815  1.00  0.00     0.006 C 
HETATM    3  C11 UNL     1      -0.571   6.094  13.412  1.00  0.00     0.010 C 
HETATM    4  C12 UNL     1      -0.381   7.574  13.040  1.00  0.00     0.023 C 
HETATM    5  C13 UNL     1       1.084   7.883  12.804  1.00  0.00    -0.072 C 
HETATM    6  C14 UNL     1       1.900   8.283  13.803  1.00  0.00    -0.068 C 
HETATM    7  C15 UNL     1       1.322   8.486  15.183  1.00  0.00     0.036 C 
HETATM    8  C16 UNL     1      -0.095   9.049  15.164  1.00  0.00     0.014 C 
HETATM    9  C17 UNL     1      -1.095   8.408  14.152  1.00  0.00    -0.032 C 
HETATM   10  C18 UNL     1      -1.829   9.590  13.488  1.00  0.00     0.016 C 
HETATM   11  C19 UNL     1       3.413   8.527  13.591  1.00  0.00    -0.016 C 
HETATM   12  C20 UNL     1       3.548  10.053  13.383  1.00  0.00     0.020 C 
HETATM   13  C21 UNL     1       4.243   8.103  14.830  1.00  0.00     0.016 C 
HETATM   14  C22 UNL     1       5.748   8.147  14.600  1.00  0.00     0.034 C 
HETATM   15  C23 UNL     1       6.171   7.265  13.431  1.00  0.00     0.128 C 
HETATM   16  C24 UNL     1       5.443   7.595  12.094  1.00  0.00     0.008 C 
HETATM   17  C25 UNL     1       6.015   8.883  11.461  1.00  0.00     0.020 C 
HETATM   18  C27 UNL     1       3.892   7.654  12.369  1.00  0.00     0.011 C 
HETATM   19  C28 UNL     1       3.031   7.962  11.131  1.00  0.00     0.011 C 
HETATM   20  C29 UNL     1       1.561   7.633  11.393  1.00  0.00     0.035 C 
ENDROOT
BRANCH   1  21
HETATM   21  C7  UNL     1      -3.462   7.149  14.285  1.00  0.00    -0.014 C 
HETATM   22  C8  UNL     1      -4.502   8.050  14.983  1.00  0.00     0.010 C 
BRANCH  21  23
HETATM   23  C6  UNL     1      -3.991   5.689  14.278  1.00  0.00     0.008 C 
BRANCH  23  24
HETATM   24  C5  UNL     1      -4.233   5.009  12.923  1.00  0.00     0.028 C 
BRANCH  24  25
HETATM   25  C4  UNL     1      -5.223   3.881  12.916  1.00  0.00    -0.025 C 
HETATM   26  C2  UNL     1      -6.568   3.978  12.897  1.00  0.00    -0.091 C 
HETATM   27  C1  UNL     1      -7.420   2.739  12.829  1.00  0.00     0.042 C 
HETATM   28  C3  UNL     1      -7.336   5.271  12.927  1.00  0.00     0.042 C 
ENDBRANCH  24  25
ENDBRANCH  23  24
ENDBRANCH  21  23
ENDBRANCH   1  21
BRANCH  16  29
HETATM   29  C26 UNL     1       5.732   6.432  11.089  1.00  0.00     0.176 C 
BRANCH  29  30
HETATM   30  O2  UNL     1       6.970   6.626  10.403  1.00  0.00    -0.400 OA
HETATM   31  H43 UNL     1       7.043   5.912   9.744  1.00  0.00     0.209 HD
ENDBRANCH  29  30
ENDBRANCH  16  29
BRANCH  15  32
HETATM   32  O1  UNL     1       7.586   7.383  13.309  1.00  0.00    -0.395 OA
HETATM   33  H37 UNL     1       7.839   6.860  12.518  1.00  0.00     0.210 HD
ENDBRANCH  15  32
TORSDOF 7
ENDMDL
