MODEL 1
REMARK minimizedAffinity -6.71591425
REMARK CNNscore 0.393067807
REMARK CNNaffinity 6.49227142
REMARK  9 active torsions:
REMARK  status: ('A' for Active; 'I' for Inactive)
REMARK    1  A    between atoms: O1_2  and  C2_3 
REMARK    2  A    between atoms: C2_3  and  C3_4 
REMARK    3  A    between atoms: C3_4  and  C4_5 
REMARK    4  A    between atoms: C4_5  and  O2_6 
REMARK    5  A    between atoms: O2_6  and  C5_7 
REMARK    6  A    between atoms: C31_35  and  O5_36 
REMARK    7  A    between atoms: C32_38  and  O6_39 
REMARK    8  A    between atoms: C33_40  and  O7_42 
REMARK    9  A    between atoms: C39_47  and  O8_48 
ROOT
HETATM    1  C5  UNL     1      -7.742  15.083  17.562  1.00  0.00     0.122 C 
HETATM    2  C6  UNL     1      -7.630  13.705  16.912  1.00  0.00     0.033 C 
HETATM    3  C7  UNL     1      -6.648  13.628  15.741  1.00  0.00     0.013 C 
HETATM    4  C8  UNL     1      -5.317  14.442  15.910  1.00  0.00    -0.026 C 
HETATM    5  C9  UNL     1      -5.398  15.650  14.942  1.00  0.00     0.016 C 
HETATM    6  C10 UNL     1      -5.176  14.943  17.370  1.00  0.00     0.071 C 
HETATM    7  C11 UNL     1      -6.394  15.782  17.795  1.00  0.00     0.045 C 
HETATM    8  C12 UNL     1      -4.952  13.792  18.357  1.00  0.00     0.161 C 
HETATM    9  O3  UNL     1      -5.409  13.810  19.503  1.00  0.00    -0.292 OA
HETATM   10  C13 UNL     1      -4.095  12.654  17.932  1.00  0.00    -0.006 C 
HETATM   11  C14 UNL     1      -3.678  12.600  16.656  1.00  0.00    -0.030 C 
HETATM   12  C15 UNL     1      -4.098  13.530  15.519  1.00  0.00     0.027 C 
HETATM   13  C16 UNL     1      -2.841  14.227  14.923  1.00  0.00     0.011 C 
HETATM   14  C17 UNL     1      -1.700  13.226  14.567  1.00  0.00     0.015 C 
HETATM   15  C18 UNL     1      -1.334  12.330  15.778  1.00  0.00     0.013 C 
HETATM   16  C19 UNL     1      -0.816  13.307  16.881  1.00  0.00     0.020 C 
HETATM   17  C20 UNL     1      -0.347  11.086  15.558  1.00  0.00     0.067 C 
HETATM   18  C21 UNL     1      -0.804  10.347  14.322  1.00  0.00    -0.092 C 
HETATM   19  C22 UNL     1      -1.123   9.749  13.325  1.00  0.00    -0.103 C 
HETATM   20  C23 UNL     1      -1.468   9.004  12.098  1.00  0.00     0.129 C 
HETATM   21  C24 UNL     1      -0.407   7.967  11.626  1.00  0.00     0.235 C 
HETATM   22  C25 UNL     1      -0.206   6.798  12.614  1.00  0.00     0.044 C 
HETATM   23  C26 UNL     1       1.073   6.806  13.465  1.00  0.00     0.027 C 
HETATM   24  C27 UNL     1       1.004   7.709  14.702  1.00  0.00     0.020 C 
HETATM   25  C28 UNL     1       1.681   7.011  15.893  1.00  0.00     0.013 C 
HETATM   26  C29 UNL     1       1.756   8.956  14.228  1.00  0.00     0.158 C 
HETATM   27  O4  UNL     1       2.883   8.382  13.514  1.00  0.00    -0.373 OA
HETATM   28  C30 UNL     1       2.320   7.301  12.715  1.00  0.00     0.185 C 
HETATM   29  C31 UNL     1       2.014   7.750  11.261  1.00  0.00     0.384 C 
HETATM   30  N1  UNL     1       0.827   8.578  11.100  1.00  0.00     0.120 N 
HETATM   31  C32 UNL     1       2.166  10.008  15.275  1.00  0.00     0.183 C 
HETATM   32  C33 UNL     1       1.249  11.314  15.407  1.00  0.00     0.102 C 
HETATM   33  C34 UNL     1       1.907  12.152  16.532  1.00  0.00     0.050 C 
HETATM   34  C35 UNL     1      -0.700  10.229  16.830  1.00  0.00     0.034 C 
HETATM   35  C36 UNL     1      -2.173  10.540  17.242  1.00  0.00     0.027 C 
HETATM   36  C37 UNL     1      -2.321  10.990  18.700  1.00  0.00     0.013 C 
HETATM   37  C38 UNL     1      -3.675  11.655  18.980  1.00  0.00     0.043 C 
HETATM   38  C39 UNL     1      -2.652  11.594  16.236  1.00  0.00     0.095 C 
HETATM   39  H43 UNL     1       0.978   9.492  11.525  1.00  0.00     0.319 HD
ENDROOT
BRANCH  32  40
HETATM   40  O7  UNL     1       1.472  12.092  14.203  1.00  0.00    -0.386 OA
HETATM   41  H49 UNL     1       2.437  12.019  14.039  1.00  0.00     0.210 HD
ENDBRANCH  32  40
BRANCH  38  42
HETATM   42  O8  UNL     1      -3.288  10.869  15.179  1.00  0.00    -0.384 OA
HETATM   43  H57 UNL     1      -4.120  10.501  15.519  1.00  0.00     0.211 HD
ENDBRANCH  38  42
BRANCH  31  44
HETATM   44  O6  UNL     1       3.487  10.477  14.876  1.00  0.00    -0.390 OA
HETATM   45  H45 UNL     1       3.858   9.762  14.318  1.00  0.00     0.210 HD
ENDBRANCH  31  44
BRANCH  29  46
HETATM   46  O5  UNL     1       1.886   6.609  10.429  1.00  0.00    -0.366 OA
HETATM   47  H42 UNL     1       2.546   6.730   9.720  1.00  0.00     0.212 HD
ENDBRANCH  29  46
BRANCH   1  48
HETATM   48  O2  UNL     1      -8.557  15.889  16.699  1.00  0.00    -0.386 OA
BRANCH  48  49
HETATM   49  C4  UNL     1      -9.536  15.145  15.972  1.00  0.00     0.170 C 
BRANCH  49  50
HETATM   50  C3  UNL     1      -9.628  15.643  14.533  1.00  0.00     0.052 C 
BRANCH  50  51
HETATM   51  C2  UNL     1     -10.353  16.982  14.455  1.00  0.00     0.169 C 
BRANCH  51  52
HETATM   52  O1  UNL     1      -9.451  18.050  14.157  1.00  0.00    -0.396 OA
HETATM   53  C1  UNL     1      -8.600  17.777  13.048  1.00  0.00     0.201 C 
ENDBRANCH  51  52
ENDBRANCH  50  51
ENDBRANCH  49  50
ENDBRANCH  48  49
ENDBRANCH   1  48
TORSDOF 9
ENDMDL
MODEL 2
REMARK minimizedAffinity -7.67024755
REMARK CNNscore 0.386997759
REMARK CNNaffinity 6.20844126
REMARK  9 active torsions:
REMARK  status: ('A' for Active; 'I' for Inactive)
REMARK    1  A    between atoms: O1_2  and  C2_3 
REMARK    2  A    between atoms: C2_3  and  C3_4 
REMARK    3  A    between atoms: C3_4  and  C4_5 
REMARK    4  A    between atoms: C4_5  and  O2_6 
REMARK    5  A    between atoms: O2_6  and  C5_7 
REMARK    6  A    between atoms: C31_35  and  O5_36 
REMARK    7  A    between atoms: C32_38  and  O6_39 
REMARK    8  A    between atoms: C33_40  and  O7_42 
REMARK    9  A    between atoms: C39_47  and  O8_48 
ROOT
HETATM    1  C5  UNL     1     -17.596   3.331  15.550  1.00  0.00     0.122 C 
HETATM    2  C6  UNL     1     -17.367   3.127  14.053  1.00  0.00     0.033 C 
HETATM    3  C7  UNL     1     -16.273   2.114  13.706  1.00  0.00     0.013 C 
HETATM    4  C8  UNL     1     -16.213   0.834  14.612  1.00  0.00    -0.026 C 
HETATM    5  C9  UNL     1     -14.941   0.959  15.489  1.00  0.00     0.016 C 
HETATM    6  C10 UNL     1     -17.471   0.757  15.515  1.00  0.00     0.071 C 
HETATM    7  C11 UNL     1     -17.630   2.029  16.365  1.00  0.00     0.045 C 
HETATM    8  C12 UNL     1     -18.747   0.493  14.707  1.00  0.00     0.161 C 
HETATM    9  O3  UNL     1     -19.836   0.978  15.022  1.00  0.00    -0.292 OA
HETATM   10  C13 UNL     1     -18.669  -0.435  13.549  1.00  0.00    -0.006 C 
HETATM   11  C14 UNL     1     -17.465  -0.885  13.160  1.00  0.00    -0.030 C 
HETATM   12  C15 UNL     1     -16.107  -0.442  13.702  1.00  0.00     0.027 C 
HETATM   13  C16 UNL     1     -15.346  -1.673  14.275  1.00  0.00     0.011 C 
HETATM   14  C17 UNL     1     -15.299  -2.876  13.285  1.00  0.00     0.015 C 
HETATM   15  C18 UNL     1     -16.717  -3.261  12.793  1.00  0.00     0.013 C 
HETATM   16  C19 UNL     1     -17.500  -3.697  14.071  1.00  0.00     0.020 C 
HETATM   17  C20 UNL     1     -16.868  -4.320  11.598  1.00  0.00     0.067 C 
HETATM   18  C21 UNL     1     -15.890  -3.935  10.513  1.00  0.00    -0.092 C 
HETATM   19  C22 UNL     1     -15.103  -3.673   9.638  1.00  0.00    -0.103 C 
HETATM   20  C23 UNL     1     -14.136  -3.400   8.556  1.00  0.00     0.129 C 
HETATM   21  C24 UNL     1     -13.987  -4.527   7.494  1.00  0.00     0.235 C 
HETATM   22  C25 UNL     1     -15.269  -4.769   6.668  1.00  0.00     0.044 C 
HETATM   23  C26 UNL     1     -16.091  -6.025   6.993  1.00  0.00     0.027 C 
HETATM   24  C27 UNL     1     -17.019  -5.876   8.205  1.00  0.00     0.020 C 
HETATM   25  C28 UNL     1     -18.364  -6.562   7.915  1.00  0.00     0.013 C 
HETATM   26  C29 UNL     1     -16.215  -6.570   9.309  1.00  0.00     0.158 C 
HETATM   27  O4  UNL     1     -15.703  -7.743   8.623  1.00  0.00    -0.373 OA
HETATM   28  C30 UNL     1     -15.241  -7.260   7.329  1.00  0.00     0.185 C 
HETATM   29  C31 UNL     1     -13.716  -6.965   7.327  1.00  0.00     0.384 C 
HETATM   30  N1  UNL     1     -13.317  -5.738   8.003  1.00  0.00     0.120 N 
HETATM   31  C32 UNL     1     -16.922  -6.895  10.636  1.00  0.00     0.183 C 
HETATM   32  C33 UNL     1     -16.670  -5.904  11.869  1.00  0.00     0.102 C 
HETATM   33  C34 UNL     1     -17.515  -6.488  13.031  1.00  0.00     0.050 C 
HETATM   34  C35 UNL     1     -18.329  -3.985  11.119  1.00  0.00     0.034 C 
HETATM   35  C36 UNL     1     -18.625  -2.488  11.445  1.00  0.00     0.027 C 
HETATM   36  C37 UNL     1     -19.893  -2.280  12.280  1.00  0.00     0.013 C 
HETATM   37  C38 UNL     1     -19.961  -0.885  12.916  1.00  0.00     0.043 C 
HETATM   38  C39 UNL     1     -17.356  -1.975  12.139  1.00  0.00     0.095 C 
HETATM   39  H43 UNL     1     -13.465  -5.829   9.008  1.00  0.00     0.319 HD
ENDROOT
BRANCH  32  40
HETATM   40  O7  UNL     1     -15.296  -6.113  12.285  1.00  0.00    -0.386 OA
HETATM   41  H49 UNL     1     -15.167  -7.084  12.227  1.00  0.00     0.210 HD
ENDBRANCH  32  40
BRANCH  38  42
HETATM   42  O8  UNL     1     -16.545  -1.406  11.107  1.00  0.00    -0.384 OA
HETATM   43  H57 UNL     1     -16.970  -0.587  10.802  1.00  0.00     0.211 HD
ENDBRANCH  38  42
BRANCH  31  44
HETATM   44  O6  UNL     1     -16.415  -8.198  11.052  1.00  0.00    -0.390 OA
HETATM   45  H45 UNL     1     -16.087  -8.621  10.231  1.00  0.00     0.210 HD
ENDBRANCH  31  44
BRANCH  29  46
HETATM   46  O5  UNL     1     -13.243  -6.920   5.991  1.00  0.00    -0.366 OA
HETATM   47  H42 UNL     1     -12.534  -7.590   5.945  1.00  0.00     0.212 HD
ENDBRANCH  29  46
BRANCH   1  48
HETATM   48  O2  UNL     1     -16.534   4.168  16.027  1.00  0.00    -0.386 OA
BRANCH  48  49
HETATM   49  C4  UNL     1     -16.288   5.311  15.206  1.00  0.00     0.170 C 
BRANCH  49  50
HETATM   50  C3  UNL     1     -14.830   5.345  14.757  1.00  0.00     0.052 C 
BRANCH  50  51
HETATM   51  C2  UNL     1     -14.251   6.750  14.867  1.00  0.00     0.169 C 
BRANCH  51  52
HETATM   52  O1  UNL     1     -12.868   6.778  14.504  1.00  0.00    -0.396 OA
HETATM   53  C1  UNL     1     -12.211   7.986  14.873  1.00  0.00     0.201 C 
ENDBRANCH  51  52
ENDBRANCH  50  51
ENDBRANCH  49  50
ENDBRANCH  48  49
ENDBRANCH   1  48
TORSDOF 9
ENDMDL
MODEL 3
REMARK minimizedAffinity -6.86774158
REMARK CNNscore 0.386294991
REMARK CNNaffinity 6.15444136
REMARK  9 active torsions:
REMARK  status: ('A' for Active; 'I' for Inactive)
REMARK    1  A    between atoms: O1_2  and  C2_3 
REMARK    2  A    between atoms: C2_3  and  C3_4 
REMARK    3  A    between atoms: C3_4  and  C4_5 
REMARK    4  A    between atoms: C4_5  and  O2_6 
REMARK    5  A    between atoms: O2_6  and  C5_7 
REMARK    6  A    between atoms: C31_35  and  O5_36 
REMARK    7  A    between atoms: C32_38  and  O6_39 
REMARK    8  A    between atoms: C33_40  and  O7_42 
REMARK    9  A    between atoms: C39_47  and  O8_48 
ROOT
HETATM    1  C5  UNL     1     -14.185   5.393  25.500  1.00  0.00     0.122 C 
HETATM    2  C6  UNL     1     -13.460   5.067  24.196  1.00  0.00     0.033 C 
HETATM    3  C7  UNL     1     -14.199   5.501  22.928  1.00  0.00     0.013 C 
HETATM    4  C8  UNL     1     -14.931   6.887  23.003  1.00  0.00    -0.026 C 
HETATM    5  C9  UNL     1     -16.453   6.595  23.032  1.00  0.00     0.016 C 
HETATM    6  C10 UNL     1     -14.514   7.644  24.291  1.00  0.00     0.071 C 
HETATM    7  C11 UNL     1     -14.790   6.804  25.550  1.00  0.00     0.045 C 
HETATM    8  C12 UNL     1     -13.045   8.082  24.254  1.00  0.00     0.161 C 
HETATM    9  O3  UNL     1     -12.342   8.110  25.267  1.00  0.00    -0.292 OA
HETATM   10  C13 UNL     1     -12.482   8.554  22.961  1.00  0.00    -0.006 C 
HETATM   11  C14 UNL     1     -13.226   8.435  21.850  1.00  0.00    -0.030 C 
HETATM   12  C15 UNL     1     -14.577   7.732  21.726  1.00  0.00     0.027 C 
HETATM   13  C16 UNL     1     -15.645   8.740  21.212  1.00  0.00     0.011 C 
HETATM   14  C17 UNL     1     -15.188   9.516  19.939  1.00  0.00     0.015 C 
HETATM   15  C18 UNL     1     -13.816  10.201  20.156  1.00  0.00     0.013 C 
HETATM   16  C19 UNL     1     -14.037  11.226  21.313  1.00  0.00     0.020 C 
HETATM   17  C20 UNL     1     -13.064  10.857  18.900  1.00  0.00     0.067 C 
HETATM   18  C21 UNL     1     -13.119   9.868  17.760  1.00  0.00    -0.092 C 
HETATM   19  C22 UNL     1     -13.168   9.114  16.820  1.00  0.00    -0.103 C 
HETATM   20  C23 UNL     1     -13.227   8.229  15.640  1.00  0.00     0.129 C 
HETATM   21  C24 UNL     1     -12.798   8.882  14.294  1.00  0.00     0.235 C 
HETATM   22  C25 UNL     1     -11.311   9.297  14.256  1.00  0.00     0.044 C 
HETATM   23  C26 UNL     1     -10.994  10.794  14.380  1.00  0.00     0.027 C 
HETATM   24  C27 UNL     1     -11.003  11.325  15.819  1.00  0.00     0.020 C 
HETATM   25  C28 UNL     1      -9.842  12.314  16.014  1.00  0.00     0.013 C 
HETATM   26  C29 UNL     1     -12.380  11.991  15.904  1.00  0.00     0.158 C 
HETATM   27  O4  UNL     1     -12.472  12.669  14.623  1.00  0.00    -0.373 OA
HETATM   28  C30 UNL     1     -11.986  11.707  13.643  1.00  0.00     0.185 C 
HETATM   29  C31 UNL     1     -13.146  10.924  12.970  1.00  0.00     0.384 C 
HETATM   30  N1  UNL     1     -13.754   9.884  13.789  1.00  0.00     0.120 N 
HETATM   31  C32 UNL     1     -12.681  12.904  17.105  1.00  0.00     0.183 C 
HETATM   32  C33 UNL     1     -13.542  12.286  18.306  1.00  0.00     0.102 C 
HETATM   33  C34 UNL     1     -13.657  13.431  19.345  1.00  0.00     0.050 C 
HETATM   34  C35 UNL     1     -11.595  10.917  19.461  1.00  0.00     0.034 C 
HETATM   35  C36 UNL     1     -11.418   9.770  20.506  1.00  0.00     0.027 C 
HETATM   36  C37 UNL     1     -10.924  10.256  21.873  1.00  0.00     0.013 C 
HETATM   37  C38 UNL     1     -11.127   9.214  22.981  1.00  0.00     0.043 C 
HETATM   38  C39 UNL     1     -12.787   9.080  20.572  1.00  0.00     0.095 C 
HETATM   39  H43 UNL     1     -14.268  10.305  14.563  1.00  0.00     0.319 HD
ENDROOT
BRANCH  32  40
HETATM   40  O7  UNL     1     -14.891  12.126  17.799  1.00  0.00    -0.386 OA
HETATM   41  H49 UNL     1     -15.051  12.934  17.266  1.00  0.00     0.210 HD
ENDBRANCH  32  40
BRANCH  38  42
HETATM   42  O8  UNL     1     -12.727   7.998  19.637  1.00  0.00    -0.384 OA
HETATM   43  H57 UNL     1     -12.127   7.321  19.993  1.00  0.00     0.211 HD
ENDBRANCH  38  42
BRANCH  31  44
HETATM   44  O6  UNL     1     -13.460  14.017  16.577  1.00  0.00    -0.390 OA
HETATM   45  H45 UNL     1     -13.251  14.048  15.620  1.00  0.00     0.210 HD
ENDBRANCH  31  44
BRANCH  29  46
HETATM   46  O5  UNL     1     -12.685  10.339  11.764  1.00  0.00    -0.366 OA
HETATM   47  H42 UNL     1     -13.276  10.683  11.068  1.00  0.00     0.212 HD
ENDBRANCH  29  46
BRANCH   1  48
HETATM   48  O2  UNL     1     -15.227   4.419  25.657  1.00  0.00    -0.386 OA
BRANCH  48  49
HETATM   49  C4  UNL     1     -14.748   3.079  25.781  1.00  0.00     0.170 C 
BRANCH  49  50
HETATM   50  C3  UNL     1     -13.778   2.963  26.954  1.00  0.00     0.052 C 
BRANCH  50  51
HETATM   51  C2  UNL     1     -12.645   1.994  26.640  1.00  0.00     0.169 C 
BRANCH  51  52
HETATM   52  O1  UNL     1     -12.727   1.506  25.299  1.00  0.00    -0.396 OA
HETATM   53  C1  UNL     1     -11.561   1.773  24.528  1.00  0.00     0.201 C 
ENDBRANCH  51  52
ENDBRANCH  50  51
ENDBRANCH  49  50
ENDBRANCH  48  49
ENDBRANCH   1  48
TORSDOF 9
ENDMDL
MODEL 4
REMARK minimizedAffinity -8.00271606
REMARK CNNscore 0.353083193
REMARK CNNaffinity 6.72390127
REMARK  9 active torsions:
REMARK  status: ('A' for Active; 'I' for Inactive)
REMARK    1  A    between atoms: O1_2  and  C2_3 
REMARK    2  A    between atoms: C2_3  and  C3_4 
REMARK    3  A    between atoms: C3_4  and  C4_5 
REMARK    4  A    between atoms: C4_5  and  O2_6 
REMARK    5  A    between atoms: O2_6  and  C5_7 
REMARK    6  A    between atoms: C31_35  and  O5_36 
REMARK    7  A    between atoms: C32_38  and  O6_39 
REMARK    8  A    between atoms: C33_40  and  O7_42 
REMARK    9  A    between atoms: C39_47  and  O8_48 
ROOT
HETATM    1  C5  UNL     1      -8.933  -8.345  -5.961  1.00  0.00     0.122 C 
HETATM    2  C6  UNL     1      -7.533  -8.581  -5.396  1.00  0.00     0.033 C 
HETATM    3  C7  UNL     1      -7.320  -8.052  -3.975  1.00  0.00     0.013 C 
HETATM    4  C8  UNL     1      -8.524  -8.244  -2.987  1.00  0.00    -0.026 C 
HETATM    5  C9  UNL     1      -9.136  -6.841  -2.741  1.00  0.00     0.016 C 
HETATM    6  C10 UNL     1      -9.589  -9.181  -3.613  1.00  0.00     0.071 C 
HETATM    7  C11 UNL     1     -10.070  -8.651  -4.975  1.00  0.00     0.045 C 
HETATM    8  C12 UNL     1      -9.081 -10.621  -3.751  1.00  0.00     0.161 C 
HETATM    9  O3  UNL     1      -9.408 -11.346  -4.694  1.00  0.00    -0.292 OA
HETATM   10  C13 UNL     1      -8.224 -11.174  -2.669  1.00  0.00    -0.006 C 
HETATM   11  C14 UNL     1      -7.801 -10.351  -1.696  1.00  0.00    -0.030 C 
HETATM   12  C15 UNL     1      -7.994  -8.837  -1.632  1.00  0.00     0.027 C 
HETATM   13  C16 UNL     1      -8.764  -8.463  -0.333  1.00  0.00     0.011 C 
HETATM   14  C17 UNL     1      -8.147  -9.101   0.948  1.00  0.00     0.015 C 
HETATM   15  C18 UNL     1      -7.994 -10.636   0.799  1.00  0.00     0.013 C 
HETATM   16  C19 UNL     1      -9.445 -11.186   0.616  1.00  0.00     0.020 C 
HETATM   17  C20 UNL     1      -7.173 -11.450   1.909  1.00  0.00     0.067 C 
HETATM   18  C21 UNL     1      -5.892 -10.697   2.181  1.00  0.00    -0.092 C 
HETATM   19  C22 UNL     1      -4.873 -10.108   2.443  1.00  0.00    -0.103 C 
HETATM   20  C23 UNL     1      -3.627  -9.405   2.808  1.00  0.00     0.129 C 
HETATM   21  C24 UNL     1      -2.905  -9.943   4.078  1.00  0.00     0.235 C 
HETATM   22  C25 UNL     1      -2.376 -11.385   3.923  1.00  0.00     0.044 C 
HETATM   23  C26 UNL     1      -3.151 -12.502   4.636  1.00  0.00     0.027 C 
HETATM   24  C27 UNL     1      -4.398 -12.984   3.886  1.00  0.00     0.020 C 
HETATM   25  C28 UNL     1      -4.509 -14.514   3.995  1.00  0.00     0.013 C 
HETATM   26  C29 UNL     1      -5.519 -12.246   4.622  1.00  0.00     0.158 C 
HETATM   27  O4  UNL     1      -5.115 -12.381   6.011  1.00  0.00    -0.373 OA
HETATM   28  C30 UNL     1      -3.684 -12.107   6.022  1.00  0.00     0.185 C 
HETATM   29  C31 UNL     1      -3.377 -10.630   6.391  1.00  0.00     0.384 C 
HETATM   30  N1  UNL     1      -3.623  -9.658   5.334  1.00  0.00     0.120 N 
HETATM   31  C32 UNL     1      -6.974 -12.674   4.363  1.00  0.00     0.183 C 
HETATM   32  C33 UNL     1      -7.836 -11.784   3.348  1.00  0.00     0.102 C 
HETATM   33  C34 UNL     1      -9.225 -12.472   3.294  1.00  0.00     0.050 C 
HETATM   34  C35 UNL     1      -6.840 -12.758   1.099  1.00  0.00     0.034 C 
HETATM   35  C36 UNL     1      -6.782 -12.398  -0.419  1.00  0.00     0.027 C 
HETATM   36  C37 UNL     1      -7.706 -13.257  -1.290  1.00  0.00     0.013 C 
HETATM   37  C38 UNL     1      -7.936 -12.653  -2.682  1.00  0.00     0.043 C 
HETATM   38  C39 UNL     1      -7.115 -10.901  -0.483  1.00  0.00     0.095 C 
HETATM   39  H43 UNL     1      -4.625  -9.579   5.160  1.00  0.00     0.319 HD
ENDROOT
BRANCH  32  40
HETATM   40  O7  UNL     1      -8.087 -10.525   4.022  1.00  0.00    -0.386 OA
HETATM   41  H49 UNL     1      -8.279 -10.777   4.951  1.00  0.00     0.210 HD
ENDBRANCH  32  40
BRANCH  38  42
HETATM   42  O8  UNL     1      -5.858 -10.217  -0.454  1.00  0.00    -0.384 OA
HETATM   43  H57 UNL     1      -5.406 -10.375  -1.300  1.00  0.00     0.211 HD
ENDBRANCH  38  42
BRANCH  31  44
HETATM   44  O6  UNL     1      -7.652 -12.593   5.651  1.00  0.00    -0.390 OA
HETATM   45  H45 UNL     1      -6.940 -12.653   6.322  1.00  0.00     0.210 HD
ENDBRANCH  31  44
BRANCH  29  46
HETATM   46  O5  UNL     1      -2.026 -10.515   6.805  1.00  0.00    -0.366 OA
HETATM   47  H42 UNL     1      -2.062 -10.134   7.703  1.00  0.00     0.212 HD
ENDBRANCH  29  46
BRANCH   1  48
HETATM   48  O2  UNL     1      -9.000  -6.969  -6.359  1.00  0.00    -0.386 OA
BRANCH  48  49
HETATM   49  C4  UNL     1     -10.260  -6.353  -6.089  1.00  0.00     0.170 C 
BRANCH  49  50
HETATM   50  C3  UNL     1     -10.169  -4.841  -6.275  1.00  0.00     0.052 C 
BRANCH  50  51
HETATM   51  C2  UNL     1     -10.016  -4.127  -4.937  1.00  0.00     0.169 C 
BRANCH  51  52
HETATM   52  O1  UNL     1     -11.210  -3.429  -4.576  1.00  0.00    -0.396 OA
HETATM   53  C1  UNL     1     -11.106  -2.017  -4.724  1.00  0.00     0.201 C 
ENDBRANCH  51  52
ENDBRANCH  50  51
ENDBRANCH  49  50
ENDBRANCH  48  49
ENDBRANCH   1  48
TORSDOF 9
ENDMDL
MODEL 5
REMARK minimizedAffinity -7.25281096
REMARK CNNscore 0.321872652
REMARK CNNaffinity 6.12104225
REMARK  9 active torsions:
REMARK  status: ('A' for Active; 'I' for Inactive)
REMARK    1  A    between atoms: O1_2  and  C2_3 
REMARK    2  A    between atoms: C2_3  and  C3_4 
REMARK    3  A    between atoms: C3_4  and  C4_5 
REMARK    4  A    between atoms: C4_5  and  O2_6 
REMARK    5  A    between atoms: O2_6  and  C5_7 
REMARK    6  A    between atoms: C31_35  and  O5_36 
REMARK    7  A    between atoms: C32_38  and  O6_39 
REMARK    8  A    between atoms: C33_40  and  O7_42 
REMARK    9  A    between atoms: C39_47  and  O8_48 
ROOT
HETATM    1  C5  UNL     1       7.892  14.658  23.387  1.00  0.00     0.122 C 
HETATM    2  C6  UNL     1       6.424  15.015  23.613  1.00  0.00     0.033 C 
HETATM    3  C7  UNL     1       5.656  15.396  22.345  1.00  0.00     0.013 C 
HETATM    4  C8  UNL     1       5.990  14.553  21.064  1.00  0.00    -0.026 C 
HETATM    5  C9  UNL     1       6.781  15.481  20.106  1.00  0.00     0.016 C 
HETATM    6  C10 UNL     1       6.856  13.324  21.441  1.00  0.00     0.071 C 
HETATM    7  C11 UNL     1       8.140  13.745  22.176  1.00  0.00     0.045 C 
HETATM    8  C12 UNL     1       6.075  12.302  22.276  1.00  0.00     0.161 C 
HETATM    9  O3  UNL     1       6.608  11.635  23.166  1.00  0.00    -0.292 OA
HETATM   10  C13 UNL     1       4.644  12.066  21.947  1.00  0.00    -0.006 C 
HETATM   11  C14 UNL     1       4.051  12.859  21.040  1.00  0.00    -0.030 C 
HETATM   12  C15 UNL     1       4.652  14.098  20.378  1.00  0.00     0.027 C 
HETATM   13  C16 UNL     1       4.663  13.912  18.833  1.00  0.00     0.011 C 
HETATM   14  C17 UNL     1       3.283  13.466  18.263  1.00  0.00     0.015 C 
HETATM   15  C18 UNL     1       2.753  12.202  18.985  1.00  0.00     0.013 C 
HETATM   16  C19 UNL     1       3.800  11.081  18.691  1.00  0.00     0.020 C 
HETATM   17  C20 UNL     1       1.250  11.715  18.707  1.00  0.00     0.067 C 
HETATM   18  C21 UNL     1       0.351  12.927  18.782  1.00  0.00    -0.092 C 
HETATM   19  C22 UNL     1      -0.392  13.875  18.808  1.00  0.00    -0.103 C 
HETATM   20  C23 UNL     1      -1.331  15.015  18.807  1.00  0.00     0.129 C 
HETATM   21  C24 UNL     1      -2.754  14.707  18.256  1.00  0.00     0.235 C 
HETATM   22  C25 UNL     1      -3.543  13.696  19.117  1.00  0.00     0.044 C 
HETATM   23  C26 UNL     1      -3.688  12.268  18.572  1.00  0.00     0.027 C 
HETATM   24  C27 UNL     1      -2.469  11.372  18.815  1.00  0.00     0.020 C 
HETATM   25  C28 UNL     1      -2.933   9.959  19.206  1.00  0.00     0.013 C 
HETATM   26  C29 UNL     1      -1.763  11.419  17.457  1.00  0.00     0.158 C 
HETATM   27  O4  UNL     1      -2.875  11.306  16.529  1.00  0.00    -0.373 OA
HETATM   28  C30 UNL     1      -3.902  12.197  17.052  1.00  0.00     0.185 C 
HETATM   29  C31 UNL     1      -3.867  13.591  16.369  1.00  0.00     0.384 C 
HETATM   30  N1  UNL     1      -2.789  14.471  16.801  1.00  0.00     0.120 N 
HETATM   31  C32 UNL     1      -0.631  10.413  17.182  1.00  0.00     0.183 C 
HETATM   32  C33 UNL     1       0.875  10.935  17.338  1.00  0.00     0.102 C 
HETATM   33  C34 UNL     1       1.760   9.705  17.013  1.00  0.00     0.050 C 
HETATM   34  C35 UNL     1       1.013  10.817  19.977  1.00  0.00     0.034 C 
HETATM   35  C36 UNL     1       1.910  11.355  21.136  1.00  0.00     0.027 C 
HETATM   36  C37 UNL     1       2.824  10.290  21.751  1.00  0.00     0.013 C 
HETATM   37  C38 UNL     1       3.953  10.894  22.596  1.00  0.00     0.043 C 
HETATM   38  C39 UNL     1       2.683  12.532  20.526  1.00  0.00     0.095 C 
HETATM   39  H43 UNL     1      -1.892  14.108  16.480  1.00  0.00     0.319 HD
ENDROOT
BRANCH  32  40
HETATM   40  O7  UNL     1       1.107  11.845  16.232  1.00  0.00    -0.386 OA
HETATM   41  H49 UNL     1       0.670  11.417  15.466  1.00  0.00     0.210 HD
ENDBRANCH  32  40
BRANCH  38  42
HETATM   42  O8  UNL     1       1.912  13.702  20.816  1.00  0.00    -0.384 OA
HETATM   43  H57 UNL     1       1.971  13.877  21.770  1.00  0.00     0.211 HD
ENDBRANCH  38  42
BRANCH  31  44
HETATM   44  O6  UNL     1      -0.780  10.012  15.788  1.00  0.00    -0.390 OA
HETATM   45  H45 UNL     1      -1.717  10.197  15.565  1.00  0.00     0.210 HD
ENDBRANCH  31  44
BRANCH  29  46
HETATM   46  O5  UNL     1      -5.103  14.253  16.579  1.00  0.00    -0.366 OA
HETATM   47  H42 UNL     1      -5.441  14.458  15.687  1.00  0.00     0.212 HD
ENDBRANCH  29  46
BRANCH   1  48
HETATM   48  O2  UNL     1       8.603  15.892  23.210  1.00  0.00    -0.386 OA
BRANCH  48  49
HETATM   49  C4  UNL     1       8.329  16.863  24.221  1.00  0.00     0.170 C 
BRANCH  49  50
HETATM   50  C3  UNL     1       9.358  16.773  25.344  1.00  0.00     0.052 C 
BRANCH  50  51
HETATM   51  C2  UNL     1       8.684  16.674  26.707  1.00  0.00     0.169 C 
BRANCH  51  52
HETATM   52  O1  UNL     1       7.673  17.672  26.866  1.00  0.00    -0.396 OA
HETATM   53  C1  UNL     1       7.352  17.938  28.227  1.00  0.00     0.201 C 
ENDBRANCH  51  52
ENDBRANCH  50  51
ENDBRANCH  49  50
ENDBRANCH  48  49
ENDBRANCH   1  48
TORSDOF 9
ENDMDL
MODEL 6
REMARK minimizedAffinity -7.82444715
REMARK CNNscore 0.270307541
REMARK CNNaffinity 6.23224068
REMARK  9 active torsions:
REMARK  status: ('A' for Active; 'I' for Inactive)
REMARK    1  A    between atoms: O1_2  and  C2_3 
REMARK    2  A    between atoms: C2_3  and  C3_4 
REMARK    3  A    between atoms: C3_4  and  C4_5 
REMARK    4  A    between atoms: C4_5  and  O2_6 
REMARK    5  A    between atoms: O2_6  and  C5_7 
REMARK    6  A    between atoms: C31_35  and  O5_36 
REMARK    7  A    between atoms: C32_38  and  O6_39 
REMARK    8  A    between atoms: C33_40  and  O7_42 
REMARK    9  A    between atoms: C39_47  and  O8_48 
ROOT
HETATM    1  C5  UNL     1      -1.060   5.523  12.944  1.00  0.00     0.122 C 
HETATM    2  C6  UNL     1      -0.702   6.928  12.464  1.00  0.00     0.033 C 
HETATM    3  C7  UNL     1      -1.860   7.929  12.495  1.00  0.00     0.013 C 
HETATM    4  C8  UNL     1      -2.819   7.827  13.733  1.00  0.00    -0.026 C 
HETATM    5  C9  UNL     1      -4.162   7.248  13.219  1.00  0.00     0.016 C 
HETATM    6  C10 UNL     1      -2.213   6.883  14.804  1.00  0.00     0.071 C 
HETATM    7  C11 UNL     1      -1.913   5.491  14.221  1.00  0.00     0.045 C 
HETATM    8  C12 UNL     1      -0.954   7.474  15.448  1.00  0.00     0.161 C 
HETATM    9  O3  UNL     1      -0.005   6.770  15.802  1.00  0.00    -0.292 OA
HETATM   10  C13 UNL     1      -0.916   8.936  15.714  1.00  0.00    -0.006 C 
HETATM   11  C14 UNL     1      -1.912   9.704  15.244  1.00  0.00    -0.030 C 
HETATM   12  C15 UNL     1      -3.052   9.262  14.329  1.00  0.00     0.027 C 
HETATM   13  C16 UNL     1      -4.417   9.539  15.023  1.00  0.00     0.011 C 
HETATM   14  C17 UNL     1      -4.539  10.994  15.570  1.00  0.00     0.015 C 
HETATM   15  C18 UNL     1      -3.348  11.354  16.492  1.00  0.00     0.013 C 
HETATM   16  C19 UNL     1      -3.432  10.361  17.694  1.00  0.00     0.020 C 
HETATM   17  C20 UNL     1      -3.164  12.873  16.973  1.00  0.00     0.067 C 
HETATM   18  C21 UNL     1      -3.339  13.764  15.765  1.00  0.00    -0.092 C 
HETATM   19  C22 UNL     1      -3.500  14.507  14.829  1.00  0.00    -0.103 C 
HETATM   20  C23 UNL     1      -3.714  15.450  13.714  1.00  0.00     0.129 C 
HETATM   21  C24 UNL     1      -3.856  16.945  14.122  1.00  0.00     0.235 C 
HETATM   22  C25 UNL     1      -2.575  17.539  14.747  1.00  0.00     0.044 C 
HETATM   23  C26 UNL     1      -2.569  17.758  16.267  1.00  0.00     0.027 C 
HETATM   24  C27 UNL     1      -2.265  16.498  17.086  1.00  0.00     0.020 C 
HETATM   25  C28 UNL     1      -1.341  16.854  18.262  1.00  0.00     0.013 C 
HETATM   26  C29 UNL     1      -3.664  16.062  17.530  1.00  0.00     0.158 C 
HETATM   27  O4  UNL     1      -4.278  17.326  17.895  1.00  0.00    -0.373 OA
HETATM   28  C30 UNL     1      -3.908  18.253  16.833  1.00  0.00     0.185 C 
HETATM   29  C31 UNL     1      -5.016  18.373  15.753  1.00  0.00     0.384 C 
HETATM   30  N1  UNL     1      -5.113  17.250  14.831  1.00  0.00     0.120 N 
HETATM   31  C32 UNL     1      -3.785  14.984  18.621  1.00  0.00     0.183 C 
HETATM   32  C33 UNL     1      -4.095  13.485  18.148  1.00  0.00     0.102 C 
HETATM   33  C34 UNL     1      -4.141  12.655  19.457  1.00  0.00     0.050 C 
HETATM   34  C35 UNL     1      -1.644  12.850  17.380  1.00  0.00     0.034 C 
HETATM   35  C36 UNL     1      -0.921  11.761  16.527  1.00  0.00     0.027 C 
HETATM   36  C37 UNL     1      -0.161  10.728  17.366  1.00  0.00     0.013 C 
HETATM   37  C38 UNL     1       0.207   9.470  16.567  1.00  0.00     0.043 C 
HETATM   38  C39 UNL     1      -2.024  11.138  15.661  1.00  0.00     0.095 C 
HETATM   39  H43 UNL     1      -5.452  16.423  15.321  1.00  0.00     0.319 HD
ENDROOT
BRANCH  32  40
HETATM   40  O7  UNL     1      -5.465  13.483  17.674  1.00  0.00    -0.386 OA
HETATM   41  H49 UNL     1      -5.948  14.049  18.313  1.00  0.00     0.210 HD
ENDBRANCH  32  40
BRANCH  38  42
HETATM   42  O8  UNL     1      -2.011  11.862  14.427  1.00  0.00    -0.384 OA
HETATM   43  H57 UNL     1      -1.200  11.627  13.945  1.00  0.00     0.211 HD
ENDBRANCH  38  42
BRANCH  31  44
HETATM   44  O6  UNL     1      -4.909  15.386  19.459  1.00  0.00    -0.390 OA
HETATM   45  H45 UNL     1      -5.005  16.351  19.316  1.00  0.00     0.210 HD
ENDBRANCH  31  44
BRANCH  29  46
HETATM   46  O5  UNL     1      -4.820  19.560  15.001  1.00  0.00    -0.366 OA
HETATM   47  H42 UNL     1      -5.651  20.063  15.092  1.00  0.00     0.212 HD
ENDBRANCH  29  46
BRANCH   1  48
HETATM   48  O2  UNL     1      -1.770   4.882  11.876  1.00  0.00    -0.386 OA
BRANCH  48  49
HETATM   49  C4  UNL     1      -2.655   3.849  12.313  1.00  0.00     0.170 C 
BRANCH  49  50
HETATM   50  C3  UNL     1      -3.948   3.872  11.501  1.00  0.00     0.052 C 
BRANCH  50  51
HETATM   51  C2  UNL     1      -5.164   3.645  12.391  1.00  0.00     0.169 C 
BRANCH  51  52
HETATM   52  O1  UNL     1      -6.203   2.954  11.693  1.00  0.00    -0.396 OA
HETATM   53  C1  UNL     1      -5.819   1.656  11.251  1.00  0.00     0.201 C 
ENDBRANCH  51  52
ENDBRANCH  50  51
ENDBRANCH  49  50
ENDBRANCH  48  49
ENDBRANCH   1  48
TORSDOF 9
ENDMDL
MODEL 7
REMARK minimizedAffinity -7.27995729
REMARK CNNscore 0.264951944
REMARK CNNaffinity 5.81092072
REMARK  9 active torsions:
REMARK  status: ('A' for Active; 'I' for Inactive)
REMARK    1  A    between atoms: O1_2  and  C2_3 
REMARK    2  A    between atoms: C2_3  and  C3_4 
REMARK    3  A    between atoms: C3_4  and  C4_5 
REMARK    4  A    between atoms: C4_5  and  O2_6 
REMARK    5  A    between atoms: O2_6  and  C5_7 
REMARK    6  A    between atoms: C31_35  and  O5_36 
REMARK    7  A    between atoms: C32_38  and  O6_39 
REMARK    8  A    between atoms: C33_40  and  O7_42 
REMARK    9  A    between atoms: C39_47  and  O8_48 
ROOT
HETATM    1  C5  UNL     1     -11.598  13.030  24.464  1.00  0.00     0.122 C 
HETATM    2  C6  UNL     1     -10.336  12.169  24.425  1.00  0.00     0.033 C 
HETATM    3  C7  UNL     1      -9.814  11.863  23.018  1.00  0.00     0.013 C 
HETATM    4  C8  UNL     1      -9.899  13.042  21.986  1.00  0.00    -0.026 C 
HETATM    5  C9  UNL     1     -11.011  12.674  20.970  1.00  0.00     0.016 C 
HETATM    6  C10 UNL     1     -10.262  14.364  22.710  1.00  0.00     0.071 C 
HETATM    7  C11 UNL     1     -11.573  14.228  23.503  1.00  0.00     0.045 C 
HETATM    8  C12 UNL     1      -9.133  14.849  23.626  1.00  0.00     0.161 C 
HETATM    9  O3  UNL     1      -9.355  15.428  24.692  1.00  0.00    -0.292 OA
HETATM   10  C13 UNL     1      -7.729  14.673  23.171  1.00  0.00    -0.006 C 
HETATM   11  C14 UNL     1      -7.495  13.963  22.055  1.00  0.00    -0.030 C 
HETATM   12  C15 UNL     1      -8.523  13.179  21.240  1.00  0.00     0.027 C 
HETATM   13  C16 UNL     1      -8.547  13.712  19.779  1.00  0.00     0.011 C 
HETATM   14  C17 UNL     1      -7.129  13.800  19.138  1.00  0.00     0.015 C 
HETATM   15  C18 UNL     1      -6.156  14.617  20.026  1.00  0.00     0.013 C 
HETATM   16  C19 UNL     1      -6.761  16.054  20.099  1.00  0.00     0.020 C 
HETATM   17  C20 UNL     1      -4.594  14.634  19.662  1.00  0.00     0.067 C 
HETATM   18  C21 UNL     1      -4.170  13.212  19.377  1.00  0.00    -0.092 C 
HETATM   19  C22 UNL     1      -3.803  12.094  19.117  1.00  0.00    -0.103 C 
HETATM   20  C23 UNL     1      -3.321  10.743  18.767  1.00  0.00     0.129 C 
HETATM   21  C24 UNL     1      -1.910  10.686  18.113  1.00  0.00     0.235 C 
HETATM   22  C25 UNL     1      -0.776  11.153  19.052  1.00  0.00     0.044 C 
HETATM   23  C26 UNL     1      -0.170  12.540  18.791  1.00  0.00     0.027 C 
HETATM   24  C27 UNL     1      -0.988  13.704  19.362  1.00  0.00     0.020 C 
HETATM   25  C28 UNL     1      -0.042  14.755  19.966  1.00  0.00     0.013 C 
HETATM   26  C29 UNL     1      -1.734  14.208  18.123  1.00  0.00     0.158 C 
HETATM   27  O4  UNL     1      -0.701  14.162  17.103  1.00  0.00    -0.373 OA
HETATM   28  C30 UNL     1      -0.023  12.888  17.302  1.00  0.00     0.185 C 
HETATM   29  C31 UNL     1      -0.576  11.781  16.362  1.00  0.00     0.384 C 
HETATM   30  N1  UNL     1      -1.869  11.229  16.743  1.00  0.00     0.120 N 
HETATM   31  C32 UNL     1      -2.458  15.564  18.203  1.00  0.00     0.183 C 
HETATM   32  C33 UNL     1      -4.041  15.543  18.441  1.00  0.00     0.102 C 
HETATM   33  C34 UNL     1      -4.458  17.036  18.485  1.00  0.00     0.050 C 
HETATM   34  C35 UNL     1      -3.995  15.083  21.046  1.00  0.00     0.034 C 
HETATM   35  C36 UNL     1      -4.962  14.615  22.178  1.00  0.00     0.027 C 
HETATM   36  C37 UNL     1      -5.416  15.748  23.106  1.00  0.00     0.013 C 
HETATM   37  C38 UNL     1      -6.641  15.369  23.949  1.00  0.00     0.043 C 
HETATM   38  C39 UNL     1      -6.127  13.934  21.448  1.00  0.00     0.095 C 
HETATM   39  H43 UNL     1      -2.599  11.930  16.618  1.00  0.00     0.319 HD
ENDROOT
BRANCH  32  40
HETATM   40  O7  UNL     1      -4.631  15.043  17.214  1.00  0.00    -0.386 OA
HETATM   41  H49 UNL     1      -4.112  15.469  16.500  1.00  0.00     0.210 HD
ENDBRANCH  32  40
BRANCH  38  42
HETATM   42  O8  UNL     1      -5.798  12.542  21.396  1.00  0.00    -0.384 OA
HETATM   43  H57 UNL     1      -5.866  12.179  22.296  1.00  0.00     0.211 HD
ENDBRANCH  38  42
BRANCH  31  44
HETATM   44  O6  UNL     1      -2.250  16.206  16.911  1.00  0.00    -0.390 OA
HETATM   45  H45 UNL     1      -1.448  15.781  16.537  1.00  0.00     0.210 HD
ENDBRANCH  31  44
BRANCH  29  46
HETATM   46  O5  UNL     1       0.362  10.721  16.276  1.00  0.00    -0.366 OA
HETATM   47  H42 UNL     1       0.561  10.630  15.325  1.00  0.00     0.212 HD
ENDBRANCH  29  46
BRANCH   1  48
HETATM   48  O2  UNL     1     -12.701  12.174  24.135  1.00  0.00    -0.386 OA
BRANCH  48  49
HETATM   49  C4  UNL     1     -12.713  10.945  24.863  1.00  0.00     0.170 C 
BRANCH  49  50
HETATM   50  C3  UNL     1     -12.985   9.770  23.927  1.00  0.00     0.052 C 
BRANCH  50  51
HETATM   51  C2  UNL     1     -11.974   8.649  24.139  1.00  0.00     0.169 C 
BRANCH  51  52
HETATM   52  O1  UNL     1     -11.890   7.796  22.994  1.00  0.00    -0.396 OA
HETATM   53  C1  UNL     1     -13.097   7.089  22.727  1.00  0.00     0.201 C 
ENDBRANCH  51  52
ENDBRANCH  50  51
ENDBRANCH  49  50
ENDBRANCH  48  49
ENDBRANCH   1  48
TORSDOF 9
ENDMDL
MODEL 8
REMARK minimizedAffinity -7.43596697
REMARK CNNscore 0.262512773
REMARK CNNaffinity 6.19689131
REMARK  9 active torsions:
REMARK  status: ('A' for Active; 'I' for Inactive)
REMARK    1  A    between atoms: O1_2  and  C2_3 
REMARK    2  A    between atoms: C2_3  and  C3_4 
REMARK    3  A    between atoms: C3_4  and  C4_5 
REMARK    4  A    between atoms: C4_5  and  O2_6 
REMARK    5  A    between atoms: O2_6  and  C5_7 
REMARK    6  A    between atoms: C31_35  and  O5_36 
REMARK    7  A    between atoms: C32_38  and  O6_39 
REMARK    8  A    between atoms: C33_40  and  O7_42 
REMARK    9  A    between atoms: C39_47  and  O8_48 
ROOT
HETATM    1  C5  UNL     1     -12.009  -8.822  -0.318  1.00  0.00     0.122 C 
HETATM    2  C6  UNL     1     -10.742  -9.242   0.425  1.00  0.00     0.033 C 
HETATM    3  C7  UNL     1     -10.394  -8.373   1.636  1.00  0.00     0.013 C 
HETATM    4  C8  UNL     1     -11.607  -7.906   2.514  1.00  0.00    -0.026 C 
HETATM    5  C9  UNL     1     -11.785  -6.386   2.269  1.00  0.00     0.016 C 
HETATM    6  C10 UNL     1     -12.894  -8.662   2.097  1.00  0.00     0.071 C 
HETATM    7  C11 UNL     1     -13.193  -8.478   0.599  1.00  0.00     0.045 C 
HETATM    8  C12 UNL     1     -12.827 -10.153   2.447  1.00  0.00     0.161 C 
HETATM    9  O3  UNL     1     -13.345 -11.019   1.737  1.00  0.00    -0.292 OA
HETATM   10  C13 UNL     1     -12.175 -10.550   3.723  1.00  0.00    -0.006 C 
HETATM   11  C14 UNL     1     -11.536  -9.613   4.441  1.00  0.00    -0.030 C 
HETATM   12  C15 UNL     1     -11.281  -8.164   4.030  1.00  0.00     0.027 C 
HETATM   13  C16 UNL     1     -11.917  -7.203   5.076  1.00  0.00     0.011 C 
HETATM   14  C17 UNL     1     -11.520  -7.550   6.543  1.00  0.00     0.015 C 
HETATM   15  C18 UNL     1     -11.820  -9.033   6.875  1.00  0.00     0.013 C 
HETATM   16  C19 UNL     1     -13.366  -9.192   6.726  1.00  0.00     0.020 C 
HETATM   17  C20 UNL     1     -11.277  -9.650   8.253  1.00  0.00     0.067 C 
HETATM   18  C21 UNL     1      -9.834  -9.232   8.410  1.00  0.00    -0.092 C 
HETATM   19  C22 UNL     1      -8.690  -8.894   8.581  1.00  0.00    -0.103 C 
HETATM   20  C23 UNL     1      -7.295  -8.482   8.839  1.00  0.00     0.129 C 
HETATM   21  C24 UNL     1      -6.769  -8.769  10.275  1.00  0.00     0.235 C 
HETATM   22  C25 UNL     1      -6.681 -10.273  10.610  1.00  0.00     0.044 C 
HETATM   23  C26 UNL     1      -7.753 -10.851  11.547  1.00  0.00     0.027 C 
HETATM   24  C27 UNL     1      -9.081 -11.183  10.858  1.00  0.00     0.020 C 
HETATM   25  C28 UNL     1      -9.634 -12.508  11.409  1.00  0.00     0.013 C 
HETATM   26  C29 UNL     1      -9.943  -9.972  11.227  1.00  0.00     0.158 C 
HETATM   27  O4  UNL     1      -9.604  -9.769  12.624  1.00  0.00    -0.373 OA
HETATM   28  C30 UNL     1      -8.156  -9.909  12.692  1.00  0.00     0.185 C 
HETATM   29  C31 UNL     1      -7.434  -8.536  12.631  1.00  0.00     0.384 C 
HETATM   30  N1  UNL     1      -7.381  -7.918  11.312  1.00  0.00     0.120 N 
HETATM   31  C32 UNL     1     -11.459 -10.044  10.968  1.00  0.00     0.183 C 
HETATM   32  C33 UNL     1     -12.018  -9.318   9.654  1.00  0.00     0.102 C 
HETATM   33  C34 UNL     1     -13.546  -9.579   9.674  1.00  0.00     0.050 C 
HETATM   34  C35 UNL     1     -11.335 -11.184   7.908  1.00  0.00     0.034 C 
HETATM   35  C36 UNL     1     -11.165 -11.350   6.365  1.00  0.00     0.027 C 
HETATM   36  C37 UNL     1     -12.294 -12.151   5.706  1.00  0.00     0.013 C 
HETATM   37  C38 UNL     1     -12.331 -11.978   4.182  1.00  0.00     0.043 C 
HETATM   38  C39 UNL     1     -11.047  -9.919   5.823  1.00  0.00     0.095 C 
HETATM   39  H43 UNL     1      -8.314  -7.625  11.025  1.00  0.00     0.319 HD
ENDROOT
BRANCH  32  40
HETATM   40  O7  UNL     1     -11.895  -7.893   9.893  1.00  0.00    -0.386 OA
HETATM   41  H49 UNL     1     -12.158  -7.777  10.831  1.00  0.00     0.210 HD
ENDBRANCH  32  40
BRANCH  38  42
HETATM   42  O8  UNL     1      -9.646  -9.634   5.768  1.00  0.00    -0.384 OA
HETATM   43  H57 UNL     1      -9.254 -10.167   5.056  1.00  0.00     0.211 HD
ENDBRANCH  38  42
BRANCH  31  44
HETATM   44  O6  UNL     1     -12.091  -9.378  12.100  1.00  0.00    -0.390 OA
HETATM   45  H45 UNL     1     -11.431  -9.417  12.825  1.00  0.00     0.210 HD
ENDBRANCH  31  44
BRANCH  29  46
HETATM   46  O5  UNL     1      -6.111  -8.672  13.120  1.00  0.00    -0.366 OA
HETATM   47  H42 UNL     1      -6.040  -8.034  13.854  1.00  0.00     0.212 HD
ENDBRANCH  29  46
BRANCH   1  48
HETATM   48  O2  UNL     1     -11.671  -7.678  -1.114  1.00  0.00    -0.386 OA
BRANCH  48  49
HETATM   49  C4  UNL     1     -10.670  -7.939  -2.100  1.00  0.00     0.170 C 
BRANCH  49  50
HETATM   50  C3  UNL     1      -9.521  -6.942  -1.975  1.00  0.00     0.052 C 
BRANCH  50  51
HETATM   51  C2  UNL     1      -9.161  -6.341  -3.327  1.00  0.00     0.169 C 
BRANCH  51  52
HETATM   52  O1  UNL     1     -10.025  -5.253  -3.665  1.00  0.00    -0.396 OA
HETATM   53  C1  UNL     1      -9.608  -4.540  -4.825  1.00  0.00     0.201 C 
ENDBRANCH  51  52
ENDBRANCH  50  51
ENDBRANCH  49  50
ENDBRANCH  48  49
ENDBRANCH   1  48
TORSDOF 9
ENDMDL
MODEL 9
REMARK minimizedAffinity -6.59662199
REMARK CNNscore 0.253985912
REMARK CNNaffinity 6.11588144
REMARK  9 active torsions:
REMARK  status: ('A' for Active; 'I' for Inactive)
REMARK    1  A    between atoms: O1_2  and  C2_3 
REMARK    2  A    between atoms: C2_3  and  C3_4 
REMARK    3  A    between atoms: C3_4  and  C4_5 
REMARK    4  A    between atoms: C4_5  and  O2_6 
REMARK    5  A    between atoms: O2_6  and  C5_7 
REMARK    6  A    between atoms: C31_35  and  O5_36 
REMARK    7  A    between atoms: C32_38  and  O6_39 
REMARK    8  A    between atoms: C33_40  and  O7_42 
REMARK    9  A    between atoms: C39_47  and  O8_48 
ROOT
HETATM    1  C5  UNL     1      -9.682  -5.934  -6.425  1.00  0.00     0.122 C 
HETATM    2  C6  UNL     1      -9.289  -5.442  -5.033  1.00  0.00     0.033 C 
HETATM    3  C7  UNL     1     -10.166  -5.974  -3.896  1.00  0.00     0.013 C 
HETATM    4  C8  UNL     1     -10.607  -7.475  -4.018  1.00  0.00    -0.026 C 
HETATM    5  C9  UNL     1     -12.123  -7.477  -4.342  1.00  0.00     0.016 C 
HETATM    6  C10 UNL     1      -9.823  -8.174  -5.158  1.00  0.00     0.071 C 
HETATM    7  C11 UNL     1     -10.001  -7.435  -6.496  1.00  0.00     0.045 C 
HETATM    8  C12 UNL     1      -8.334  -8.325  -4.826  1.00  0.00     0.161 C 
HETATM    9  O3  UNL     1      -7.457  -8.247  -5.690  1.00  0.00    -0.292 OA
HETATM   10  C13 UNL     1      -7.951  -8.647  -3.426  1.00  0.00    -0.006 C 
HETATM   11  C14 UNL     1      -8.903  -8.641  -2.479  1.00  0.00    -0.030 C 
HETATM   12  C15 UNL     1     -10.357  -8.203  -2.648  1.00  0.00     0.027 C 
HETATM   13  C16 UNL     1     -11.303  -9.380  -2.275  1.00  0.00     0.011 C 
HETATM   14  C17 UNL     1     -10.966 -10.021  -0.895  1.00  0.00     0.015 C 
HETATM   15  C18 UNL     1      -9.476 -10.441  -0.814  1.00  0.00     0.013 C 
HETATM   16  C19 UNL     1      -9.284 -11.520  -1.926  1.00  0.00     0.020 C 
HETATM   17  C20 UNL     1      -8.873 -10.908   0.596  1.00  0.00     0.067 C 
HETATM   18  C21 UNL     1      -9.322  -9.917   1.643  1.00  0.00    -0.092 C 
HETATM   19  C22 UNL     1      -9.684  -9.161   2.509  1.00  0.00    -0.103 C 
HETATM   20  C23 UNL     1     -10.127  -8.271   3.601  1.00  0.00     0.129 C 
HETATM   21  C24 UNL     1      -9.851  -8.795   5.041  1.00  0.00     0.235 C 
HETATM   22  C25 UNL     1      -8.349  -8.920   5.375  1.00  0.00     0.044 C 
HETATM   23  C26 UNL     1      -7.749 -10.334   5.404  1.00  0.00     0.027 C 
HETATM   24  C27 UNL     1      -7.388 -10.895   4.024  1.00  0.00     0.020 C 
HETATM   25  C28 UNL     1      -6.051 -11.651   4.106  1.00  0.00     0.013 C 
HETATM   26  C29 UNL     1      -8.580 -11.811   3.731  1.00  0.00     0.158 C 
HETATM   27  O4  UNL     1      -8.791 -12.460   5.013  1.00  0.00    -0.373 OA
HETATM   28  C30 UNL     1      -8.682 -11.397   6.003  1.00  0.00     0.185 C 
HETATM   29  C31 UNL     1     -10.071 -10.830   6.403  1.00  0.00     0.384 C 
HETATM   30  N1  UNL     1     -10.689  -9.946   5.424  1.00  0.00     0.120 N 
HETATM   31  C32 UNL     1      -8.475 -12.797   2.554  1.00  0.00     0.183 C 
HETATM   32  C33 UNL     1      -9.189 -12.385   1.180  1.00  0.00     0.102 C 
HETATM   33  C34 UNL     1      -8.894 -13.559   0.210  1.00  0.00     0.050 C 
HETATM   34  C35 UNL     1      -7.337 -10.704   0.317  1.00  0.00     0.034 C 
HETATM   35  C36 UNL     1      -7.174  -9.574  -0.747  1.00  0.00     0.027 C 
HETATM   36  C37 UNL     1      -6.349  -9.994  -1.968  1.00  0.00     0.013 C 
HETATM   37  C38 UNL     1      -6.521  -9.039  -3.157  1.00  0.00     0.043 C 
HETATM   38  C39 UNL     1      -8.607  -9.157  -1.104  1.00  0.00     0.095 C 
HETATM   39  H43 UNL     1     -10.961 -10.477   4.597  1.00  0.00     0.319 HD
ENDROOT
BRANCH  32  40
HETATM   40  O7  UNL     1     -10.616 -12.469   1.421  1.00  0.00    -0.386 OA
HETATM   41  H49 UNL     1     -10.726 -13.278   1.965  1.00  0.00     0.210 HD
ENDBRANCH  32  40
BRANCH  38  42
HETATM   42  O8  UNL     1      -8.923  -8.058  -0.244  1.00  0.00    -0.384 OA
HETATM   43  H57 UNL     1      -8.398  -7.290  -0.526  1.00  0.00     0.211 HD
ENDBRANCH  38  42
BRANCH  31  44
HETATM   44  O6  UNL     1      -9.127 -14.023   2.999  1.00  0.00    -0.390 OA
HETATM   45  H45 UNL     1      -9.103 -13.988   3.978  1.00  0.00     0.210 HD
ENDBRANCH  31  44
BRANCH  29  46
HETATM   46  O5  UNL     1      -9.963 -10.135   7.635  1.00  0.00    -0.366 OA
HETATM   47  H42 UNL     1     -10.603 -10.567   8.232  1.00  0.00     0.212 HD
ENDBRANCH  29  46
BRANCH   1  48
HETATM   48  O2  UNL     1     -10.832  -5.180  -6.829  1.00  0.00    -0.386 OA
BRANCH  48  49
HETATM   49  C4  UNL     1     -10.560  -3.798  -7.065  1.00  0.00     0.170 C 
BRANCH  49  50
HETATM   50  C3  UNL     1     -11.848  -2.980  -7.009  1.00  0.00     0.052 C 
BRANCH  50  51
HETATM   51  C2  UNL     1     -12.467  -3.017  -5.617  1.00  0.00     0.169 C 
BRANCH  51  52
HETATM   52  O1  UNL     1     -11.497  -2.738  -4.604  1.00  0.00    -0.396 OA
HETATM   53  C1  UNL     1     -11.155  -1.359  -4.513  1.00  0.00     0.201 C 
ENDBRANCH  51  52
ENDBRANCH  50  51
ENDBRANCH  49  50
ENDBRANCH  48  49
ENDBRANCH   1  48
TORSDOF 9
ENDMDL
