MODEL 1
REMARK minimizedAffinity -6.7405839
REMARK  2 active torsions:
REMARK  status: ('A' for Active; 'I' for Inactive)
REMARK    1  A    between atoms: C4_5  and  S1_6 
REMARK    2  A    between atoms: S1_6  and  C5_7 
ROOT
HETATM    1  C5  UNL     1      -4.542   5.044  13.074  1.00  0.00     0.029 A 
HETATM    2  C6  UNL     1      -5.865   4.615  13.261  1.00  0.00     0.046 A 
HETATM    3  C7  UNL     1      -6.349   3.481  12.601  1.00  0.00     0.057 A 
HETATM    4 CL2  UNL     1      -7.994   3.032  12.879  1.00  0.00    -0.083 Cl
HETATM    5  C8  UNL     1      -5.508   2.757  11.751  1.00  0.00     0.057 A 
HETATM    6 CL3  UNL     1      -6.037   1.349  10.903  1.00  0.00    -0.082 Cl
HETATM    7  C9  UNL     1      -4.185   3.167  11.568  1.00  0.00     0.051 A 
HETATM    8  C10 UNL     1      -3.701   4.302  12.228  1.00  0.00     0.052 A 
HETATM    9 CL4  UNL     1      -2.044   4.720  11.959  1.00  0.00    -0.083 Cl
ENDROOT
BRANCH   1  10
HETATM   10  S1  UNL     1      -4.022   6.509  13.965  1.00  0.00    -0.089 SA
BRANCH  10  11
HETATM   11  C4  UNL     1      -5.546   6.963  14.776  1.00  0.00     0.005 A 
HETATM   12  C3  UNL     1      -6.044   6.159  15.807  1.00  0.00     0.020 A 
HETATM   13  C2  UNL     1      -7.238   6.496  16.450  1.00  0.00     0.025 A 
HETATM   14  C1  UNL     1      -7.939   7.633  16.056  1.00  0.00     0.034 A 
HETATM   15 CL1  UNL     1      -9.409   8.050  16.846  1.00  0.00    -0.084 Cl
HETATM   16  C12 UNL     1      -7.459   8.435  15.021  1.00  0.00     0.025 A 
HETATM   17  C11 UNL     1      -6.264   8.097  14.379  1.00  0.00     0.020 A 
ENDBRANCH  10  11
ENDBRANCH   1  10
TORSDOF 2
ENDMDL
MODEL 2
REMARK minimizedAffinity -6.71739817
REMARK  2 active torsions:
REMARK  status: ('A' for Active; 'I' for Inactive)
REMARK    1  A    between atoms: C4_5  and  S1_6 
REMARK    2  A    between atoms: S1_6  and  C5_7 
ROOT
HETATM    1  C5  UNL     1      -5.822   3.439  12.600  1.00  0.00     0.029 A 
HETATM    2  C6  UNL     1      -5.237   4.643  13.021  1.00  0.00     0.046 A 
HETATM    3  C7  UNL     1      -3.960   5.009  12.584  1.00  0.00     0.057 A 
HETATM    4 CL2  UNL     1      -3.311   6.501  13.163  1.00  0.00    -0.083 Cl
HETATM    5  C8  UNL     1      -3.258   4.175  11.708  1.00  0.00     0.057 A 
HETATM    6 CL3  UNL     1      -1.678   4.563  11.128  1.00  0.00    -0.082 Cl
HETATM    7  C9  UNL     1      -3.836   2.982  11.272  1.00  0.00     0.051 A 
HETATM    8  C10 UNL     1      -5.113   2.614  11.710  1.00  0.00     0.052 A 
HETATM    9 CL4  UNL     1      -5.758   1.131  11.097  1.00  0.00    -0.083 Cl
ENDROOT
BRANCH   1  10
HETATM   10  S1  UNL     1      -7.460   3.063  13.220  1.00  0.00    -0.089 SA
BRANCH  10  11
HETATM   11  C4  UNL     1      -7.887   4.614  13.993  1.00  0.00     0.005 A 
HETATM   12  C3  UNL     1      -8.567   5.589  13.254  1.00  0.00     0.020 A 
HETATM   13  C2  UNL     1      -8.905   6.811  13.841  1.00  0.00     0.025 A 
HETATM   14  C1  UNL     1      -8.555   7.063  15.166  1.00  0.00     0.034 A 
HETATM   15 CL1  UNL     1      -8.971   8.566  15.890  1.00  0.00    -0.084 Cl
HETATM   16  C12 UNL     1      -7.867   6.104  15.908  1.00  0.00     0.025 A 
HETATM   17  C11 UNL     1      -7.530   4.882  15.320  1.00  0.00     0.020 A 
ENDBRANCH  10  11
ENDBRANCH   1  10
TORSDOF 2
ENDMDL
MODEL 3
REMARK minimizedAffinity -6.62907505
REMARK  2 active torsions:
REMARK  status: ('A' for Active; 'I' for Inactive)
REMARK    1  A    between atoms: C4_5  and  S1_6 
REMARK    2  A    between atoms: S1_6  and  C5_7 
ROOT
HETATM    1  C5  UNL     1       0.438   6.466  11.417  1.00  0.00     0.029 A 
HETATM    2  C6  UNL     1       1.454   5.757  10.759  1.00  0.00     0.046 A 
HETATM    3  C7  UNL     1       2.045   6.265   9.598  1.00  0.00     0.057 A 
HETATM    4 CL2  UNL     1       3.278   5.319   8.845  1.00  0.00    -0.083 Cl
HETATM    5  C8  UNL     1       1.630   7.499   9.088  1.00  0.00     0.057 A 
HETATM    6 CL3  UNL     1       2.313   8.188   7.659  1.00  0.00    -0.082 Cl
HETATM    7  C9  UNL     1       0.629   8.220   9.743  1.00  0.00     0.051 A 
HETATM    8  C10 UNL     1       0.037   7.711  10.904  1.00  0.00     0.052 A 
HETATM    9 CL4  UNL     1      -1.175   8.685  11.660  1.00  0.00    -0.083 Cl
ENDROOT
BRANCH   1  10
HETATM   10  S1  UNL     1      -0.253   5.726  12.895  1.00  0.00    -0.089 SA
BRANCH  10  11
HETATM   11  C4  UNL     1      -1.712   4.946  12.224  1.00  0.00     0.005 A 
HETATM   12  C3  UNL     1      -2.935   5.082  12.891  1.00  0.00     0.020 A 
HETATM   13  C2  UNL     1      -4.087   4.474  12.382  1.00  0.00     0.025 A 
HETATM   14  C1  UNL     1      -4.014   3.723  11.212  1.00  0.00     0.034 A 
HETATM   15 CL1  UNL     1      -5.430   2.975  10.585  1.00  0.00    -0.084 Cl
HETATM   16  C12 UNL     1      -2.798   3.571  10.546  1.00  0.00     0.025 A 
HETATM   17  C11 UNL     1      -1.647   4.179  11.055  1.00  0.00     0.020 A 
ENDBRANCH  10  11
ENDBRANCH   1  10
TORSDOF 2
ENDMDL
MODEL 4
REMARK minimizedAffinity -6.46490097
REMARK  2 active torsions:
REMARK  status: ('A' for Active; 'I' for Inactive)
REMARK    1  A    between atoms: C4_5  and  S1_6 
REMARK    2  A    between atoms: S1_6  and  C5_7 
ROOT
HETATM    1  C5  UNL     1      -6.748   6.378  13.840  1.00  0.00     0.029 A 
HETATM    2  C6  UNL     1      -5.698   6.985  13.135  1.00  0.00     0.046 A 
HETATM    3  C7  UNL     1      -5.015   8.081  13.672  1.00  0.00     0.057 A 
HETATM    4 CL2  UNL     1      -3.744   8.775  12.730  1.00  0.00    -0.083 Cl
HETATM    5  C8  UNL     1      -5.371   8.575  14.930  1.00  0.00     0.057 A 
HETATM    6 CL3  UNL     1      -4.573   9.925  15.655  1.00  0.00    -0.082 Cl
HETATM    7  C9  UNL     1      -6.406   7.971  15.647  1.00  0.00     0.051 A 
HETATM    8  C10 UNL     1      -7.090   6.875  15.109  1.00  0.00     0.052 A 
HETATM    9 CL4  UNL     1      -8.340   6.176  16.079  1.00  0.00    -0.083 Cl
ENDROOT
BRANCH   1  10
HETATM   10  S1  UNL     1      -7.559   4.983  13.062  1.00  0.00    -0.089 SA
BRANCH  10  11
HETATM   11  C4  UNL     1      -6.146   3.997  12.594  1.00  0.00     0.005 A 
HETATM   12  C3  UNL     1      -4.876   4.342  13.069  1.00  0.00     0.020 A 
HETATM   13  C2  UNL     1      -3.758   3.584  12.709  1.00  0.00     0.025 A 
HETATM   14  C1  UNL     1      -3.909   2.486  11.866  1.00  0.00     0.034 A 
HETATM   15 CL1  UNL     1      -2.534   1.553  11.423  1.00  0.00    -0.084 Cl
HETATM   16  C12 UNL     1      -5.167   2.140  11.377  1.00  0.00     0.025 A 
HETATM   17  C11 UNL     1      -6.285   2.898  11.738  1.00  0.00     0.020 A 
ENDBRANCH  10  11
ENDBRANCH   1  10
TORSDOF 2
ENDMDL
MODEL 5
REMARK minimizedAffinity -6.40660954
REMARK  2 active torsions:
REMARK  status: ('A' for Active; 'I' for Inactive)
REMARK    1  A    between atoms: C4_5  and  S1_6 
REMARK    2  A    between atoms: S1_6  and  C5_7 
ROOT
HETATM    1  C5  UNL     1      -0.645   4.668  12.326  1.00  0.00     0.029 A 
HETATM    2  C6  UNL     1      -0.414   3.419  11.730  1.00  0.00     0.046 A 
HETATM    3  C7  UNL     1      -1.475   2.550  11.456  1.00  0.00     0.057 A 
HETATM    4 CL2  UNL     1      -1.099   1.027  10.734  1.00  0.00    -0.083 Cl
HETATM    5  C8  UNL     1      -2.784   2.928  11.770  1.00  0.00     0.057 A 
HETATM    6 CL3  UNL     1      -4.143   1.907  11.463  1.00  0.00    -0.082 Cl
HETATM    7  C9  UNL     1      -3.027   4.174  12.352  1.00  0.00     0.051 A 
HETATM    8  C10 UNL     1      -1.965   5.044  12.626  1.00  0.00     0.052 A 
HETATM    9 CL4  UNL     1      -2.364   6.575  13.323  1.00  0.00    -0.083 Cl
ENDROOT
BRANCH   1  10
HETATM   10  S1  UNL     1       0.783   5.705  12.635  1.00  0.00    -0.089 SA
BRANCH  10  11
HETATM   11  C4  UNL     1       1.157   6.258  10.980  1.00  0.00     0.005 A 
HETATM   12  C3  UNL     1       2.247   5.706  10.298  1.00  0.00     0.020 A 
HETATM   13  C2  UNL     1       2.557   6.130   9.003  1.00  0.00     0.025 A 
HETATM   14  C1  UNL     1       1.782   7.114   8.393  1.00  0.00     0.034 A 
HETATM   15 CL1  UNL     1       2.162   7.637   6.799  1.00  0.00    -0.084 Cl
HETATM   16  C12 UNL     1       0.702   7.680   9.067  1.00  0.00     0.025 A 
HETATM   17  C11 UNL     1       0.391   7.254  10.362  1.00  0.00     0.020 A 
ENDBRANCH  10  11
ENDBRANCH   1  10
TORSDOF 2
ENDMDL
MODEL 6
REMARK minimizedAffinity -6.31562471
REMARK  2 active torsions:
REMARK  status: ('A' for Active; 'I' for Inactive)
REMARK    1  A    between atoms: C4_5  and  S1_6 
REMARK    2  A    between atoms: S1_6  and  C5_7 
ROOT
HETATM    1  C5  UNL     1      -1.094   6.292  12.622  1.00  0.00     0.029 A 
HETATM    2  C6  UNL     1      -2.217   7.078  12.923  1.00  0.00     0.046 A 
HETATM    3  C7  UNL     1      -3.500   6.523  12.919  1.00  0.00     0.057 A 
HETATM    4 CL2  UNL     1      -4.827   7.566  13.288  1.00  0.00    -0.083 Cl
HETATM    5  C8  UNL     1      -3.672   5.168  12.622  1.00  0.00     0.057 A 
HETATM    6 CL3  UNL     1      -5.226   4.415  12.598  1.00  0.00    -0.082 Cl
HETATM    7  C9  UNL     1      -2.561   4.373  12.334  1.00  0.00     0.051 A 
HETATM    8  C10 UNL     1      -1.276   4.929  12.337  1.00  0.00     0.052 A 
HETATM    9 CL4  UNL     1       0.042   3.863  11.993  1.00  0.00    -0.083 Cl
ENDROOT
BRANCH   1  10
HETATM   10  S1  UNL     1       0.505   7.101  12.652  1.00  0.00    -0.089 SA
BRANCH  10  11
HETATM   11  C4  UNL     1       0.866   7.189  10.906  1.00  0.00     0.005 A 
HETATM   12  C3  UNL     1       1.865   6.371  10.367  1.00  0.00     0.020 A 
HETATM   13  C2  UNL     1       2.164   6.430   9.003  1.00  0.00     0.025 A 
HETATM   14  C1  UNL     1       1.470   7.314   8.179  1.00  0.00     0.034 A 
HETATM   15 CL1  UNL     1       1.837   7.387   6.501  1.00  0.00    -0.084 Cl
HETATM   16  C12 UNL     1       0.482   8.142   8.708  1.00  0.00     0.025 A 
HETATM   17  C11 UNL     1       0.182   8.082  10.073  1.00  0.00     0.020 A 
ENDBRANCH  10  11
ENDBRANCH   1  10
TORSDOF 2
ENDMDL
MODEL 7
REMARK minimizedAffinity -6.18066597
REMARK  2 active torsions:
REMARK  status: ('A' for Active; 'I' for Inactive)
REMARK    1  A    between atoms: C4_5  and  S1_6 
REMARK    2  A    between atoms: S1_6  and  C5_7 
ROOT
HETATM    1  C5  UNL     1      -4.205   6.051  13.323  1.00  0.00     0.029 A 
HETATM    2  C6  UNL     1      -4.754   4.764  13.222  1.00  0.00     0.046 A 
HETATM    3  C7  UNL     1      -6.140   4.576  13.227  1.00  0.00     0.057 A 
HETATM    4 CL2  UNL     1      -6.730   2.956  13.113  1.00  0.00    -0.083 Cl
HETATM    5  C8  UNL     1      -6.993   5.680  13.323  1.00  0.00     0.057 A 
HETATM    6 CL3  UNL     1      -8.713   5.523  13.335  1.00  0.00    -0.082 Cl
HETATM    7  C9  UNL     1      -6.457   6.966  13.409  1.00  0.00     0.051 A 
HETATM    8  C10 UNL     1      -5.071   7.155  13.405  1.00  0.00     0.052 A 
HETATM    9 CL4  UNL     1      -4.499   8.785  13.491  1.00  0.00    -0.083 Cl
ENDROOT
BRANCH   1  10
HETATM   10  S1  UNL     1      -2.418   6.183  13.310  1.00  0.00    -0.089 SA
BRANCH  10  11
HETATM   11  C4  UNL     1      -1.982   4.696  12.423  1.00  0.00     0.005 A 
HETATM   12  C3  UNL     1      -0.673   4.206  12.498  1.00  0.00     0.020 A 
HETATM   13  C2  UNL     1      -0.313   3.046  11.807  1.00  0.00     0.025 A 
HETATM   14  C1  UNL     1      -1.260   2.380  11.033  1.00  0.00     0.034 A 
HETATM   15 CL1  UNL     1      -0.818   0.952  10.182  1.00  0.00    -0.084 Cl
HETATM   16  C12 UNL     1      -2.563   2.866  10.940  1.00  0.00     0.025 A 
HETATM   17  C11 UNL     1      -2.923   4.026  11.632  1.00  0.00     0.020 A 
ENDBRANCH  10  11
ENDBRANCH   1  10
TORSDOF 2
ENDMDL
MODEL 8
REMARK minimizedAffinity -6.14692354
REMARK  2 active torsions:
REMARK  status: ('A' for Active; 'I' for Inactive)
REMARK    1  A    between atoms: C4_5  and  S1_6 
REMARK    2  A    between atoms: S1_6  and  C5_7 
ROOT
HETATM    1  C5  UNL     1      -5.088   5.164  13.567  1.00  0.00     0.029 A 
HETATM    2  C6  UNL     1      -4.034   4.358  13.114  1.00  0.00     0.046 A 
HETATM    3  C7  UNL     1      -4.278   3.266  12.274  1.00  0.00     0.057 A 
HETATM    4 CL2  UNL     1      -2.924   2.318  11.775  1.00  0.00    -0.083 Cl
HETATM    5  C8  UNL     1      -5.586   2.976  11.871  1.00  0.00     0.057 A 
HETATM    6 CL3  UNL     1      -5.963   1.645  10.837  1.00  0.00    -0.082 Cl
HETATM    7  C9  UNL     1      -6.641   3.781  12.306  1.00  0.00     0.051 A 
HETATM    8  C10 UNL     1      -6.397   4.873  13.146  1.00  0.00     0.052 A 
HETATM    9 CL4  UNL     1      -7.762   5.826  13.613  1.00  0.00    -0.083 Cl
ENDROOT
BRANCH   1  10
HETATM   10  S1  UNL     1      -4.667   6.536  14.640  1.00  0.00    -0.089 SA
BRANCH  10  11
HETATM   11  C4  UNL     1      -3.209   7.162  13.822  1.00  0.00     0.005 A 
HETATM   12  C3  UNL     1      -1.955   6.628  14.143  1.00  0.00     0.020 A 
HETATM   13  C2  UNL     1      -0.803   7.109  13.516  1.00  0.00     0.025 A 
HETATM   14  C1  UNL     1      -0.902   8.131  12.575  1.00  0.00     0.034 A 
HETATM   15 CL1  UNL     1       0.516   8.723  11.802  1.00  0.00    -0.084 Cl
HETATM   16  C12 UNL     1      -2.143   8.679  12.257  1.00  0.00     0.025 A 
HETATM   17  C11 UNL     1      -3.296   8.197  12.884  1.00  0.00     0.020 A 
ENDBRANCH  10  11
ENDBRANCH   1  10
TORSDOF 2
ENDMDL
MODEL 9
REMARK minimizedAffinity -6.11685896
REMARK  2 active torsions:
REMARK  status: ('A' for Active; 'I' for Inactive)
REMARK    1  A    between atoms: C4_5  and  S1_6 
REMARK    2  A    between atoms: S1_6  and  C5_7 
ROOT
HETATM    1  C5  UNL     1      -2.565   4.120  12.296  1.00  0.00     0.029 A 
HETATM    2  C6  UNL     1      -3.905   4.458  12.536  1.00  0.00     0.046 A 
HETATM    3  C7  UNL     1      -4.935   3.563  12.229  1.00  0.00     0.057 A 
HETATM    4 CL2  UNL     1      -6.556   4.066  12.544  1.00  0.00    -0.083 Cl
HETATM    5  C8  UNL     1      -4.630   2.311  11.685  1.00  0.00     0.057 A 
HETATM    6 CL3  UNL     1      -5.848   1.156  11.280  1.00  0.00    -0.082 Cl
HETATM    7  C9  UNL     1      -3.299   1.959  11.455  1.00  0.00     0.051 A 
HETATM    8  C10 UNL     1      -2.268   2.855  11.762  1.00  0.00     0.052 A 
HETATM    9 CL4  UNL     1      -0.650   2.323  11.466  1.00  0.00    -0.083 Cl
ENDROOT
BRANCH   1  10
HETATM   10  S1  UNL     1      -1.323   5.339  12.723  1.00  0.00    -0.089 SA
BRANCH  10  11
HETATM   11  C4  UNL     1      -2.325   6.553  13.566  1.00  0.00     0.005 A 
HETATM   12  C3  UNL     1      -2.912   7.591  12.834  1.00  0.00     0.020 A 
HETATM   13  C2  UNL     1      -3.696   8.553  13.477  1.00  0.00     0.025 A 
HETATM   14  C1  UNL     1      -3.886   8.481  14.855  1.00  0.00     0.034 A 
HETATM   15 CL1  UNL     1      -4.850   9.664  15.649  1.00  0.00    -0.084 Cl
HETATM   16  C12 UNL     1      -3.296   7.459  15.597  1.00  0.00     0.025 A 
HETATM   17  C11 UNL     1      -2.512   6.497  14.952  1.00  0.00     0.020 A 
ENDBRANCH  10  11
ENDBRANCH   1  10
TORSDOF 2
ENDMDL
