MODEL 1
REMARK minimizedAffinity -10.0585909
REMARK CNNscore 0.842057705
REMARK CNNaffinity 7.25054407
REMARK  12 active torsions:
REMARK  status: ('A' for Active; 'I' for Inactive)
REMARK    1  A    between atoms: C2_2  and  C3_3 
REMARK    2  A    between atoms: C2_2  and  C26_31 
REMARK    3  A    between atoms: C3_3  and  C4_4 
REMARK    4  A    between atoms: C4_4  and  C5_5 
REMARK    5  A    between atoms: C5_5  and  C7_7 
REMARK    6  A    between atoms: C8_8  and  O1_9 
REMARK    7  A    between atoms: C9_10  and  O2_11 
REMARK    8  A    between atoms: C20_22  and  O3_23 
REMARK    9  A    between atoms: C23_26  and  O4_27 
REMARK   10  A    between atoms: C25_29  and  O5_30 
REMARK   11  A    between atoms: C26_31  and  C28_33 
REMARK   12  A    between atoms: C28_33  and  O6_34 
ROOT
HETATM    1  C7  UNL     1      -2.196   7.477  12.794  1.00  0.00     0.029 C 
HETATM    2  C8  UNL     1      -2.098   5.931  12.567  1.00  0.00     0.152 C 
HETATM    3  C9  UNL     1      -3.335   5.292  13.247  1.00  0.00     0.155 C 
HETATM    4  C10 UNL     1      -4.231   6.485  13.562  1.00  0.00     0.060 C 
HETATM    5  C11 UNL     1      -3.196   7.589  13.998  1.00  0.00    -0.029 C 
HETATM    6  C12 UNL     1      -2.448   7.319  15.330  1.00  0.00     0.016 C 
HETATM    7  C13 UNL     1      -3.953   8.929  14.120  1.00  0.00     0.011 C 
HETATM    8  C14 UNL     1      -5.215   8.839  15.007  1.00  0.00     0.009 C 
HETATM    9  C15 UNL     1      -6.158   7.725  14.517  1.00  0.00     0.029 C 
HETATM   10  C16 UNL     1      -7.584   7.675  15.162  1.00  0.00    -0.031 C 
HETATM   11  C17 UNL     1      -7.559   7.078  16.590  1.00  0.00     0.016 C 
HETATM   12  C18 UNL     1      -8.237   9.086  15.253  1.00  0.00     0.012 C 
HETATM   13  C19 UNL     1      -9.722   9.050  15.636  1.00  0.00     0.032 C 
HETATM   14  C20 UNL     1     -10.547   8.090  14.778  1.00  0.00     0.118 C 
HETATM   15  C21 UNL     1      -9.903   6.707  14.629  1.00  0.00     0.039 C 
HETATM   16  C22 UNL     1      -8.449   6.843  14.162  1.00  0.00     0.025 C 
HETATM   17  C23 UNL     1      -7.770   5.561  13.617  1.00  0.00     0.126 C 
HETATM   18  C24 UNL     1      -6.420   5.177  14.223  1.00  0.00     0.071 C 
HETATM   19  C25 UNL     1      -5.438   6.333  14.522  1.00  0.00     0.071 C 
ENDROOT
BRANCH   1  20
HETATM   20  C5  UNL     1      -0.811   8.195  12.844  1.00  0.00    -0.011 C 
HETATM   21  C6  UNL     1      -0.825   9.425  13.759  1.00  0.00     0.010 C 
BRANCH  20  22
HETATM   22  C4  UNL     1      -0.375   8.618  11.411  1.00  0.00     0.009 C 
BRANCH  22  23
HETATM   23  C3  UNL     1       0.556   7.600  10.727  1.00  0.00     0.034 C 
BRANCH  23  24
HETATM   24  C2  UNL     1       0.826   7.791   9.234  1.00  0.00    -0.083 C 
HETATM   25  C1  UNL     1      -0.063   8.346   8.389  1.00  0.00     0.015 C 
BRANCH  24  26
HETATM   26  C26 UNL     1       2.202   7.271   8.778  1.00  0.00     0.033 C 
HETATM   27  C27 UNL     1       2.210   6.589   7.402  1.00  0.00     0.017 C 
BRANCH  26  28
HETATM   28  C28 UNL     1       3.276   8.377   8.827  1.00  0.00     0.172 C 
BRANCH  28  29
HETATM   29  O6  UNL     1       3.305   9.149   7.630  1.00  0.00    -0.400 OA
HETATM   30  H48 UNL     1       2.402   9.484   7.490  1.00  0.00     0.209 HD
ENDBRANCH  28  29
ENDBRANCH  26  28
ENDBRANCH  24  26
ENDBRANCH  23  24
ENDBRANCH  22  23
ENDBRANCH  20  22
ENDBRANCH   1  20
BRANCH   2  31
HETATM   31  O1  UNL     1      -0.914   5.376  13.136  1.00  0.00    -0.393 OA
HETATM   32  H13 UNL     1      -0.804   4.480  12.777  1.00  0.00     0.210 HD
ENDBRANCH   2  31
BRANCH   3  33
HETATM   33  O2  UNL     1      -3.969   4.390  12.347  1.00  0.00    -0.392 OA
HETATM   34  H15 UNL     1      -3.368   3.637  12.209  1.00  0.00     0.210 HD
ENDBRANCH   3  33
BRANCH  19  35
HETATM   35  O5  UNL     1      -4.935   6.066  15.838  1.00  0.00    -0.389 OA
HETATM   36  H41 UNL     1      -4.541   5.177  15.844  1.00  0.00     0.210 HD
ENDBRANCH  19  35
BRANCH  17  37
HETATM   37  O4  UNL     1      -8.645   4.436  13.686  1.00  0.00    -0.395 OA
HETATM   38  H38 UNL     1      -8.769   4.213  14.625  1.00  0.00     0.210 HD
ENDBRANCH  17  37
BRANCH  14  39
HETATM   39  O3  UNL     1     -11.839   7.957  15.359  1.00  0.00    -0.396 OA
HETATM   40  H33 UNL     1     -12.352   7.352  14.796  1.00  0.00     0.210 HD
ENDBRANCH  14  39
TORSDOF 12
ENDMDL
MODEL 2
REMARK minimizedAffinity -8.43632984
REMARK CNNscore 0.752484918
REMARK CNNaffinity 6.64061975
REMARK  12 active torsions:
REMARK  status: ('A' for Active; 'I' for Inactive)
REMARK    1  A    between atoms: C2_2  and  C3_3 
REMARK    2  A    between atoms: C2_2  and  C26_31 
REMARK    3  A    between atoms: C3_3  and  C4_4 
REMARK    4  A    between atoms: C4_4  and  C5_5 
REMARK    5  A    between atoms: C5_5  and  C7_7 
REMARK    6  A    between atoms: C8_8  and  O1_9 
REMARK    7  A    between atoms: C9_10  and  O2_11 
REMARK    8  A    between atoms: C20_22  and  O3_23 
REMARK    9  A    between atoms: C23_26  and  O4_27 
REMARK   10  A    between atoms: C25_29  and  O5_30 
REMARK   11  A    between atoms: C26_31  and  C28_33 
REMARK   12  A    between atoms: C28_33  and  O6_34 
ROOT
HETATM    1  C7  UNL     1      -1.781   5.807  13.906  1.00  0.00     0.029 C 
HETATM    2  C8  UNL     1      -0.364   5.643  14.553  1.00  0.00     0.152 C 
HETATM    3  C9  UNL     1       0.003   7.004  15.196  1.00  0.00     0.155 C 
HETATM    4  C10 UNL     1      -1.308   7.783  15.166  1.00  0.00     0.060 C 
HETATM    5  C11 UNL     1      -1.927   7.364  13.780  1.00  0.00    -0.029 C 
HETATM    6  C12 UNL     1      -1.164   7.863  12.525  1.00  0.00     0.016 C 
HETATM    7  C13 UNL     1      -3.374   7.901  13.724  1.00  0.00     0.011 C 
HETATM    8  C14 UNL     1      -3.480   9.407  14.051  1.00  0.00     0.009 C 
HETATM    9  C15 UNL     1      -2.834   9.726  15.412  1.00  0.00     0.029 C 
HETATM   10  C16 UNL     1      -3.078  11.160  15.989  1.00  0.00    -0.031 C 
HETATM   11  C17 UNL     1      -2.209  12.229  15.284  1.00  0.00     0.016 C 
HETATM   12  C18 UNL     1      -4.566  11.601  15.857  1.00  0.00     0.012 C 
HETATM   13  C19 UNL     1      -4.898  12.881  16.635  1.00  0.00     0.032 C 
HETATM   14  C20 UNL     1      -4.440  12.839  18.093  1.00  0.00     0.118 C 
HETATM   15  C21 UNL     1      -2.993  12.361  18.259  1.00  0.00     0.039 C 
HETATM   16  C22 UNL     1      -2.782  11.035  17.519  1.00  0.00     0.025 C 
HETATM   17  C23 UNL     1      -1.504  10.234  17.874  1.00  0.00     0.126 C 
HETATM   18  C24 UNL     1      -0.610   9.798  16.713  1.00  0.00     0.071 C 
HETATM   19  C25 UNL     1      -1.323   9.310  15.432  1.00  0.00     0.071 C 
ENDROOT
BRANCH   1  20
HETATM   20  C5  UNL     1      -2.020   4.885  12.670  1.00  0.00    -0.011 C 
HETATM   21  C6  UNL     1      -1.074   5.210  11.508  1.00  0.00     0.010 C 
BRANCH  20  22
HETATM   22  C4  UNL     1      -3.495   5.005  12.189  1.00  0.00     0.009 C 
BRANCH  22  23
HETATM   23  C3  UNL     1      -4.453   4.027  12.895  1.00  0.00     0.034 C 
BRANCH  23  24
HETATM   24  C2  UNL     1      -5.681   3.562  12.112  1.00  0.00    -0.083 C 
HETATM   25  C1  UNL     1      -5.619   3.098  10.851  1.00  0.00     0.015 C 
BRANCH  24  26
HETATM   26  C26 UNL     1      -7.003   3.695  12.891  1.00  0.00     0.033 C 
HETATM   27  C27 UNL     1      -7.860   4.910  12.507  1.00  0.00     0.017 C 
BRANCH  26  28
HETATM   28  C28 UNL     1      -7.845   2.405  12.811  1.00  0.00     0.172 C 
BRANCH  28  29
HETATM   29  O6  UNL     1      -7.089   1.300  12.324  1.00  0.00    -0.400 OA
HETATM   30  H48 UNL     1      -6.305   1.223  12.896  1.00  0.00     0.209 HD
ENDBRANCH  28  29
ENDBRANCH  26  28
ENDBRANCH  24  26
ENDBRANCH  23  24
ENDBRANCH  22  23
ENDBRANCH  20  22
ENDBRANCH   1  20
BRANCH   2  31
HETATM   31  O1  UNL     1       0.630   5.298  13.591  1.00  0.00    -0.393 OA
HETATM   32  H13 UNL     1       1.418   4.998  14.074  1.00  0.00     0.210 HD
ENDBRANCH   2  31
BRANCH   3  33
HETATM   33  O2  UNL     1       0.456   6.802  16.529  1.00  0.00    -0.392 OA
HETATM   34  H15 UNL     1       1.307   6.331  16.486  1.00  0.00     0.210 HD
ENDBRANCH   3  33
BRANCH  19  35
HETATM   35  O5  UNL     1      -0.640   9.962  14.352  1.00  0.00    -0.389 OA
HETATM   36  H41 UNL     1       0.305   9.743  14.408  1.00  0.00     0.210 HD
ENDBRANCH  19  35
BRANCH  17  37
HETATM   37  O4  UNL     1      -0.708  10.922  18.838  1.00  0.00    -0.395 OA
HETATM   38  H38 UNL     1      -0.335  11.712  18.408  1.00  0.00     0.210 HD
ENDBRANCH  17  37
BRANCH  14  39
HETATM   39  O3  UNL     1      -4.581  14.141  18.650  1.00  0.00    -0.396 OA
HETATM   40  H33 UNL     1      -4.294  14.094  19.579  1.00  0.00     0.210 HD
ENDBRANCH  14  39
TORSDOF 12
ENDMDL
MODEL 3
REMARK minimizedAffinity -7.6970644
REMARK CNNscore 0.744352221
REMARK CNNaffinity 6.58447647
REMARK  12 active torsions:
REMARK  status: ('A' for Active; 'I' for Inactive)
REMARK    1  A    between atoms: C2_2  and  C3_3 
REMARK    2  A    between atoms: C2_2  and  C26_31 
REMARK    3  A    between atoms: C3_3  and  C4_4 
REMARK    4  A    between atoms: C4_4  and  C5_5 
REMARK    5  A    between atoms: C5_5  and  C7_7 
REMARK    6  A    between atoms: C8_8  and  O1_9 
REMARK    7  A    between atoms: C9_10  and  O2_11 
REMARK    8  A    between atoms: C20_22  and  O3_23 
REMARK    9  A    between atoms: C23_26  and  O4_27 
REMARK   10  A    between atoms: C25_29  and  O5_30 
REMARK   11  A    between atoms: C26_31  and  C28_33 
REMARK   12  A    between atoms: C28_33  and  O6_34 
ROOT
HETATM    1  C7  UNL     1      -1.894   7.159  13.769  1.00  0.00     0.029 C 
HETATM    2  C8  UNL     1      -0.855   6.095  13.280  1.00  0.00     0.152 C 
HETATM    3  C9  UNL     1       0.541   6.765  13.329  1.00  0.00     0.155 C 
HETATM    4  C10 UNL     1       0.298   8.049  14.115  1.00  0.00     0.060 C 
HETATM    5  C11 UNL     1      -1.115   8.510  13.594  1.00  0.00    -0.029 C 
HETATM    6  C12 UNL     1      -1.171   8.961  12.112  1.00  0.00     0.016 C 
HETATM    7  C13 UNL     1      -1.591   9.680  14.484  1.00  0.00     0.011 C 
HETATM    8  C14 UNL     1      -0.548  10.812  14.614  1.00  0.00     0.009 C 
HETATM    9  C15 UNL     1       0.804  10.267  15.110  1.00  0.00     0.029 C 
HETATM   10  C16 UNL     1       1.882  11.325  15.522  1.00  0.00    -0.031 C 
HETATM   11  C17 UNL     1       2.555  11.982  14.293  1.00  0.00     0.016 C 
HETATM   12  C18 UNL     1       1.281  12.465  16.396  1.00  0.00     0.012 C 
HETATM   13  C19 UNL     1       2.341  13.374  17.032  1.00  0.00     0.032 C 
HETATM   14  C20 UNL     1       3.437  12.604  17.768  1.00  0.00     0.118 C 
HETATM   15  C21 UNL     1       4.014  11.443  16.950  1.00  0.00     0.039 C 
HETATM   16  C22 UNL     1       2.885  10.544  16.431  1.00  0.00     0.025 C 
HETATM   17  C23 UNL     1       3.294   9.145  15.903  1.00  0.00     0.126 C 
HETATM   18  C24 UNL     1       2.805   8.757  14.509  1.00  0.00     0.071 C 
HETATM   19  C25 UNL     1       1.364   9.174  14.136  1.00  0.00     0.071 C 
ENDROOT
BRANCH   1  20
HETATM   20  C5  UNL     1      -3.317   6.979  13.155  1.00  0.00    -0.011 C 
HETATM   21  C6  UNL     1      -4.227   8.183  13.430  1.00  0.00     0.010 C 
BRANCH  20  22
HETATM   22  C4  UNL     1      -3.982   5.687  13.713  1.00  0.00     0.009 C 
BRANCH  22  23
HETATM   23  C3  UNL     1      -5.388   5.425  13.141  1.00  0.00     0.034 C 
BRANCH  23  24
HETATM   24  C2  UNL     1      -6.541   5.322  14.140  1.00  0.00    -0.083 C 
HETATM   25  C1  UNL     1      -6.502   5.866  15.370  1.00  0.00     0.015 C 
BRANCH  24  26
HETATM   26  C26 UNL     1      -7.748   4.519  13.618  1.00  0.00     0.033 C 
HETATM   27  C27 UNL     1      -8.367   5.057  12.319  1.00  0.00     0.017 C 
BRANCH  26  28
HETATM   28  C28 UNL     1      -7.415   3.021  13.466  1.00  0.00     0.172 C 
BRANCH  28  29
HETATM   29  O6  UNL     1      -8.373   2.338  12.664  1.00  0.00    -0.400 OA
HETATM   30  H48 UNL     1      -8.424   2.818  11.818  1.00  0.00     0.209 HD
ENDBRANCH  28  29
ENDBRANCH  26  28
ENDBRANCH  24  26
ENDBRANCH  23  24
ENDBRANCH  22  23
ENDBRANCH  20  22
ENDBRANCH   1  20
BRANCH   2  31
HETATM   31  O1  UNL     1      -1.117   5.658  11.948  1.00  0.00    -0.393 OA
HETATM   32  H13 UNL     1      -0.590   4.858  11.789  1.00  0.00     0.210 HD
ENDBRANCH   2  31
BRANCH   3  33
HETATM   33  O2  UNL     1       1.463   5.913  13.999  1.00  0.00    -0.392 OA
HETATM   34  H15 UNL     1       1.604   5.130  13.439  1.00  0.00     0.210 HD
ENDBRANCH   3  33
BRANCH  19  35
HETATM   35  O5  UNL     1       1.463   9.725  12.815  1.00  0.00    -0.389 OA
HETATM   36  H41 UNL     1       1.864   9.058  12.232  1.00  0.00     0.210 HD
ENDBRANCH  19  35
BRANCH  17  37
HETATM   37  O4  UNL     1       4.707   8.956  15.967  1.00  0.00    -0.395 OA
HETATM   38  H38 UNL     1       5.117   9.545  15.310  1.00  0.00     0.210 HD
ENDBRANCH  17  37
BRANCH  14  39
HETATM   39  O3  UNL     1       4.478  13.511  18.111  1.00  0.00    -0.396 OA
HETATM   40  H33 UNL     1       5.161  13.006  18.586  1.00  0.00     0.210 HD
ENDBRANCH  14  39
TORSDOF 12
ENDMDL
MODEL 4
REMARK minimizedAffinity -7.54627514
REMARK CNNscore 0.734342277
REMARK CNNaffinity 6.84411001
REMARK  12 active torsions:
REMARK  status: ('A' for Active; 'I' for Inactive)
REMARK    1  A    between atoms: C2_2  and  C3_3 
REMARK    2  A    between atoms: C2_2  and  C26_31 
REMARK    3  A    between atoms: C3_3  and  C4_4 
REMARK    4  A    between atoms: C4_4  and  C5_5 
REMARK    5  A    between atoms: C5_5  and  C7_7 
REMARK    6  A    between atoms: C8_8  and  O1_9 
REMARK    7  A    between atoms: C9_10  and  O2_11 
REMARK    8  A    between atoms: C20_22  and  O3_23 
REMARK    9  A    between atoms: C23_26  and  O4_27 
REMARK   10  A    between atoms: C25_29  and  O5_30 
REMARK   11  A    between atoms: C26_31  and  C28_33 
REMARK   12  A    between atoms: C28_33  and  O6_34 
ROOT
HETATM    1  C7  UNL     1     -10.825   7.892  15.500  1.00  0.00     0.029 C 
HETATM    2  C8  UNL     1     -10.585   9.439  15.518  1.00  0.00     0.152 C 
HETATM    3  C9  UNL     1     -11.761  10.091  14.749  1.00  0.00     0.155 C 
HETATM    4  C10 UNL     1     -12.764   8.954  14.591  1.00  0.00     0.060 C 
HETATM    5  C11 UNL     1     -11.837   7.711  14.315  1.00  0.00    -0.029 C 
HETATM    6  C12 UNL     1     -11.073   7.729  12.965  1.00  0.00     0.016 C 
HETATM    7  C13 UNL     1     -12.715   6.442  14.368  1.00  0.00     0.011 C 
HETATM    8  C14 UNL     1     -13.968   6.527  13.468  1.00  0.00     0.009 C 
HETATM    9  C15 UNL     1     -14.802   7.779  13.795  1.00  0.00     0.029 C 
HETATM   10  C16 UNL     1     -16.219   7.872  13.138  1.00  0.00    -0.031 C 
HETATM   11  C17 UNL     1     -16.146   8.266  11.643  1.00  0.00     0.016 C 
HETATM   12  C18 UNL     1     -17.000   6.528  13.233  1.00  0.00     0.012 C 
HETATM   13  C19 UNL     1     -18.478   6.648  12.837  1.00  0.00     0.032 C 
HETATM   14  C20 UNL     1     -19.206   7.786  13.552  1.00  0.00     0.118 C 
HETATM   15  C21 UNL     1     -18.438   9.111  13.518  1.00  0.00     0.039 C 
HETATM   16  C22 UNL     1     -17.000   8.907  14.011  1.00  0.00     0.025 C 
HETATM   17  C23 UNL     1     -16.203  10.183  14.384  1.00  0.00     0.126 C 
HETATM   18  C24 UNL     1     -14.827  10.356  13.742  1.00  0.00     0.071 C 
HETATM   19  C25 UNL     1     -13.957   9.086  13.609  1.00  0.00     0.071 C 
ENDROOT
BRANCH   1  20
HETATM   20  C5  UNL     1      -9.513   7.049  15.559  1.00  0.00    -0.011 C 
HETATM   21  C6  UNL     1      -8.567   7.519  16.672  1.00  0.00     0.010 C 
BRANCH  20  22
HETATM   22  C4  UNL     1      -8.774   7.111  14.190  1.00  0.00     0.009 C 
BRANCH  22  23
HETATM   23  C3  UNL     1      -7.858   5.900  13.933  1.00  0.00     0.034 C 
BRANCH  23  24
HETATM   24  C2  UNL     1      -7.949   5.233  12.560  1.00  0.00    -0.083 C 
HETATM   25  C1  UNL     1      -8.715   5.706  11.560  1.00  0.00     0.015 C 
BRANCH  24  26
HETATM   26  C26 UNL     1      -7.101   3.954  12.432  1.00  0.00     0.033 C 
HETATM   27  C27 UNL     1      -5.595   4.152  12.661  1.00  0.00     0.017 C 
BRANCH  26  28
HETATM   28  C28 UNL     1      -7.631   2.823  13.337  1.00  0.00     0.172 C 
BRANCH  28  29
HETATM   29  O6  UNL     1      -7.860   1.618  12.611  1.00  0.00    -0.400 OA
HETATM   30  H48 UNL     1      -7.026   1.402  12.157  1.00  0.00     0.209 HD
ENDBRANCH  28  29
ENDBRANCH  26  28
ENDBRANCH  24  26
ENDBRANCH  23  24
ENDBRANCH  22  23
ENDBRANCH  20  22
ENDBRANCH   1  20
BRANCH   2  31
HETATM   31  O1  UNL     1      -9.357   9.801  14.890  1.00  0.00    -0.393 OA
HETATM   32  H13 UNL     1      -9.164  10.723  15.126  1.00  0.00     0.210 HD
ENDBRANCH   2  31
BRANCH   3  33
HETATM   33  O2  UNL     1     -12.305  11.160  15.515  1.00  0.00    -0.392 OA
HETATM   34  H15 UNL     1     -11.637  11.867  15.555  1.00  0.00     0.210 HD
ENDBRANCH   3  33
BRANCH  19  35
HETATM   35  O5  UNL     1     -13.437   9.126  12.273  1.00  0.00    -0.389 OA
HETATM   36  H41 UNL     1     -12.963   9.966  12.151  1.00  0.00     0.210 HD
ENDBRANCH  19  35
BRANCH  17  37
HETATM   37  O4  UNL     1     -16.971  11.364  14.157  1.00  0.00    -0.395 OA
HETATM   38  H38 UNL     1     -17.079  11.469  13.195  1.00  0.00     0.210 HD
ENDBRANCH  17  37
BRANCH  14  39
HETATM   39  O3  UNL     1     -20.483   7.958  12.948  1.00  0.00    -0.396 OA
HETATM   40  H33 UNL     1     -20.936   8.678  13.420  1.00  0.00     0.210 HD
ENDBRANCH  14  39
TORSDOF 12
ENDMDL
MODEL 5
REMARK minimizedAffinity -8.64181709
REMARK CNNscore 0.707291365
REMARK CNNaffinity 6.63391256
REMARK  12 active torsions:
REMARK  status: ('A' for Active; 'I' for Inactive)
REMARK    1  A    between atoms: C2_2  and  C3_3 
REMARK    2  A    between atoms: C2_2  and  C26_31 
REMARK    3  A    between atoms: C3_3  and  C4_4 
REMARK    4  A    between atoms: C4_4  and  C5_5 
REMARK    5  A    between atoms: C5_5  and  C7_7 
REMARK    6  A    between atoms: C8_8  and  O1_9 
REMARK    7  A    between atoms: C9_10  and  O2_11 
REMARK    8  A    between atoms: C20_22  and  O3_23 
REMARK    9  A    between atoms: C23_26  and  O4_27 
REMARK   10  A    between atoms: C25_29  and  O5_30 
REMARK   11  A    between atoms: C26_31  and  C28_33 
REMARK   12  A    between atoms: C28_33  and  O6_34 
ROOT
HETATM    1  C7  UNL     1      -2.117   7.568  13.554  1.00  0.00     0.029 C 
HETATM    2  C8  UNL     1      -1.859   7.431  15.092  1.00  0.00     0.152 C 
HETATM    3  C9  UNL     1      -0.327   7.309  15.287  1.00  0.00     0.155 C 
HETATM    4  C10 UNL     1       0.242   7.681  13.922  1.00  0.00     0.060 C 
HETATM    5  C11 UNL     1      -0.786   7.022  12.928  1.00  0.00    -0.029 C 
HETATM    6  C12 UNL     1      -0.809   5.472  12.915  1.00  0.00     0.016 C 
HETATM    7  C13 UNL     1      -0.458   7.523  11.504  1.00  0.00     0.011 C 
HETATM    8  C14 UNL     1       1.026   7.337  11.118  1.00  0.00     0.009 C 
HETATM    9  C15 UNL     1       1.956   7.996  12.154  1.00  0.00     0.029 C 
HETATM   10  C16 UNL     1       3.471   8.102  11.774  1.00  0.00    -0.031 C 
HETATM   11  C17 UNL     1       4.206   6.748  11.920  1.00  0.00     0.016 C 
HETATM   12  C18 UNL     1       3.676   8.594  10.310  1.00  0.00     0.012 C 
HETATM   13  C19 UNL     1       5.130   8.957   9.984  1.00  0.00     0.032 C 
HETATM   14  C20 UNL     1       5.761   9.907  11.002  1.00  0.00     0.118 C 
HETATM   15  C21 UNL     1       5.533   9.474  12.454  1.00  0.00     0.039 C 
HETATM   16  C22 UNL     1       4.042   9.218  12.707  1.00  0.00     0.025 C 
HETATM   17  C23 UNL     1       3.590   9.129  14.186  1.00  0.00     0.126 C 
HETATM   18  C24 UNL     1       2.780   7.899  14.594  1.00  0.00     0.071 C 
HETATM   19  C25 UNL     1       1.727   7.394  13.582  1.00  0.00     0.071 C 
ENDROOT
BRANCH   1  20
HETATM   20  C5  UNL     1      -3.499   7.006  13.094  1.00  0.00    -0.011 C 
HETATM   21  C6  UNL     1      -4.593   8.082  13.087  1.00  0.00     0.010 C 
BRANCH  20  22
HETATM   22  C4  UNL     1      -3.933   5.830  14.015  1.00  0.00     0.009 C 
BRANCH  22  23
HETATM   23  C3  UNL     1      -3.896   4.458  13.317  1.00  0.00     0.034 C 
BRANCH  23  24
HETATM   24  C2  UNL     1      -5.134   4.042  12.522  1.00  0.00    -0.083 C 
HETATM   25  C1  UNL     1      -5.077   3.561  11.267  1.00  0.00     0.015 C 
BRANCH  24  26
HETATM   26  C26 UNL     1      -6.458   4.244  13.282  1.00  0.00     0.033 C 
HETATM   27  C27 UNL     1      -7.255   5.491  12.868  1.00  0.00     0.017 C 
BRANCH  26  28
HETATM   28  C28 UNL     1      -7.356   2.993  13.208  1.00  0.00     0.172 C 
BRANCH  28  29
HETATM   29  O6  UNL     1      -8.742   3.325  13.233  1.00  0.00    -0.400 OA
HETATM   30  H48 UNL     1      -8.891   3.959  12.509  1.00  0.00     0.209 HD
ENDBRANCH  28  29
ENDBRANCH  26  28
ENDBRANCH  24  26
ENDBRANCH  23  24
ENDBRANCH  22  23
ENDBRANCH  20  22
ENDBRANCH   1  20
BRANCH   2  31
HETATM   31  O1  UNL     1      -2.494   6.279  15.644  1.00  0.00    -0.393 OA
HETATM   32  H13 UNL     1      -2.484   6.371  16.611  1.00  0.00     0.210 HD
ENDBRANCH   2  31
BRANCH   3  33
HETATM   33  O2  UNL     1       0.105   8.216  16.295  1.00  0.00    -0.392 OA
HETATM   34  H15 UNL     1      -0.259   7.912  17.144  1.00  0.00     0.210 HD
ENDBRANCH   3  33
BRANCH  19  35
HETATM   35  O5  UNL     1       1.909   5.972  13.531  1.00  0.00    -0.389 OA
HETATM   36  H41 UNL     1       1.821   5.616  14.431  1.00  0.00     0.210 HD
ENDBRANCH  19  35
BRANCH  17  37
HETATM   37  O4  UNL     1       4.695   9.273  15.079  1.00  0.00    -0.395 OA
HETATM   38  H38 UNL     1       5.253   8.480  14.992  1.00  0.00     0.210 HD
ENDBRANCH  17  37
BRANCH  14  39
HETATM   39  O3  UNL     1       7.158   9.990  10.741  1.00  0.00    -0.396 OA
HETATM   40  H33 UNL     1       7.540  10.604  11.391  1.00  0.00     0.210 HD
ENDBRANCH  14  39
TORSDOF 12
ENDMDL
MODEL 6
REMARK minimizedAffinity -8.01319599
REMARK CNNscore 0.657179832
REMARK CNNaffinity 6.51235437
REMARK  12 active torsions:
REMARK  status: ('A' for Active; 'I' for Inactive)
REMARK    1  A    between atoms: C2_2  and  C3_3 
REMARK    2  A    between atoms: C2_2  and  C26_31 
REMARK    3  A    between atoms: C3_3  and  C4_4 
REMARK    4  A    between atoms: C4_4  and  C5_5 
REMARK    5  A    between atoms: C5_5  and  C7_7 
REMARK    6  A    between atoms: C8_8  and  O1_9 
REMARK    7  A    between atoms: C9_10  and  O2_11 
REMARK    8  A    between atoms: C20_22  and  O3_23 
REMARK    9  A    between atoms: C23_26  and  O4_27 
REMARK   10  A    between atoms: C25_29  and  O5_30 
REMARK   11  A    between atoms: C26_31  and  C28_33 
REMARK   12  A    between atoms: C28_33  and  O6_34 
ROOT
HETATM    1  C7  UNL     1     -12.807 -11.590  25.239  1.00  0.00     0.029 C 
HETATM    2  C8  UNL     1     -13.897 -11.032  24.263  1.00  0.00     0.152 C 
HETATM    3  C9  UNL     1     -14.632  -9.890  25.008  1.00  0.00     0.155 C 
HETATM    4  C10 UNL     1     -13.758  -9.634  26.231  1.00  0.00     0.060 C 
HETATM    5  C11 UNL     1     -13.303 -11.086  26.640  1.00  0.00    -0.029 C 
HETATM    6  C12 UNL     1     -14.425 -12.018  27.167  1.00  0.00     0.016 C 
HETATM    7  C13 UNL     1     -12.218 -10.954  27.730  1.00  0.00     0.011 C 
HETATM    8  C14 UNL     1     -12.643 -10.053  28.911  1.00  0.00     0.009 C 
HETATM    9  C15 UNL     1     -13.088  -8.665  28.416  1.00  0.00     0.029 C 
HETATM   10  C16 UNL     1     -13.314  -7.567  29.509  1.00  0.00    -0.031 C 
HETATM   11  C17 UNL     1     -14.647  -7.765  30.270  1.00  0.00     0.016 C 
HETATM   12  C18 UNL     1     -12.169  -7.545  30.565  1.00  0.00     0.012 C 
HETATM   13  C19 UNL     1     -12.216  -6.326  31.496  1.00  0.00     0.032 C 
HETATM   14  C20 UNL     1     -12.334  -4.998  30.749  1.00  0.00     0.118 C 
HETATM   15  C21 UNL     1     -13.421  -5.005  29.669  1.00  0.00     0.039 C 
HETATM   16  C22 UNL     1     -13.239  -6.210  28.738  1.00  0.00     0.025 C 
HETATM   17  C23 UNL     1     -14.013  -6.176  27.395  1.00  0.00     0.126 C 
HETATM   18  C24 UNL     1     -14.872  -7.394  27.056  1.00  0.00     0.071 C 
HETATM   19  C25 UNL     1     -14.285  -8.779  27.412  1.00  0.00     0.071 C 
ENDROOT
BRANCH   1  20
HETATM   20  C5  UNL     1     -12.470 -13.098  25.013  1.00  0.00    -0.011 C 
HETATM   21  C6  UNL     1     -12.391 -13.882  26.329  1.00  0.00     0.010 C 
BRANCH  20  22
HETATM   22  C4  UNL     1     -11.124 -13.237  24.244  1.00  0.00     0.009 C 
BRANCH  22  23
HETATM   23  C3  UNL     1      -9.945 -12.528  24.937  1.00  0.00     0.034 C 
BRANCH  23  24
HETATM   24  C2  UNL     1      -8.593 -12.561  24.225  1.00  0.00    -0.083 C 
HETATM   25  C1  UNL     1      -7.850 -13.676  24.104  1.00  0.00     0.015 C 
BRANCH  24  26
HETATM   26  C26 UNL     1      -8.145 -11.193  23.676  1.00  0.00     0.033 C 
HETATM   27  C27 UNL     1      -6.626 -11.022  23.531  1.00  0.00     0.017 C 
BRANCH  26  28
HETATM   28  C28 UNL     1      -8.846 -10.855  22.343  1.00  0.00     0.172 C 
BRANCH  28  29
HETATM   29  O6  UNL     1      -8.184  -9.807  21.641  1.00  0.00    -0.400 OA
HETATM   30  H48 UNL     1      -7.255 -10.081  21.539  1.00  0.00     0.209 HD
ENDBRANCH  28  29
ENDBRANCH  26  28
ENDBRANCH  24  26
ENDBRANCH  23  24
ENDBRANCH  22  23
ENDBRANCH  20  22
ENDBRANCH   1  20
BRANCH   2  31
HETATM   31  O1  UNL     1     -14.843 -12.030  23.886  1.00  0.00    -0.393 OA
HETATM   32  H13 UNL     1     -15.345 -11.690  23.127  1.00  0.00     0.210 HD
ENDBRANCH   2  31
BRANCH   3  33
HETATM   33  O2  UNL     1     -14.706  -8.740  24.174  1.00  0.00    -0.392 OA
HETATM   34  H15 UNL     1     -15.299  -8.949  23.431  1.00  0.00     0.210 HD
ENDBRANCH   3  33
BRANCH  19  35
HETATM   35  O5  UNL     1     -15.361  -9.492  28.038  1.00  0.00    -0.389 OA
HETATM   36  H41 UNL     1     -16.118  -9.508  27.428  1.00  0.00     0.210 HD
ENDBRANCH  19  35
BRANCH  17  37
HETATM   37  O4  UNL     1     -14.813  -5.000  27.283  1.00  0.00    -0.395 OA
HETATM   38  H38 UNL     1     -15.537  -5.069  27.929  1.00  0.00     0.210 HD
ENDBRANCH  17  37
BRANCH  14  39
HETATM   39  O3  UNL     1     -12.605  -3.968  31.694  1.00  0.00    -0.396 OA
HETATM   40  H33 UNL     1     -12.668  -3.130  31.203  1.00  0.00     0.210 HD
ENDBRANCH  14  39
TORSDOF 12
ENDMDL
MODEL 7
REMARK minimizedAffinity -9.97455311
REMARK CNNscore 0.641220331
REMARK CNNaffinity 6.3168149
REMARK  12 active torsions:
REMARK  status: ('A' for Active; 'I' for Inactive)
REMARK    1  A    between atoms: C2_2  and  C3_3 
REMARK    2  A    between atoms: C2_2  and  C26_31 
REMARK    3  A    between atoms: C3_3  and  C4_4 
REMARK    4  A    between atoms: C4_4  and  C5_5 
REMARK    5  A    between atoms: C5_5  and  C7_7 
REMARK    6  A    between atoms: C8_8  and  O1_9 
REMARK    7  A    between atoms: C9_10  and  O2_11 
REMARK    8  A    between atoms: C20_22  and  O3_23 
REMARK    9  A    between atoms: C23_26  and  O4_27 
REMARK   10  A    between atoms: C25_29  and  O5_30 
REMARK   11  A    between atoms: C26_31  and  C28_33 
REMARK   12  A    between atoms: C28_33  and  O6_34 
ROOT
HETATM    1  C7  UNL     1      -0.535   6.679  11.310  1.00  0.00     0.029 C 
HETATM    2  C8  UNL     1      -0.349   5.136  11.124  1.00  0.00     0.152 C 
HETATM    3  C9  UNL     1      -1.449   4.440  11.964  1.00  0.00     0.155 C 
HETATM    4  C10 UNL     1      -2.390   5.579  12.342  1.00  0.00     0.060 C 
HETATM    5  C11 UNL     1      -1.396   6.770  12.619  1.00  0.00    -0.029 C 
HETATM    6  C12 UNL     1      -0.483   6.609  13.861  1.00  0.00     0.016 C 
HETATM    7  C13 UNL     1      -2.233   8.057  12.784  1.00  0.00     0.011 C 
HETATM    8  C14 UNL     1      -3.376   7.916  13.814  1.00  0.00     0.009 C 
HETATM    9  C15 UNL     1      -4.282   6.718  13.475  1.00  0.00     0.029 C 
HETATM   10  C16 UNL     1      -5.617   6.594  14.283  1.00  0.00    -0.031 C 
HETATM   11  C17 UNL     1      -5.385   6.060  15.717  1.00  0.00     0.016 C 
HETATM   12  C18 UNL     1      -6.359   7.958  14.403  1.00  0.00     0.012 C 
HETATM   13  C19 UNL     1      -7.785   7.834  14.958  1.00  0.00     0.032 C 
HETATM   14  C20 UNL     1      -8.627   6.785  14.234  1.00  0.00     0.118 C 
HETATM   15  C21 UNL     1      -7.904   5.445  14.057  1.00  0.00     0.039 C 
HETATM   16  C22 UNL     1      -6.527   5.663  13.418  1.00  0.00     0.025 C 
HETATM   17  C23 UNL     1      -5.820   4.411  12.840  1.00  0.00     0.126 C 
HETATM   18  C24 UNL     1      -4.385   4.149  13.296  1.00  0.00     0.071 C 
HETATM   19  C25 UNL     1      -3.465   5.382  13.441  1.00  0.00     0.071 C 
ENDROOT
BRANCH   1  20
HETATM   20  C5  UNL     1       0.789   7.495  11.174  1.00  0.00    -0.011 C 
HETATM   21  C6  UNL     1       0.809   8.730  12.083  1.00  0.00     0.010 C 
BRANCH  20  22
HETATM   22  C4  UNL     1       0.999   7.934   9.696  1.00  0.00     0.009 C 
BRANCH  22  23
HETATM   23  C3  UNL     1       2.444   7.744   9.199  1.00  0.00     0.034 C 
BRANCH  23  24
HETATM   24  C2  UNL     1       2.812   6.376   8.622  1.00  0.00    -0.083 C 
HETATM   25  C1  UNL     1       2.619   6.045   7.332  1.00  0.00     0.015 C 
BRANCH  24  26
HETATM   26  C26 UNL     1       3.404   5.402   9.657  1.00  0.00     0.033 C 
HETATM   27  C27 UNL     1       3.903   4.070   9.078  1.00  0.00     0.017 C 
BRANCH  26  28
HETATM   28  C28 UNL     1       4.516   6.065  10.496  1.00  0.00     0.172 C 
BRANCH  28  29
HETATM   29  O6  UNL     1       5.701   5.275  10.534  1.00  0.00    -0.400 OA
HETATM   30  H48 UNL     1       5.954   5.104   9.609  1.00  0.00     0.209 HD
ENDBRANCH  28  29
ENDBRANCH  26  28
ENDBRANCH  24  26
ENDBRANCH  23  24
ENDBRANCH  22  23
ENDBRANCH  20  22
ENDBRANCH   1  20
BRANCH   2  31
HETATM   31  O1  UNL     1       0.931   4.690  11.568  1.00  0.00    -0.393 OA
HETATM   32  H13 UNL     1       1.065   3.790  11.228  1.00  0.00     0.210 HD
ENDBRANCH   2  31
BRANCH   3  33
HETATM   33  O2  UNL     1      -2.112   3.460  11.174  1.00  0.00    -0.392 OA
HETATM   34  H15 UNL     1      -1.476   2.746  10.992  1.00  0.00     0.210 HD
ENDBRANCH   3  33
BRANCH  19  35
HETATM   35  O5  UNL     1      -2.796   5.205  14.697  1.00  0.00    -0.389 OA
HETATM   36  H41 UNL     1      -2.339   4.347  14.686  1.00  0.00     0.210 HD
ENDBRANCH  19  35
BRANCH  17  37
HETATM   37  O4  UNL     1      -6.595   3.232  13.048  1.00  0.00    -0.395 OA
HETATM   38  H38 UNL     1      -6.594   3.038  14.002  1.00  0.00     0.210 HD
ENDBRANCH  17  37
BRANCH  14  39
HETATM   39  O3  UNL     1      -9.831   6.585  14.966  1.00  0.00    -0.396 OA
HETATM   40  H33 UNL     1     -10.358   5.922  14.486  1.00  0.00     0.210 HD
ENDBRANCH  14  39
TORSDOF 12
ENDMDL
MODEL 8
REMARK minimizedAffinity -8.28240013
REMARK CNNscore 0.606640458
REMARK CNNaffinity 6.89030457
REMARK  12 active torsions:
REMARK  status: ('A' for Active; 'I' for Inactive)
REMARK    1  A    between atoms: C2_2  and  C3_3 
REMARK    2  A    between atoms: C2_2  and  C26_31 
REMARK    3  A    between atoms: C3_3  and  C4_4 
REMARK    4  A    between atoms: C4_4  and  C5_5 
REMARK    5  A    between atoms: C5_5  and  C7_7 
REMARK    6  A    between atoms: C8_8  and  O1_9 
REMARK    7  A    between atoms: C9_10  and  O2_11 
REMARK    8  A    between atoms: C20_22  and  O3_23 
REMARK    9  A    between atoms: C23_26  and  O4_27 
REMARK   10  A    between atoms: C25_29  and  O5_30 
REMARK   11  A    between atoms: C26_31  and  C28_33 
REMARK   12  A    between atoms: C28_33  and  O6_34 
ROOT
HETATM    1  C7  UNL     1       0.191   7.400  14.352  1.00  0.00     0.029 C 
HETATM    2  C8  UNL     1       0.212   8.960  14.219  1.00  0.00     0.152 C 
HETATM    3  C9  UNL     1      -1.251   9.417  13.999  1.00  0.00     0.155 C 
HETATM    4  C10 UNL     1      -2.072   8.171  14.313  1.00  0.00     0.060 C 
HETATM    5  C11 UNL     1      -1.188   7.015  13.710  1.00  0.00    -0.029 C 
HETATM    6  C12 UNL     1      -1.063   7.001  12.165  1.00  0.00     0.016 C 
HETATM    7  C13 UNL     1      -1.790   5.669  14.168  1.00  0.00     0.011 C 
HETATM    8  C14 UNL     1      -3.303   5.545  13.878  1.00  0.00     0.009 C 
HETATM    9  C15 UNL     1      -4.082   6.725  14.488  1.00  0.00     0.029 C 
HETATM   10  C16 UNL     1      -5.643   6.612  14.488  1.00  0.00    -0.031 C 
HETATM   11  C17 UNL     1      -6.249   6.886  13.090  1.00  0.00     0.016 C 
HETATM   12  C18 UNL     1      -6.131   5.205  14.945  1.00  0.00     0.012 C 
HETATM   13  C19 UNL     1      -7.641   5.135  15.206  1.00  0.00     0.032 C 
HETATM   14  C20 UNL     1      -8.150   6.245  16.125  1.00  0.00     0.118 C 
HETATM   15  C21 UNL     1      -7.646   7.636  15.729  1.00  0.00     0.039 C 
HETATM   16  C22 UNL     1      -6.120   7.628  15.576  1.00  0.00     0.025 C 
HETATM   17  C23 UNL     1      -5.415   9.007  15.539  1.00  0.00     0.126 C 
HETATM   18  C24 UNL     1      -4.464   9.271  14.371  1.00  0.00     0.071 C 
HETATM   19  C25 UNL     1      -3.570   8.093  13.923  1.00  0.00     0.071 C 
ENDROOT
BRANCH   1  20
HETATM   20  C5  UNL     1       1.507   6.709  13.878  1.00  0.00    -0.011 C 
HETATM   21  C6  UNL     1       2.727   7.630  14.002  1.00  0.00     0.010 C 
BRANCH  20  22
HETATM   22  C4  UNL     1       1.363   6.234  12.403  1.00  0.00     0.009 C 
BRANCH  22  23
HETATM   23  C3  UNL     1       2.461   6.781  11.472  1.00  0.00     0.034 C 
BRANCH  23  24
HETATM   24  C2  UNL     1       2.006   7.513  10.209  1.00  0.00    -0.083 C 
HETATM   25  C1  UNL     1       0.894   8.269  10.154  1.00  0.00     0.015 C 
BRANCH  24  26
HETATM   26  C26 UNL     1       2.927   7.291   8.994  1.00  0.00     0.033 C 
HETATM   27  C27 UNL     1       3.076   5.826   8.558  1.00  0.00     0.017 C 
BRANCH  26  28
HETATM   28  C28 UNL     1       2.508   8.161   7.792  1.00  0.00     0.172 C 
BRANCH  28  29
HETATM   29  O6  UNL     1       3.400   9.252   7.583  1.00  0.00    -0.400 OA
HETATM   30  H48 UNL     1       4.293   8.872   7.502  1.00  0.00     0.209 HD
ENDBRANCH  28  29
ENDBRANCH  26  28
ENDBRANCH  24  26
ENDBRANCH  23  24
ENDBRANCH  22  23
ENDBRANCH  20  22
ENDBRANCH   1  20
BRANCH   2  31
HETATM   31  O1  UNL     1       1.009   9.396  13.121  1.00  0.00    -0.393 OA
HETATM   32  H13 UNL     1       1.160  10.350  13.225  1.00  0.00     0.210 HD
ENDBRANCH   2  31
BRANCH   3  33
HETATM   33  O2  UNL     1      -1.564  10.483  14.888  1.00  0.00    -0.392 OA
HETATM   34  H15 UNL     1      -1.039  11.257  14.621  1.00  0.00     0.210 HD
ENDBRANCH   3  33
BRANCH  19  35
HETATM   35  O5  UNL     1      -3.661   8.077  12.492  1.00  0.00    -0.389 OA
HETATM   36  H41 UNL     1      -3.395   8.949  12.155  1.00  0.00     0.210 HD
ENDBRANCH  19  35
BRANCH  17  37
HETATM   37  O4  UNL     1      -6.356  10.077  15.620  1.00  0.00    -0.395 OA
HETATM   38  H38 UNL     1      -6.865  10.090  14.791  1.00  0.00     0.210 HD
ENDBRANCH  17  37
BRANCH  14  39
HETATM   39  O3  UNL     1      -9.573   6.229  16.111  1.00  0.00    -0.396 OA
HETATM   40  H33 UNL     1      -9.879   6.934  16.708  1.00  0.00     0.210 HD
ENDBRANCH  14  39
TORSDOF 12
ENDMDL
MODEL 9
REMARK minimizedAffinity -8.26467323
REMARK CNNscore 0.585372806
REMARK CNNaffinity 6.2338047
REMARK  12 active torsions:
REMARK  status: ('A' for Active; 'I' for Inactive)
REMARK    1  A    between atoms: C2_2  and  C3_3 
REMARK    2  A    between atoms: C2_2  and  C26_31 
REMARK    3  A    between atoms: C3_3  and  C4_4 
REMARK    4  A    between atoms: C4_4  and  C5_5 
REMARK    5  A    between atoms: C5_5  and  C7_7 
REMARK    6  A    between atoms: C8_8  and  O1_9 
REMARK    7  A    between atoms: C9_10  and  O2_11 
REMARK    8  A    between atoms: C20_22  and  O3_23 
REMARK    9  A    between atoms: C23_26  and  O4_27 
REMARK   10  A    between atoms: C25_29  and  O5_30 
REMARK   11  A    between atoms: C26_31  and  C28_33 
REMARK   12  A    between atoms: C28_33  and  O6_34 
ROOT
HETATM    1  C7  UNL     1      -4.340   6.553  14.301  1.00  0.00     0.029 C 
HETATM    2  C8  UNL     1      -2.919   5.902  14.211  1.00  0.00     0.152 C 
HETATM    3  C9  UNL     1      -1.895   6.987  14.624  1.00  0.00     0.155 C 
HETATM    4  C10 UNL     1      -2.759   8.095  15.217  1.00  0.00     0.060 C 
HETATM    5  C11 UNL     1      -4.021   8.089  14.274  1.00  0.00    -0.029 C 
HETATM    6  C12 UNL     1      -3.771   8.548  12.814  1.00  0.00     0.016 C 
HETATM    7  C13 UNL     1      -5.089   9.009  14.904  1.00  0.00     0.011 C 
HETATM    8  C14 UNL     1      -4.554  10.414  15.260  1.00  0.00     0.009 C 
HETATM    9  C15 UNL     1      -3.313  10.321  16.166  1.00  0.00     0.029 C 
HETATM   10  C16 UNL     1      -2.807  11.657  16.806  1.00  0.00    -0.031 C 
HETATM   11  C17 UNL     1      -2.044  12.540  15.789  1.00  0.00     0.016 C 
HETATM   12  C18 UNL     1      -3.974  12.509  17.387  1.00  0.00     0.012 C 
HETATM   13  C19 UNL     1      -3.503  13.691  18.245  1.00  0.00     0.032 C 
HETATM   14  C20 UNL     1      -2.492  13.294  19.320  1.00  0.00     0.118 C 
HETATM   15  C21 UNL     1      -1.357  12.412  18.788  1.00  0.00     0.039 C 
HETATM   16  C22 UNL     1      -1.927  11.214  18.020  1.00  0.00     0.025 C 
HETATM   17  C23 UNL     1      -0.954  10.043  17.731  1.00  0.00     0.126 C 
HETATM   18  C24 UNL     1      -0.851   9.565  16.283  1.00  0.00     0.071 C 
HETATM   19  C25 UNL     1      -2.168   9.504  15.476  1.00  0.00     0.071 C 
ENDROOT
BRANCH   1  20
HETATM   20  C5  UNL     1      -5.378   5.941  13.309  1.00  0.00    -0.011 C 
HETATM   21  C6  UNL     1      -6.800   6.459  13.559  1.00  0.00     0.010 C 
BRANCH  20  22
HETATM   22  C4  UNL     1      -5.366   4.388  13.410  1.00  0.00     0.009 C 
BRANCH  22  23
HETATM   23  C3  UNL     1      -6.022   3.689  12.205  1.00  0.00     0.034 C 
BRANCH  23  24
HETATM   24  C2  UNL     1      -5.353   2.417  11.683  1.00  0.00    -0.083 C 
HETATM   25  C1  UNL     1      -6.042   1.326  11.301  1.00  0.00     0.015 C 
BRANCH  24  26
HETATM   26  C26 UNL     1      -3.815   2.489  11.655  1.00  0.00     0.033 C 
HETATM   27  C27 UNL     1      -3.106   1.126  11.646  1.00  0.00     0.017 C 
BRANCH  26  28
HETATM   28  C28 UNL     1      -3.305   3.360  10.489  1.00  0.00     0.172 C 
BRANCH  28  29
HETATM   29  O6  UNL     1      -4.251   3.442   9.427  1.00  0.00    -0.400 OA
HETATM   30  H48 UNL     1      -5.085   3.758   9.819  1.00  0.00     0.209 HD
ENDBRANCH  28  29
ENDBRANCH  26  28
ENDBRANCH  24  26
ENDBRANCH  23  24
ENDBRANCH  22  23
ENDBRANCH  20  22
ENDBRANCH   1  20
BRANCH   2  31
HETATM   31  O1  UNL     1      -2.616   5.450  12.893  1.00  0.00    -0.393 OA
HETATM   32  H13 UNL     1      -1.838   4.871  12.951  1.00  0.00     0.210 HD
ENDBRANCH   2  31
BRANCH   3  33
HETATM   33  O2  UNL     1      -0.994   6.459  15.591  1.00  0.00    -0.392 OA
HETATM   34  H15 UNL     1      -0.449   5.784  15.151  1.00  0.00     0.210 HD
ENDBRANCH   3  33
BRANCH  19  35
HETATM   35  O5  UNL     1      -1.859  10.102  14.209  1.00  0.00    -0.389 OA
HETATM   36  H41 UNL     1      -1.110   9.623  13.816  1.00  0.00     0.210 HD
ENDBRANCH  19  35
BRANCH  17  37
HETATM   37  O4  UNL     1       0.357  10.322  18.220  1.00  0.00    -0.395 OA
HETATM   38  H38 UNL     1       0.734  11.034  17.675  1.00  0.00     0.210 HD
ENDBRANCH  17  37
BRANCH  14  39
HETATM   39  O3  UNL     1      -1.950  14.478  19.893  1.00  0.00    -0.396 OA
HETATM   40  H33 UNL     1      -1.317  14.207  20.581  1.00  0.00     0.210 HD
ENDBRANCH  14  39
TORSDOF 12
ENDMDL
