MODEL 1
REMARK minimizedAffinity -9.27926922
REMARK CNNscore 0.490145385
REMARK CNNaffinity 6.7864337
REMARK  8 active torsions:
REMARK  status: ('A' for Active; 'I' for Inactive)
REMARK    1  A    between atoms: C5_5  and  C6_6 
REMARK    2  A    between atoms: C6_6  and  O1_9 
REMARK    3  A    between atoms: C14_16  and  C15_17 
REMARK    4  A    between atoms: C16_19  and  O4_20 
REMARK    5  A    between atoms: C17_21  and  C18_22 
REMARK    6  A    between atoms: C19_24  and  O6_25 
REMARK    7  A    between atoms: C21_27  and  C22_28 
REMARK    8  A    between atoms: C22_28  and  C23_29 
ROOT
HETATM    1  C1  UNL     1       1.002   9.285  13.197  1.00  0.00     0.043 C 
HETATM    2  C2  UNL     1      -0.281   9.508  13.963  1.00  0.00    -0.087 C 
HETATM    3  C3  UNL     1      -0.567  10.720  14.478  1.00  0.00    -0.024 C 
HETATM    4  C4  UNL     1      -1.736  11.320  15.225  1.00  0.00     0.035 C 
HETATM    5  C5  UNL     1      -2.903  10.572  15.961  1.00  0.00     0.023 C 
HETATM    6  C9  UNL     1      -3.878   9.942  14.912  1.00  0.00     0.011 C 
HETATM    7  C10 UNL     1      -4.604   8.586  14.937  1.00  0.00     0.039 C 
HETATM    8  C11 UNL     1      -4.010   7.181  14.575  1.00  0.00     0.068 C 
HETATM    9  C12 UNL     1      -3.312   6.535  15.797  1.00  0.00     0.047 C 
HETATM   10  O2  UNL     1      -5.234   6.375  14.474  1.00  0.00    -0.338 OA
HETATM   11  C13 UNL     1      -5.316   5.286  13.643  1.00  0.00     0.095 A 
HETATM   12  C14 UNL     1      -6.567   4.625  13.642  1.00  0.00     0.070 A 
HETATM   13  C16 UNL     1      -6.789   3.549  12.777  1.00  0.00     0.097 A 
HETATM   14  C17 UNL     1      -5.781   3.178  11.881  1.00  0.00     0.069 A 
HETATM   15  C19 UNL     1      -4.552   3.861  11.871  1.00  0.00     0.091 A 
HETATM   16  C20 UNL     1      -4.260   4.880  12.794  1.00  0.00     0.015 A 
HETATM   17  C21 UNL     1      -2.901   5.571  12.985  1.00  0.00     0.031 C 
HETATM   18  C26 UNL     1      -3.248   7.085  13.195  1.00  0.00     0.029 C 
HETATM   19  C27 UNL     1      -2.109   8.094  12.926  1.00  0.00     0.012 C 
HETATM   20  C28 UNL     1      -1.144   8.290  14.082  1.00  0.00     0.034 C 
ENDROOT
BRANCH   5  21
HETATM   21  C6  UNL     1      -2.541   9.914  17.336  1.00  0.00     0.054 C 
HETATM   22  C7  UNL     1      -1.195  10.434  17.888  1.00  0.00     0.045 C 
HETATM   23  C8  UNL     1      -3.596  10.216  18.409  1.00  0.00     0.045 C 
BRANCH  21  24
HETATM   24  O1  UNL     1      -2.412   8.506  17.248  1.00  0.00    -0.390 OA
HETATM   25  H14 UNL     1      -1.599   8.315  16.743  1.00  0.00     0.210 HD
ENDBRANCH  21  24
ENDBRANCH   5  21
BRANCH  17  26
HETATM   26  C22 UNL     1      -1.741   5.269  12.000  1.00  0.00     0.014 C 
BRANCH  26  27
HETATM   27  C23 UNL     1      -0.549   4.502  12.633  1.00  0.00    -0.022 C 
HETATM   28  C24 UNL     1      -0.214   3.269  11.790  1.00  0.00     0.009 C 
HETATM   29  C25 UNL     1       0.697   5.389  12.746  1.00  0.00     0.009 C 
ENDBRANCH  26  27
ENDBRANCH  17  26
BRANCH  12  30
HETATM   30  C15 UNL     1      -7.624   5.106  14.576  1.00  0.00     0.275 C 
HETATM   31  O3  UNL     1      -8.409   6.012  14.328  1.00  0.00    -0.301 OA
ENDBRANCH  12  30
BRANCH  13  32
HETATM   32  O4  UNL     1      -7.975   2.867  12.832  1.00  0.00    -0.359 OA
HETATM   33  H23 UNL     1      -8.005   2.193  12.119  1.00  0.00     0.217 HD
ENDBRANCH  13  32
BRANCH  15  34
HETATM   34  O6  UNL     1      -3.663   3.524  10.889  1.00  0.00    -0.359 OA
HETATM   35  H25 UNL     1      -3.660   4.264  10.250  1.00  0.00     0.217 HD
ENDBRANCH  15  34
BRANCH  14  36
HETATM   36  C18 UNL     1      -5.999   2.069  10.924  1.00  0.00     0.275 C 
HETATM   37  O5  UNL     1      -6.124   0.911  11.313  1.00  0.00    -0.301 OA
ENDBRANCH  14  36
TORSDOF 8
ENDMDL
MODEL 2
REMARK minimizedAffinity -9.10033321
REMARK CNNscore 0.474572033
REMARK CNNaffinity 6.83058357
REMARK  8 active torsions:
REMARK  status: ('A' for Active; 'I' for Inactive)
REMARK    1  A    between atoms: C5_5  and  C6_6 
REMARK    2  A    between atoms: C6_6  and  O1_9 
REMARK    3  A    between atoms: C14_16  and  C15_17 
REMARK    4  A    between atoms: C16_19  and  O4_20 
REMARK    5  A    between atoms: C17_21  and  C18_22 
REMARK    6  A    between atoms: C19_24  and  O6_25 
REMARK    7  A    between atoms: C21_27  and  C22_28 
REMARK    8  A    between atoms: C22_28  and  C23_29 
ROOT
HETATM    1  C1  UNL     1      -4.149  11.050  16.364  1.00  0.00     0.043 C 
HETATM    2  C2  UNL     1      -2.837  10.343  16.115  1.00  0.00    -0.087 C 
HETATM    3  C3  UNL     1      -1.751  10.636  16.856  1.00  0.00    -0.024 C 
HETATM    4  C4  UNL     1      -0.334  10.115  16.938  1.00  0.00     0.035 C 
HETATM    5  C5  UNL     1       0.440   9.246  15.886  1.00  0.00     0.023 C 
HETATM    6  C9  UNL     1      -0.113   7.782  15.892  1.00  0.00     0.011 C 
HETATM    7  C10 UNL     1      -0.360   6.822  14.716  1.00  0.00     0.039 C 
HETATM    8  C11 UNL     1      -1.583   6.812  13.736  1.00  0.00     0.068 C 
HETATM    9  C12 UNL     1      -1.363   7.787  12.554  1.00  0.00     0.047 C 
HETATM   10  O2  UNL     1      -1.410   5.509  13.081  1.00  0.00    -0.338 OA
HETATM   11  C13 UNL     1      -2.477   4.792  12.603  1.00  0.00     0.095 A 
HETATM   12  C14 UNL     1      -2.150   3.546  12.016  1.00  0.00     0.070 A 
HETATM   13  C16 UNL     1      -3.164   2.698  11.564  1.00  0.00     0.097 A 
HETATM   14  C17 UNL     1      -4.499   3.072  11.752  1.00  0.00     0.069 A 
HETATM   15  C19 UNL     1      -4.812   4.299  12.363  1.00  0.00     0.091 A 
HETATM   16  C20 UNL     1      -3.819   5.220  12.738  1.00  0.00     0.015 A 
HETATM   17  C21 UNL     1      -4.052   6.649  13.250  1.00  0.00     0.031 C 
HETATM   18  C26 UNL     1      -3.013   6.832  14.409  1.00  0.00     0.029 C 
HETATM   19  C27 UNL     1      -3.314   7.951  15.432  1.00  0.00     0.012 C 
HETATM   20  C28 UNL     1      -2.883   9.341  15.002  1.00  0.00     0.034 C 
ENDROOT
BRANCH   5  21
HETATM   21  C6  UNL     1       0.938   9.996  14.604  1.00  0.00     0.054 C 
HETATM   22  C7  UNL     1       2.461  10.251  14.639  1.00  0.00     0.045 C 
HETATM   23  C8  UNL     1       0.662   9.191  13.327  1.00  0.00     0.045 C 
BRANCH  21  24
HETATM   24  O1  UNL     1       0.331  11.267  14.448  1.00  0.00    -0.390 OA
HETATM   25  H14 UNL     1       0.687  11.852  15.142  1.00  0.00     0.210 HD
ENDBRANCH  21  24
ENDBRANCH   5  21
BRANCH  17  26
HETATM   26  C22 UNL     1      -5.495   7.133  13.548  1.00  0.00     0.014 C 
BRANCH  26  27
HETATM   27  C23 UNL     1      -5.899   7.055  15.045  1.00  0.00    -0.022 C 
HETATM   28  C24 UNL     1      -6.868   8.191  15.383  1.00  0.00     0.009 C 
HETATM   29  C25 UNL     1      -6.558   5.713  15.384  1.00  0.00     0.009 C 
ENDBRANCH  26  27
ENDBRANCH  17  26
BRANCH  12  30
HETATM   30  C15 UNL     1      -0.712   3.174  11.900  1.00  0.00     0.275 C 
HETATM   31  O3  UNL     1      -0.297   2.178  11.322  1.00  0.00    -0.301 OA
ENDBRANCH  12  30
BRANCH  13  32
HETATM   32  O4  UNL     1      -2.839   1.527  10.932  1.00  0.00    -0.359 OA
HETATM   33  H23 UNL     1      -3.654   1.014  10.742  1.00  0.00     0.217 HD
ENDBRANCH  13  32
BRANCH  15  34
HETATM   34  O6  UNL     1      -6.132   4.543  12.623  1.00  0.00    -0.359 OA
HETATM   35  H25 UNL     1      -6.248   4.452  13.589  1.00  0.00     0.217 HD
ENDBRANCH  15  34
BRANCH  14  36
HETATM   36  C18 UNL     1      -5.597   2.177  11.322  1.00  0.00     0.275 C 
HETATM   37  O5  UNL     1      -5.449   0.958  11.297  1.00  0.00    -0.301 OA
ENDBRANCH  14  36
TORSDOF 8
ENDMDL
MODEL 3
REMARK minimizedAffinity -8.74827099
REMARK CNNscore 0.432934999
REMARK CNNaffinity 6.63648415
REMARK  8 active torsions:
REMARK  status: ('A' for Active; 'I' for Inactive)
REMARK    1  A    between atoms: C5_5  and  C6_6 
REMARK    2  A    between atoms: C6_6  and  O1_9 
REMARK    3  A    between atoms: C14_16  and  C15_17 
REMARK    4  A    between atoms: C16_19  and  O4_20 
REMARK    5  A    between atoms: C17_21  and  C18_22 
REMARK    6  A    between atoms: C19_24  and  O6_25 
REMARK    7  A    between atoms: C21_27  and  C22_28 
REMARK    8  A    between atoms: C22_28  and  C23_29 
ROOT
HETATM    1  C1  UNL     1       1.558  10.252  14.464  1.00  0.00     0.043 C 
HETATM    2  C2  UNL     1       0.057  10.097  14.534  1.00  0.00    -0.087 C 
HETATM    3  C3  UNL     1      -0.736  11.180  14.648  1.00  0.00    -0.024 C 
HETATM    4  C4  UNL     1      -2.229  11.418  14.684  1.00  0.00     0.035 C 
HETATM    5  C5  UNL     1      -3.370  10.374  14.951  1.00  0.00     0.023 C 
HETATM    6  C9  UNL     1      -3.536   9.436  13.709  1.00  0.00     0.011 C 
HETATM    7  C10 UNL     1      -3.814   7.925  13.651  1.00  0.00     0.039 C 
HETATM    8  C11 UNL     1      -2.784   6.759  13.842  1.00  0.00     0.068 C 
HETATM    9  C12 UNL     1      -2.608   6.405  15.339  1.00  0.00     0.047 C 
HETATM   10  O2  UNL     1      -3.562   5.612  13.357  1.00  0.00    -0.338 OA
HETATM   11  C13 UNL     1      -2.961   4.521  12.782  1.00  0.00     0.095 A 
HETATM   12  C14 UNL     1      -3.847   3.506  12.346  1.00  0.00     0.070 A 
HETATM   13  C16 UNL     1      -3.350   2.384  11.678  1.00  0.00     0.097 A 
HETATM   14  C17 UNL     1      -1.982   2.308  11.398  1.00  0.00     0.069 A 
HETATM   15  C19 UNL     1      -1.115   3.336  11.810  1.00  0.00     0.091 A 
HETATM   16  C20 UNL     1      -1.565   4.429  12.571  1.00  0.00     0.015 A 
HETATM   17  C21 UNL     1      -0.685   5.511  13.215  1.00  0.00     0.031 C 
HETATM   18  C26 UNL     1      -1.463   6.851  12.980  1.00  0.00     0.029 C 
HETATM   19  C27 UNL     1      -0.633   8.152  13.066  1.00  0.00     0.012 C 
HETATM   20  C28 UNL     1      -0.416   8.677  14.474  1.00  0.00     0.034 C 
ENDROOT
BRANCH   5  21
HETATM   21  C6  UNL     1      -3.548   9.911  16.436  1.00  0.00     0.054 C 
HETATM   22  C7  UNL     1      -2.269   9.243  16.990  1.00  0.00     0.045 C 
HETATM   23  C8  UNL     1      -3.860  11.088  17.369  1.00  0.00     0.045 C 
BRANCH  21  24
HETATM   24  O1  UNL     1      -4.585   8.957  16.588  1.00  0.00    -0.390 OA
HETATM   25  H14 UNL     1      -4.283   8.125  16.180  1.00  0.00     0.210 HD
ENDBRANCH  21  24
ENDBRANCH   5  21
BRANCH  17  26
HETATM   26  C22 UNL     1       0.836   5.545  12.912  1.00  0.00     0.014 C 
BRANCH  26  27
HETATM   27  C23 UNL     1       1.258   6.630  11.885  1.00  0.00    -0.022 C 
HETATM   28  C24 UNL     1       2.706   7.056  12.141  1.00  0.00     0.009 C 
HETATM   29  C25 UNL     1       1.129   6.125  10.443  1.00  0.00     0.009 C 
ENDBRANCH  26  27
ENDBRANCH  17  26
BRANCH  12  30
HETATM   30  C15 UNL     1      -5.302   3.673  12.618  1.00  0.00     0.275 C 
HETATM   31  O3  UNL     1      -6.182   3.573  11.773  1.00  0.00    -0.301 OA
ENDBRANCH  12  30
BRANCH  13  32
HETATM   32  O4  UNL     1      -4.203   1.372  11.324  1.00  0.00    -0.359 OA
HETATM   33  H23 UNL     1      -3.719   0.696  10.802  1.00  0.00     0.217 HD
ENDBRANCH  13  32
BRANCH  15  34
HETATM   34  O6  UNL     1       0.185   3.254  11.396  1.00  0.00    -0.359 OA
HETATM   35  H25 UNL     1       0.302   3.934  10.704  1.00  0.00     0.217 HD
ENDBRANCH  15  34
BRANCH  14  36
HETATM   36  C18 UNL     1      -1.430   1.153  10.655  1.00  0.00     0.275 C 
HETATM   37  O5  UNL     1      -0.339   1.222  10.094  1.00  0.00    -0.301 OA
ENDBRANCH  14  36
TORSDOF 8
ENDMDL
MODEL 4
REMARK minimizedAffinity -9.1555624
REMARK CNNscore 0.38820073
REMARK CNNaffinity 6.42521906
REMARK  8 active torsions:
REMARK  status: ('A' for Active; 'I' for Inactive)
REMARK    1  A    between atoms: C5_5  and  C6_6 
REMARK    2  A    between atoms: C6_6  and  O1_9 
REMARK    3  A    between atoms: C14_16  and  C15_17 
REMARK    4  A    between atoms: C16_19  and  O4_20 
REMARK    5  A    between atoms: C17_21  and  C18_22 
REMARK    6  A    between atoms: C19_24  and  O6_25 
REMARK    7  A    between atoms: C21_27  and  C22_28 
REMARK    8  A    between atoms: C22_28  and  C23_29 
ROOT
HETATM    1  C1  UNL     1      -1.412  10.040  17.343  1.00  0.00     0.043 C 
HETATM    2  C2  UNL     1      -0.603   9.274  16.322  1.00  0.00    -0.087 C 
HETATM    3  C3  UNL     1       0.741   9.236  16.405  1.00  0.00    -0.024 C 
HETATM    4  C4  UNL     1       1.845   8.550  15.633  1.00  0.00     0.035 C 
HETATM    5  C5  UNL     1       1.770   7.900  14.206  1.00  0.00     0.023 C 
HETATM    6  C9  UNL     1       0.965   6.560  14.272  1.00  0.00     0.011 C 
HETATM    7  C10 UNL     1      -0.048   5.974  13.275  1.00  0.00     0.039 C 
HETATM    8  C11 UNL     1      -1.558   6.361  13.113  1.00  0.00     0.068 C 
HETATM    9  C12 UNL     1      -1.728   7.578  12.170  1.00  0.00     0.047 C 
HETATM   10  O2  UNL     1      -2.043   5.263  12.268  1.00  0.00    -0.338 OA
HETATM   11  C13 UNL     1      -3.342   4.824  12.326  1.00  0.00     0.095 A 
HETATM   12  C14 UNL     1      -3.651   3.744  11.465  1.00  0.00     0.070 A 
HETATM   13  C16 UNL     1      -4.923   3.166  11.495  1.00  0.00     0.097 A 
HETATM   14  C17 UNL     1      -5.859   3.632  12.424  1.00  0.00     0.069 A 
HETATM   15  C19 UNL     1      -5.532   4.686  13.295  1.00  0.00     0.091 A 
HETATM   16  C20 UNL     1      -4.298   5.356  13.223  1.00  0.00     0.015 A 
HETATM   17  C21 UNL     1      -3.903   6.619  14.002  1.00  0.00     0.031 C 
HETATM   18  C26 UNL     1      -2.418   6.372  14.438  1.00  0.00     0.029 C 
HETATM   19  C27 UNL     1      -1.903   7.214  15.628  1.00  0.00     0.012 C 
HETATM   20  C28 UNL     1      -1.426   8.609  15.262  1.00  0.00     0.034 C 
ENDROOT
BRANCH   5  21
HETATM   21  C6  UNL     1       1.731   8.894  12.997  1.00  0.00     0.054 C 
HETATM   22  C7  UNL     1       2.808   9.995  13.119  1.00  0.00     0.045 C 
HETATM   23  C8  UNL     1       1.989   8.182  11.662  1.00  0.00     0.045 C 
BRANCH  21  24
HETATM   24  O1  UNL     1       0.490   9.570  12.888  1.00  0.00    -0.390 OA
HETATM   25  H14 UNL     1       0.429  10.197  13.633  1.00  0.00     0.210 HD
ENDBRANCH  21  24
ENDBRANCH   5  21
BRANCH  17  26
HETATM   26  C22 UNL     1      -4.851   7.174  15.097  1.00  0.00     0.014 C 
BRANCH  26  27
HETATM   27  C23 UNL     1      -5.458   8.566  14.772  1.00  0.00    -0.022 C 
HETATM   28  C24 UNL     1      -6.968   8.547  15.017  1.00  0.00     0.009 C 
HETATM   29  C25 UNL     1      -4.822   9.672  15.622  1.00  0.00     0.009 C 
ENDBRANCH  26  27
ENDBRANCH  17  26
BRANCH  12  30
HETATM   30  C15 UNL     1      -2.591   3.250  10.541  1.00  0.00     0.275 C 
HETATM   31  O3  UNL     1      -1.399   3.510  10.649  1.00  0.00    -0.301 OA
ENDBRANCH  12  30
BRANCH  13  32
HETATM   32  O4  UNL     1      -5.238   2.171  10.609  1.00  0.00    -0.359 OA
HETATM   33  H23 UNL     1      -6.135   1.823  10.805  1.00  0.00     0.217 HD
ENDBRANCH  13  32
BRANCH  15  34
HETATM   34  O6  UNL     1      -6.451   5.006  14.255  1.00  0.00    -0.359 OA
HETATM   35  H25 UNL     1      -6.092   4.682  15.104  1.00  0.00     0.217 HD
ENDBRANCH  15  34
BRANCH  14  36
HETATM   36  C18 UNL     1      -7.202   3.014  12.511  1.00  0.00     0.275 C 
HETATM   37  O5  UNL     1      -8.113   3.561  13.128  1.00  0.00    -0.301 OA
ENDBRANCH  14  36
TORSDOF 8
ENDMDL
MODEL 5
REMARK minimizedAffinity -6.82478428
REMARK CNNscore 0.360017836
REMARK CNNaffinity 5.42539072
REMARK  8 active torsions:
REMARK  status: ('A' for Active; 'I' for Inactive)
REMARK    1  A    between atoms: C5_5  and  C6_6 
REMARK    2  A    between atoms: C6_6  and  O1_9 
REMARK    3  A    between atoms: C14_16  and  C15_17 
REMARK    4  A    between atoms: C16_19  and  O4_20 
REMARK    5  A    between atoms: C17_21  and  C18_22 
REMARK    6  A    between atoms: C19_24  and  O6_25 
REMARK    7  A    between atoms: C21_27  and  C22_28 
REMARK    8  A    between atoms: C22_28  and  C23_29 
ROOT
HETATM    1  C1  UNL     1     -13.653  -8.251  10.878  1.00  0.00     0.043 C 
HETATM    2  C2  UNL     1     -13.219  -7.589  12.165  1.00  0.00    -0.087 C 
HETATM    3  C3  UNL     1     -12.131  -8.030  12.826  1.00  0.00    -0.024 C 
HETATM    4  C4  UNL     1     -11.381  -7.599  14.066  1.00  0.00     0.035 C 
HETATM    5  C5  UNL     1     -11.872  -6.649  15.214  1.00  0.00     0.023 C 
HETATM    6  C9  UNL     1     -11.905  -5.169  14.704  1.00  0.00     0.011 C 
HETATM    7  C10 UNL     1     -12.932  -4.059  14.982  1.00  0.00     0.039 C 
HETATM    8  C11 UNL     1     -14.329  -3.861  14.302  1.00  0.00     0.068 C 
HETATM    9  C12 UNL     1     -15.424  -4.692  15.016  1.00  0.00     0.047 C 
HETATM   10  O2  UNL     1     -14.664  -2.498  14.733  1.00  0.00    -0.338 OA
HETATM   11  C13 UNL     1     -15.452  -1.671  13.972  1.00  0.00     0.095 A 
HETATM   12  C14 UNL     1     -15.667  -0.381  14.514  1.00  0.00     0.070 A 
HETATM   13  C16 UNL     1     -16.391   0.570  13.789  1.00  0.00     0.097 A 
HETATM   14  C17 UNL     1     -16.844   0.247  12.506  1.00  0.00     0.069 A 
HETATM   15  C19 UNL     1     -16.599  -1.029  11.967  1.00  0.00     0.091 A 
HETATM   16  C20 UNL     1     -15.964  -2.040  12.706  1.00  0.00     0.015 A 
HETATM   17  C21 UNL     1     -15.798  -3.508  12.284  1.00  0.00     0.031 C 
HETATM   18  C26 UNL     1     -14.343  -3.889  12.722  1.00  0.00     0.029 C 
HETATM   19  C27 UNL     1     -13.709  -5.109  12.015  1.00  0.00     0.012 C 
HETATM   20  C28 UNL     1     -14.097  -6.456  12.598  1.00  0.00     0.034 C 
ENDROOT
BRANCH   5  21
HETATM   21  C6  UNL     1     -12.906  -7.259  16.220  1.00  0.00     0.054 C 
HETATM   22  C7  UNL     1     -14.199  -7.719  15.511  1.00  0.00     0.045 C 
HETATM   23  C8  UNL     1     -12.344  -8.492  16.940  1.00  0.00     0.045 C 
BRANCH  21  24
HETATM   24  O1  UNL     1     -13.311  -6.332  17.212  1.00  0.00    -0.390 OA
HETATM   25  H14 UNL     1     -13.866  -5.658  16.777  1.00  0.00     0.210 HD
ENDBRANCH  21  24
ENDBRANCH   5  21
BRANCH  17  26
HETATM   26  C22 UNL     1     -16.216  -3.948  10.856  1.00  0.00     0.014 C 
BRANCH  26  27
HETATM   27  C23 UNL     1     -15.350  -3.337   9.721  1.00  0.00    -0.022 C 
HETATM   28  C24 UNL     1     -13.998  -2.886  10.280  1.00  0.00     0.009 C 
HETATM   29  C25 UNL     1     -15.116  -4.343   8.586  1.00  0.00     0.009 C 
ENDBRANCH  26  27
ENDBRANCH  17  26
BRANCH  12  30
HETATM   30  C15 UNL     1     -15.105  -0.075  15.859  1.00  0.00     0.275 C 
HETATM   31  O3  UNL     1     -14.455   0.927  16.129  1.00  0.00    -0.301 OA
ENDBRANCH  12  30
BRANCH  13  32
HETATM   32  O4  UNL     1     -16.658   1.791  14.348  1.00  0.00    -0.359 OA
HETATM   33  H23 UNL     1     -17.106   2.367  13.692  1.00  0.00     0.217 HD
ENDBRANCH  13  32
BRANCH  15  34
HETATM   34  O6  UNL     1     -16.965  -1.232  10.665  1.00  0.00    -0.359 OA
HETATM   35  H25 UNL     1     -16.138  -1.257  10.144  1.00  0.00     0.217 HD
ENDBRANCH  15  34
BRANCH  14  36
HETATM   36  C18 UNL     1     -17.578   1.245  11.695  1.00  0.00     0.275 C 
HETATM   37  O5  UNL     1     -18.632   0.955  11.134  1.00  0.00    -0.301 OA
ENDBRANCH  14  36
TORSDOF 8
ENDMDL
MODEL 6
REMARK minimizedAffinity -5.9354291
REMARK CNNscore 0.281334698
REMARK CNNaffinity 5.24589205
REMARK  8 active torsions:
REMARK  status: ('A' for Active; 'I' for Inactive)
REMARK    1  A    between atoms: C5_5  and  C6_6 
REMARK    2  A    between atoms: C6_6  and  O1_9 
REMARK    3  A    between atoms: C14_16  and  C15_17 
REMARK    4  A    between atoms: C16_19  and  O4_20 
REMARK    5  A    between atoms: C17_21  and  C18_22 
REMARK    6  A    between atoms: C19_24  and  O6_25 
REMARK    7  A    between atoms: C21_27  and  C22_28 
REMARK    8  A    between atoms: C22_28  and  C23_29 
ROOT
HETATM    1  C1  UNL     1      -9.645   7.384  14.768  1.00  0.00     0.043 C 
HETATM    2  C2  UNL     1     -10.042   8.818  15.032  1.00  0.00    -0.087 C 
HETATM    3  C3  UNL     1      -9.124   9.718  15.431  1.00  0.00    -0.024 C 
HETATM    4  C4  UNL     1      -9.131  11.202  15.723  1.00  0.00     0.035 C 
HETATM    5  C5  UNL     1     -10.367  12.131  15.985  1.00  0.00     0.023 C 
HETATM    6  C9  UNL     1     -11.143  12.377  14.648  1.00  0.00     0.011 C 
HETATM    7  C10 UNL     1     -12.657  12.456  14.392  1.00  0.00     0.039 C 
HETATM    8  C11 UNL     1     -13.661  11.262  14.242  1.00  0.00     0.068 C 
HETATM    9  C12 UNL     1     -14.183  10.791  15.622  1.00  0.00     0.047 C 
HETATM   10  O2  UNL     1     -14.840  11.950  13.701  1.00  0.00    -0.338 OA
HETATM   11  C13 UNL     1     -15.735  11.314  12.877  1.00  0.00     0.095 A 
HETATM   12  C14 UNL     1     -16.807  12.117  12.421  1.00  0.00     0.070 A 
HETATM   13  C16 UNL     1     -17.737  11.594  11.517  1.00  0.00     0.097 A 
HETATM   14  C17 UNL     1     -17.557  10.295  11.031  1.00  0.00     0.069 A 
HETATM   15  C19 UNL     1     -16.471   9.517  11.470  1.00  0.00     0.091 A 
HETATM   16  C20 UNL     1     -15.576   9.974  12.452  1.00  0.00     0.015 A 
HETATM   17  C21 UNL     1     -14.466   9.151  13.124  1.00  0.00     0.031 C 
HETATM   18  C26 UNL     1     -13.246  10.130  13.221  1.00  0.00     0.029 C 
HETATM   19  C27 UNL     1     -11.855   9.478  13.391  1.00  0.00     0.012 C 
HETATM   20  C28 UNL     1     -11.497   9.100  14.817  1.00  0.00     0.034 C 
ENDROOT
BRANCH   5  21
HETATM   21  C6  UNL     1     -11.050  11.993  17.388  1.00  0.00     0.054 C 
HETATM   22  C7  UNL     1     -11.442  10.531  17.697  1.00  0.00     0.045 C 
HETATM   23  C8  UNL     1     -10.120  12.442  18.523  1.00  0.00     0.045 C 
BRANCH  21  24
HETATM   24  O1  UNL     1     -12.244  12.748  17.489  1.00  0.00    -0.390 OA
HETATM   25  H14 UNL     1     -12.914  12.319  16.925  1.00  0.00     0.210 HD
ENDBRANCH  21  24
ENDBRANCH   5  21
BRANCH  17  26
HETATM   26  C22 UNL     1     -14.152   7.721  12.611  1.00  0.00     0.014 C 
BRANCH  26  27
HETATM   27  C23 UNL     1     -14.566   6.587  13.587  1.00  0.00    -0.022 C 
HETATM   28  C24 UNL     1     -14.125   6.938  15.011  1.00  0.00     0.009 C 
HETATM   29  C25 UNL     1     -16.081   6.353  13.572  1.00  0.00     0.009 C 
ENDBRANCH  26  27
ENDBRANCH  17  26
BRANCH  12  30
HETATM   30  C15 UNL     1     -16.910  13.515  12.926  1.00  0.00     0.275 C 
HETATM   31  O3  UNL     1     -16.971  14.508  12.213  1.00  0.00    -0.301 OA
ENDBRANCH  12  30
BRANCH  13  32
HETATM   32  O4  UNL     1     -18.812  12.351  11.136  1.00  0.00    -0.359 OA
HETATM   33  H23 UNL     1     -19.327  11.876  10.448  1.00  0.00     0.217 HD
ENDBRANCH  13  32
BRANCH  15  34
HETATM   34  O6  UNL     1     -16.291   8.305  10.862  1.00  0.00    -0.359 OA
HETATM   35  H25 UNL     1     -15.513   8.399  10.277  1.00  0.00     0.217 HD
ENDBRANCH  15  34
BRANCH  14  36
HETATM   36  C18 UNL     1     -18.500   9.726  10.042  1.00  0.00     0.275 C 
HETATM   37  O5  UNL     1     -18.374   9.955   8.841  1.00  0.00    -0.301 OA
ENDBRANCH  14  36
TORSDOF 8
ENDMDL
MODEL 7
REMARK minimizedAffinity -5.54164696
REMARK CNNscore 0.220433965
REMARK CNNaffinity 5.73876143
REMARK  8 active torsions:
REMARK  status: ('A' for Active; 'I' for Inactive)
REMARK    1  A    between atoms: C5_5  and  C6_6 
REMARK    2  A    between atoms: C6_6  and  O1_9 
REMARK    3  A    between atoms: C14_16  and  C15_17 
REMARK    4  A    between atoms: C16_19  and  O4_20 
REMARK    5  A    between atoms: C17_21  and  C18_22 
REMARK    6  A    between atoms: C19_24  and  O6_25 
REMARK    7  A    between atoms: C21_27  and  C22_28 
REMARK    8  A    between atoms: C22_28  and  C23_29 
ROOT
HETATM    1  C1  UNL     1      -2.668  16.321   6.372  1.00  0.00     0.043 C 
HETATM    2  C2  UNL     1      -2.847  16.473   4.880  1.00  0.00    -0.087 C 
HETATM    3  C3  UNL     1      -3.856  17.216   4.385  1.00  0.00    -0.024 C 
HETATM    4  C4  UNL     1      -4.303  17.635   3.003  1.00  0.00     0.035 C 
HETATM    5  C5  UNL     1      -3.889  17.015   1.622  1.00  0.00     0.023 C 
HETATM    6  C9  UNL     1      -2.414  17.411   1.279  1.00  0.00     0.011 C 
HETATM    7  C10 UNL     1      -1.300  16.575   0.627  1.00  0.00     0.039 C 
HETATM    8  C11 UNL     1      -0.388  15.502   1.314  1.00  0.00     0.068 C 
HETATM    9  C12 UNL     1      -1.068  14.111   1.324  1.00  0.00     0.047 C 
HETATM   10  O2  UNL     1       0.650  15.316   0.292  1.00  0.00    -0.338 OA
HETATM   11  C13 UNL     1       1.933  14.957   0.621  1.00  0.00     0.095 A 
HETATM   12  C14 UNL     1       2.822  14.838  -0.474  1.00  0.00     0.070 A 
HETATM   13  C16 UNL     1       4.172  14.550  -0.250  1.00  0.00     0.097 A 
HETATM   14  C17 UNL     1       4.636  14.442   1.064  1.00  0.00     0.069 A 
HETATM   15  C19 UNL     1       3.748  14.592   2.145  1.00  0.00     0.091 A 
HETATM   16  C20 UNL     1       2.369  14.780   1.955  1.00  0.00     0.015 A 
HETATM   17  C21 UNL     1       1.292  14.785   3.051  1.00  0.00     0.031 C 
HETATM   18  C26 UNL     1       0.321  15.949   2.654  1.00  0.00     0.029 C 
HETATM   19  C27 UNL     1      -0.563  16.522   3.784  1.00  0.00     0.012 C 
HETATM   20  C28 UNL     1      -1.831  15.735   4.063  1.00  0.00     0.034 C 
ENDROOT
BRANCH   5  21
HETATM   21  C6  UNL     1      -4.539  15.636   1.262  1.00  0.00     0.054 C 
HETATM   22  C7  UNL     1      -3.863  14.467   2.013  1.00  0.00     0.045 C 
HETATM   23  C8  UNL     1      -6.026  15.590   1.637  1.00  0.00     0.045 C 
BRANCH  21  24
HETATM   24  O1  UNL     1      -4.435  15.329  -0.117  1.00  0.00    -0.390 OA
HETATM   25  H14 UNL     1      -3.499  15.137  -0.307  1.00  0.00     0.210 HD
ENDBRANCH  21  24
ENDBRANCH   5  21
BRANCH  17  26
HETATM   26  C22 UNL     1       1.715  14.731   4.543  1.00  0.00     0.014 C 
BRANCH  26  27
HETATM   27  C23 UNL     1       1.713  16.109   5.257  1.00  0.00    -0.022 C 
HETATM   28  C24 UNL     1       1.190  15.954   6.688  1.00  0.00     0.009 C 
HETATM   29  C25 UNL     1       3.117  16.727   5.298  1.00  0.00     0.009 C 
ENDBRANCH  26  27
ENDBRANCH  17  26
BRANCH  12  30
HETATM   30  C15 UNL     1       2.281  15.026  -1.849  1.00  0.00     0.275 C 
HETATM   31  O3  UNL     1       2.921  14.846  -2.878  1.00  0.00    -0.301 OA
ENDBRANCH  12  30
BRANCH  13  32
HETATM   32  O4  UNL     1       5.011  14.364  -1.316  1.00  0.00    -0.359 OA
HETATM   33  H23 UNL     1       5.932  14.245  -0.997  1.00  0.00     0.217 HD
ENDBRANCH  13  32
BRANCH  15  34
HETATM   34  O6  UNL     1       4.293  14.593   3.399  1.00  0.00    -0.359 OA
HETATM   35  H25 UNL     1       4.256  15.517   3.718  1.00  0.00     0.217 HD
ENDBRANCH  15  34
BRANCH  14  36
HETATM   36  C18 UNL     1       6.067  14.179   1.337  1.00  0.00     0.275 C 
HETATM   37  O5  UNL     1       6.791  15.049   1.816  1.00  0.00    -0.301 OA
ENDBRANCH  14  36
TORSDOF 8
ENDMDL
MODEL 8
REMARK minimizedAffinity -6.44371986
REMARK CNNscore 0.1995821
REMARK CNNaffinity 5.21005011
REMARK  8 active torsions:
REMARK  status: ('A' for Active; 'I' for Inactive)
REMARK    1  A    between atoms: C5_5  and  C6_6 
REMARK    2  A    between atoms: C6_6  and  O1_9 
REMARK    3  A    between atoms: C14_16  and  C15_17 
REMARK    4  A    between atoms: C16_19  and  O4_20 
REMARK    5  A    between atoms: C17_21  and  C18_22 
REMARK    6  A    between atoms: C19_24  and  O6_25 
REMARK    7  A    between atoms: C21_27  and  C22_28 
REMARK    8  A    between atoms: C22_28  and  C23_29 
ROOT
HETATM    1  C1  UNL     1     -20.751   0.139  13.443  1.00  0.00     0.043 C 
HETATM    2  C2  UNL     1     -19.337   0.128  13.974  1.00  0.00    -0.087 C 
HETATM    3  C3  UNL     1     -18.699  -1.038  14.191  1.00  0.00    -0.024 C 
HETATM    4  C4  UNL     1     -17.311  -1.435  14.641  1.00  0.00     0.035 C 
HETATM    5  C5  UNL     1     -16.234  -0.546  15.356  1.00  0.00     0.023 C 
HETATM    6  C9  UNL     1     -15.626   0.477  14.339  1.00  0.00     0.011 C 
HETATM    7  C10 UNL     1     -15.233   1.950  14.545  1.00  0.00     0.039 C 
HETATM    8  C11 UNL     1     -16.183   3.196  14.556  1.00  0.00     0.068 C 
HETATM    9  C12 UNL     1     -16.784   3.431  15.964  1.00  0.00     0.047 C 
HETATM   10  O2  UNL     1     -15.212   4.293  14.463  1.00  0.00    -0.338 OA
HETATM   11  C13 UNL     1     -15.526   5.489  13.867  1.00  0.00     0.095 A 
HETATM   12  C14 UNL     1     -14.477   6.439  13.838  1.00  0.00     0.070 A 
HETATM   13  C16 UNL     1     -14.660   7.663  13.189  1.00  0.00     0.097 A 
HETATM   14  C17 UNL     1     -15.866   7.907  12.525  1.00  0.00     0.069 A 
HETATM   15  C19 UNL     1     -16.891   6.944  12.537  1.00  0.00     0.091 A 
HETATM   16  C20 UNL     1     -16.779   5.746  13.263  1.00  0.00     0.015 A 
HETATM   17  C21 UNL     1     -17.890   4.710  13.484  1.00  0.00     0.031 C 
HETATM   18  C26 UNL     1     -17.178   3.322  13.335  1.00  0.00     0.029 C 
HETATM   19  C27 UNL     1     -18.088   2.113  13.017  1.00  0.00     0.012 C 
HETATM   20  C28 UNL     1     -18.765   1.490  14.224  1.00  0.00     0.034 C 
ENDROOT
BRANCH   5  21
HETATM   21  C6  UNL     1     -16.487  -0.239  16.871  1.00  0.00     0.054 C 
HETATM   22  C7  UNL     1     -17.840   0.472  17.097  1.00  0.00     0.045 C 
HETATM   23  C8  UNL     1     -16.525  -1.519  17.716  1.00  0.00     0.045 C 
BRANCH  21  24
HETATM   24  O1  UNL     1     -15.500   0.611  17.427  1.00  0.00    -0.390 OA
HETATM   25  H14 UNL     1     -15.625   1.500  17.044  1.00  0.00     0.210 HD
ENDBRANCH  21  24
ENDBRANCH   5  21
BRANCH  17  26
HETATM   26  C22 UNL     1     -19.243   4.864  12.740  1.00  0.00     0.014 C 
BRANCH  26  27
HETATM   27  C23 UNL     1     -20.483   4.912  13.673  1.00  0.00    -0.022 C 
HETATM   28  C24 UNL     1     -20.058   5.326  15.085  1.00  0.00     0.009 C 
HETATM   29  C25 UNL     1     -21.541   5.896  13.157  1.00  0.00     0.009 C 
ENDBRANCH  26  27
ENDBRANCH  17  26
BRANCH  12  30
HETATM   30  C15 UNL     1     -13.192   6.096  14.509  1.00  0.00     0.275 C 
HETATM   31  O3  UNL     1     -12.109   6.599  14.235  1.00  0.00    -0.301 OA
ENDBRANCH  12  30
BRANCH  13  32
HETATM   32  O4  UNL     1     -13.668   8.606  13.226  1.00  0.00    -0.359 OA
HETATM   33  H23 UNL     1     -13.917   9.374  12.667  1.00  0.00     0.217 HD
ENDBRANCH  13  32
BRANCH  15  34
HETATM   34  O6  UNL     1     -17.992   7.200  11.768  1.00  0.00    -0.359 OA
HETATM   35  H25 UNL     1     -17.940   6.601  10.997  1.00  0.00     0.217 HD
ENDBRANCH  15  34
BRANCH  14  36
HETATM   36  C18 UNL     1     -16.077   9.177  11.793  1.00  0.00     0.275 C 
HETATM   37  O5  UNL     1     -16.117   9.202  10.565  1.00  0.00    -0.301 OA
ENDBRANCH  14  36
TORSDOF 8
ENDMDL
MODEL 9
REMARK minimizedAffinity -6.08147383
REMARK CNNscore 0.18214038
REMARK CNNaffinity 4.58838654
REMARK  8 active torsions:
REMARK  status: ('A' for Active; 'I' for Inactive)
REMARK    1  A    between atoms: C5_5  and  C6_6 
REMARK    2  A    between atoms: C6_6  and  O1_9 
REMARK    3  A    between atoms: C14_16  and  C15_17 
REMARK    4  A    between atoms: C16_19  and  O4_20 
REMARK    5  A    between atoms: C17_21  and  C18_22 
REMARK    6  A    between atoms: C19_24  and  O6_25 
REMARK    7  A    between atoms: C21_27  and  C22_28 
REMARK    8  A    between atoms: C22_28  and  C23_29 
ROOT
HETATM    1  C1  UNL     1     -15.173   7.405  20.032  1.00  0.00     0.043 C 
HETATM    2  C2  UNL     1     -14.334   7.625  21.269  1.00  0.00    -0.087 C 
HETATM    3  C3  UNL     1     -14.290   6.692  22.239  1.00  0.00    -0.024 C 
HETATM    4  C4  UNL     1     -13.545   6.535  23.545  1.00  0.00     0.035 C 
HETATM    5  C5  UNL     1     -12.802   7.641  24.375  1.00  0.00     0.023 C 
HETATM    6  C9  UNL     1     -11.476   8.050  23.652  1.00  0.00     0.011 C 
HETATM    7  C10 UNL     1     -10.833   9.438  23.492  1.00  0.00     0.039 C 
HETATM    8  C11 UNL     1     -11.222  10.555  22.463  1.00  0.00     0.068 C 
HETATM    9  C12 UNL     1     -12.374  11.438  23.002  1.00  0.00     0.047 C 
HETATM   10  O2  UNL     1     -10.073  11.462  22.584  1.00  0.00    -0.338 OA
HETATM   11  C13 UNL     1      -9.650  12.236  21.533  1.00  0.00     0.095 A 
HETATM   12  C14 UNL     1      -8.518  13.043  21.799  1.00  0.00     0.070 A 
HETATM   13  C16 UNL     1      -7.954  13.816  20.780  1.00  0.00     0.097 A 
HETATM   14  C17 UNL     1      -8.488  13.734  19.490  1.00  0.00     0.069 A 
HETATM   15  C19 UNL     1      -9.595  12.907  19.231  1.00  0.00     0.091 A 
HETATM   16  C20 UNL     1     -10.248  12.195  20.252  1.00  0.00     0.015 A 
HETATM   17  C21 UNL     1     -11.558  11.404  20.114  1.00  0.00     0.031 C 
HETATM   18  C26 UNL     1     -11.328  10.101  20.954  1.00  0.00     0.029 C 
HETATM   19  C27 UNL     1     -12.243   8.900  20.622  1.00  0.00     0.012 C 
HETATM   20  C28 UNL     1     -13.606   8.934  21.290  1.00  0.00     0.034 C 
ENDROOT
BRANCH   5  21
HETATM   21  C6  UNL     1     -13.714   8.633  25.174  1.00  0.00     0.054 C 
HETATM   22  C7  UNL     1     -14.634   9.451  24.240  1.00  0.00     0.045 C 
HETATM   23  C8  UNL     1     -14.636   7.898  26.155  1.00  0.00     0.045 C 
BRANCH  21  24
HETATM   24  O1  UNL     1     -12.967   9.580  25.916  1.00  0.00    -0.390 OA
HETATM   25  H14 UNL     1     -12.554  10.194  25.281  1.00  0.00     0.210 HD
ENDBRANCH  21  24
ENDBRANCH   5  21
BRANCH  17  26
HETATM   26  C22 UNL     1     -12.192  11.208  18.712  1.00  0.00     0.014 C 
BRANCH  26  27
HETATM   27  C23 UNL     1     -11.969   9.798  18.102  1.00  0.00    -0.022 C 
HETATM   28  C24 UNL     1     -13.147   9.428  17.197  1.00  0.00     0.009 C 
HETATM   29  C25 UNL     1     -10.669   9.732  17.290  1.00  0.00     0.009 C 
ENDBRANCH  26  27
ENDBRANCH  17  26
BRANCH  12  30
HETATM   30  C15 UNL     1      -7.955  13.040  23.179  1.00  0.00     0.275 C 
HETATM   31  O3  UNL     1      -7.433  14.008  23.718  1.00  0.00    -0.301 OA
ENDBRANCH  12  30
BRANCH  13  32
HETATM   32  O4  UNL     1      -6.904  14.649  21.062  1.00  0.00    -0.359 OA
HETATM   33  H23 UNL     1      -6.577  15.063  20.234  1.00  0.00     0.217 HD
ENDBRANCH  13  32
BRANCH  15  34
HETATM   34  O6  UNL     1      -9.986  12.785  17.927  1.00  0.00    -0.359 OA
HETATM   35  H25 UNL     1      -9.716  11.891  17.637  1.00  0.00     0.217 HD
ENDBRANCH  15  34
BRANCH  14  36
HETATM   36  C18 UNL     1      -7.889  14.508  18.379  1.00  0.00     0.275 C 
HETATM   37  O5  UNL     1      -7.423  13.943  17.392  1.00  0.00    -0.301 OA
ENDBRANCH  14  36
TORSDOF 8
ENDMDL
