MODEL 1
REMARK minimizedAffinity -9.65845203
REMARK CNNscore 0.617229223
REMARK CNNaffinity 6.88636827
REMARK  10 active torsions:
REMARK  status: ('A' for Active; 'I' for Inactive)
REMARK    1  A    between atoms: C9_9  and  O1_10 
REMARK    2  A    between atoms: C11_12  and  O2_13 
REMARK    3  A    between atoms: O2_13  and  C12_14 
REMARK    4  A    between atoms: C14_16  and  O3_17 
REMARK    5  A    between atoms: C15_18  and  O4_19 
REMARK    6  A    between atoms: C16_20  and  C17_21 
REMARK    7  A    between atoms: C17_21  and  O5_22 
REMARK    8  A    between atoms: C20_26  and  C21_27 
REMARK    9  A    between atoms: C22_29  and  O8_30 
REMARK   10  A    between atoms: C25_33  and  C26_34 
ROOT
HETATM    1  C1  UNL     1       2.404   7.493  12.523  1.00  0.00     0.019 C 
HETATM    2  C2  UNL     1       0.851   7.420  12.453  1.00  0.00    -0.005 C 
HETATM    3  C3  UNL     1       0.308   8.773  12.975  1.00  0.00     0.013 C 
HETATM    4  C4  UNL     1      -1.219   8.869  13.082  1.00  0.00     0.007 C 
HETATM    5  C5  UNL     1      -1.908   7.554  13.513  1.00  0.00     0.011 C 
HETATM    6  C6  UNL     1      -0.904   6.611  14.223  1.00  0.00     0.026 C 
HETATM    7  C7  UNL     1      -1.594   5.415  14.913  1.00  0.00     0.011 C 
HETATM    8  C8  UNL     1      -2.975   5.134  14.341  1.00  0.00     0.039 C 
HETATM    9  C9  UNL     1      -3.938   6.327  14.520  1.00  0.00     0.074 C 
HETATM   10  C10 UNL     1      -5.117   6.129  13.537  1.00  0.00     0.071 C 
HETATM   11  C11 UNL     1      -6.225   7.174  13.711  1.00  0.00     0.127 C 
HETATM   12  C18 UNL     1      -5.660   8.565  14.019  1.00  0.00     0.033 C 
HETATM   13  C19 UNL     1      -4.198   8.720  13.582  1.00  0.00     0.022 C 
HETATM   14  C20 UNL     1      -3.243   7.733  14.322  1.00  0.00     0.048 C 
HETATM   15  C22 UNL     1       0.323   6.229  13.335  1.00  0.00     0.070 C 
HETATM   16  C23 UNL     1       0.139   5.090  12.327  1.00  0.00     0.040 C 
HETATM   17  C24 UNL     1      -0.340   5.726  11.041  1.00  0.00     0.013 C 
HETATM   18  C25 UNL     1       0.311   7.129  10.994  1.00  0.00     0.028 C 
ENDROOT
BRANCH  11  19
HETATM   19  O2  UNL     1      -7.062   6.734  14.789  1.00  0.00    -0.356 OA
BRANCH  19  20
HETATM   20  C12 UNL     1      -7.292   7.726  15.789  1.00  0.00     0.263 C 
HETATM   21  C13 UNL     1      -7.495   9.081  15.105  1.00  0.00     0.095 C 
HETATM   22  C14 UNL     1      -8.744   9.765  15.617  1.00  0.00     0.154 C 
HETATM   23  C15 UNL     1      -9.950   8.840  15.407  1.00  0.00     0.178 C 
HETATM   24  C16 UNL     1      -9.697   7.443  16.014  1.00  0.00     0.179 C 
HETATM   25  O6  UNL     1      -8.396   7.350  16.611  1.00  0.00    -0.351 OA
BRANCH  22  26
HETATM   26  O3  UNL     1      -8.958  10.991  14.907  1.00  0.00    -0.393 OA
HETATM   27  H22 UNL     1      -9.922  11.166  14.987  1.00  0.00     0.210 HD
ENDBRANCH  22  26
BRANCH  23  28
HETATM   28  O4  UNL     1     -11.108   9.462  15.985  1.00  0.00    -0.390 OA
HETATM   29  H24 UNL     1     -10.980   9.485  16.950  1.00  0.00     0.210 HD
ENDBRANCH  23  28
BRANCH  24  30
HETATM   30  C17 UNL     1      -9.968   6.318  15.003  1.00  0.00     0.198 C 
BRANCH  30  31
HETATM   31  O5  UNL     1     -11.356   6.199  14.699  1.00  0.00    -0.398 OA
HETATM   32  H28 UNL     1     -11.662   7.030  14.295  1.00  0.00     0.209 HD
ENDBRANCH  30  31
ENDBRANCH  24  30
ENDBRANCH  19  20
ENDBRANCH  11  19
BRANCH   9  33
HETATM   33  O1  UNL     1      -4.453   6.239  15.854  1.00  0.00    -0.389 OA
HETATM   34  H14 UNL     1      -5.159   5.562  15.881  1.00  0.00     0.210 HD
ENDBRANCH   9  33
BRANCH  14  35
HETATM   35  C21 UNL     1      -2.966   8.382  15.695  1.00  0.00     0.244 C 
HETATM   36  O7  UNL     1      -2.256   7.894  16.571  1.00  0.00    -0.306 OA
ENDBRANCH  14  35
BRANCH  15  37
HETATM   37  O8  UNL     1       1.345   5.795  14.248  1.00  0.00    -0.389 OA
HETATM   38  H34 UNL     1       1.028   5.014  14.732  1.00  0.00     0.210 HD
ENDBRANCH  15  37
BRANCH  18  39
HETATM   39  C26 UNL     1       1.295   7.337   9.871  1.00  0.00    -0.045 A 
HETATM   40  C27 UNL     1       1.496   8.416   9.112  1.00  0.00     0.087 A 
HETATM   41  C28 UNL     1       2.552   8.085   8.156  1.00  0.00     0.283 A 
HETATM   42  O9  UNL     1       2.994   8.841   7.312  1.00  0.00    -0.260 OA
HETATM   43  O10 UNL     1       2.956   6.803   8.358  1.00  0.00    -0.314 OA
HETATM   44  C29 UNL     1       2.201   6.239   9.431  1.00  0.00     0.213 A 
ENDBRANCH  18  39
TORSDOF 10
ENDMDL
MODEL 2
REMARK minimizedAffinity -8.82273865
REMARK CNNscore 0.460386872
REMARK CNNaffinity 6.64341545
REMARK  10 active torsions:
REMARK  status: ('A' for Active; 'I' for Inactive)
REMARK    1  A    between atoms: C9_9  and  O1_10 
REMARK    2  A    between atoms: C11_12  and  O2_13 
REMARK    3  A    between atoms: O2_13  and  C12_14 
REMARK    4  A    between atoms: C14_16  and  O3_17 
REMARK    5  A    between atoms: C15_18  and  O4_19 
REMARK    6  A    between atoms: C16_20  and  C17_21 
REMARK    7  A    between atoms: C17_21  and  O5_22 
REMARK    8  A    between atoms: C20_26  and  C21_27 
REMARK    9  A    between atoms: C22_29  and  O8_30 
REMARK   10  A    between atoms: C25_33  and  C26_34 
ROOT
HETATM    1  C1  UNL     1     -12.805   8.451  15.747  1.00  0.00     0.019 C 
HETATM    2  C2  UNL     1     -11.416   8.317  15.057  1.00  0.00    -0.005 C 
HETATM    3  C3  UNL     1     -11.327   6.878  14.490  1.00  0.00     0.013 C 
HETATM    4  C4  UNL     1      -9.982   6.508  13.851  1.00  0.00     0.007 C 
HETATM    5  C5  UNL     1      -8.754   7.126  14.556  1.00  0.00     0.011 C 
HETATM    6  C6  UNL     1      -9.101   7.542  16.008  1.00  0.00     0.026 C 
HETATM    7  C7  UNL     1      -7.853   7.906  16.840  1.00  0.00     0.011 C 
HETATM    8  C8  UNL     1      -6.663   8.274  15.967  1.00  0.00     0.039 C 
HETATM    9  C9  UNL     1      -6.225   7.111  15.050  1.00  0.00     0.074 C 
HETATM   10  C10 UNL     1      -5.350   7.708  13.922  1.00  0.00     0.071 C 
HETATM   11  C11 UNL     1      -4.728   6.639  13.017  1.00  0.00     0.127 C 
HETATM   12  C18 UNL     1      -5.690   5.474  12.757  1.00  0.00     0.033 C 
HETATM   13  C19 UNL     1      -7.156   5.855  12.995  1.00  0.00     0.022 C 
HETATM   14  C20 UNL     1      -7.436   6.276  14.471  1.00  0.00     0.048 C 
HETATM   15  C22 UNL     1     -10.265   8.579  16.096  1.00  0.00     0.070 C 
HETATM   16  C23 UNL     1      -9.915  10.055  15.878  1.00  0.00     0.040 C 
HETATM   17  C24 UNL     1     -10.059  10.317  14.395  1.00  0.00     0.013 C 
HETATM   18  C25 UNL     1     -11.191   9.382  13.908  1.00  0.00     0.028 C 
ENDROOT
BRANCH  11  19
HETATM   19  O2  UNL     1      -3.544   6.162  13.670  1.00  0.00    -0.356 OA
BRANCH  19  20
HETATM   20  C12 UNL     1      -2.547   7.162  13.872  1.00  0.00     0.263 C 
HETATM   21  C13 UNL     1      -1.868   6.920  15.223  1.00  0.00     0.095 C 
HETATM   22  C14 UNL     1      -0.361   6.924  15.080  1.00  0.00     0.154 C 
HETATM   23  C15 UNL     1       0.052   5.872  14.043  1.00  0.00     0.178 C 
HETATM   24  C16 UNL     1      -0.711   6.063  12.715  1.00  0.00     0.179 C 
HETATM   25  O6  UNL     1      -1.626   7.166  12.782  1.00  0.00    -0.351 OA
BRANCH  22  26
HETATM   26  O3  UNL     1       0.251   6.615  16.339  1.00  0.00    -0.393 OA
HETATM   27  H22 UNL     1       1.136   6.254  16.109  1.00  0.00     0.210 HD
ENDBRANCH  22  26
BRANCH  23  28
HETATM   28  O4  UNL     1       1.473   5.956  13.850  1.00  0.00    -0.390 OA
HETATM   29  H24 UNL     1       1.663   6.810  13.423  1.00  0.00     0.210 HD
ENDBRANCH  23  28
BRANCH  24  30
HETATM   30  C17 UNL     1      -1.382   4.763  12.243  1.00  0.00     0.198 C 
BRANCH  30  31
HETATM   31  O5  UNL     1      -0.739   4.221  11.093  1.00  0.00    -0.398 OA
HETATM   32  H28 UNL     1       0.183   4.004  11.319  1.00  0.00     0.209 HD
ENDBRANCH  30  31
ENDBRANCH  24  30
ENDBRANCH  19  20
ENDBRANCH  11  19
BRANCH   9  33
HETATM   33  O1  UNL     1      -5.399   6.253  15.847  1.00  0.00    -0.389 OA
HETATM   34  H14 UNL     1      -4.503   6.643  15.914  1.00  0.00     0.210 HD
ENDBRANCH   9  33
BRANCH  14  35
HETATM   35  C21 UNL     1      -7.587   4.954  15.253  1.00  0.00     0.244 C 
HETATM   36  O7  UNL     1      -7.442   3.833  14.770  1.00  0.00    -0.306 OA
ENDBRANCH  14  35
BRANCH  15  37
HETATM   37  O8  UNL     1     -10.774   8.483  17.437  1.00  0.00    -0.389 OA
HETATM   38  H34 UNL     1     -10.069   8.719  18.063  1.00  0.00     0.210 HD
ENDBRANCH  15  37
BRANCH  18  39
HETATM   39  C26 UNL     1     -12.427  10.086  13.407  1.00  0.00    -0.045 A 
HETATM   40  C27 UNL     1     -12.863  11.320  13.671  1.00  0.00     0.087 A 
HETATM   41  C28 UNL     1     -14.121  11.501  12.948  1.00  0.00     0.283 A 
HETATM   42  O9  UNL     1     -14.794  12.514  12.957  1.00  0.00    -0.260 OA
HETATM   43  O10 UNL     1     -14.418  10.361  12.270  1.00  0.00    -0.314 OA
HETATM   44  C29 UNL     1     -13.395   9.394  12.510  1.00  0.00     0.213 A 
ENDBRANCH  18  39
TORSDOF 10
ENDMDL
MODEL 3
REMARK minimizedAffinity -10.242115
REMARK CNNscore 0.404286295
REMARK CNNaffinity 6.34777403
REMARK  10 active torsions:
REMARK  status: ('A' for Active; 'I' for Inactive)
REMARK    1  A    between atoms: C9_9  and  O1_10 
REMARK    2  A    between atoms: C11_12  and  O2_13 
REMARK    3  A    between atoms: O2_13  and  C12_14 
REMARK    4  A    between atoms: C14_16  and  O3_17 
REMARK    5  A    between atoms: C15_18  and  O4_19 
REMARK    6  A    between atoms: C16_20  and  C17_21 
REMARK    7  A    between atoms: C17_21  and  O5_22 
REMARK    8  A    between atoms: C20_26  and  C21_27 
REMARK    9  A    between atoms: C22_29  and  O8_30 
REMARK   10  A    between atoms: C25_33  and  C26_34 
ROOT
HETATM    1  C1  UNL     1      -5.897   6.385  16.068  1.00  0.00     0.019 C 
HETATM    2  C2  UNL     1      -4.717   6.487  15.058  1.00  0.00    -0.005 C 
HETATM    3  C3  UNL     1      -3.623   5.499  15.534  1.00  0.00     0.013 C 
HETATM    4  C4  UNL     1      -2.322   5.520  14.722  1.00  0.00     0.007 C 
HETATM    5  C5  UNL     1      -1.914   6.923  14.216  1.00  0.00     0.011 C 
HETATM    6  C6  UNL     1      -2.601   8.033  15.050  1.00  0.00     0.026 C 
HETATM    7  C7  UNL     1      -2.021   9.435  14.771  1.00  0.00     0.011 C 
HETATM    8  C8  UNL     1      -1.305   9.509  13.432  1.00  0.00     0.039 C 
HETATM    9  C9  UNL     1      -0.105   8.541  13.352  1.00  0.00     0.074 C 
HETATM   10  C10 UNL     1       0.254   8.360  11.858  1.00  0.00     0.071 C 
HETATM   11  C11 UNL     1       1.524   7.531  11.642  1.00  0.00     0.127 C 
HETATM   12  C18 UNL     1       1.632   6.373  12.640  1.00  0.00     0.033 C 
HETATM   13  C19 UNL     1       0.277   5.989  13.248  1.00  0.00     0.022 C 
HETATM   14  C20 UNL     1      -0.368   7.153  14.062  1.00  0.00     0.048 C 
HETATM   15  C22 UNL     1      -4.161   7.958  15.019  1.00  0.00     0.070 C 
HETATM   16  C23 UNL     1      -4.875   8.579  13.814  1.00  0.00     0.040 C 
HETATM   17  C24 UNL     1      -5.000   7.485  12.776  1.00  0.00     0.013 C 
HETATM   18  C25 UNL     1      -5.148   6.165  13.569  1.00  0.00     0.028 C 
ENDROOT
BRANCH  11  19
HETATM   19  O2  UNL     1       2.643   8.415  11.794  1.00  0.00    -0.356 OA
BRANCH  19  20
HETATM   20  C12 UNL     1       3.807   8.010  11.075  1.00  0.00     0.263 C 
HETATM   21  C13 UNL     1       3.975   6.494  11.219  1.00  0.00     0.095 C 
HETATM   22  C14 UNL     1       4.184   5.842   9.869  1.00  0.00     0.154 C 
HETATM   23  C15 UNL     1       3.009   6.196   8.949  1.00  0.00     0.178 C 
HETATM   24  C16 UNL     1       2.784   7.722   8.888  1.00  0.00     0.179 C 
HETATM   25  O6  UNL     1       3.718   8.431   9.715  1.00  0.00    -0.351 OA
BRANCH  22  26
HETATM   26  O3  UNL     1       4.258   4.419  10.019  1.00  0.00    -0.393 OA
HETATM   27  H22 UNL     1       3.998   4.058   9.142  1.00  0.00     0.210 HD
ENDBRANCH  22  26
BRANCH  23  28
HETATM   28  O4  UNL     1       3.270   5.651   7.646  1.00  0.00    -0.390 OA
HETATM   29  H24 UNL     1       4.030   6.131   7.272  1.00  0.00     0.210 HD
ENDBRANCH  23  28
BRANCH  24  30
HETATM   30  C17 UNL     1       1.324   8.102   9.181  1.00  0.00     0.198 C 
BRANCH  30  31
HETATM   31  O5  UNL     1       0.845   9.102   8.287  1.00  0.00    -0.398 OA
HETATM   32  H28 UNL     1       0.875   8.753   7.378  1.00  0.00     0.209 HD
ENDBRANCH  30  31
ENDBRANCH  24  30
ENDBRANCH  19  20
ENDBRANCH  11  19
BRANCH   9  33
HETATM   33  O1  UNL     1       0.993   9.200  13.996  1.00  0.00    -0.389 OA
HETATM   34  H14 UNL     1       1.379   9.856  13.380  1.00  0.00     0.210 HD
ENDBRANCH   9  33
BRANCH  14  35
HETATM   35  C21 UNL     1       0.328   7.126  15.439  1.00  0.00     0.244 C 
HETATM   36  O7  UNL     1       0.224   8.002  16.296  1.00  0.00    -0.306 OA
ENDBRANCH  14  35
BRANCH  15  37
HETATM   37  O8  UNL     1      -4.611   8.690  16.171  1.00  0.00    -0.389 OA
HETATM   38  H34 UNL     1      -4.320   9.615  16.094  1.00  0.00     0.210 HD
ENDBRANCH  15  37
BRANCH  18  39
HETATM   39  C26 UNL     1      -6.473   5.466  13.400  1.00  0.00    -0.045 A 
HETATM   40  C27 UNL     1      -6.726   4.173  13.186  1.00  0.00     0.087 A 
HETATM   41  C28 UNL     1      -8.177   4.026  13.077  1.00  0.00     0.283 A 
HETATM   42  O9  UNL     1      -8.762   2.977  12.886  1.00  0.00    -0.260 OA
HETATM   43  O10 UNL     1      -8.764   5.244  13.219  1.00  0.00    -0.314 OA
HETATM   44  C29 UNL     1      -7.752   6.230  13.422  1.00  0.00     0.213 A 
ENDBRANCH  18  39
TORSDOF 10
ENDMDL
MODEL 4
REMARK minimizedAffinity -7.68576431
REMARK CNNscore 0.396918297
REMARK CNNaffinity 5.67195272
REMARK  10 active torsions:
REMARK  status: ('A' for Active; 'I' for Inactive)
REMARK    1  A    between atoms: C9_9  and  O1_10 
REMARK    2  A    between atoms: C11_12  and  O2_13 
REMARK    3  A    between atoms: O2_13  and  C12_14 
REMARK    4  A    between atoms: C14_16  and  O3_17 
REMARK    5  A    between atoms: C15_18  and  O4_19 
REMARK    6  A    between atoms: C16_20  and  C17_21 
REMARK    7  A    between atoms: C17_21  and  O5_22 
REMARK    8  A    between atoms: C20_26  and  C21_27 
REMARK    9  A    between atoms: C22_29  and  O8_30 
REMARK   10  A    between atoms: C25_33  and  C26_34 
ROOT
HETATM    1  C1  UNL     1      -2.393  13.555  18.690  1.00  0.00     0.019 C 
HETATM    2  C2  UNL     1      -2.945  12.502  17.685  1.00  0.00    -0.005 C 
HETATM    3  C3  UNL     1      -3.084  11.166  18.456  1.00  0.00     0.013 C 
HETATM    4  C4  UNL     1      -3.524   9.963  17.611  1.00  0.00     0.007 C 
HETATM    5  C5  UNL     1      -2.953   9.957  16.175  1.00  0.00     0.011 C 
HETATM    6  C6  UNL     1      -1.694  10.855  16.075  1.00  0.00     0.026 C 
HETATM    7  C7  UNL     1      -0.931  10.669  14.747  1.00  0.00     0.011 C 
HETATM    8  C8  UNL     1      -1.807  10.076  13.654  1.00  0.00     0.039 C 
HETATM    9  C9  UNL     1      -2.341   8.676  14.024  1.00  0.00     0.074 C 
HETATM   10  C10 UNL     1      -3.543   8.372  13.098  1.00  0.00     0.071 C 
HETATM   11  C11 UNL     1      -4.081   6.946  13.263  1.00  0.00     0.127 C 
HETATM   12  C18 UNL     1      -4.058   6.488  14.725  1.00  0.00     0.033 C 
HETATM   13  C19 UNL     1      -4.013   7.662  15.711  1.00  0.00     0.022 C 
HETATM   14  C20 UNL     1      -2.730   8.533  15.550  1.00  0.00     0.048 C 
HETATM   15  C22 UNL     1      -1.959  12.343  16.469  1.00  0.00     0.070 C 
HETATM   16  C23 UNL     1      -2.559  13.261  15.399  1.00  0.00     0.040 C 
HETATM   17  C24 UNL     1      -4.062  13.164  15.542  1.00  0.00     0.013 C 
HETATM   18  C25 UNL     1      -4.330  12.923  17.046  1.00  0.00     0.028 C 
ENDROOT
BRANCH  11  19
HETATM   19  O2  UNL     1      -3.259   6.083  12.465  1.00  0.00    -0.356 OA
BRANCH  19  20
HETATM   20  C12 UNL     1      -2.963   4.831  13.080  1.00  0.00     0.263 C 
HETATM   21  C13 UNL     1      -3.625   3.712  12.270  1.00  0.00     0.095 C 
HETATM   22  C14 UNL     1      -2.634   2.612  11.954  1.00  0.00     0.154 C 
HETATM   23  C15 UNL     1      -1.432   3.211  11.214  1.00  0.00     0.178 C 
HETATM   24  C16 UNL     1      -0.831   4.403  11.990  1.00  0.00     0.179 C 
HETATM   25  O6  UNL     1      -1.551   4.664  13.203  1.00  0.00    -0.351 OA
BRANCH  22  26
HETATM   26  O3  UNL     1      -3.252   1.618  11.129  1.00  0.00    -0.393 OA
HETATM   27  H22 UNL     1      -2.508   1.182  10.656  1.00  0.00     0.210 HD
ENDBRANCH  22  26
BRANCH  23  28
HETATM   28  O4  UNL     1      -0.460   2.175  11.009  1.00  0.00    -0.390 OA
HETATM   29  H24 UNL     1      -0.110   1.921  11.881  1.00  0.00     0.210 HD
ENDBRANCH  23  28
BRANCH  24  30
HETATM   30  C17 UNL     1      -0.684   5.652  11.106  1.00  0.00     0.198 C 
BRANCH  30  31
HETATM   31  O5  UNL     1       0.667   5.862  10.704  1.00  0.00    -0.398 OA
HETATM   32  H28 UNL     1       0.961   5.099  10.176  1.00  0.00     0.209 HD
ENDBRANCH  30  31
ENDBRANCH  24  30
ENDBRANCH  19  20
ENDBRANCH  11  19
BRANCH   9  33
HETATM   33  O1  UNL     1      -1.295   7.746  13.715  1.00  0.00    -0.389 OA
HETATM   34  H14 UNL     1      -1.291   7.578  12.751  1.00  0.00     0.210 HD
ENDBRANCH   9  33
BRANCH  14  35
HETATM   35  C21 UNL     1      -1.620   7.773  16.308  1.00  0.00     0.244 C 
HETATM   36  O7  UNL     1      -0.422   8.043  16.253  1.00  0.00    -0.306 OA
ENDBRANCH  14  35
BRANCH  15  37
HETATM   37  O8  UNL     1      -0.674  12.896  16.796  1.00  0.00    -0.389 OA
HETATM   38  H34 UNL     1      -0.101  12.856  16.011  1.00  0.00     0.210 HD
ENDBRANCH  15  37
BRANCH  18  39
HETATM   39  C26 UNL     1      -5.071  14.033  17.747  1.00  0.00    -0.045 A 
HETATM   40  C27 UNL     1      -5.831  13.984  18.843  1.00  0.00     0.087 A 
HETATM   41  C28 UNL     1      -6.332  15.336  19.087  1.00  0.00     0.283 A 
HETATM   42  O9  UNL     1      -7.054  15.658  20.011  1.00  0.00    -0.260 OA
HETATM   43  O10 UNL     1      -5.866  16.169  18.120  1.00  0.00    -0.314 OA
HETATM   44  C29 UNL     1      -5.056  15.424  17.211  1.00  0.00     0.213 A 
ENDBRANCH  18  39
TORSDOF 10
ENDMDL
MODEL 5
REMARK minimizedAffinity -7.20478249
REMARK CNNscore 0.381407142
REMARK CNNaffinity 5.80045652
REMARK  10 active torsions:
REMARK  status: ('A' for Active; 'I' for Inactive)
REMARK    1  A    between atoms: C9_9  and  O1_10 
REMARK    2  A    between atoms: C11_12  and  O2_13 
REMARK    3  A    between atoms: O2_13  and  C12_14 
REMARK    4  A    between atoms: C14_16  and  O3_17 
REMARK    5  A    between atoms: C15_18  and  O4_19 
REMARK    6  A    between atoms: C16_20  and  C17_21 
REMARK    7  A    between atoms: C17_21  and  O5_22 
REMARK    8  A    between atoms: C20_26  and  C21_27 
REMARK    9  A    between atoms: C22_29  and  O8_30 
REMARK   10  A    between atoms: C25_33  and  C26_34 
ROOT
HETATM    1  C1  UNL     1      -6.207  -9.841   5.519  1.00  0.00     0.019 C 
HETATM    2  C2  UNL     1      -6.475 -10.217   7.005  1.00  0.00    -0.005 C 
HETATM    3  C3  UNL     1      -7.922 -10.763   7.083  1.00  0.00     0.013 C 
HETATM    4  C4  UNL     1      -8.420 -11.101   8.494  1.00  0.00     0.007 C 
HETATM    5  C5  UNL     1      -7.908 -10.142   9.593  1.00  0.00     0.011 C 
HETATM    6  C6  UNL     1      -7.446  -8.795   8.981  1.00  0.00     0.026 C 
HETATM    7  C7  UNL     1      -7.187  -7.712  10.049  1.00  0.00     0.011 C 
HETATM    8  C8  UNL     1      -6.939  -8.304  11.427  1.00  0.00     0.039 C 
HETATM    9  C9  UNL     1      -8.146  -9.115  11.945  1.00  0.00     0.074 C 
HETATM   10  C10 UNL     1      -7.645 -10.023  13.093  1.00  0.00     0.071 C 
HETATM   11  C11 UNL     1      -8.776 -10.782  13.795  1.00  0.00     0.127 C 
HETATM   12  C18 UNL     1      -9.852 -11.252  12.809  1.00  0.00     0.033 C 
HETATM   13  C19 UNL     1      -9.337 -11.333  11.367  1.00  0.00     0.022 C 
HETATM   14  C20 UNL     1      -8.875  -9.949  10.816  1.00  0.00     0.048 C 
HETATM   15  C22 UNL     1      -6.306  -8.952   7.924  1.00  0.00     0.070 C 
HETATM   16  C23 UNL     1      -4.871  -9.076   8.447  1.00  0.00     0.040 C 
HETATM   17  C24 UNL     1      -4.614 -10.554   8.650  1.00  0.00     0.013 C 
HETATM   18  C25 UNL     1      -5.448 -11.281   7.568  1.00  0.00     0.028 C 
ENDROOT
BRANCH  11  19
HETATM   19  O2  UNL     1      -9.351  -9.893  14.762  1.00  0.00    -0.356 OA
BRANCH  19  20
HETATM   20  C12 UNL     1     -10.262 -10.522  15.661  1.00  0.00     0.263 C 
HETATM   21  C13 UNL     1      -9.918 -10.099  17.092  1.00  0.00     0.095 C 
HETATM   22  C14 UNL     1     -11.151  -9.615  17.825  1.00  0.00     0.154 C 
HETATM   23  C15 UNL     1     -11.792  -8.467  17.035  1.00  0.00     0.178 C 
HETATM   24  C16 UNL     1     -12.045  -8.870  15.567  1.00  0.00     0.179 C 
HETATM   25  O6  UNL     1     -11.607 -10.210  15.300  1.00  0.00    -0.351 OA
BRANCH  22  26
HETATM   26  O3  UNL     1     -10.792  -9.149  19.132  1.00  0.00    -0.393 OA
HETATM   27  H22 UNL     1     -11.504  -8.518  19.381  1.00  0.00     0.210 HD
ENDBRANCH  22  26
BRANCH  23  28
HETATM   28  O4  UNL     1     -13.010  -8.086  17.692  1.00  0.00    -0.390 OA
HETATM   29  H24 UNL     1     -13.637  -8.826  17.605  1.00  0.00     0.210 HD
ENDBRANCH  23  28
BRANCH  24  30
HETATM   30  C17 UNL     1     -11.460  -7.847  14.579  1.00  0.00     0.198 C 
BRANCH  30  31
HETATM   31  O5  UNL     1     -11.855  -8.119  13.237  1.00  0.00    -0.398 OA
HETATM   32  H28 UNL     1     -12.824  -8.058  13.175  1.00  0.00     0.209 HD
ENDBRANCH  30  31
ENDBRANCH  24  30
ENDBRANCH  19  20
ENDBRANCH  11  19
BRANCH   9  33
HETATM   33  O1  UNL     1      -9.066  -8.166  12.498  1.00  0.00    -0.389 OA
HETATM   34  H14 UNL     1      -8.759  -7.904  13.390  1.00  0.00     0.210 HD
ENDBRANCH   9  33
BRANCH  14  35
HETATM   35  C21 UNL     1     -10.168  -9.228  10.380  1.00  0.00     0.244 C 
HETATM   36  O7  UNL     1     -11.200  -9.793  10.023  1.00  0.00    -0.306 OA
ENDBRANCH  14  35
BRANCH  15  37
HETATM   37  O8  UNL     1      -6.341  -7.753   7.132  1.00  0.00    -0.389 OA
HETATM   38  H34 UNL     1      -6.162  -6.988   7.705  1.00  0.00     0.210 HD
ENDBRANCH  15  37
BRANCH  18  39
HETATM   39  C26 UNL     1      -4.640 -12.030   6.539  1.00  0.00    -0.045 A 
HETATM   40  C27 UNL     1      -5.002 -13.051   5.758  1.00  0.00     0.087 A 
HETATM   41  C28 UNL     1      -3.837 -13.419   4.955  1.00  0.00     0.283 A 
HETATM   42  O9  UNL     1      -3.811 -14.311   4.129  1.00  0.00    -0.260 OA
HETATM   43  O10 UNL     1      -2.793 -12.613   5.281  1.00  0.00    -0.314 OA
HETATM   44  C29 UNL     1      -3.209 -11.696   6.294  1.00  0.00     0.213 A 
ENDBRANCH  18  39
TORSDOF 10
ENDMDL
MODEL 6
REMARK minimizedAffinity -8.08894062
REMARK CNNscore 0.371591985
REMARK CNNaffinity 6.68674088
REMARK  10 active torsions:
REMARK  status: ('A' for Active; 'I' for Inactive)
REMARK    1  A    between atoms: C9_9  and  O1_10 
REMARK    2  A    between atoms: C11_12  and  O2_13 
REMARK    3  A    between atoms: O2_13  and  C12_14 
REMARK    4  A    between atoms: C14_16  and  O3_17 
REMARK    5  A    between atoms: C15_18  and  O4_19 
REMARK    6  A    between atoms: C16_20  and  C17_21 
REMARK    7  A    between atoms: C17_21  and  O5_22 
REMARK    8  A    between atoms: C20_26  and  C21_27 
REMARK    9  A    between atoms: C22_29  and  O8_30 
REMARK   10  A    between atoms: C25_33  and  C26_34 
ROOT
HETATM    1  C1  UNL     1     -12.956   8.612  15.932  1.00  0.00     0.019 C 
HETATM    2  C2  UNL     1     -11.605   8.408  15.186  1.00  0.00    -0.005 C 
HETATM    3  C3  UNL     1     -11.587   6.948  14.670  1.00  0.00     0.013 C 
HETATM    4  C4  UNL     1     -10.285   6.511  13.986  1.00  0.00     0.007 C 
HETATM    5  C5  UNL     1      -9.007   7.112  14.614  1.00  0.00     0.011 C 
HETATM    6  C6  UNL     1      -9.275   7.590  16.064  1.00  0.00     0.026 C 
HETATM    7  C7  UNL     1      -7.980   7.942  16.826  1.00  0.00     0.011 C 
HETATM    8  C8  UNL     1      -6.820   8.239  15.889  1.00  0.00     0.039 C 
HETATM    9  C9  UNL     1      -6.460   7.031  14.997  1.00  0.00     0.074 C 
HETATM   10  C10 UNL     1      -5.618   7.558  13.811  1.00  0.00     0.071 C 
HETATM   11  C11 UNL     1      -5.072   6.438  12.919  1.00  0.00     0.127 C 
HETATM   12  C18 UNL     1      -6.081   5.297  12.745  1.00  0.00     0.033 C 
HETATM   13  C19 UNL     1      -7.522   5.734  13.032  1.00  0.00     0.022 C 
HETATM   14  C20 UNL     1      -7.722   6.217  14.502  1.00  0.00     0.048 C 
HETATM   15  C22 UNL     1     -10.401   8.668  16.164  1.00  0.00     0.070 C 
HETATM   16  C23 UNL     1     -10.014  10.123  15.878  1.00  0.00     0.040 C 
HETATM   17  C24 UNL     1     -10.217  10.337  14.393  1.00  0.00     0.013 C 
HETATM   18  C25 UNL     1     -11.399   9.424  13.991  1.00  0.00     0.028 C 
ENDROOT
BRANCH  11  19
HETATM   19  O2  UNL     1      -3.875   5.945  13.537  1.00  0.00    -0.356 OA
BRANCH  19  20
HETATM   20  C12 UNL     1      -3.603   4.571  13.264  1.00  0.00     0.263 C 
HETATM   21  C13 UNL     1      -3.829   4.308  11.773  1.00  0.00     0.095 C 
HETATM   22  C14 UNL     1      -2.644   3.587  11.165  1.00  0.00     0.154 C 
HETATM   23  C15 UNL     1      -1.372   4.409  11.408  1.00  0.00     0.178 C 
HETATM   24  C16 UNL     1      -1.205   4.755  12.903  1.00  0.00     0.179 C 
HETATM   25  O6  UNL     1      -2.284   4.235  13.693  1.00  0.00    -0.351 OA
BRANCH  22  26
HETATM   26  O3  UNL     1      -2.841   3.424   9.755  1.00  0.00    -0.393 OA
HETATM   27  H22 UNL     1      -1.936   3.331   9.381  1.00  0.00     0.210 HD
ENDBRANCH  22  26
BRANCH  23  28
HETATM   28  O4  UNL     1      -0.248   3.667  10.912  1.00  0.00    -0.390 OA
HETATM   29  H24 UNL     1      -0.143   2.878  11.474  1.00  0.00     0.210 HD
ENDBRANCH  23  28
BRANCH  24  30
HETATM   30  C17 UNL     1      -0.977   6.258  13.126  1.00  0.00     0.198 C 
BRANCH  30  31
HETATM   31  O5  UNL     1      -0.129   6.508  14.244  1.00  0.00    -0.398 OA
HETATM   32  H28 UNL     1       0.742   6.106  14.074  1.00  0.00     0.209 HD
ENDBRANCH  30  31
ENDBRANCH  24  30
ENDBRANCH  19  20
ENDBRANCH  11  19
BRANCH   9  33
HETATM   33  O1  UNL     1      -5.627   6.175  15.788  1.00  0.00    -0.389 OA
HETATM   34  H14 UNL     1      -4.717   6.536  15.802  1.00  0.00     0.210 HD
ENDBRANCH   9  33
BRANCH  14  35
HETATM   35  C21 UNL     1      -7.879   4.929  15.339  1.00  0.00     0.244 C 
HETATM   36  O7  UNL     1      -7.538   3.807  14.970  1.00  0.00    -0.306 OA
ENDBRANCH  14  35
BRANCH  15  37
HETATM   37  O8  UNL     1     -10.852   8.636  17.529  1.00  0.00    -0.389 OA
HETATM   38  H34 UNL     1     -10.112   8.871  18.114  1.00  0.00     0.210 HD
ENDBRANCH  15  37
BRANCH  18  39
HETATM   39  C26 UNL     1     -12.633  10.151  13.519  1.00  0.00    -0.045 A 
HETATM   40  C27 UNL     1     -13.638   9.707  12.762  1.00  0.00     0.087 A 
HETATM   41  C28 UNL     1     -14.571  10.818  12.582  1.00  0.00     0.283 A 
HETATM   42  O9  UNL     1     -15.607  10.767  11.947  1.00  0.00    -0.260 OA
HETATM   43  O10 UNL     1     -14.096  11.914  13.232  1.00  0.00    -0.314 OA
HETATM   44  C29 UNL     1     -12.854  11.585  13.855  1.00  0.00     0.213 A 
ENDBRANCH  18  39
TORSDOF 10
ENDMDL
MODEL 7
REMARK minimizedAffinity -7.69556952
REMARK CNNscore 0.330022752
REMARK CNNaffinity 5.35873175
REMARK  10 active torsions:
REMARK  status: ('A' for Active; 'I' for Inactive)
REMARK    1  A    between atoms: C9_9  and  O1_10 
REMARK    2  A    between atoms: C11_12  and  O2_13 
REMARK    3  A    between atoms: O2_13  and  C12_14 
REMARK    4  A    between atoms: C14_16  and  O3_17 
REMARK    5  A    between atoms: C15_18  and  O4_19 
REMARK    6  A    between atoms: C16_20  and  C17_21 
REMARK    7  A    between atoms: C17_21  and  O5_22 
REMARK    8  A    between atoms: C20_26  and  C21_27 
REMARK    9  A    between atoms: C22_29  and  O8_30 
REMARK   10  A    between atoms: C25_33  and  C26_34 
ROOT
HETATM    1  C1  UNL     1       8.229  12.923  23.191  1.00  0.00     0.019 C 
HETATM    2  C2  UNL     1       6.852  13.093  22.487  1.00  0.00    -0.005 C 
HETATM    3  C3  UNL     1       5.847  12.174  23.225  1.00  0.00     0.013 C 
HETATM    4  C4  UNL     1       4.439  12.119  22.617  1.00  0.00     0.007 C 
HETATM    5  C5  UNL     1       4.413  12.192  21.073  1.00  0.00     0.011 C 
HETATM    6  C6  UNL     1       5.786  11.792  20.477  1.00  0.00     0.026 C 
HETATM    7  C7  UNL     1       5.736  11.581  18.949  1.00  0.00     0.011 C 
HETATM    8  C8  UNL     1       4.550  12.284  18.307  1.00  0.00     0.039 C 
HETATM    9  C9  UNL     1       3.198  11.763  18.841  1.00  0.00     0.074 C 
HETATM   10  C10 UNL     1       2.118  12.814  18.489  1.00  0.00     0.071 C 
HETATM   11  C11 UNL     1       0.699  12.355  18.839  1.00  0.00     0.127 C 
HETATM   12  C18 UNL     1       0.656  11.567  20.153  1.00  0.00     0.033 C 
HETATM   13  C19 UNL     1       1.865  11.851  21.052  1.00  0.00     0.022 C 
HETATM   14  C20 UNL     1       3.216  11.439  20.389  1.00  0.00     0.048 C 
HETATM   15  C22 UNL     1       6.964  12.692  20.970  1.00  0.00     0.070 C 
HETATM   16  C23 UNL     1       7.174  14.033  20.259  1.00  0.00     0.040 C 
HETATM   17  C24 UNL     1       6.344  15.052  21.009  1.00  0.00     0.013 C 
HETATM   18  C25 UNL     1       6.338  14.590  22.485  1.00  0.00     0.028 C 
ENDROOT
BRANCH  11  19
HETATM   19  O2  UNL     1       0.237  11.532  17.758  1.00  0.00    -0.356 OA
BRANCH  19  20
HETATM   20  C12 UNL     1      -0.397  12.256  16.706  1.00  0.00     0.263 C 
HETATM   21  C13 UNL     1      -0.210  11.489  15.394  1.00  0.00     0.095 C 
HETATM   22  C14 UNL     1      -1.529  11.322  14.670  1.00  0.00     0.154 C 
HETATM   23  C15 UNL     1      -2.530  10.621  15.597  1.00  0.00     0.178 C 
HETATM   24  C16 UNL     1      -2.639  11.345  16.956  1.00  0.00     0.179 C 
HETATM   25  O6  UNL     1      -1.770  12.485  17.022  1.00  0.00    -0.351 OA
BRANCH  22  26
HETATM   26  O3  UNL     1      -1.343  10.534  13.488  1.00  0.00    -0.393 OA
HETATM   27  H22 UNL     1      -2.227  10.144  13.302  1.00  0.00     0.210 HD
ENDBRANCH  22  26
BRANCH  23  28
HETATM   28  O4  UNL     1      -3.801  10.558  14.933  1.00  0.00    -0.390 OA
HETATM   29  H24 UNL     1      -4.137  11.468  14.851  1.00  0.00     0.210 HD
ENDBRANCH  23  28
BRANCH  24  30
HETATM   30  C17 UNL     1      -2.446  10.383  18.140  1.00  0.00     0.198 C 
BRANCH  30  31
HETATM   31  O5  UNL     1      -2.730   9.034  17.779  1.00  0.00    -0.398 OA
HETATM   32  H28 UNL     1      -2.112   8.758  17.080  1.00  0.00     0.209 HD
ENDBRANCH  30  31
ENDBRANCH  24  30
ENDBRANCH  19  20
ENDBRANCH  11  19
BRANCH   9  33
HETATM   33  O1  UNL     1       2.906  10.565  18.112  1.00  0.00    -0.389 OA
HETATM   34  H14 UNL     1       2.556  10.804  17.230  1.00  0.00     0.210 HD
ENDBRANCH   9  33
BRANCH  14  35
HETATM   35  C21 UNL     1       3.332   9.916  20.607  1.00  0.00     0.244 C 
HETATM   36  O7  UNL     1       2.459   9.210  21.108  1.00  0.00    -0.306 OA
ENDBRANCH  14  35
BRANCH  15  37
HETATM   37  O8  UNL     1       8.160  11.928  20.745  1.00  0.00    -0.389 OA
HETATM   38  H34 UNL     1       8.251  11.752  19.793  1.00  0.00     0.210 HD
ENDBRANCH  15  37
BRANCH  18  39
HETATM   39  C26 UNL     1       7.024  15.526  23.447  1.00  0.00    -0.045 A 
HETATM   40  C27 UNL     1       6.604  16.695  23.936  1.00  0.00     0.087 A 
HETATM   41  C28 UNL     1       7.657  17.205  24.813  1.00  0.00     0.283 A 
HETATM   42  O9  UNL     1       7.607  18.251  25.431  1.00  0.00    -0.260 OA
HETATM   43  O10 UNL     1       8.697  16.329  24.823  1.00  0.00    -0.314 OA
HETATM   44  C29 UNL     1       8.387  15.226  23.970  1.00  0.00     0.213 A 
ENDBRANCH  18  39
TORSDOF 10
ENDMDL
MODEL 8
REMARK minimizedAffinity -7.48175097
REMARK CNNscore 0.323933929
REMARK CNNaffinity 6.1075263
REMARK  10 active torsions:
REMARK  status: ('A' for Active; 'I' for Inactive)
REMARK    1  A    between atoms: C9_9  and  O1_10 
REMARK    2  A    between atoms: C11_12  and  O2_13 
REMARK    3  A    between atoms: O2_13  and  C12_14 
REMARK    4  A    between atoms: C14_16  and  O3_17 
REMARK    5  A    between atoms: C15_18  and  O4_19 
REMARK    6  A    between atoms: C16_20  and  C17_21 
REMARK    7  A    between atoms: C17_21  and  O5_22 
REMARK    8  A    between atoms: C20_26  and  C21_27 
REMARK    9  A    between atoms: C22_29  and  O8_30 
REMARK   10  A    between atoms: C25_33  and  C26_34 
ROOT
HETATM    1  C1  UNL     1       1.828   6.475  12.106  1.00  0.00     0.019 C 
HETATM    2  C2  UNL     1       1.105   7.726  12.684  1.00  0.00    -0.005 C 
HETATM    3  C3  UNL     1       2.184   8.596  13.376  1.00  0.00     0.013 C 
HETATM    4  C4  UNL     1       1.657   9.839  14.103  1.00  0.00     0.007 C 
HETATM    5  C5  UNL     1       0.287   9.637  14.790  1.00  0.00     0.011 C 
HETATM    6  C6  UNL     1       0.003   8.132  15.027  1.00  0.00     0.026 C 
HETATM    7  C7  UNL     1      -1.211   7.891  15.949  1.00  0.00     0.011 C 
HETATM    8  C8  UNL     1      -2.145   9.090  16.001  1.00  0.00     0.039 C 
HETATM    9  C9  UNL     1      -1.450  10.353  16.554  1.00  0.00     0.074 C 
HETATM   10  C10 UNL     1      -2.307  11.576  16.148  1.00  0.00     0.071 C 
HETATM   11  C11 UNL     1      -1.804  12.889  16.757  1.00  0.00     0.127 C 
HETATM   12  C18 UNL     1      -0.273  12.957  16.795  1.00  0.00     0.033 C 
HETATM   13  C19 UNL     1       0.385  12.002  15.792  1.00  0.00     0.022 C 
HETATM   14  C20 UNL     1       0.049  10.506  16.077  1.00  0.00     0.048 C 
HETATM   15  C22 UNL     1       0.000   7.286  13.714  1.00  0.00     0.070 C 
HETATM   16  C23 UNL     1      -1.285   7.280  12.880  1.00  0.00     0.040 C 
HETATM   17  C24 UNL     1      -1.169   8.430  11.903  1.00  0.00     0.013 C 
HETATM   18  C25 UNL     1       0.338   8.562  11.582  1.00  0.00     0.028 C 
ENDROOT
BRANCH  11  19
HETATM   19  O2  UNL     1      -2.332  12.973  18.088  1.00  0.00    -0.356 OA
BRANCH  19  20
HETATM   20  C12 UNL     1      -3.714  13.324  18.145  1.00  0.00     0.263 C 
HETATM   21  C13 UNL     1      -4.343  12.664  19.375  1.00  0.00     0.095 C 
HETATM   22  C14 UNL     1      -5.123  13.672  20.192  1.00  0.00     0.154 C 
HETATM   23  C15 UNL     1      -4.198  14.831  20.582  1.00  0.00     0.178 C 
HETATM   24  C16 UNL     1      -3.491  15.427  19.345  1.00  0.00     0.179 C 
HETATM   25  O6  UNL     1      -3.863  14.743  18.140  1.00  0.00    -0.351 OA
BRANCH  22  26
HETATM   26  O3  UNL     1      -5.633  13.052  21.378  1.00  0.00    -0.393 OA
HETATM   27  H22 UNL     1      -5.763  13.790  22.015  1.00  0.00     0.210 HD
ENDBRANCH  22  26
BRANCH  23  28
HETATM   28  O4  UNL     1      -4.975  15.823  21.271  1.00  0.00    -0.390 OA
HETATM   29  H24 UNL     1      -5.597  16.209  20.629  1.00  0.00     0.210 HD
ENDBRANCH  23  28
BRANCH  24  30
HETATM   30  C17 UNL     1      -1.968  15.510  19.535  1.00  0.00     0.198 C 
BRANCH  30  31
HETATM   31  O5  UNL     1      -1.581  15.190  20.869  1.00  0.00    -0.398 OA
HETATM   32  H28 UNL     1      -1.846  14.274  21.063  1.00  0.00     0.209 HD
ENDBRANCH  30  31
ENDBRANCH  24  30
ENDBRANCH  19  20
ENDBRANCH  11  19
BRANCH   9  33
HETATM   33  O1  UNL     1      -1.482  10.243  17.982  1.00  0.00    -0.389 OA
HETATM   34  H14 UNL     1      -2.372  10.495  18.303  1.00  0.00     0.210 HD
ENDBRANCH   9  33
BRANCH  14  35
HETATM   35  C21 UNL     1       1.008  10.079  17.208  1.00  0.00     0.244 C 
HETATM   36  O7  UNL     1       1.820   9.158  17.130  1.00  0.00    -0.306 OA
ENDBRANCH  14  35
BRANCH  15  37
HETATM   37  O8  UNL     1       0.216   5.926  14.126  1.00  0.00    -0.389 OA
HETATM   38  H34 UNL     1      -0.515   5.648  14.703  1.00  0.00     0.210 HD
ENDBRANCH  15  37
BRANCH  18  39
HETATM   39  C26 UNL     1       0.712   8.270  10.151  1.00  0.00    -0.045 A 
HETATM   40  C27 UNL     1       1.885   7.882   9.645  1.00  0.00     0.087 A 
HETATM   41  C28 UNL     1       1.715   7.758   8.198  1.00  0.00     0.283 A 
HETATM   42  O9  UNL     1       2.584   7.417   7.418  1.00  0.00    -0.260 OA
HETATM   43  O10 UNL     1       0.439   8.086   7.865  1.00  0.00    -0.314 OA
HETATM   44  C29 UNL     1      -0.278   8.437   9.049  1.00  0.00     0.213 A 
ENDBRANCH  18  39
TORSDOF 10
ENDMDL
MODEL 9
REMARK minimizedAffinity -7.23928404
REMARK CNNscore 0.312393427
REMARK CNNaffinity 5.42691183
REMARK  10 active torsions:
REMARK  status: ('A' for Active; 'I' for Inactive)
REMARK    1  A    between atoms: C9_9  and  O1_10 
REMARK    2  A    between atoms: C11_12  and  O2_13 
REMARK    3  A    between atoms: O2_13  and  C12_14 
REMARK    4  A    between atoms: C14_16  and  O3_17 
REMARK    5  A    between atoms: C15_18  and  O4_19 
REMARK    6  A    between atoms: C16_20  and  C17_21 
REMARK    7  A    between atoms: C17_21  and  O5_22 
REMARK    8  A    between atoms: C20_26  and  C21_27 
REMARK    9  A    between atoms: C22_29  and  O8_30 
REMARK   10  A    between atoms: C25_33  and  C26_34 
ROOT
HETATM    1  C1  UNL     1     -17.753   7.771  14.399  1.00  0.00     0.019 C 
HETATM    2  C2  UNL     1     -17.186   6.388  13.965  1.00  0.00    -0.005 C 
HETATM    3  C3  UNL     1     -18.246   5.731  13.046  1.00  0.00     0.013 C 
HETATM    4  C4  UNL     1     -17.920   4.304  12.586  1.00  0.00     0.007 C 
HETATM    5  C5  UNL     1     -17.196   3.446  13.648  1.00  0.00     0.011 C 
HETATM    6  C6  UNL     1     -17.416   4.023  15.069  1.00  0.00     0.026 C 
HETATM    7  C7  UNL     1     -16.951   3.060  16.183  1.00  0.00     0.011 C 
HETATM    8  C8  UNL     1     -15.947   2.035  15.680  1.00  0.00     0.039 C 
HETATM    9  C9  UNL     1     -16.532   1.134  14.572  1.00  0.00     0.074 C 
HETATM   10  C10 UNL     1     -15.346   0.467  13.834  1.00  0.00     0.071 C 
HETATM   11  C11 UNL     1     -15.791  -0.569  12.797  1.00  0.00     0.127 C 
HETATM   12  C18 UNL     1     -17.056  -0.130  12.051  1.00  0.00     0.033 C 
HETATM   13  C19 UNL     1     -17.283   1.386  12.113  1.00  0.00     0.022 C 
HETATM   14  C20 UNL     1     -17.484   1.904  13.571  1.00  0.00     0.048 C 
HETATM   15  C22 UNL     1     -16.912   5.493  15.228  1.00  0.00     0.070 C 
HETATM   16  C23 UNL     1     -15.418   5.702  15.499  1.00  0.00     0.040 C 
HETATM   17  C24 UNL     1     -14.750   5.830  14.147  1.00  0.00     0.013 C 
HETATM   18  C25 UNL     1     -15.794   6.496  13.220  1.00  0.00     0.028 C 
ENDROOT
BRANCH  11  19
HETATM   19  O2  UNL     1     -16.035  -1.797  13.496  1.00  0.00    -0.356 OA
BRANCH  19  20
HETATM   20  C12 UNL     1     -16.136  -2.940  12.647  1.00  0.00     0.263 C 
HETATM   21  C13 UNL     1     -15.198  -2.753  11.452  1.00  0.00     0.095 C 
HETATM   22  C14 UNL     1     -14.327  -3.975  11.251  1.00  0.00     0.154 C 
HETATM   23  C15 UNL     1     -13.549  -4.260  12.542  1.00  0.00     0.178 C 
HETATM   24  C16 UNL     1     -14.494  -4.347  13.759  1.00  0.00     0.179 C 
HETATM   25  O6  UNL     1     -15.862  -4.129  13.387  1.00  0.00    -0.351 OA
BRANCH  22  26
HETATM   26  O3  UNL     1     -13.402  -3.748  10.180  1.00  0.00    -0.393 OA
HETATM   27  H22 UNL     1     -12.654  -4.361  10.356  1.00  0.00     0.210 HD
ENDBRANCH  22  26
BRANCH  23  28
HETATM   28  O4  UNL     1     -12.804  -5.475  12.367  1.00  0.00    -0.390 OA
HETATM   29  H24 UNL     1     -13.443  -6.206  12.298  1.00  0.00     0.210 HD
ENDBRANCH  23  28
BRANCH  24  30
HETATM   30  C17 UNL     1     -14.039  -3.435  14.910  1.00  0.00     0.198 C 
BRANCH  30  31
HETATM   31  O5  UNL     1     -15.050  -3.288  15.903  1.00  0.00    -0.398 OA
HETATM   32  H28 UNL     1     -15.244  -4.161  16.287  1.00  0.00     0.209 HD
ENDBRANCH  30  31
ENDBRANCH  24  30
ENDBRANCH  19  20
ENDBRANCH  11  19
BRANCH   9  33
HETATM   33  O1  UNL     1     -17.278   0.105  15.234  1.00  0.00    -0.389 OA
HETATM   34  H14 UNL     1     -16.658  -0.574  15.570  1.00  0.00     0.210 HD
ENDBRANCH   9  33
BRANCH  14  35
HETATM   35  C21 UNL     1     -18.959   1.606  13.913  1.00  0.00     0.244 C 
HETATM   36  O7  UNL     1     -19.847   1.415  13.083  1.00  0.00    -0.306 OA
ENDBRANCH  14  35
BRANCH  15  37
HETATM   37  O8  UNL     1     -17.603   6.021  16.372  1.00  0.00    -0.389 OA
HETATM   38  H34 UNL     1     -17.364   5.499  17.158  1.00  0.00     0.210 HD
ENDBRANCH  15  37
BRANCH  18  39
HETATM   39  C26 UNL     1     -15.417   7.867  12.719  1.00  0.00    -0.045 A 
HETATM   40  C27 UNL     1     -14.539   8.739  13.220  1.00  0.00     0.087 A 
HETATM   41  C28 UNL     1     -14.568   9.925  12.365  1.00  0.00     0.283 A 
HETATM   42  O9  UNL     1     -13.887  10.920  12.526  1.00  0.00    -0.260 OA
HETATM   43  O10 UNL     1     -15.475   9.741  11.370  1.00  0.00    -0.314 OA
HETATM   44  C29 UNL     1     -16.077   8.454  11.518  1.00  0.00     0.213 A 
ENDBRANCH  18  39
TORSDOF 10
ENDMDL
