MODEL 1
REMARK minimizedAffinity -9.19229221
REMARK CNNscore 0.658565283
REMARK CNNaffinity 6.50799513
REMARK  13 active torsions:
REMARK  status: ('A' for Active; 'I' for Inactive)
REMARK    1  A    between atoms: C19_21  and  O3_22 
REMARK    2  A    between atoms: C19_21  and  C20_23 
REMARK    3  A    between atoms: C20_23  and  C21_25 
REMARK    4  A    between atoms: C21_25  and  O5_26 
REMARK    5  A    between atoms: O5_26  and  C22_27 
REMARK    6  A    between atoms: C22_27  and  C23_29 
REMARK    7  A    between atoms: C23_29  and  C24_30 
REMARK    8  A    between atoms: C24_30  and  C25_31 
REMARK       I    between atoms: C25_31  and  N1_33 
REMARK    9  A    between atoms: N1_33  and  C26_34 
REMARK   10  A    between atoms: C26_34  and  C27_35 
REMARK   11  A    between atoms: C26_34  and  C34_42 
REMARK   12  A    between atoms: C27_35  and  C28_36 
REMARK   13  A    between atoms: C34_42  and  O9_44 
ROOT
HETATM    1  C20 UNL     1       3.781  66.264 -36.419  1.00  0.00     0.185 C 
HETATM    2  O4  UNL     1       4.589  66.298 -37.352  1.00  0.00    -0.292 OA
ENDROOT
BRANCH   1   3
HETATM    3  C19 UNL     1       2.404  66.958 -36.533  1.00  0.00     0.128 C 
HETATM    4  C14 UNL     1       2.079  67.438 -37.985  1.00  0.00     0.005 C 
HETATM    5  C13 UNL     1       1.651  66.349 -38.977  1.00  0.00     0.091 C 
HETATM    6  C15 UNL     1       3.273  68.233 -38.586  1.00  0.00     0.019 C 
HETATM    7  C16 UNL     1       0.839  68.324 -37.704  1.00  0.00     0.002 C 
HETATM    8  C12 UNL     1       1.077  66.997 -40.231  1.00  0.00     0.133 C 
HETATM    9  C11 UNL     1      -0.084  67.993 -40.025  1.00  0.00     0.072 C 
HETATM   10  O2  UNL     1       1.504  66.681 -41.339  1.00  0.00    -0.297 OA
HETATM   11  C2  UNL     1      -0.669  68.635 -41.335  1.00  0.00    -0.009 C 
HETATM   12  C10 UNL     1       0.309  69.047 -38.948  1.00  0.00     0.003 C 
HETATM   13  C1  UNL     1       0.397  69.412 -42.140  1.00  0.00     0.021 C 
HETATM   14  C3  UNL     1      -1.274  67.503 -42.221  1.00  0.00     0.022 C 
HETATM   15  C7  UNL     1      -1.777  69.632 -40.947  1.00  0.00    -0.067 C 
HETATM   16  C4  UNL     1      -2.207  68.007 -43.312  1.00  0.00     0.084 C 
HETATM   17  C5  UNL     1      -3.308  68.838 -42.716  1.00  0.00     0.149 C 
HETATM   18  O1  UNL     1      -4.433  68.898 -43.207  1.00  0.00    -0.293 OA
HETATM   19  C6  UNL     1      -2.980  69.686 -41.545  1.00  0.00     0.053 C 
HETATM   20  C8  UNL     1      -1.453  70.616 -39.847  1.00  0.00     0.035 C 
HETATM   21  C9  UNL     1      -0.902  69.925 -38.606  1.00  0.00     0.010 C 
HETATM   22  C17 UNL     1       1.266  69.166 -36.508  1.00  0.00     0.009 C 
HETATM   23  C18 UNL     1       2.217  68.256 -35.706  1.00  0.00     0.047 C 
BRANCH   3  24
HETATM   24  O3  UNL     1       1.386  66.035 -36.118  1.00  0.00    -0.381 OA
HETATM   25  H25 UNL     1       1.759  65.449 -35.423  1.00  0.00     0.211 HD
ENDBRANCH   3  24
ENDBRANCH   1   3
BRANCH   1  26
HETATM   26  C21 UNL     1       4.150  65.525 -35.127  1.00  0.00     0.260 C 
BRANCH  26  27
HETATM   27  O5  UNL     1       5.231  64.603 -35.087  1.00  0.00    -0.314 OA
BRANCH  27  28
HETATM   28  C22 UNL     1       5.527  64.079 -33.871  1.00  0.00     0.259 C 
HETATM   29  O6  UNL     1       5.968  64.737 -32.936  1.00  0.00    -0.265 OA
BRANCH  28  30
HETATM   30  C23 UNL     1       5.304  62.586 -33.795  1.00  0.00     0.120 C 
BRANCH  30  31
HETATM   31  C24 UNL     1       5.849  61.790 -34.975  1.00  0.00     0.112 C 
BRANCH  31  32
HETATM   32  C25 UNL     1       7.298  61.389 -34.774  1.00  0.00     0.218 C 
HETATM   33  O7  UNL     1       7.645  60.270 -34.421  1.00  0.00    -0.274 OA
HETATM   34  N1  UNL     1       8.180  62.412 -35.041  1.00  0.00    -0.346 N 
HETATM   35  H32 UNL     1       7.815  63.356 -34.962  1.00  0.00     0.163 HD
BRANCH  34  36
HETATM   36  C26 UNL     1       9.614  62.261 -34.744  1.00  0.00     0.186 C 
BRANCH  36  37
HETATM   37  C27 UNL     1      10.419  63.314 -35.515  1.00  0.00     0.074 C 
BRANCH  37  38
HETATM   38  C28 UNL     1      11.684  62.780 -36.141  1.00  0.00    -0.056 A 
HETATM   39  C29 UNL     1      12.937  63.123 -35.616  1.00  0.00     0.007 A 
HETATM   40  C30 UNL     1      14.106  62.624 -36.197  1.00  0.00     0.001 A 
HETATM   41  C31 UNL     1      14.033  61.780 -37.302  1.00  0.00     0.000 A 
HETATM   42  C32 UNL     1      12.791  61.432 -37.830  1.00  0.00     0.001 A 
HETATM   43  C33 UNL     1      11.621  61.930 -37.254  1.00  0.00     0.007 A 
ENDBRANCH  37  38
ENDBRANCH  36  37
BRANCH  36  44
HETATM   44  C34 UNL     1       9.780  62.471 -33.242  1.00  0.00     0.163 C 
HETATM   45  O8  UNL     1       9.858  63.557 -32.681  1.00  0.00    -0.648 OA
BRANCH  44  46
HETATM   46  O9  UNL     1       9.850  61.326 -32.538  1.00  0.00    -0.775 OA
HETATM   47  H41 UNL     1       9.946  61.603 -31.603  1.00  0.00     0.167 HD
ENDBRANCH  44  46
ENDBRANCH  36  44
ENDBRANCH  34  36
ENDBRANCH  31  32
ENDBRANCH  30  31
ENDBRANCH  28  30
ENDBRANCH  27  28
ENDBRANCH  26  27
ENDBRANCH   1  26
TORSDOF 13
ENDMDL
MODEL 2
REMARK minimizedAffinity -8.98470592
REMARK CNNscore 0.657704592
REMARK CNNaffinity 6.41377449
REMARK  13 active torsions:
REMARK  status: ('A' for Active; 'I' for Inactive)
REMARK    1  A    between atoms: C19_21  and  O3_22 
REMARK    2  A    between atoms: C19_21  and  C20_23 
REMARK    3  A    between atoms: C20_23  and  C21_25 
REMARK    4  A    between atoms: C21_25  and  O5_26 
REMARK    5  A    between atoms: O5_26  and  C22_27 
REMARK    6  A    between atoms: C22_27  and  C23_29 
REMARK    7  A    between atoms: C23_29  and  C24_30 
REMARK    8  A    between atoms: C24_30  and  C25_31 
REMARK       I    between atoms: C25_31  and  N1_33 
REMARK    9  A    between atoms: N1_33  and  C26_34 
REMARK   10  A    between atoms: C26_34  and  C27_35 
REMARK   11  A    between atoms: C26_34  and  C34_42 
REMARK   12  A    between atoms: C27_35  and  C28_36 
REMARK   13  A    between atoms: C34_42  and  O9_44 
ROOT
HETATM    1  C20 UNL     1      -8.639  48.031 -28.124  1.00  0.00     0.185 C 
HETATM    2  O4  UNL     1      -8.611  48.756 -27.124  1.00  0.00    -0.292 OA
ENDROOT
BRANCH   1   3
HETATM    3  C19 UNL     1      -9.982  47.546 -28.717  1.00  0.00     0.128 C 
HETATM    4  C14 UNL     1     -10.930  46.913 -27.648  1.00  0.00     0.005 C 
HETATM    5  C13 UNL     1     -11.656  47.897 -26.720  1.00  0.00     0.091 C 
HETATM    6  C15 UNL     1     -10.171  45.865 -26.785  1.00  0.00     0.019 C 
HETATM    7  C16 UNL     1     -11.996  46.279 -28.577  1.00  0.00     0.002 C 
HETATM    8  C12 UNL     1     -12.757  47.166 -25.963  1.00  0.00     0.133 C 
HETATM    9  C11 UNL     1     -13.792  46.401 -26.813  1.00  0.00     0.072 C 
HETATM   10  O2  UNL     1     -12.820  47.247 -24.738  1.00  0.00    -0.297 OA
HETATM   11  C2  UNL     1     -14.927  45.670 -26.008  1.00  0.00    -0.009 C 
HETATM   12  C10 UNL     1     -13.059  45.469 -27.823  1.00  0.00     0.003 C 
HETATM   13  C1  UNL     1     -14.369  44.629 -25.011  1.00  0.00     0.021 C 
HETATM   14  C3  UNL     1     -15.763  46.738 -25.239  1.00  0.00     0.022 C 
HETATM   15  C7  UNL     1     -15.836  44.921 -27.001  1.00  0.00    -0.067 C 
HETATM   16  C4  UNL     1     -17.108  46.227 -24.742  1.00  0.00     0.084 C 
HETATM   17  C5  UNL     1     -17.910  45.671 -25.885  1.00  0.00     0.149 C 
HETATM   18  O1  UNL     1     -19.138  45.712 -25.914  1.00  0.00    -0.293 OA
HETATM   19  C6  UNL     1     -17.180  44.965 -26.965  1.00  0.00     0.053 C 
HETATM   20  C8  UNL     1     -15.151  44.072 -28.046  1.00  0.00     0.035 C 
HETATM   21  C9  UNL     1     -14.073  44.846 -28.793  1.00  0.00     0.010 C 
HETATM   22  C17 UNL     1     -11.166  45.566 -29.638  1.00  0.00     0.009 C 
HETATM   23  C18 UNL     1      -9.898  46.429 -29.787  1.00  0.00     0.047 C 
BRANCH   3  24
HETATM   24  O3  UNL     1     -10.651  48.665 -29.317  1.00  0.00    -0.381 OA
HETATM   25  H25 UNL     1      -9.975  49.283 -29.671  1.00  0.00     0.211 HD
ENDBRANCH   3  24
ENDBRANCH   1   3
BRANCH   1  26
HETATM   26  C21 UNL     1      -7.323  47.605 -28.784  1.00  0.00     0.260 C 
BRANCH  26  27
HETATM   27  O5  UNL     1      -6.197  47.220 -28.006  1.00  0.00    -0.314 OA
BRANCH  27  28
HETATM   28  C22 UNL     1      -5.073  47.962 -28.172  1.00  0.00     0.259 C 
HETATM   29  O6  UNL     1      -4.475  48.061 -29.237  1.00  0.00    -0.265 OA
BRANCH  28  30
HETATM   30  C23 UNL     1      -4.597  48.618 -26.896  1.00  0.00     0.120 C 
BRANCH  30  31
HETATM   31  C24 UNL     1      -3.133  48.373 -26.550  1.00  0.00     0.112 C 
BRANCH  31  32
HETATM   32  C25 UNL     1      -2.457  49.619 -26.011  1.00  0.00     0.218 C 
HETATM   33  O7  UNL     1      -1.434  50.093 -26.489  1.00  0.00    -0.274 OA
HETATM   34  N1  UNL     1      -3.120  50.167 -24.935  1.00  0.00    -0.346 N 
HETATM   35  H32 UNL     1      -3.706  49.537 -24.397  1.00  0.00     0.163 HD
BRANCH  34  36
HETATM   36  C26 UNL     1      -2.526  51.281 -24.177  1.00  0.00     0.186 C 
BRANCH  36  37
HETATM   37  C27 UNL     1      -1.101  50.916 -23.747  1.00  0.00     0.074 C 
BRANCH  37  38
HETATM   38  C28 UNL     1      -0.898  50.901 -22.252  1.00  0.00    -0.056 A 
HETATM   39  C29 UNL     1      -0.744  52.099 -21.542  1.00  0.00     0.007 A 
HETATM   40  C30 UNL     1      -0.560  52.081 -20.157  1.00  0.00     0.001 A 
HETATM   41  C31 UNL     1      -0.527  50.869 -19.472  1.00  0.00     0.000 A 
HETATM   42  C32 UNL     1      -0.680  49.672 -20.169  1.00  0.00     0.001 A 
HETATM   43  C33 UNL     1      -0.864  49.686 -21.553  1.00  0.00     0.007 A 
ENDBRANCH  37  38
ENDBRANCH  36  37
BRANCH  36  44
HETATM   44  C34 UNL     1      -2.499  52.487 -25.111  1.00  0.00     0.163 C 
HETATM   45  O8  UNL     1      -3.386  52.797 -25.896  1.00  0.00    -0.648 OA
BRANCH  44  46
HETATM   46  O9  UNL     1      -1.373  53.219 -25.020  1.00  0.00    -0.775 OA
HETATM   47  H41 UNL     1      -1.491  53.954 -25.658  1.00  0.00     0.167 HD
ENDBRANCH  44  46
ENDBRANCH  36  44
ENDBRANCH  34  36
ENDBRANCH  31  32
ENDBRANCH  30  31
ENDBRANCH  28  30
ENDBRANCH  27  28
ENDBRANCH  26  27
ENDBRANCH   1  26
TORSDOF 13
ENDMDL
MODEL 3
REMARK minimizedAffinity -9.06075668
REMARK CNNscore 0.614512682
REMARK CNNaffinity 6.81967974
REMARK  13 active torsions:
REMARK  status: ('A' for Active; 'I' for Inactive)
REMARK    1  A    between atoms: C19_21  and  O3_22 
REMARK    2  A    between atoms: C19_21  and  C20_23 
REMARK    3  A    between atoms: C20_23  and  C21_25 
REMARK    4  A    between atoms: C21_25  and  O5_26 
REMARK    5  A    between atoms: O5_26  and  C22_27 
REMARK    6  A    between atoms: C22_27  and  C23_29 
REMARK    7  A    between atoms: C23_29  and  C24_30 
REMARK    8  A    between atoms: C24_30  and  C25_31 
REMARK       I    between atoms: C25_31  and  N1_33 
REMARK    9  A    between atoms: N1_33  and  C26_34 
REMARK   10  A    between atoms: C26_34  and  C27_35 
REMARK   11  A    between atoms: C26_34  and  C34_42 
REMARK   12  A    between atoms: C27_35  and  C28_36 
REMARK   13  A    between atoms: C34_42  and  O9_44 
ROOT
HETATM    1  C20 UNL     1      -1.954  49.851 -17.397  1.00  0.00     0.185 C 
HETATM    2  O4  UNL     1      -2.934  49.761 -16.651  1.00  0.00    -0.292 OA
ENDROOT
BRANCH   1   3
HETATM    3  C19 UNL     1      -1.961  49.205 -18.801  1.00  0.00     0.128 C 
HETATM    4  C14 UNL     1      -1.904  50.255 -19.959  1.00  0.00     0.005 C 
HETATM    5  C13 UNL     1      -0.535  50.896 -20.223  1.00  0.00     0.091 C 
HETATM    6  C15 UNL     1      -2.959  51.377 -19.741  1.00  0.00     0.019 C 
HETATM    7  C16 UNL     1      -2.229  49.340 -21.167  1.00  0.00     0.002 C 
HETATM    8  C12 UNL     1      -0.569  51.642 -21.551  1.00  0.00     0.133 C 
HETATM    9  C11 UNL     1      -1.006  50.831 -22.789  1.00  0.00     0.072 C 
HETATM   10  O2  UNL     1      -0.208  52.816 -21.607  1.00  0.00    -0.297 OA
HETATM   11  C2  UNL     1      -1.016  51.620 -24.148  1.00  0.00    -0.009 C 
HETATM   12  C10 UNL     1      -2.350  50.101 -22.494  1.00  0.00     0.003 C 
HETATM   13  C1  UNL     1      -1.954  52.848 -24.114  1.00  0.00     0.021 C 
HETATM   14  C3  UNL     1       0.438  52.078 -24.472  1.00  0.00     0.022 C 
HETATM   15  C7  UNL     1      -1.520  50.682 -25.262  1.00  0.00    -0.067 C 
HETATM   16  C4  UNL     1       0.644  52.500 -25.920  1.00  0.00     0.084 C 
HETATM   17  C5  UNL     1       0.233  51.393 -26.851  1.00  0.00     0.149 C 
HETATM   18  O1  UNL     1       0.767  51.215 -27.943  1.00  0.00    -0.293 OA
HETATM   19  C6  UNL     1      -0.923  50.553 -26.460  1.00  0.00     0.053 C 
HETATM   20  C8  UNL     1      -2.778  49.896 -24.974  1.00  0.00     0.035 C 
HETATM   21  C9  UNL     1      -2.694  49.150 -23.648  1.00  0.00     0.010 C 
HETATM   22  C17 UNL     1      -3.428  48.531 -20.689  1.00  0.00     0.009 C 
HETATM   23  C18 UNL     1      -3.216  48.374 -19.170  1.00  0.00     0.047 C 
BRANCH   3  24
HETATM   24  O3  UNL     1      -0.824  48.337 -18.915  1.00  0.00    -0.381 OA
HETATM   25  H25 UNL     1      -0.629  47.957 -18.030  1.00  0.00     0.211 HD
ENDBRANCH   3  24
ENDBRANCH   1   3
BRANCH   1  26
HETATM   26  C21 UNL     1      -0.711  50.612 -16.921  1.00  0.00     0.260 C 
BRANCH  26  27
HETATM   27  O5  UNL     1      -0.393  50.716 -15.539  1.00  0.00    -0.314 OA
BRANCH  27  28
HETATM   28  C22 UNL     1       0.801  51.288 -15.241  1.00  0.00     0.259 C 
HETATM   29  O6  UNL     1       1.611  51.649 -16.086  1.00  0.00    -0.265 OA
BRANCH  28  30
HETATM   30  C23 UNL     1       1.059  51.390 -13.755  1.00  0.00     0.120 C 
BRANCH  30  31
HETATM   31  C24 UNL     1       2.524  51.538 -13.362  1.00  0.00     0.112 C 
BRANCH  31  32
HETATM   32  C25 UNL     1       2.687  52.044 -11.941  1.00  0.00     0.218 C 
HETATM   33  O7  UNL     1       2.901  51.312 -10.984  1.00  0.00    -0.274 OA
HETATM   34  N1  UNL     1       2.579  53.414 -11.843  1.00  0.00    -0.346 N 
HETATM   35  H32 UNL     1       2.053  53.879 -12.577  1.00  0.00     0.163 HD
BRANCH  34  36
HETATM   36  C26 UNL     1       2.544  54.070 -10.527  1.00  0.00     0.186 C 
BRANCH  36  37
HETATM   37  C27 UNL     1       3.247  55.430 -10.604  1.00  0.00     0.074 C 
BRANCH  37  38
HETATM   38  C28 UNL     1       4.353  55.606  -9.592  1.00  0.00    -0.056 A 
HETATM   39  C29 UNL     1       5.568  54.924  -9.739  1.00  0.00     0.007 A 
HETATM   40  C30 UNL     1       6.590  55.092  -8.802  1.00  0.00     0.001 A 
HETATM   41  C31 UNL     1       6.408  55.940  -7.713  1.00  0.00     0.000 A 
HETATM   42  C32 UNL     1       5.203  56.624  -7.558  1.00  0.00     0.001 A 
HETATM   43  C33 UNL     1       4.179  56.458  -8.492  1.00  0.00     0.007 A 
ENDBRANCH  37  38
ENDBRANCH  36  37
BRANCH  36  44
HETATM   44  C34 UNL     1       1.074  54.260 -10.165  1.00  0.00     0.163 C 
HETATM   45  O8  UNL     1       0.243  54.840 -10.852  1.00  0.00    -0.648 OA
BRANCH  44  46
HETATM   46  O9  UNL     1       0.735  53.733  -8.974  1.00  0.00    -0.775 OA
HETATM   47  H41 UNL     1      -0.222  53.917  -8.872  1.00  0.00     0.167 HD
ENDBRANCH  44  46
ENDBRANCH  36  44
ENDBRANCH  34  36
ENDBRANCH  31  32
ENDBRANCH  30  31
ENDBRANCH  28  30
ENDBRANCH  27  28
ENDBRANCH  26  27
ENDBRANCH   1  26
TORSDOF 13
ENDMDL
MODEL 4
REMARK minimizedAffinity -10.228651
REMARK CNNscore 0.600062728
REMARK CNNaffinity 7.452456
REMARK  13 active torsions:
REMARK  status: ('A' for Active; 'I' for Inactive)
REMARK    1  A    between atoms: C19_21  and  O3_22 
REMARK    2  A    between atoms: C19_21  and  C20_23 
REMARK    3  A    between atoms: C20_23  and  C21_25 
REMARK    4  A    between atoms: C21_25  and  O5_26 
REMARK    5  A    between atoms: O5_26  and  C22_27 
REMARK    6  A    between atoms: C22_27  and  C23_29 
REMARK    7  A    between atoms: C23_29  and  C24_30 
REMARK    8  A    between atoms: C24_30  and  C25_31 
REMARK       I    between atoms: C25_31  and  N1_33 
REMARK    9  A    between atoms: N1_33  and  C26_34 
REMARK   10  A    between atoms: C26_34  and  C27_35 
REMARK   11  A    between atoms: C26_34  and  C34_42 
REMARK   12  A    between atoms: C27_35  and  C28_36 
REMARK   13  A    between atoms: C34_42  and  O9_44 
ROOT
HETATM    1  C20 UNL     1      -7.085  47.805 -21.952  1.00  0.00     0.185 C 
HETATM    2  O4  UNL     1      -7.320  46.694 -21.468  1.00  0.00    -0.292 OA
ENDROOT
BRANCH   1   3
HETATM    3  C19 UNL     1      -6.481  48.937 -21.088  1.00  0.00     0.128 C 
HETATM    4  C14 UNL     1      -4.920  48.995 -21.158  1.00  0.00     0.005 C 
HETATM    5  C13 UNL     1      -4.323  49.603 -22.434  1.00  0.00     0.091 C 
HETATM    6  C15 UNL     1      -4.303  47.586 -20.928  1.00  0.00     0.019 C 
HETATM    7  C16 UNL     1      -4.636  49.980 -19.996  1.00  0.00     0.002 C 
HETATM    8  C12 UNL     1      -2.839  49.874 -22.223  1.00  0.00     0.133 C 
HETATM    9  C11 UNL     1      -2.460  50.748 -21.009  1.00  0.00     0.072 C 
HETATM   10  O2  UNL     1      -2.015  49.448 -23.029  1.00  0.00    -0.297 OA
HETATM   11  C2  UNL     1      -0.924  51.025 -20.825  1.00  0.00    -0.009 C 
HETATM   12  C10 UNL     1      -3.141  50.189 -19.724  1.00  0.00     0.003 C 
HETATM   13  C1  UNL     1      -0.102  49.726 -20.664  1.00  0.00     0.021 C 
HETATM   14  C3  UNL     1      -0.408  51.824 -22.060  1.00  0.00     0.022 C 
HETATM   15  C7  UNL     1      -0.722  51.864 -19.548  1.00  0.00    -0.067 C 
HETATM   16  C4  UNL     1       0.942  52.493 -21.841  1.00  0.00     0.084 C 
HETATM   17  C5  UNL     1       0.893  53.386 -20.633  1.00  0.00     0.149 C 
HETATM   18  O1  UNL     1       1.569  54.408 -20.538  1.00  0.00    -0.293 OA
HETATM   19  C6  UNL     1       0.064  52.953 -19.484  1.00  0.00     0.053 C 
HETATM   20  C8  UNL     1      -1.436  51.393 -18.303  1.00  0.00     0.035 C 
HETATM   21  C9  UNL     1      -2.920  51.154 -18.552  1.00  0.00     0.010 C 
HETATM   22  C17 UNL     1      -5.508  49.456 -18.862  1.00  0.00     0.009 C 
HETATM   23  C18 UNL     1      -6.741  48.851 -19.562  1.00  0.00     0.047 C 
BRANCH   3  24
HETATM   24  O3  UNL     1      -7.006  50.193 -21.542  1.00  0.00    -0.381 OA
HETATM   25  H25 UNL     1      -7.920  50.050 -21.872  1.00  0.00     0.211 HD
ENDBRANCH   3  24
ENDBRANCH   1   3
BRANCH   1  26
HETATM   26  C21 UNL     1      -7.397  48.067 -23.429  1.00  0.00     0.260 C 
BRANCH  26  27
HETATM   27  O5  UNL     1      -7.031  47.135 -24.438  1.00  0.00    -0.314 OA
BRANCH  27  28
HETATM   28  C22 UNL     1      -6.701  47.659 -25.646  1.00  0.00     0.259 C 
HETATM   29  O6  UNL     1      -7.400  47.554 -26.646  1.00  0.00    -0.265 OA
BRANCH  28  30
HETATM   30  C23 UNL     1      -5.354  48.345 -25.650  1.00  0.00     0.120 C 
BRANCH  30  31
HETATM   31  C24 UNL     1      -4.596  48.273 -26.971  1.00  0.00     0.112 C 
BRANCH  31  32
HETATM   32  C25 UNL     1      -3.621  49.423 -27.133  1.00  0.00     0.218 C 
HETATM   33  O7  UNL     1      -3.293  49.882 -28.219  1.00  0.00    -0.274 OA
HETATM   34  N1  UNL     1      -3.151  49.903 -25.930  1.00  0.00    -0.346 N 
HETATM   35  H32 UNL     1      -3.175  49.259 -25.147  1.00  0.00     0.163 HD
BRANCH  34  36
HETATM   36  C26 UNL     1      -2.074  50.905 -25.893  1.00  0.00     0.186 C 
BRANCH  36  37
HETATM   37  C27 UNL     1      -1.428  51.027 -27.278  1.00  0.00     0.074 C 
BRANCH  37  38
HETATM   38  C28 UNL     1       0.063  51.260 -27.240  1.00  0.00    -0.056 A 
HETATM   39  C29 UNL     1       0.716  51.870 -28.318  1.00  0.00     0.007 A 
HETATM   40  C30 UNL     1       2.095  52.087 -28.278  1.00  0.00     0.001 A 
HETATM   41  C31 UNL     1       2.832  51.697 -27.163  1.00  0.00     0.000 A 
HETATM   42  C32 UNL     1       2.191  51.090 -26.084  1.00  0.00     0.001 A 
HETATM   43  C33 UNL     1       0.813  50.871 -26.121  1.00  0.00     0.007 A 
ENDBRANCH  37  38
ENDBRANCH  36  37
BRANCH  36  44
HETATM   44  C34 UNL     1      -2.716  52.231 -25.495  1.00  0.00     0.163 C 
HETATM   45  O8  UNL     1      -3.860  52.574 -25.763  1.00  0.00    -0.648 OA
BRANCH  44  46
HETATM   46  O9  UNL     1      -1.896  53.047 -24.808  1.00  0.00    -0.775 OA
HETATM   47  H41 UNL     1      -2.429  53.846 -24.613  1.00  0.00     0.167 HD
ENDBRANCH  44  46
ENDBRANCH  36  44
ENDBRANCH  34  36
ENDBRANCH  31  32
ENDBRANCH  30  31
ENDBRANCH  28  30
ENDBRANCH  27  28
ENDBRANCH  26  27
ENDBRANCH   1  26
TORSDOF 13
ENDMDL
MODEL 5
REMARK minimizedAffinity -8.83071804
REMARK CNNscore 0.574630022
REMARK CNNaffinity 7.09937429
REMARK  13 active torsions:
REMARK  status: ('A' for Active; 'I' for Inactive)
REMARK    1  A    between atoms: C19_21  and  O3_22 
REMARK    2  A    between atoms: C19_21  and  C20_23 
REMARK    3  A    between atoms: C20_23  and  C21_25 
REMARK    4  A    between atoms: C21_25  and  O5_26 
REMARK    5  A    between atoms: O5_26  and  C22_27 
REMARK    6  A    between atoms: C22_27  and  C23_29 
REMARK    7  A    between atoms: C23_29  and  C24_30 
REMARK    8  A    between atoms: C24_30  and  C25_31 
REMARK       I    between atoms: C25_31  and  N1_33 
REMARK    9  A    between atoms: N1_33  and  C26_34 
REMARK   10  A    between atoms: C26_34  and  C27_35 
REMARK   11  A    between atoms: C26_34  and  C34_42 
REMARK   12  A    between atoms: C27_35  and  C28_36 
REMARK   13  A    between atoms: C34_42  and  O9_44 
ROOT
HETATM    1  C20 UNL     1      -3.157  48.579 -18.527  1.00  0.00     0.185 C 
HETATM    2  O4  UNL     1      -4.283  48.724 -18.041  1.00  0.00    -0.292 OA
ENDROOT
BRANCH   1   3
HETATM    3  C19 UNL     1      -2.977  48.195 -20.014  1.00  0.00     0.128 C 
HETATM    4  C14 UNL     1      -2.717  49.429 -20.938  1.00  0.00     0.005 C 
HETATM    5  C13 UNL     1      -1.305  50.027 -20.886  1.00  0.00     0.091 C 
HETATM    6  C15 UNL     1      -3.756  50.553 -20.666  1.00  0.00     0.019 C 
HETATM    7  C16 UNL     1      -2.889  48.765 -22.328  1.00  0.00     0.002 C 
HETATM    8  C12 UNL     1      -1.118  50.998 -22.045  1.00  0.00     0.133 C 
HETATM    9  C11 UNL     1      -1.393  50.447 -23.460  1.00  0.00     0.072 C 
HETATM   10  O2  UNL     1      -0.716  52.140 -21.833  1.00  0.00    -0.297 OA
HETATM   11  C2  UNL     1      -1.178  51.465 -24.639  1.00  0.00    -0.009 C 
HETATM   12  C10 UNL     1      -2.788  49.755 -23.495  1.00  0.00     0.003 C 
HETATM   13  C1  UNL     1      -2.071  52.720 -24.509  1.00  0.00     0.021 C 
HETATM   14  C3  UNL     1       0.322  51.889 -24.666  1.00  0.00     0.022 C 
HETATM   15  C7  UNL     1      -1.542  50.771 -25.965  1.00  0.00    -0.067 C 
HETATM   16  C4  UNL     1       0.752  52.549 -25.968  1.00  0.00     0.084 C 
HETATM   17  C5  UNL     1       0.449  51.652 -27.135  1.00  0.00     0.149 C 
HETATM   18  O1  UNL     1       1.132  51.640 -28.157  1.00  0.00    -0.293 OA
HETATM   19  C6  UNL     1      -0.779  50.824 -27.072  1.00  0.00     0.053 C 
HETATM   20  C8  UNL     1      -2.853  50.021 -26.006  1.00  0.00     0.035 C 
HETATM   21  C9  UNL     1      -2.989  49.047 -24.842  1.00  0.00     0.010 C 
HETATM   22  C17 UNL     1      -4.171  47.954 -22.179  1.00  0.00     0.009 C 
HETATM   23  C18 UNL     1      -4.190  47.517 -20.702  1.00  0.00     0.047 C 
BRANCH   3  24
HETATM   24  O3  UNL     1      -1.864  47.296 -20.127  1.00  0.00    -0.381 OA
HETATM   25  H25 UNL     1      -1.814  46.755 -19.310  1.00  0.00     0.211 HD
ENDBRANCH   3  24
ENDBRANCH   1   3
BRANCH   1  26
HETATM   26  C21 UNL     1      -1.921  48.779 -17.644  1.00  0.00     0.260 C 
BRANCH  26  27
HETATM   27  O5  UNL     1      -1.770  49.939 -16.835  1.00  0.00    -0.314 OA
BRANCH  27  28
HETATM   28  C22 UNL     1      -0.799  50.809 -17.212  1.00  0.00     0.259 C 
HETATM   29  O6  UNL     1      -0.931  51.625 -18.115  1.00  0.00    -0.265 OA
BRANCH  28  30
HETATM   30  C23 UNL     1       0.487  50.638 -16.436  1.00  0.00     0.120 C 
BRANCH  30  31
HETATM   31  C24 UNL     1       0.600  49.338 -15.649  1.00  0.00     0.112 C 
BRANCH  31  32
HETATM   32  C25 UNL     1       1.493  49.483 -14.432  1.00  0.00     0.218 C 
HETATM   33  O7  UNL     1       1.537  48.662 -13.525  1.00  0.00    -0.274 OA
HETATM   34  N1  UNL     1       2.259  50.628 -14.460  1.00  0.00    -0.346 N 
HETATM   35  H32 UNL     1       1.904  51.394 -15.024  1.00  0.00     0.163 HD
BRANCH  34  36
HETATM   36  C26 UNL     1       3.062  51.021 -13.291  1.00  0.00     0.186 C 
BRANCH  36  37
HETATM   37  C27 UNL     1       2.164  51.120 -12.053  1.00  0.00     0.074 C 
BRANCH  37  38
HETATM   38  C28 UNL     1       2.025  52.521 -11.509  1.00  0.00    -0.056 A 
HETATM   39  C29 UNL     1       3.155  53.242 -11.101  1.00  0.00     0.007 A 
HETATM   40  C30 UNL     1       3.022  54.540 -10.601  1.00  0.00     0.001 A 
HETATM   41  C31 UNL     1       1.763  55.127 -10.505  1.00  0.00     0.000 A 
HETATM   42  C32 UNL     1       0.633  54.418 -10.909  1.00  0.00     0.001 A 
HETATM   43  C33 UNL     1       0.762  53.121 -11.408  1.00  0.00     0.007 A 
ENDBRANCH  37  38
ENDBRANCH  36  37
BRANCH  36  44
HETATM   44  C34 UNL     1       4.114  49.933 -13.091  1.00  0.00     0.163 C 
HETATM   45  O8  UNL     1       4.981  49.628 -13.899  1.00  0.00    -0.648 OA
BRANCH  44  46
HETATM   46  O9  UNL     1       4.012  49.290 -11.913  1.00  0.00    -0.775 OA
HETATM   47  H41 UNL     1       4.741  48.635 -11.913  1.00  0.00     0.167 HD
ENDBRANCH  44  46
ENDBRANCH  36  44
ENDBRANCH  34  36
ENDBRANCH  31  32
ENDBRANCH  30  31
ENDBRANCH  28  30
ENDBRANCH  27  28
ENDBRANCH  26  27
ENDBRANCH   1  26
TORSDOF 13
ENDMDL
MODEL 6
REMARK minimizedAffinity -9.16697311
REMARK CNNscore 0.392505825
REMARK CNNaffinity 6.26846647
REMARK  13 active torsions:
REMARK  status: ('A' for Active; 'I' for Inactive)
REMARK    1  A    between atoms: C19_21  and  O3_22 
REMARK    2  A    between atoms: C19_21  and  C20_23 
REMARK    3  A    between atoms: C20_23  and  C21_25 
REMARK    4  A    between atoms: C21_25  and  O5_26 
REMARK    5  A    between atoms: O5_26  and  C22_27 
REMARK    6  A    between atoms: C22_27  and  C23_29 
REMARK    7  A    between atoms: C23_29  and  C24_30 
REMARK    8  A    between atoms: C24_30  and  C25_31 
REMARK       I    between atoms: C25_31  and  N1_33 
REMARK    9  A    between atoms: N1_33  and  C26_34 
REMARK   10  A    between atoms: C26_34  and  C27_35 
REMARK   11  A    between atoms: C26_34  and  C34_42 
REMARK   12  A    between atoms: C27_35  and  C28_36 
REMARK   13  A    between atoms: C34_42  and  O9_44 
ROOT
HETATM    1  C20 UNL     1      -7.224  48.252 -21.295  1.00  0.00     0.185 C 
HETATM    2  O4  UNL     1      -8.426  48.404 -21.534  1.00  0.00    -0.292 OA
ENDROOT
BRANCH   1   3
HETATM    3  C19 UNL     1      -6.222  47.929 -22.428  1.00  0.00     0.128 C 
HETATM    4  C14 UNL     1      -5.395  49.174 -22.887  1.00  0.00     0.005 C 
HETATM    5  C13 UNL     1      -4.256  49.610 -21.956  1.00  0.00     0.091 C 
HETATM    6  C15 UNL     1      -6.327  50.390 -23.154  1.00  0.00     0.019 C 
HETATM    7  C16 UNL     1      -4.750  48.607 -24.177  1.00  0.00     0.002 C 
HETATM    8  C12 UNL     1      -3.365  50.615 -22.677  1.00  0.00     0.133 C 
HETATM    9  C11 UNL     1      -2.781  50.173 -24.034  1.00  0.00     0.072 C 
HETATM   10  O2  UNL     1      -3.101  51.693 -22.149  1.00  0.00    -0.297 OA
HETATM   11  C2  UNL     1      -1.853  51.221 -24.748  1.00  0.00    -0.009 C 
HETATM   12  C10 UNL     1      -3.922  49.640 -24.951  1.00  0.00     0.003 C 
HETATM   13  C1  UNL     1      -2.575  52.558 -25.031  1.00  0.00     0.021 C 
HETATM   14  C3  UNL     1      -0.605  51.479 -23.849  1.00  0.00     0.022 C 
HETATM   15  C7  UNL     1      -1.400  50.642 -26.103  1.00  0.00    -0.067 C 
HETATM   16  C4  UNL     1       0.549  52.156 -24.575  1.00  0.00     0.084 C 
HETATM   17  C5  UNL     1       0.943  51.360 -25.788  1.00  0.00     0.149 C 
HETATM   18  O1  UNL     1       2.096  51.327 -26.212  1.00  0.00    -0.293 OA
HETATM   19  C6  UNL     1      -0.129  50.669 -26.542  1.00  0.00     0.053 C 
HETATM   20  C8  UNL     1      -2.474  50.043 -26.981  1.00  0.00     0.035 C 
HETATM   21  C9  UNL     1      -3.328  49.031 -26.228  1.00  0.00     0.010 C 
HETATM   22  C17 UNL     1      -5.916  47.935 -24.892  1.00  0.00     0.009 C 
HETATM   23  C18 UNL     1      -6.830  47.426 -23.761  1.00  0.00     0.047 C 
BRANCH   3  24
HETATM   24  O3  UNL     1      -5.311  46.922 -21.964  1.00  0.00    -0.381 OA
HETATM   25  H25 UNL     1      -5.786  46.335 -21.335  1.00  0.00     0.211 HD
ENDBRANCH   3  24
ENDBRANCH   1   3
BRANCH   1  26
HETATM   26  C21 UNL     1      -6.718  48.383 -19.854  1.00  0.00     0.260 C 
BRANCH  26  27
HETATM   27  O5  UNL     1      -7.454  49.107 -18.876  1.00  0.00    -0.314 OA
BRANCH  27  28
HETATM   28  C22 UNL     1      -8.082  48.367 -17.929  1.00  0.00     0.259 C 
HETATM   29  O6  UNL     1      -7.502  47.595 -17.175  1.00  0.00    -0.265 OA
BRANCH  28  30
HETATM   30  C23 UNL     1      -9.583  48.549 -17.927  1.00  0.00     0.120 C 
BRANCH  30  31
HETATM   31  C24 UNL     1     -10.368  47.441 -17.235  1.00  0.00     0.112 C 
BRANCH  31  32
HETATM   32  C25 UNL     1     -11.835  47.457 -17.616  1.00  0.00     0.218 C 
HETATM   33  O7  UNL     1     -12.738  47.664 -16.816  1.00  0.00    -0.274 OA
HETATM   34  N1  UNL     1     -12.045  47.224 -18.957  1.00  0.00    -0.346 N 
HETATM   35  H32 UNL     1     -11.316  46.715 -19.447  1.00  0.00     0.163 HD
BRANCH  34  36
HETATM   36  C26 UNL     1     -13.407  47.039 -19.482  1.00  0.00     0.186 C 
BRANCH  36  37
HETATM   37  C27 UNL     1     -14.424  47.151 -18.340  1.00  0.00     0.074 C 
BRANCH  37  38
HETATM   38  C28 UNL     1     -15.841  46.831 -18.748  1.00  0.00    -0.056 A 
HETATM   39  C29 UNL     1     -16.807  47.844 -18.821  1.00  0.00     0.007 A 
HETATM   40  C30 UNL     1     -18.117  47.545 -19.202  1.00  0.00     0.001 A 
HETATM   41  C31 UNL     1     -18.472  46.235 -19.514  1.00  0.00     0.000 A 
HETATM   42  C32 UNL     1     -17.519  45.221 -19.447  1.00  0.00     0.001 A 
HETATM   43  C33 UNL     1     -16.209  45.516 -19.065  1.00  0.00     0.007 A 
ENDBRANCH  37  38
ENDBRANCH  36  37
BRANCH  36  44
HETATM   44  C34 UNL     1     -13.643  48.148 -20.504  1.00  0.00     0.163 C 
HETATM   45  O8  UNL     1     -13.775  49.337 -20.244  1.00  0.00    -0.648 OA
BRANCH  44  46
HETATM   46  O9  UNL     1     -13.714  47.709 -21.774  1.00  0.00    -0.775 OA
HETATM   47  H41 UNL     1     -13.858  48.511 -22.317  1.00  0.00     0.167 HD
ENDBRANCH  44  46
ENDBRANCH  36  44
ENDBRANCH  34  36
ENDBRANCH  31  32
ENDBRANCH  30  31
ENDBRANCH  28  30
ENDBRANCH  27  28
ENDBRANCH  26  27
ENDBRANCH   1  26
TORSDOF 13
ENDMDL
MODEL 7
REMARK minimizedAffinity -8.49166298
REMARK CNNscore 0.363061965
REMARK CNNaffinity 5.75960112
REMARK  13 active torsions:
REMARK  status: ('A' for Active; 'I' for Inactive)
REMARK    1  A    between atoms: C19_21  and  O3_22 
REMARK    2  A    between atoms: C19_21  and  C20_23 
REMARK    3  A    between atoms: C20_23  and  C21_25 
REMARK    4  A    between atoms: C21_25  and  O5_26 
REMARK    5  A    between atoms: O5_26  and  C22_27 
REMARK    6  A    between atoms: C22_27  and  C23_29 
REMARK    7  A    between atoms: C23_29  and  C24_30 
REMARK    8  A    between atoms: C24_30  and  C25_31 
REMARK       I    between atoms: C25_31  and  N1_33 
REMARK    9  A    between atoms: N1_33  and  C26_34 
REMARK   10  A    between atoms: C26_34  and  C27_35 
REMARK   11  A    between atoms: C26_34  and  C34_42 
REMARK   12  A    between atoms: C27_35  and  C28_36 
REMARK   13  A    between atoms: C34_42  and  O9_44 
ROOT
HETATM    1  C20 UNL     1      -9.386  48.011 -25.777  1.00  0.00     0.185 C 
HETATM    2  O4  UNL     1      -9.387  48.674 -24.735  1.00  0.00    -0.292 OA
ENDROOT
BRANCH   1   3
HETATM    3  C19 UNL     1     -10.647  47.929 -26.667  1.00  0.00     0.128 C 
HETATM    4  C14 UNL     1     -11.636  46.801 -26.227  1.00  0.00     0.005 C 
HETATM    5  C13 UNL     1     -12.489  47.097 -24.986  1.00  0.00     0.091 C 
HETATM    6  C15 UNL     1     -10.885  45.456 -26.019  1.00  0.00     0.019 C 
HETATM    7  C16 UNL     1     -12.587  46.785 -27.451  1.00  0.00     0.002 C 
HETATM    8  C12 UNL     1     -13.600  46.060 -24.872  1.00  0.00     0.133 C 
HETATM    9  C11 UNL     1     -14.518  45.892 -26.101  1.00  0.00     0.072 C 
HETATM   10  O2  UNL     1     -13.763  45.445 -23.821  1.00  0.00    -0.297 OA
HETATM   11  C2  UNL     1     -15.666  44.828 -25.951  1.00  0.00    -0.009 C 
HETATM   12  C10 UNL     1     -13.654  45.685 -27.380  1.00  0.00     0.003 C 
HETATM   13  C1  UNL     1     -15.125  43.412 -25.648  1.00  0.00     0.021 C 
HETATM   14  C3  UNL     1     -16.621  45.281 -24.805  1.00  0.00     0.022 C 
HETATM   15  C7  UNL     1     -16.449  44.753 -27.276  1.00  0.00    -0.067 C 
HETATM   16  C4  UNL     1     -17.968  44.571 -24.809  1.00  0.00     0.084 C 
HETATM   17  C5  UNL     1     -18.644  44.740 -26.141  1.00  0.00     0.149 C 
HETATM   18  O1  UNL     1     -19.866  44.782 -26.263  1.00  0.00    -0.293 OA
HETATM   19  C6  UNL     1     -17.791  44.760 -27.353  1.00  0.00     0.053 C 
HETATM   20  C8  UNL     1     -15.635  44.635 -28.543  1.00  0.00     0.035 C 
HETATM   21  C9  UNL     1     -14.550  45.702 -28.626  1.00  0.00     0.010 C 
HETATM   22  C17 UNL     1     -11.635  46.790 -28.641  1.00  0.00     0.009 C 
HETATM   23  C18 UNL     1     -10.414  47.598 -28.163  1.00  0.00     0.047 C 
BRANCH   3  24
HETATM   24  O3  UNL     1     -11.335  49.188 -26.610  1.00  0.00    -0.381 OA
HETATM   25  H25 UNL     1     -10.671  49.903 -26.494  1.00  0.00     0.211 HD
ENDBRANCH   3  24
ENDBRANCH   1   3
BRANCH   1  26
HETATM   26  C21 UNL     1      -8.118  47.257 -26.191  1.00  0.00     0.260 C 
BRANCH  26  27
HETATM   27  O5  UNL     1      -6.824  47.781 -25.919  1.00  0.00    -0.314 OA
BRANCH  27  28
HETATM   28  C22 UNL     1      -6.478  47.869 -24.610  1.00  0.00     0.259 C 
HETATM   29  O6  UNL     1      -6.702  46.990 -23.787  1.00  0.00    -0.265 OA
BRANCH  28  30
HETATM   30  C23 UNL     1      -5.829  49.187 -24.252  1.00  0.00     0.120 C 
BRANCH  30  31
HETATM   31  C24 UNL     1      -4.679  49.092 -23.256  1.00  0.00     0.112 C 
BRANCH  31  32
HETATM   32  C25 UNL     1      -3.457  49.860 -23.720  1.00  0.00     0.218 C 
HETATM   33  O7  UNL     1      -2.570  49.368 -24.404  1.00  0.00    -0.274 OA
HETATM   34  N1  UNL     1      -3.456  51.172 -23.300  1.00  0.00    -0.346 N 
HETATM   35  H32 UNL     1      -4.002  51.381 -22.470  1.00  0.00     0.163 HD
BRANCH  34  36
HETATM   36  C26 UNL     1      -2.276  52.026 -23.513  1.00  0.00     0.186 C 
BRANCH  36  37
HETATM   37  C27 UNL     1      -1.029  51.342 -22.942  1.00  0.00     0.074 C 
BRANCH  37  38
HETATM   38  C28 UNL     1      -0.235  52.207 -21.994  1.00  0.00    -0.056 A 
HETATM   39  C29 UNL     1       0.707  53.122 -22.484  1.00  0.00     0.007 A 
HETATM   40  C30 UNL     1       1.437  53.924 -21.604  1.00  0.00     0.001 A 
HETATM   41  C31 UNL     1       1.234  53.819 -20.231  1.00  0.00     0.000 A 
HETATM   42  C32 UNL     1       0.299  52.913 -19.733  1.00  0.00     0.001 A 
HETATM   43  C33 UNL     1      -0.433  52.109 -20.610  1.00  0.00     0.007 A 
ENDBRANCH  37  38
ENDBRANCH  36  37
BRANCH  36  44
HETATM   44  C34 UNL     1      -2.129  52.211 -25.020  1.00  0.00     0.163 C 
HETATM   45  O8  UNL     1      -1.117  51.976 -25.669  1.00  0.00    -0.648 OA
BRANCH  44  46
HETATM   46  O9  UNL     1      -3.236  52.686 -25.619  1.00  0.00    -0.775 OA
HETATM   47  H41 UNL     1      -3.009  52.748 -26.571  1.00  0.00     0.167 HD
ENDBRANCH  44  46
ENDBRANCH  36  44
ENDBRANCH  34  36
ENDBRANCH  31  32
ENDBRANCH  30  31
ENDBRANCH  28  30
ENDBRANCH  27  28
ENDBRANCH  26  27
ENDBRANCH   1  26
TORSDOF 13
ENDMDL
MODEL 8
REMARK minimizedAffinity -9.42800713
REMARK CNNscore 0.334726274
REMARK CNNaffinity 6.80881739
REMARK  13 active torsions:
REMARK  status: ('A' for Active; 'I' for Inactive)
REMARK    1  A    between atoms: C19_21  and  O3_22 
REMARK    2  A    between atoms: C19_21  and  C20_23 
REMARK    3  A    between atoms: C20_23  and  C21_25 
REMARK    4  A    between atoms: C21_25  and  O5_26 
REMARK    5  A    between atoms: O5_26  and  C22_27 
REMARK    6  A    between atoms: C22_27  and  C23_29 
REMARK    7  A    between atoms: C23_29  and  C24_30 
REMARK    8  A    between atoms: C24_30  and  C25_31 
REMARK       I    between atoms: C25_31  and  N1_33 
REMARK    9  A    between atoms: N1_33  and  C26_34 
REMARK   10  A    between atoms: C26_34  and  C27_35 
REMARK   11  A    between atoms: C26_34  and  C34_42 
REMARK   12  A    between atoms: C27_35  and  C28_36 
REMARK   13  A    between atoms: C34_42  and  O9_44 
ROOT
HETATM    1  C20 UNL     1      -2.076  49.219 -18.103  1.00  0.00     0.185 C 
HETATM    2  O4  UNL     1      -3.092  49.158 -17.404  1.00  0.00    -0.292 OA
ENDROOT
BRANCH   1   3
HETATM    3  C19 UNL     1      -2.086  48.719 -19.566  1.00  0.00     0.128 C 
HETATM    4  C14 UNL     1      -1.974  49.878 -20.610  1.00  0.00     0.005 C 
HETATM    5  C13 UNL     1      -0.578  50.490 -20.792  1.00  0.00     0.091 C 
HETATM    6  C15 UNL     1      -2.989  51.011 -20.291  1.00  0.00     0.019 C 
HETATM    7  C16 UNL     1      -2.314  49.104 -21.908  1.00  0.00     0.002 C 
HETATM    8  C12 UNL     1      -0.565  51.367 -22.038  1.00  0.00     0.133 C 
HETATM    9  C11 UNL     1      -1.013  50.703 -23.357  1.00  0.00     0.072 C 
HETATM   10  O2  UNL     1      -0.161  52.526 -21.971  1.00  0.00    -0.297 OA
HETATM   11  C2  UNL     1      -0.975  51.625 -24.629  1.00  0.00    -0.009 C 
HETATM   12  C10 UNL     1      -2.387  49.998 -23.152  1.00  0.00     0.003 C 
HETATM   13  C1  UNL     1      -1.867  52.878 -24.480  1.00  0.00     0.021 C 
HETATM   14  C3  UNL     1       0.500  52.058 -24.889  1.00  0.00     0.022 C 
HETATM   15  C7  UNL     1      -1.497  50.825 -25.838  1.00  0.00    -0.067 C 
HETATM   16  C4  UNL     1       0.742  52.617 -26.284  1.00  0.00     0.084 C 
HETATM   17  C5  UNL     1       0.305  51.626 -27.327  1.00  0.00     0.149 C 
HETATM   18  O1  UNL     1       0.847  51.539 -28.426  1.00  0.00    -0.293 OA
HETATM   19  C6  UNL     1      -0.887  50.795 -27.036  1.00  0.00     0.053 C 
HETATM   20  C8  UNL     1      -2.787  50.062 -25.645  1.00  0.00     0.035 C 
HETATM   21  C9  UNL     1      -2.750  49.183 -24.401  1.00  0.00     0.010 C 
HETATM   22  C17 UNL     1      -3.550  48.296 -21.528  1.00  0.00     0.009 C 
HETATM   23  C18 UNL     1      -3.366  47.979 -20.031  1.00  0.00     0.047 C 
BRANCH   3  24
HETATM   24  O3  UNL     1      -0.980  47.825 -19.755  1.00  0.00    -0.381 OA
HETATM   25  H25 UNL     1      -0.813  47.350 -18.911  1.00  0.00     0.211 HD
ENDBRANCH   3  24
ENDBRANCH   1   3
BRANCH   1  26
HETATM   26  C21 UNL     1      -0.785  49.796 -17.510  1.00  0.00     0.260 C 
BRANCH  26  27
HETATM   27  O5  UNL     1      -0.818  50.832 -16.537  1.00  0.00    -0.314 OA
BRANCH  27  28
HETATM   28  C22 UNL     1       0.381  51.353 -16.177  1.00  0.00     0.259 C 
HETATM   29  O6  UNL     1       1.327  51.476 -16.945  1.00  0.00    -0.265 OA
BRANCH  28  30
HETATM   30  C23 UNL     1       0.455  51.725 -14.713  1.00  0.00     0.120 C 
BRANCH  30  31
HETATM   31  C24 UNL     1      -0.867  51.648 -13.959  1.00  0.00     0.112 C 
BRANCH  31  32
HETATM   32  C25 UNL     1      -0.717  52.040 -12.502  1.00  0.00     0.218 C 
HETATM   33  O7  UNL     1       0.167  51.607 -11.774  1.00  0.00    -0.274 OA
HETATM   34  N1  UNL     1      -1.673  52.940 -12.086  1.00  0.00    -0.346 N 
HETATM   35  H32 UNL     1      -2.542  52.952 -12.612  1.00  0.00     0.163 HD
BRANCH  34  36
HETATM   36  C26 UNL     1      -1.788  53.308 -10.666  1.00  0.00     0.186 C 
BRANCH  36  37
HETATM   37  C27 UNL     1      -1.587  54.819 -10.502  1.00  0.00     0.074 C 
BRANCH  37  38
HETATM   38  C28 UNL     1      -0.276  55.195  -9.855  1.00  0.00    -0.056 A 
HETATM   39  C29 UNL     1      -0.249  55.735  -8.562  1.00  0.00     0.007 A 
HETATM   40  C30 UNL     1       0.966  56.079  -7.965  1.00  0.00     0.001 A 
HETATM   41  C31 UNL     1       2.162  55.887  -8.653  1.00  0.00     0.000 A 
HETATM   42  C32 UNL     1       2.146  55.350  -9.939  1.00  0.00     0.001 A 
HETATM   43  C33 UNL     1       0.933  55.006 -10.539  1.00  0.00     0.007 A 
ENDBRANCH  37  38
ENDBRANCH  36  37
BRANCH  36  44
HETATM   44  C34 UNL     1      -3.193  52.915 -10.218  1.00  0.00     0.163 C 
HETATM   45  O8  UNL     1      -3.500  51.849  -9.701  1.00  0.00    -0.648 OA
BRANCH  44  46
HETATM   46  O9  UNL     1      -4.122  53.860 -10.453  1.00  0.00    -0.775 OA
HETATM   47  H41 UNL     1      -4.963  53.485 -10.115  1.00  0.00     0.167 HD
ENDBRANCH  44  46
ENDBRANCH  36  44
ENDBRANCH  34  36
ENDBRANCH  31  32
ENDBRANCH  30  31
ENDBRANCH  28  30
ENDBRANCH  27  28
ENDBRANCH  26  27
ENDBRANCH   1  26
TORSDOF 13
ENDMDL
MODEL 9
REMARK minimizedAffinity -9.41596508
REMARK CNNscore 0.333823353
REMARK CNNaffinity 5.77669144
REMARK  13 active torsions:
REMARK  status: ('A' for Active; 'I' for Inactive)
REMARK    1  A    between atoms: C19_21  and  O3_22 
REMARK    2  A    between atoms: C19_21  and  C20_23 
REMARK    3  A    between atoms: C20_23  and  C21_25 
REMARK    4  A    between atoms: C21_25  and  O5_26 
REMARK    5  A    between atoms: O5_26  and  C22_27 
REMARK    6  A    between atoms: C22_27  and  C23_29 
REMARK    7  A    between atoms: C23_29  and  C24_30 
REMARK    8  A    between atoms: C24_30  and  C25_31 
REMARK       I    between atoms: C25_31  and  N1_33 
REMARK    9  A    between atoms: N1_33  and  C26_34 
REMARK   10  A    between atoms: C26_34  and  C27_35 
REMARK   11  A    between atoms: C26_34  and  C34_42 
REMARK   12  A    between atoms: C27_35  and  C28_36 
REMARK   13  A    between atoms: C34_42  and  O9_44 
ROOT
HETATM    1  C20 UNL     1      -7.163  48.379 -23.151  1.00  0.00     0.185 C 
HETATM    2  O4  UNL     1      -6.935  47.175 -23.000  1.00  0.00    -0.292 OA
ENDROOT
BRANCH   1   3
HETATM    3  C19 UNL     1      -6.600  49.425 -22.162  1.00  0.00     0.128 C 
HETATM    4  C14 UNL     1      -5.040  49.395 -22.060  1.00  0.00     0.005 C 
HETATM    5  C13 UNL     1      -4.274  50.034 -23.225  1.00  0.00     0.091 C 
HETATM    6  C15 UNL     1      -4.528  47.942 -21.849  1.00  0.00     0.019 C 
HETATM    7  C16 UNL     1      -4.835  50.298 -20.818  1.00  0.00     0.002 C 
HETATM    8  C12 UNL     1      -2.810  50.205 -22.840  1.00  0.00     0.133 C 
HETATM    9  C11 UNL     1      -2.522  50.989 -21.543  1.00  0.00     0.072 C 
HETATM   10  O2  UNL     1      -1.925  49.774 -23.577  1.00  0.00    -0.297 OA
HETATM   11  C2  UNL     1      -1.004  51.165 -21.177  1.00  0.00    -0.009 C 
HETATM   12  C10 UNL     1      -3.370  50.404 -20.374  1.00  0.00     0.003 C 
HETATM   13  C1  UNL     1      -0.275  49.813 -21.007  1.00  0.00     0.021 C 
HETATM   14  C3  UNL     1      -0.312  51.996 -22.300  1.00  0.00     0.022 C 
HETATM   15  C7  UNL     1      -0.900  51.921 -19.839  1.00  0.00    -0.067 C 
HETATM   16  C4  UNL     1       1.039  52.571 -21.898  1.00  0.00     0.084 C 
HETATM   17  C5  UNL     1       0.904  53.400 -20.652  1.00  0.00     0.149 C 
HETATM   18  O1  UNL     1       1.618  54.374 -20.424  1.00  0.00    -0.293 OA
HETATM   19  C6  UNL     1      -0.069  52.957 -19.626  1.00  0.00     0.053 C 
HETATM   20  C8  UNL     1      -1.772  51.427 -18.708  1.00  0.00     0.035 C 
HETATM   21  C9  UNL     1      -3.230  51.290 -19.130  1.00  0.00     0.010 C 
HETATM   22  C17 UNL     1      -5.854  49.767 -19.817  1.00  0.00     0.009 C 
HETATM   23  C18 UNL     1      -7.031  49.274 -20.681  1.00  0.00     0.047 C 
BRANCH   3  24
HETATM   24  O3  UNL     1      -7.004  50.733 -22.594  1.00  0.00    -0.381 OA
HETATM   25  H25 UNL     1      -7.882  50.662 -23.029  1.00  0.00     0.211 HD
ENDBRANCH   3  24
ENDBRANCH   1   3
BRANCH   1  26
HETATM   26  C21 UNL     1      -8.019  48.843 -24.335  1.00  0.00     0.260 C 
BRANCH  26  27
HETATM   27  O5  UNL     1      -9.158  48.104 -24.757  1.00  0.00    -0.314 OA
BRANCH  27  28
HETATM   28  C22 UNL     1      -9.838  48.605 -25.819  1.00  0.00     0.259 C 
HETATM   29  O6  UNL     1      -9.968  49.803 -26.038  1.00  0.00    -0.265 OA
BRANCH  28  30
HETATM   30  C23 UNL     1     -10.466  47.536 -26.684  1.00  0.00     0.120 C 
BRANCH  30  31
HETATM   31  C24 UNL     1     -11.283  46.493 -25.931  1.00  0.00     0.112 C 
BRANCH  31  32
HETATM   32  C25 UNL     1     -12.775  46.717 -26.083  1.00  0.00     0.218 C 
HETATM   33  O7  UNL     1     -13.279  47.820 -26.245  1.00  0.00    -0.274 OA
HETATM   34  N1  UNL     1     -13.502  45.548 -26.032  1.00  0.00    -0.346 N 
HETATM   35  H32 UNL     1     -13.071  44.769 -25.543  1.00  0.00     0.163 HD
BRANCH  34  36
HETATM   36  C26 UNL     1     -14.973  45.581 -25.996  1.00  0.00     0.186 C 
BRANCH  36  37
HETATM   37  C27 UNL     1     -15.448  46.881 -25.336  1.00  0.00     0.074 C 
BRANCH  37  38
HETATM   38  C28 UNL     1     -16.552  46.687 -24.325  1.00  0.00    -0.056 A 
HETATM   39  C29 UNL     1     -17.895  46.784 -24.711  1.00  0.00     0.007 A 
HETATM   40  C30 UNL     1     -18.914  46.600 -23.773  1.00  0.00     0.001 A 
HETATM   41  C31 UNL     1     -18.600  46.319 -22.446  1.00  0.00     0.000 A 
HETATM   42  C32 UNL     1     -17.267  46.219 -22.052  1.00  0.00     0.001 A 
HETATM   43  C33 UNL     1     -16.246  46.403 -22.987  1.00  0.00     0.007 A 
ENDBRANCH  37  38
ENDBRANCH  36  37
BRANCH  36  44
HETATM   44  C34 UNL     1     -15.453  45.522 -27.443  1.00  0.00     0.163 C 
HETATM   45  O8  UNL     1     -14.776  45.793 -28.427  1.00  0.00    -0.648 OA
BRANCH  44  46
HETATM   46  O9  UNL     1     -16.739  45.147 -27.573  1.00  0.00    -0.775 OA
HETATM   47  H41 UNL     1     -16.911  45.144 -28.538  1.00  0.00     0.167 HD
ENDBRANCH  44  46
ENDBRANCH  36  44
ENDBRANCH  34  36
ENDBRANCH  31  32
ENDBRANCH  30  31
ENDBRANCH  28  30
ENDBRANCH  27  28
ENDBRANCH  26  27
ENDBRANCH   1  26
TORSDOF 13
ENDMDL
