MODEL 1
REMARK minimizedAffinity -9.68573093
REMARK  7 active torsions:
REMARK  status: ('A' for Active; 'I' for Inactive)
REMARK    1  A    between atoms: C2_2  and  C3_3 
REMARK    2  A    between atoms: C2_2  and  C9_11 
REMARK    3  A    between atoms: C3_3  and  C4_4 
REMARK    4  A    between atoms: C4_4  and  C5_5 
REMARK    5  A    between atoms: C5_5  and  O1_6 
REMARK    6  A    between atoms: C5_5  and  C6_7 
REMARK    7  A    between atoms: C6_7  and  O2_10 
ROOT
HETATM    1  C9  UNL     1      -5.435  49.181 -22.131  1.00  0.00    -0.001 C 
HETATM    2  C10 UNL     1      -5.804  48.340 -23.389  1.00  0.00     0.007 C 
HETATM    3  C11 UNL     1      -4.661  48.499 -24.406  1.00  0.00     0.015 C 
HETATM    4  C12 UNL     1      -3.513  49.155 -23.618  1.00  0.00    -0.004 C 
HETATM    5  C13 UNL     1      -2.748  48.011 -22.883  1.00  0.00     0.021 C 
HETATM    6  C14 UNL     1      -2.447  49.944 -24.352  1.00  0.00     0.007 C 
HETATM    7  C15 UNL     1      -1.740  50.950 -23.790  1.00  0.00     0.007 C 
HETATM    8  C16 UNL     1      -2.127  51.344 -22.367  1.00  0.00     0.157 C 
HETATM    9  O3  UNL     1      -1.473  52.182 -21.748  1.00  0.00    -0.293 OA
HETATM   10  C17 UNL     1      -3.336  50.714 -21.681  1.00  0.00     0.094 C 
HETATM   11  C18 UNL     1      -4.324  50.129 -22.688  1.00  0.00    -0.022 C 
HETATM   12  C19 UNL     1      -4.999  51.311 -23.455  1.00  0.00     0.017 C 
HETATM   13  C20 UNL     1      -0.570  51.721 -24.478  1.00  0.00    -0.007 C 
HETATM   14  C21 UNL     1       0.664  51.622 -23.547  1.00  0.00     0.021 C 
HETATM   15  C22 UNL     1      -1.036  53.191 -24.662  1.00  0.00     0.022 C 
HETATM   16  C23 UNL     1      -0.074  54.060 -25.449  1.00  0.00     0.080 C 
HETATM   17  C24 UNL     1       0.152  53.461 -26.813  1.00  0.00     0.135 C 
HETATM   18  O4  UNL     1      -0.054  54.124 -27.828  1.00  0.00    -0.297 OA
HETATM   19  C25 UNL     1       0.689  52.028 -26.859  1.00  0.00     0.018 C 
HETATM   20  C26 UNL     1       2.184  52.072 -26.475  1.00  0.00     0.023 C 
HETATM   21  C27 UNL     1       0.660  51.527 -28.325  1.00  0.00     0.023 C 
HETATM   22  C28 UNL     1      -0.179  51.106 -25.898  1.00  0.00     0.021 C 
HETATM   23  C29 UNL     1      -1.458  50.613 -26.600  1.00  0.00     0.090 C 
HETATM   24  C30 UNL     1      -2.131  49.573 -25.752  1.00  0.00     0.157 C 
HETATM   25  O5  UNL     1      -2.425  48.471 -26.203  1.00  0.00    -0.293 OA
ENDROOT
BRANCH   1  26
HETATM   26  C2  UNL     1      -6.701  49.770 -21.429  1.00  0.00    -0.014 C 
HETATM   27  C1  UNL     1      -7.971  49.325 -22.176  1.00  0.00     0.010 C 
BRANCH  26  28
HETATM   28  C3  UNL     1      -6.771  49.373 -19.935  1.00  0.00     0.007 C 
BRANCH  28  29
HETATM   29  C4  UNL     1      -8.082  48.708 -19.484  1.00  0.00     0.035 C 
BRANCH  29  30
HETATM   30  C5  UNL     1      -8.373  48.783 -17.975  1.00  0.00     0.151 C 
BRANCH  30  31
HETATM   31  O1  UNL     1      -7.161  48.424 -17.276  1.00  0.00    -0.393 OA
HETATM   32  H10 UNL     1      -6.498  49.105 -17.481  1.00  0.00     0.210 HD
ENDBRANCH  30  31
BRANCH  30  33
HETATM   33  C6  UNL     1      -9.499  47.861 -17.419  1.00  0.00     0.076 C 
HETATM   34  C7  UNL     1     -10.666  47.677 -18.386  1.00  0.00     0.048 C 
HETATM   35  C8  UNL     1      -8.997  46.494 -16.939  1.00  0.00     0.048 C 
BRANCH  33  36
HETATM   36  O2  UNL     1     -10.031  48.530 -16.256  1.00  0.00    -0.388 OA
HETATM   37  H17 UNL     1      -9.245  48.765 -15.725  1.00  0.00     0.210 HD
ENDBRANCH  33  36
ENDBRANCH  30  33
ENDBRANCH  29  30
ENDBRANCH  28  29
ENDBRANCH  26  28
ENDBRANCH   1  26
TORSDOF 7
ENDMDL
MODEL 2
REMARK minimizedAffinity -9.37638569
REMARK  7 active torsions:
REMARK  status: ('A' for Active; 'I' for Inactive)
REMARK    1  A    between atoms: C2_2  and  C3_3 
REMARK    2  A    between atoms: C2_2  and  C9_11 
REMARK    3  A    between atoms: C3_3  and  C4_4 
REMARK    4  A    between atoms: C4_4  and  C5_5 
REMARK    5  A    between atoms: C5_5  and  O1_6 
REMARK    6  A    between atoms: C5_5  and  C6_7 
REMARK    7  A    between atoms: C6_7  and  O2_10 
ROOT
HETATM    1  C9  UNL     1      -0.361  51.216 -21.690  1.00  0.00    -0.001 C 
HETATM    2  C10 UNL     1      -0.072  51.399 -20.171  1.00  0.00     0.007 C 
HETATM    3  C11 UNL     1      -1.084  50.535 -19.398  1.00  0.00     0.015 C 
HETATM    4  C12 UNL     1      -1.725  49.625 -20.461  1.00  0.00    -0.004 C 
HETATM    5  C13 UNL     1      -0.775  48.403 -20.655  1.00  0.00     0.021 C 
HETATM    6  C14 UNL     1      -3.098  49.030 -20.217  1.00  0.00     0.007 C 
HETATM    7  C15 UNL     1      -3.952  48.685 -21.207  1.00  0.00     0.007 C 
HETATM    8  C16 UNL     1      -3.511  49.010 -22.632  1.00  0.00     0.157 C 
HETATM    9  O3  UNL     1      -4.182  48.644 -23.595  1.00  0.00    -0.293 OA
HETATM   10  C17 UNL     1      -2.233  49.801 -22.895  1.00  0.00     0.094 C 
HETATM   11  C18 UNL     1      -1.804  50.618 -21.677  1.00  0.00    -0.022 C 
HETATM   12  C19 UNL     1      -2.835  51.774 -21.477  1.00  0.00     0.017 C 
HETATM   13  C20 UNL     1      -5.331  47.983 -21.002  1.00  0.00    -0.007 C 
HETATM   14  C21 UNL     1      -5.330  46.695 -21.862  1.00  0.00     0.021 C 
HETATM   15  C22 UNL     1      -6.427  48.982 -21.463  1.00  0.00     0.022 C 
HETATM   16  C23 UNL     1      -7.846  48.520 -21.201  1.00  0.00     0.080 C 
HETATM   17  C24 UNL     1      -8.033  48.259 -19.729  1.00  0.00     0.135 C 
HETATM   18  O4  UNL     1      -8.929  48.823 -19.102  1.00  0.00    -0.297 OA
HETATM   19  C25 UNL     1      -7.093  47.237 -19.083  1.00  0.00     0.018 C 
HETATM   20  C26 UNL     1      -7.545  45.831 -19.533  1.00  0.00     0.023 C 
HETATM   21  C27 UNL     1      -7.304  47.261 -17.548  1.00  0.00     0.023 C 
HETATM   22  C28 UNL     1      -5.591  47.572 -19.482  1.00  0.00     0.021 C 
HETATM   23  C29 UNL     1      -4.994  48.651 -18.561  1.00  0.00     0.090 C 
HETATM   24  C30 UNL     1      -3.521  48.776 -18.819  1.00  0.00     0.157 C 
HETATM   25  O5  UNL     1      -2.702  48.693 -17.910  1.00  0.00    -0.293 OA
ENDROOT
BRANCH   1  26
HETATM   26  C2  UNL     1      -0.047  52.511 -22.506  1.00  0.00    -0.014 C 
HETATM   27  C1  UNL     1       1.048  53.328 -21.794  1.00  0.00     0.010 C 
BRANCH  26  28
HETATM   28  C3  UNL     1       0.363  52.192 -23.964  1.00  0.00     0.007 C 
BRANCH  28  29
HETATM   29  C4  UNL     1      -0.430  52.931 -25.055  1.00  0.00     0.035 C 
BRANCH  29  30
HETATM   30  C5  UNL     1       0.368  53.289 -26.320  1.00  0.00     0.151 C 
BRANCH  30  31
HETATM   31  O1  UNL     1       0.048  54.654 -26.668  1.00  0.00    -0.393 OA
HETATM   32  H10 UNL     1       0.373  55.219 -25.946  1.00  0.00     0.210 HD
ENDBRANCH  30  31
BRANCH  30  33
HETATM   33  C6  UNL     1       0.109  52.431 -27.594  1.00  0.00     0.076 C 
HETATM   34  C7  UNL     1       1.369  51.772 -28.149  1.00  0.00     0.048 C 
HETATM   35  C8  UNL     1      -0.995  51.381 -27.417  1.00  0.00     0.048 C 
BRANCH  33  36
HETATM   36  O2  UNL     1      -0.357  53.345 -28.609  1.00  0.00    -0.388 OA
HETATM   37  H17 UNL     1      -1.070  53.855 -28.174  1.00  0.00     0.210 HD
ENDBRANCH  33  36
ENDBRANCH  30  33
ENDBRANCH  29  30
ENDBRANCH  28  29
ENDBRANCH  26  28
ENDBRANCH   1  26
TORSDOF 7
ENDMDL
MODEL 3
REMARK minimizedAffinity -9.32470226
REMARK  7 active torsions:
REMARK  status: ('A' for Active; 'I' for Inactive)
REMARK    1  A    between atoms: C2_2  and  C3_3 
REMARK    2  A    between atoms: C2_2  and  C9_11 
REMARK    3  A    between atoms: C3_3  and  C4_4 
REMARK    4  A    between atoms: C4_4  and  C5_5 
REMARK    5  A    between atoms: C5_5  and  O1_6 
REMARK    6  A    between atoms: C5_5  and  C6_7 
REMARK    7  A    between atoms: C6_7  and  O2_10 
ROOT
HETATM    1  C9  UNL     1      -1.094  51.561 -22.157  1.00  0.00    -0.001 C 
HETATM    2  C10 UNL     1      -0.532  51.240 -23.574  1.00  0.00     0.007 C 
HETATM    3  C11 UNL     1      -1.679  50.636 -24.402  1.00  0.00     0.015 C 
HETATM    4  C12 UNL     1      -2.952  50.909 -23.581  1.00  0.00    -0.004 C 
HETATM    5  C13 UNL     1      -3.419  52.357 -23.921  1.00  0.00     0.021 C 
HETATM    6  C14 UNL     1      -4.176  50.036 -23.773  1.00  0.00     0.007 C 
HETATM    7  C15 UNL     1      -5.106  49.827 -22.813  1.00  0.00     0.007 C 
HETATM    8  C16 UNL     1      -4.826  50.445 -21.447  1.00  0.00     0.157 C 
HETATM    9  O3  UNL     1      -5.663  50.385 -20.547  1.00  0.00    -0.293 OA
HETATM   10  C17 UNL     1      -3.501  51.146 -21.160  1.00  0.00     0.094 C 
HETATM   11  C18 UNL     1      -2.400  50.704 -22.122  1.00  0.00    -0.022 C 
HETATM   12  C19 UNL     1      -2.030  49.222 -21.795  1.00  0.00     0.017 C 
HETATM   13  C20 UNL     1      -6.426  49.016 -23.002  1.00  0.00    -0.007 C 
HETATM   14  C21 UNL     1      -7.601  49.937 -22.587  1.00  0.00     0.021 C 
HETATM   15  C22 UNL     1      -6.329  47.763 -22.091  1.00  0.00     0.022 C 
HETATM   16  C23 UNL     1      -7.470  46.779 -22.252  1.00  0.00     0.080 C 
HETATM   17  C24 UNL     1      -7.545  46.318 -23.685  1.00  0.00     0.135 C 
HETATM   18  O4  UNL     1      -7.504  45.119 -23.959  1.00  0.00    -0.297 OA
HETATM   19  C25 UNL     1      -7.721  47.402 -24.752  1.00  0.00     0.018 C 
HETATM   20  C26 UNL     1      -9.183  47.895 -24.687  1.00  0.00     0.023 C 
HETATM   21  C27 UNL     1      -7.571  46.756 -26.153  1.00  0.00     0.023 C 
HETATM   22  C28 UNL     1      -6.656  48.558 -24.513  1.00  0.00     0.021 C 
HETATM   23  C29 UNL     1      -5.297  48.206 -25.143  1.00  0.00     0.090 C 
HETATM   24  C30 UNL     1      -4.393  49.404 -25.097  1.00  0.00     0.157 C 
HETATM   25  O5  UNL     1      -3.842  49.830 -26.106  1.00  0.00    -0.293 OA
ENDROOT
BRANCH   1  26
HETATM   26  C2  UNL     1      -0.008  51.396 -21.045  1.00  0.00    -0.014 C 
HETATM   27  C1  UNL     1       1.278  52.140 -21.453  1.00  0.00     0.010 C 
BRANCH  26  28
HETATM   28  C3  UNL     1      -0.513  51.881 -19.665  1.00  0.00     0.007 C 
BRANCH  28  29
HETATM   29  C4  UNL     1       0.300  51.402 -18.452  1.00  0.00     0.035 C 
BRANCH  29  30
HETATM   30  C5  UNL     1       0.812  52.514 -17.521  1.00  0.00     0.151 C 
BRANCH  30  31
HETATM   31  O1  UNL     1       1.783  53.290 -18.257  1.00  0.00    -0.393 OA
HETATM   32  H10 UNL     1       1.313  53.716 -18.994  1.00  0.00     0.210 HD
ENDBRANCH  30  31
BRANCH  30  33
HETATM   33  C6  UNL     1       1.504  52.073 -16.197  1.00  0.00     0.076 C 
HETATM   34  C7  UNL     1       1.079  50.686 -15.722  1.00  0.00     0.048 C 
HETATM   35  C8  UNL     1       3.034  52.165 -16.239  1.00  0.00     0.048 C 
BRANCH  33  36
HETATM   36  O2  UNL     1       1.068  53.005 -15.184  1.00  0.00    -0.388 OA
HETATM   37  H17 UNL     1       1.219  53.887 -15.579  1.00  0.00     0.210 HD
ENDBRANCH  33  36
ENDBRANCH  30  33
ENDBRANCH  29  30
ENDBRANCH  28  29
ENDBRANCH  26  28
ENDBRANCH   1  26
TORSDOF 7
ENDMDL
MODEL 4
REMARK minimizedAffinity -9.28320885
REMARK  7 active torsions:
REMARK  status: ('A' for Active; 'I' for Inactive)
REMARK    1  A    between atoms: C2_2  and  C3_3 
REMARK    2  A    between atoms: C2_2  and  C9_11 
REMARK    3  A    between atoms: C3_3  and  C4_4 
REMARK    4  A    between atoms: C4_4  and  C5_5 
REMARK    5  A    between atoms: C5_5  and  O1_6 
REMARK    6  A    between atoms: C5_5  and  C6_7 
REMARK    7  A    between atoms: C6_7  and  O2_10 
ROOT
HETATM    1  C9  UNL     1      -5.608  49.081 -22.238  1.00  0.00    -0.001 C 
HETATM    2  C10 UNL     1      -5.937  48.256 -23.517  1.00  0.00     0.007 C 
HETATM    3  C11 UNL     1      -4.763  48.430 -24.497  1.00  0.00     0.015 C 
HETATM    4  C12 UNL     1      -3.641  49.075 -23.665  1.00  0.00    -0.004 C 
HETATM    5  C13 UNL     1      -2.897  47.923 -22.921  1.00  0.00     0.021 C 
HETATM    6  C14 UNL     1      -2.554  49.874 -24.354  1.00  0.00     0.007 C 
HETATM    7  C15 UNL     1      -1.865  50.874 -23.757  1.00  0.00     0.007 C 
HETATM    8  C16 UNL     1      -2.296  51.249 -22.343  1.00  0.00     0.157 C 
HETATM    9  O3  UNL     1      -1.663  52.079 -21.692  1.00  0.00    -0.293 OA
HETATM   10  C17 UNL     1      -3.525  50.609 -21.702  1.00  0.00     0.094 C 
HETATM   11  C18 UNL     1      -4.482  50.036 -22.747  1.00  0.00    -0.022 C 
HETATM   12  C19 UNL     1      -5.133  51.228 -23.519  1.00  0.00     0.017 C 
HETATM   13  C20 UNL     1      -0.675  51.654 -24.399  1.00  0.00    -0.007 C 
HETATM   14  C21 UNL     1       0.530  51.544 -23.432  1.00  0.00     0.021 C 
HETATM   15  C22 UNL     1      -1.136  53.126 -24.578  1.00  0.00     0.022 C 
HETATM   16  C23 UNL     1      -0.152  54.006 -25.323  1.00  0.00     0.080 C 
HETATM   17  C24 UNL     1       0.117  53.426 -26.687  1.00  0.00     0.135 C 
HETATM   18  O4  UNL     1      -0.058  54.101 -27.700  1.00  0.00    -0.297 OA
HETATM   19  C25 UNL     1       0.657  51.993 -26.735  1.00  0.00     0.018 C 
HETATM   20  C26 UNL     1       2.139  52.033 -26.305  1.00  0.00     0.023 C 
HETATM   21  C27 UNL     1       0.673  51.512 -28.208  1.00  0.00     0.023 C 
HETATM   22  C28 UNL     1      -0.240  51.058 -25.814  1.00  0.00     0.021 C 
HETATM   23  C29 UNL     1      -1.496  50.574 -26.562  1.00  0.00     0.090 C 
HETATM   24  C30 UNL     1      -2.194  49.522 -25.749  1.00  0.00     0.157 C 
HETATM   25  O5  UNL     1      -2.473  48.427 -26.223  1.00  0.00    -0.293 OA
ENDROOT
BRANCH   1  26
HETATM   26  C2  UNL     1      -6.895  49.660 -21.567  1.00  0.00    -0.014 C 
HETATM   27  C1  UNL     1      -8.149  49.070 -22.240  1.00  0.00     0.010 C 
BRANCH  26  28
HETATM   28  C3  UNL     1      -6.917  49.405 -20.040  1.00  0.00     0.007 C 
BRANCH  28  29
HETATM   29  C4  UNL     1      -7.842  48.272 -19.568  1.00  0.00     0.035 C 
BRANCH  29  30
HETATM   30  C5  UNL     1      -7.454  47.619 -18.230  1.00  0.00     0.151 C 
BRANCH  30  31
HETATM   31  O1  UNL     1      -7.942  48.470 -17.169  1.00  0.00    -0.393 OA
HETATM   32  H10 UNL     1      -8.913  48.471 -17.225  1.00  0.00     0.210 HD
ENDBRANCH  30  31
BRANCH  30  33
HETATM   33  C6  UNL     1      -5.937  47.394 -17.959  1.00  0.00     0.076 C 
HETATM   34  C7  UNL     1      -5.661  46.483 -16.766  1.00  0.00     0.048 C 
HETATM   35  C8  UNL     1      -5.158  46.899 -19.185  1.00  0.00     0.048 C 
BRANCH  33  36
HETATM   36  O2  UNL     1      -5.389  48.687 -17.624  1.00  0.00    -0.388 OA
HETATM   37  H17 UNL     1      -5.707  49.281 -18.334  1.00  0.00     0.210 HD
ENDBRANCH  33  36
ENDBRANCH  30  33
ENDBRANCH  29  30
ENDBRANCH  28  29
ENDBRANCH  26  28
ENDBRANCH   1  26
TORSDOF 7
ENDMDL
MODEL 5
REMARK minimizedAffinity -9.0057478
REMARK  7 active torsions:
REMARK  status: ('A' for Active; 'I' for Inactive)
REMARK    1  A    between atoms: C2_2  and  C3_3 
REMARK    2  A    between atoms: C2_2  and  C9_11 
REMARK    3  A    between atoms: C3_3  and  C4_4 
REMARK    4  A    between atoms: C4_4  and  C5_5 
REMARK    5  A    between atoms: C5_5  and  O1_6 
REMARK    6  A    between atoms: C5_5  and  C6_7 
REMARK    7  A    between atoms: C6_7  and  O2_10 
ROOT
HETATM    1  C9  UNL     1      -4.349  49.390 -25.049  1.00  0.00    -0.001 C 
HETATM    2  C10 UNL     1      -5.321  48.232 -24.677  1.00  0.00     0.007 C 
HETATM    3  C11 UNL     1      -5.394  48.161 -23.142  1.00  0.00     0.015 C 
HETATM    4  C12 UNL     1      -4.731  49.461 -22.651  1.00  0.00    -0.004 C 
HETATM    5  C13 UNL     1      -5.820  50.577 -22.687  1.00  0.00     0.021 C 
HETATM    6  C14 UNL     1      -4.137  49.526 -21.258  1.00  0.00     0.007 C 
HETATM    7  C15 UNL     1      -3.122  50.351 -20.913  1.00  0.00     0.007 C 
HETATM    8  C16 UNL     1      -2.508  51.182 -22.036  1.00  0.00     0.157 C 
HETATM    9  O3  UNL     1      -1.648  52.028 -21.794  1.00  0.00    -0.293 OA
HETATM   10  C17 UNL     1      -2.940  50.981 -23.487  1.00  0.00     0.094 C 
HETATM   11  C18 UNL     1      -3.577  49.610 -23.709  1.00  0.00    -0.022 C 
HETATM   12  C19 UNL     1      -2.461  48.525 -23.577  1.00  0.00     0.017 C 
HETATM   13  C20 UNL     1      -2.548  50.518 -19.471  1.00  0.00    -0.007 C 
HETATM   14  C21 UNL     1      -2.617  52.024 -19.114  1.00  0.00     0.021 C 
HETATM   15  C22 UNL     1      -1.085  49.999 -19.498  1.00  0.00     0.022 C 
HETATM   16  C23 UNL     1      -0.411  49.952 -18.142  1.00  0.00     0.080 C 
HETATM   17  C24 UNL     1      -1.206  49.076 -17.209  1.00  0.00     0.135 C 
HETATM   18  O4  UNL     1      -0.674  48.125 -16.639  1.00  0.00    -0.297 OA
HETATM   19  C25 UNL     1      -2.671  49.461 -16.979  1.00  0.00     0.018 C 
HETATM   20  C26 UNL     1      -2.694  50.702 -16.060  1.00  0.00     0.023 C 
HETATM   21  C27 UNL     1      -3.363  48.338 -16.165  1.00  0.00     0.023 C 
HETATM   22  C28 UNL     1      -3.381  49.704 -18.380  1.00  0.00     0.021 C 
HETATM   23  C29 UNL     1      -3.861  48.380 -19.001  1.00  0.00     0.090 C 
HETATM   24  C30 UNL     1      -4.719  48.666 -20.200  1.00  0.00     0.157 C 
HETATM   25  O5  UNL     1      -5.845  48.193 -20.309  1.00  0.00    -0.293 OA
ENDROOT
BRANCH   1  26
HETATM   26  C2  UNL     1      -3.570  49.097 -26.373  1.00  0.00    -0.014 C 
HETATM   27  C1  UNL     1      -4.443  48.253 -27.320  1.00  0.00     0.010 C 
BRANCH  26  28
HETATM   28  C3  UNL     1      -3.101  50.398 -27.068  1.00  0.00     0.007 C 
BRANCH  28  29
HETATM   29  C4  UNL     1      -1.605  50.724 -26.930  1.00  0.00     0.035 C 
BRANCH  29  30
HETATM   30  C5  UNL     1      -1.279  52.180 -26.558  1.00  0.00     0.151 C 
BRANCH  30  31
HETATM   31  O1  UNL     1      -2.415  52.992 -26.926  1.00  0.00    -0.393 OA
HETATM   32  H10 UNL     1      -3.164  52.708 -26.374  1.00  0.00     0.210 HD
ENDBRANCH  30  31
BRANCH  30  33
HETATM   33  C6  UNL     1      -0.031  52.827 -27.231  1.00  0.00     0.076 C 
HETATM   34  C7  UNL     1       0.668  51.904 -28.226  1.00  0.00     0.048 C 
HETATM   35  C8  UNL     1      -0.317  54.183 -27.887  1.00  0.00     0.048 C 
BRANCH  33  36
HETATM   36  O2  UNL     1       0.915  53.079 -26.170  1.00  0.00    -0.388 OA
HETATM   37  H17 UNL     1       0.397  53.544 -25.483  1.00  0.00     0.210 HD
ENDBRANCH  33  36
ENDBRANCH  30  33
ENDBRANCH  29  30
ENDBRANCH  28  29
ENDBRANCH  26  28
ENDBRANCH   1  26
TORSDOF 7
ENDMDL
MODEL 6
REMARK minimizedAffinity -8.8488636
REMARK  7 active torsions:
REMARK  status: ('A' for Active; 'I' for Inactive)
REMARK    1  A    between atoms: C2_2  and  C3_3 
REMARK    2  A    between atoms: C2_2  and  C9_11 
REMARK    3  A    between atoms: C3_3  and  C4_4 
REMARK    4  A    between atoms: C4_4  and  C5_5 
REMARK    5  A    between atoms: C5_5  and  O1_6 
REMARK    6  A    between atoms: C5_5  and  C6_7 
REMARK    7  A    between atoms: C6_7  and  O2_10 
ROOT
HETATM    1  C9  UNL     1      -5.245  48.142 -22.262  1.00  0.00    -0.001 C 
HETATM    2  C10 UNL     1      -5.063  49.121 -21.064  1.00  0.00     0.007 C 
HETATM    3  C11 UNL     1      -4.315  50.360 -21.586  1.00  0.00     0.015 C 
HETATM    4  C12 UNL     1      -4.356  50.235 -23.119  1.00  0.00    -0.004 C 
HETATM    5  C13 UNL     1      -5.724  50.816 -23.592  1.00  0.00     0.021 C 
HETATM    6  C14 UNL     1      -3.310  50.935 -23.963  1.00  0.00     0.007 C 
HETATM    7  C15 UNL     1      -2.925  50.507 -25.187  1.00  0.00     0.007 C 
HETATM    8  C16 UNL     1      -3.533  49.195 -25.674  1.00  0.00     0.157 C 
HETATM    9  O3  UNL     1      -3.313  48.785 -26.812  1.00  0.00    -0.293 OA
HETATM   10  C17 UNL     1      -4.424  48.358 -24.760  1.00  0.00     0.094 C 
HETATM   11  C18 UNL     1      -4.193  48.679 -23.284  1.00  0.00    -0.022 C 
HETATM   12  C19 UNL     1      -2.777  48.152 -22.885  1.00  0.00     0.017 C 
HETATM   13  C20 UNL     1      -1.924  51.251 -26.126  1.00  0.00    -0.007 C 
HETATM   14  C21 UNL     1      -2.635  51.469 -27.485  1.00  0.00     0.021 C 
HETATM   15  C22 UNL     1      -0.672  50.344 -26.271  1.00  0.00     0.022 C 
HETATM   16  C23 UNL     1       0.473  50.974 -27.039  1.00  0.00     0.080 C 
HETATM   17  C24 UNL     1       0.893  52.256 -26.368  1.00  0.00     0.135 C 
HETATM   18  O4  UNL     1       2.060  52.426 -26.020  1.00  0.00    -0.297 OA
HETATM   19  C25 UNL     1      -0.185  53.329 -26.192  1.00  0.00     0.018 C 
HETATM   20  C26 UNL     1      -0.441  53.971 -27.573  1.00  0.00     0.023 C 
HETATM   21  C27 UNL     1       0.382  54.471 -25.311  1.00  0.00     0.023 C 
HETATM   22  C28 UNL     1      -1.486  52.675 -25.553  1.00  0.00     0.021 C 
HETATM   23  C29 UNL     1      -1.373  52.586 -24.021  1.00  0.00     0.090 C 
HETATM   24  C30 UNL     1      -2.696  52.178 -23.439  1.00  0.00     0.157 C 
HETATM   25  O5  UNL     1      -3.236  52.834 -22.555  1.00  0.00    -0.293 OA
ENDROOT
BRANCH   1  26
HETATM   26  C2  UNL     1      -5.215  46.647 -21.806  1.00  0.00    -0.014 C 
HETATM   27  C1  UNL     1      -4.746  46.554 -20.342  1.00  0.00     0.010 C 
BRANCH  26  28
HETATM   28  C3  UNL     1      -6.589  45.958 -21.991  1.00  0.00     0.007 C 
BRANCH  28  29
HETATM   29  C4  UNL     1      -7.754  46.887 -22.368  1.00  0.00     0.035 C 
BRANCH  29  30
HETATM   30  C5  UNL     1      -8.607  46.423 -23.562  1.00  0.00     0.151 C 
BRANCH  30  31
HETATM   31  O1  UNL     1      -7.939  45.292 -24.164  1.00  0.00    -0.393 OA
HETATM   32  H10 UNL     1      -7.937  44.575 -23.508  1.00  0.00     0.210 HD
ENDBRANCH  30  31
BRANCH  30  33
HETATM   33  C6  UNL     1      -8.858  47.453 -24.703  1.00  0.00     0.076 C 
HETATM   34  C7  UNL     1      -8.313  48.846 -24.395  1.00  0.00     0.048 C 
HETATM   35  C8  UNL     1      -8.358  46.989 -26.076  1.00  0.00     0.048 C 
BRANCH  33  36
HETATM   36  O2  UNL     1     -10.291  47.589 -24.816  1.00  0.00    -0.388 OA
HETATM   37  H17 UNL     1     -10.622  46.670 -24.865  1.00  0.00     0.210 HD
ENDBRANCH  33  36
ENDBRANCH  30  33
ENDBRANCH  29  30
ENDBRANCH  28  29
ENDBRANCH  26  28
ENDBRANCH   1  26
TORSDOF 7
ENDMDL
MODEL 7
REMARK minimizedAffinity -8.83980942
REMARK  7 active torsions:
REMARK  status: ('A' for Active; 'I' for Inactive)
REMARK    1  A    between atoms: C2_2  and  C3_3 
REMARK    2  A    between atoms: C2_2  and  C9_11 
REMARK    3  A    between atoms: C3_3  and  C4_4 
REMARK    4  A    between atoms: C4_4  and  C5_5 
REMARK    5  A    between atoms: C5_5  and  O1_6 
REMARK    6  A    between atoms: C5_5  and  C6_7 
REMARK    7  A    between atoms: C6_7  and  O2_10 
ROOT
HETATM    1  C9  UNL     1      -4.350  49.101 -20.865  1.00  0.00    -0.001 C 
HETATM    2  C10 UNL     1      -5.119  48.361 -21.999  1.00  0.00     0.007 C 
HETATM    3  C11 UNL     1      -4.326  48.557 -23.302  1.00  0.00     0.015 C 
HETATM    4  C12 UNL     1      -2.964  49.121 -22.860  1.00  0.00    -0.004 C 
HETATM    5  C13 UNL     1      -2.072  47.907 -22.456  1.00  0.00     0.021 C 
HETATM    6  C14 UNL     1      -2.128  49.927 -23.834  1.00  0.00     0.007 C 
HETATM    7  C15 UNL     1      -1.236  50.870 -23.454  1.00  0.00     0.007 C 
HETATM    8  C16 UNL     1      -1.161  51.175 -21.961  1.00  0.00     0.157 C 
HETATM    9  O3  UNL     1      -0.312  51.948 -21.520  1.00  0.00    -0.293 OA
HETATM   10  C17 UNL     1      -2.140  50.536 -20.980  1.00  0.00     0.094 C 
HETATM   11  C18 UNL     1      -3.412  50.052 -21.674  1.00  0.00    -0.022 C 
HETATM   12  C19 UNL     1      -4.225  51.304 -22.133  1.00  0.00     0.017 C 
HETATM   13  C20 UNL     1      -0.289  51.652 -24.417  1.00  0.00    -0.007 C 
HETATM   14  C21 UNL     1       1.160  51.452 -23.909  1.00  0.00     0.021 C 
HETATM   15  C22 UNL     1      -0.715  53.144 -24.367  1.00  0.00     0.022 C 
HETATM   16  C23 UNL     1       0.009  54.037 -25.356  1.00  0.00     0.080 C 
HETATM   17  C24 UNL     1      -0.212  53.529 -26.757  1.00  0.00     0.135 C 
HETATM   18  O4  UNL     1      -0.679  54.266 -27.623  1.00  0.00    -0.297 OA
HETATM   19  C25 UNL     1       0.215  52.086 -27.045  1.00  0.00     0.018 C 
HETATM   20  C26 UNL     1       1.757  52.059 -27.127  1.00  0.00     0.023 C 
HETATM   21  C27 UNL     1      -0.275  51.690 -28.460  1.00  0.00     0.023 C 
HETATM   22  C28 UNL     1      -0.371  51.126 -25.922  1.00  0.00     0.021 C 
HETATM   23  C29 UNL     1      -1.823  50.722 -26.233  1.00  0.00     0.090 C 
HETATM   24  C30 UNL     1      -2.263  49.645 -25.283  1.00  0.00     0.157 C 
HETATM   25  O5  UNL     1      -2.733  48.587 -25.687  1.00  0.00    -0.293 OA
ENDROOT
BRANCH   1  26
HETATM   26  C2  UNL     1      -5.318  49.677 -19.780  1.00  0.00    -0.014 C 
HETATM   27  C1  UNL     1      -6.659  50.068 -20.429  1.00  0.00     0.010 C 
BRANCH  26  28
HETATM   28  C3  UNL     1      -5.537  48.684 -18.614  1.00  0.00     0.007 C 
BRANCH  28  29
HETATM   29  C4  UNL     1      -4.344  48.499 -17.663  1.00  0.00     0.035 C 
BRANCH  29  30
HETATM   30  C5  UNL     1      -3.020  49.122 -18.139  1.00  0.00     0.151 C 
BRANCH  30  31
HETATM   31  O1  UNL     1      -2.020  48.080 -18.138  1.00  0.00    -0.393 OA
HETATM   32  H10 UNL     1      -2.290  47.420 -18.800  1.00  0.00     0.210 HD
ENDBRANCH  30  31
BRANCH  30  33
HETATM   33  C6  UNL     1      -2.441  50.298 -17.298  1.00  0.00     0.076 C 
HETATM   34  C7  UNL     1      -2.885  50.276 -15.837  1.00  0.00     0.048 C 
HETATM   35  C8  UNL     1      -0.914  50.422 -17.378  1.00  0.00     0.048 C 
BRANCH  33  36
HETATM   36  O2  UNL     1      -2.978  51.509 -17.872  1.00  0.00    -0.388 OA
HETATM   37  H17 UNL     1      -2.807  51.424 -18.831  1.00  0.00     0.210 HD
ENDBRANCH  33  36
ENDBRANCH  30  33
ENDBRANCH  29  30
ENDBRANCH  28  29
ENDBRANCH  26  28
ENDBRANCH   1  26
TORSDOF 7
ENDMDL
MODEL 8
REMARK minimizedAffinity -8.77987766
REMARK  7 active torsions:
REMARK  status: ('A' for Active; 'I' for Inactive)
REMARK    1  A    between atoms: C2_2  and  C3_3 
REMARK    2  A    between atoms: C2_2  and  C9_11 
REMARK    3  A    between atoms: C3_3  and  C4_4 
REMARK    4  A    between atoms: C4_4  and  C5_5 
REMARK    5  A    between atoms: C5_5  and  O1_6 
REMARK    6  A    between atoms: C5_5  and  C6_7 
REMARK    7  A    between atoms: C6_7  and  O2_10 
ROOT
HETATM    1  C9  UNL     1      -1.892  51.863 -22.306  1.00  0.00    -0.001 C 
HETATM    2  C10 UNL     1      -2.322  51.289 -23.687  1.00  0.00     0.007 C 
HETATM    3  C11 UNL     1      -3.224  50.071 -23.424  1.00  0.00     0.015 C 
HETATM    4  C12 UNL     1      -3.566  50.144 -21.925  1.00  0.00    -0.004 C 
HETATM    5  C13 UNL     1      -4.775  51.117 -21.775  1.00  0.00     0.021 C 
HETATM    6  C14 UNL     1      -3.968  48.887 -21.180  1.00  0.00     0.007 C 
HETATM    7  C15 UNL     1      -3.782  48.711 -19.852  1.00  0.00     0.007 C 
HETATM    8  C16 UNL     1      -3.043  49.823 -19.113  1.00  0.00     0.157 C 
HETATM    9  O3  UNL     1      -2.917  49.789 -17.890  1.00  0.00    -0.293 OA
HETATM   10  C17 UNL     1      -2.437  51.001 -19.873  1.00  0.00     0.094 C 
HETATM   11  C18 UNL     1      -2.202  50.670 -21.346  1.00  0.00    -0.022 C 
HETATM   12  C19 UNL     1      -1.040  49.629 -21.434  1.00  0.00     0.017 C 
HETATM   13  C20 UNL     1      -4.269  47.475 -19.031  1.00  0.00    -0.007 C 
HETATM   14  C21 UNL     1      -5.138  48.005 -17.864  1.00  0.00     0.021 C 
HETATM   15  C22 UNL     1      -3.001  46.740 -18.517  1.00  0.00     0.022 C 
HETATM   16  C23 UNL     1      -3.280  45.426 -17.815  1.00  0.00     0.080 C 
HETATM   17  C24 UNL     1      -4.021  44.499 -18.744  1.00  0.00     0.135 C 
HETATM   18  O4  UNL     1      -3.580  43.378 -18.991  1.00  0.00    -0.297 OA
HETATM   19  C25 UNL     1      -5.350  45.006 -19.311  1.00  0.00     0.018 C 
HETATM   20  C26 UNL     1      -6.401  44.941 -18.181  1.00  0.00     0.023 C 
HETATM   21  C27 UNL     1      -5.849  44.010 -20.389  1.00  0.00     0.023 C 
HETATM   22  C28 UNL     1      -5.152  46.469 -19.900  1.00  0.00     0.021 C 
HETATM   23  C29 UNL     1      -4.596  46.425 -21.335  1.00  0.00     0.090 C 
HETATM   24  C30 UNL     1      -4.636  47.800 -21.935  1.00  0.00     0.157 C 
HETATM   25  O5  UNL     1      -5.179  48.013 -23.014  1.00  0.00    -0.293 OA
ENDROOT
BRANCH   1  26
HETATM   26  C2  UNL     1      -0.461  52.492 -22.353  1.00  0.00    -0.014 C 
HETATM   27  C1  UNL     1       0.361  52.016 -21.141  1.00  0.00     0.010 C 
BRANCH  26  28
HETATM   28  C3  UNL     1       0.270  52.168 -23.678  1.00  0.00     0.007 C 
BRANCH  28  29
HETATM   29  C4  UNL     1       0.680  53.382 -24.526  1.00  0.00     0.035 C 
BRANCH  29  30
HETATM   30  C5  UNL     1       0.274  53.319 -26.008  1.00  0.00     0.151 C 
BRANCH  30  31
HETATM   31  O1  UNL     1      -1.165  53.208 -26.064  1.00  0.00    -0.393 OA
HETATM   32  H10 UNL     1      -1.532  54.028 -25.693  1.00  0.00     0.210 HD
ENDBRANCH  30  31
BRANCH  30  33
HETATM   33  C6  UNL     1       0.846  52.143 -26.855  1.00  0.00     0.076 C 
HETATM   34  C7  UNL     1       0.266  50.783 -26.476  1.00  0.00     0.048 C 
HETATM   35  C8  UNL     1       0.728  52.359 -28.369  1.00  0.00     0.048 C 
BRANCH  33  36
HETATM   36  O2  UNL     1       2.258  52.083 -26.561  1.00  0.00    -0.388 OA
HETATM   37  H17 UNL     1       2.572  53.003 -26.672  1.00  0.00     0.210 HD
ENDBRANCH  33  36
ENDBRANCH  30  33
ENDBRANCH  29  30
ENDBRANCH  28  29
ENDBRANCH  26  28
ENDBRANCH   1  26
TORSDOF 7
ENDMDL
MODEL 9
REMARK minimizedAffinity -8.5302763
REMARK  7 active torsions:
REMARK  status: ('A' for Active; 'I' for Inactive)
REMARK    1  A    between atoms: C2_2  and  C3_3 
REMARK    2  A    between atoms: C2_2  and  C9_11 
REMARK    3  A    between atoms: C3_3  and  C4_4 
REMARK    4  A    between atoms: C4_4  and  C5_5 
REMARK    5  A    between atoms: C5_5  and  O1_6 
REMARK    6  A    between atoms: C5_5  and  C6_7 
REMARK    7  A    between atoms: C6_7  and  O2_10 
ROOT
HETATM    1  C9  UNL     1      -5.278  48.390 -21.718  1.00  0.00    -0.001 C 
HETATM    2  C10 UNL     1      -5.200  49.579 -20.716  1.00  0.00     0.007 C 
HETATM    3  C11 UNL     1      -4.508  50.749 -21.437  1.00  0.00     0.015 C 
HETATM    4  C12 UNL     1      -4.485  50.345 -22.922  1.00  0.00    -0.004 C 
HETATM    5  C13 UNL     1      -5.866  50.741 -23.529  1.00  0.00     0.021 C 
HETATM    6  C14 UNL     1      -3.451  50.947 -23.852  1.00  0.00     0.007 C 
HETATM    7  C15 UNL     1      -2.996  50.331 -24.967  1.00  0.00     0.007 C 
HETATM    8  C16 UNL     1      -3.507  48.915 -25.219  1.00  0.00     0.157 C 
HETATM    9  O3  UNL     1      -3.219  48.320 -26.257  1.00  0.00    -0.293 OA
HETATM   10  C17 UNL     1      -4.380  48.201 -24.191  1.00  0.00     0.094 C 
HETATM   11  C18 UNL     1      -4.223  48.800 -22.794  1.00  0.00    -0.022 C 
HETATM   12  C19 UNL     1      -2.794  48.448 -22.268  1.00  0.00     0.017 C 
HETATM   13  C20 UNL     1      -2.007  50.956 -26.000  1.00  0.00    -0.007 C 
HETATM   14  C21 UNL     1      -2.678  50.876 -27.394  1.00  0.00     0.021 C 
HETATM   15  C22 UNL     1      -0.698  50.122 -25.943  1.00  0.00     0.022 C 
HETATM   16  C23 UNL     1       0.435  50.675 -26.785  1.00  0.00     0.080 C 
HETATM   17  C24 UNL     1       0.752  52.082 -26.350  1.00  0.00     0.135 C 
HETATM   18  O4  UNL     1       1.893  52.389 -26.009  1.00  0.00    -0.297 OA
HETATM   19  C25 UNL     1      -0.394  53.097 -26.402  1.00  0.00     0.018 C 
HETATM   20  C26 UNL     1      -0.636  53.459 -27.883  1.00  0.00     0.023 C 
HETATM   21  C27 UNL     1       0.070  54.414 -25.731  1.00  0.00     0.023 C 
HETATM   22  C28 UNL     1      -1.676  52.485 -25.687  1.00  0.00     0.021 C 
HETATM   23  C29 UNL     1      -1.616  52.684 -24.162  1.00  0.00     0.090 C 
HETATM   24  C30 UNL     1      -2.933  52.303 -23.550  1.00  0.00     0.157 C 
HETATM   25  O5  UNL     1      -3.544  53.071 -22.816  1.00  0.00    -0.293 OA
ENDROOT
BRANCH   1  26
HETATM   26  C2  UNL     1      -5.177  47.008 -20.994  1.00  0.00    -0.014 C 
HETATM   27  C1  UNL     1      -5.911  45.930 -21.815  1.00  0.00     0.010 C 
BRANCH  26  28
HETATM   28  C3  UNL     1      -3.708  46.597 -20.733  1.00  0.00     0.007 C 
BRANCH  28  29
HETATM   29  C4  UNL     1      -3.311  46.446 -19.256  1.00  0.00     0.035 C 
BRANCH  29  30
HETATM   30  C5  UNL     1      -2.810  47.731 -18.573  1.00  0.00     0.151 C 
BRANCH  30  31
HETATM   31  O1  UNL     1      -1.416  47.893 -18.913  1.00  0.00    -0.393 OA
HETATM   32  H10 UNL     1      -1.367  48.033 -19.874  1.00  0.00     0.210 HD
ENDBRANCH  30  31
BRANCH  30  33
HETATM   33  C6  UNL     1      -2.903  47.797 -17.020  1.00  0.00     0.076 C 
HETATM   34  C7  UNL     1      -2.941  49.222 -16.473  1.00  0.00     0.048 C 
HETATM   35  C8  UNL     1      -4.063  46.982 -16.435  1.00  0.00     0.048 C 
BRANCH  33  36
HETATM   36  O2  UNL     1      -1.690  47.197 -16.517  1.00  0.00    -0.388 OA
HETATM   37  H17 UNL     1      -1.618  46.348 -16.997  1.00  0.00     0.210 HD
ENDBRANCH  33  36
ENDBRANCH  30  33
ENDBRANCH  29  30
ENDBRANCH  28  29
ENDBRANCH  26  28
ENDBRANCH   1  26
TORSDOF 7
ENDMDL
