MODEL 1
REMARK minimizedAffinity -8.12130833
REMARK CNNscore 0.548373222
REMARK CNNaffinity 6.95195818
REMARK  12 active torsions:
REMARK  status: ('A' for Active; 'I' for Inactive)
REMARK    1  A    between atoms: C4_4  and  C5_5 
REMARK    2  A    between atoms: C5_5  and  C6_6 
REMARK    3  A    between atoms: C6_6  and  C7_7 
REMARK    4  A    between atoms: C7_7  and  C9_9 
REMARK    5  A    between atoms: C18_18  and  C20_20 
REMARK    6  A    between atoms: C20_20  and  O2_22 
REMARK    7  A    between atoms: C21_23  and  O3_24 
REMARK    8  A    between atoms: O3_24  and  C22_25 
REMARK    9  A    between atoms: C24_28  and  O5_29 
REMARK   10  A    between atoms: C25_30  and  O6_31 
REMARK   11  A    between atoms: C26_32  and  O7_33 
REMARK   12  A    between atoms: C28_35  and  O8_36 
ROOT
HETATM    1  C9  UNL     1      -1.494  51.567 -21.802  1.00  0.00    -0.002 C 
HETATM    2  C10 UNL     1      -2.791  52.232 -22.335  1.00  0.00     0.006 C 
HETATM    3  C11 UNL     1      -3.976  51.331 -21.944  1.00  0.00     0.011 C 
HETATM    4  C12 UNL     1      -3.387  50.273 -20.993  1.00  0.00    -0.032 C 
HETATM    5  C13 UNL     1      -3.423  50.899 -19.564  1.00  0.00     0.016 C 
HETATM    6  C14 UNL     1      -4.129  48.911 -21.012  1.00  0.00     0.004 C 
HETATM    7  C15 UNL     1      -5.540  48.958 -20.409  1.00  0.00     0.007 C 
HETATM    8  C16 UNL     1      -6.214  47.591 -20.519  1.00  0.00     0.007 C 
HETATM    9  C17 UNL     1      -5.521  46.597 -19.573  1.00  0.00     0.018 C 
HETATM   10  C18 UNL     1      -6.153  45.166 -19.547  1.00  0.00     0.072 C 
HETATM   11  C19 UNL     1      -6.119  44.478 -20.928  1.00  0.00     0.030 C 
HETATM   12  C21 UNL     1      -5.430  44.295 -18.468  1.00  0.00     0.146 C 
HETATM   13  C27 UNL     1      -3.907  44.293 -18.653  1.00  0.00     0.066 C 
HETATM   14  C28 UNL     1      -3.326  45.703 -18.690  1.00  0.00     0.130 C 
HETATM   15  C29 UNL     1      -3.997  46.539 -19.772  1.00  0.00    -0.001 A 
HETATM   16  C30 UNL     1      -3.395  46.441 -21.153  1.00  0.00     0.024 A 
HETATM   17  C31 UNL     1      -3.275  47.763 -20.413  1.00  0.00    -0.025 A 
HETATM   18  C32 UNL     1      -1.886  48.130 -19.886  1.00  0.00     0.011 C 
HETATM   19  C33 UNL     1      -1.117  49.253 -20.604  1.00  0.00     0.011 C 
HETATM   20  C34 UNL     1      -1.945  50.083 -21.593  1.00  0.00    -0.032 C 
HETATM   21  C35 UNL     1      -1.926  49.347 -22.968  1.00  0.00     0.016 C 
ENDROOT
BRANCH  12  22
HETATM   22  O3  UNL     1      -5.932  42.947 -18.548  1.00  0.00    -0.352 OA
BRANCH  22  23
HETATM   23  C22 UNL     1      -5.181  42.088 -19.409  1.00  0.00     0.291 C 
HETATM   24  O4  UNL     1      -6.027  41.226 -20.169  1.00  0.00    -0.356 OA
HETATM   25  C23 UNL     1      -6.908  40.432 -19.360  1.00  0.00     0.205 C 
HETATM   26  C24 UNL     1      -6.277  39.934 -18.057  1.00  0.00     0.173 C 
HETATM   27  C25 UNL     1      -4.765  39.860 -18.230  1.00  0.00     0.182 C 
HETATM   28  C26 UNL     1      -4.193  41.247 -18.558  1.00  0.00     0.204 C 
BRANCH  26  29
HETATM   29  O5  UNL     1      -6.794  38.647 -17.707  1.00  0.00    -0.391 OA
HETATM   30  H39 UNL     1      -6.178  38.305 -17.026  1.00  0.00     0.210 HD
ENDBRANCH  26  29
BRANCH  27  31
HETATM   31  O6  UNL     1      -4.165  39.334 -17.034  1.00  0.00    -0.390 OA
HETATM   32  H41 UNL     1      -3.202  39.460 -17.141  1.00  0.00     0.210 HD
ENDBRANCH  27  31
BRANCH  28  33
HETATM   33  O7  UNL     1      -2.940  41.039 -19.242  1.00  0.00    -0.388 OA
HETATM   34  H43 UNL     1      -3.148  40.720 -20.142  1.00  0.00     0.210 HD
ENDBRANCH  28  33
ENDBRANCH  22  23
ENDBRANCH  12  22
BRANCH  10  35
HETATM   35  C20 UNL     1      -7.619  45.284 -19.129  1.00  0.00     0.151 C 
HETATM   36  O1  UNL     1      -8.594  45.295 -19.866  1.00  0.00    -0.649 OA
BRANCH  35  37
HETATM   37  O2  UNL     1      -7.803  45.417 -17.800  1.00  0.00    -0.776 OA
HETATM   38  H33 UNL     1      -8.777  45.487 -17.704  1.00  0.00     0.167 HD
ENDBRANCH  35  37
ENDBRANCH  10  35
BRANCH  14  39
HETATM   39  O8  UNL     1      -3.531  46.320 -17.424  1.00  0.00    -0.395 OA
HETATM   40  H47 UNL     1      -3.217  47.237 -17.500  1.00  0.00     0.210 HD
ENDBRANCH  14  39
BRANCH   1  41
HETATM   41  C7  UNL     1      -0.242  51.899 -22.670  1.00  0.00    -0.014 C 
HETATM   42  C8  UNL     1       0.765  52.771 -21.906  1.00  0.00     0.010 C 
BRANCH  41  43
HETATM   43  C6  UNL     1      -0.624  52.657 -23.975  1.00  0.00     0.008 C 
BRANCH  43  44
HETATM   44  C5  UNL     1       0.570  53.263 -24.721  1.00  0.00     0.028 C 
BRANCH  44  45
HETATM   45  C4  UNL     1       0.928  52.440 -25.932  1.00  0.00    -0.025 C 
HETATM   46  C2  UNL     1       0.546  52.641 -27.208  1.00  0.00    -0.091 C 
HETATM   47  C1  UNL     1      -0.297  53.790 -27.687  1.00  0.00     0.042 C 
HETATM   48  C3  UNL     1       0.974  51.692 -28.297  1.00  0.00     0.042 C 
ENDBRANCH  44  45
ENDBRANCH  43  44
ENDBRANCH  41  43
ENDBRANCH   1  41
TORSDOF 12
ENDMDL
MODEL 2
REMARK minimizedAffinity -10.4132385
REMARK CNNscore 0.450365871
REMARK CNNaffinity 7.36641312
REMARK  12 active torsions:
REMARK  status: ('A' for Active; 'I' for Inactive)
REMARK    1  A    between atoms: C4_4  and  C5_5 
REMARK    2  A    between atoms: C5_5  and  C6_6 
REMARK    3  A    between atoms: C6_6  and  C7_7 
REMARK    4  A    between atoms: C7_7  and  C9_9 
REMARK    5  A    between atoms: C18_18  and  C20_20 
REMARK    6  A    between atoms: C20_20  and  O2_22 
REMARK    7  A    between atoms: C21_23  and  O3_24 
REMARK    8  A    between atoms: O3_24  and  C22_25 
REMARK    9  A    between atoms: C24_28  and  O5_29 
REMARK   10  A    between atoms: C25_30  and  O6_31 
REMARK   11  A    between atoms: C26_32  and  O7_33 
REMARK   12  A    between atoms: C28_35  and  O8_36 
ROOT
HETATM    1  C9  UNL     1      -4.012  50.294 -24.498  1.00  0.00    -0.002 C 
HETATM    2  C10 UNL     1      -5.333  49.720 -23.919  1.00  0.00     0.006 C 
HETATM    3  C11 UNL     1      -5.216  49.729 -22.385  1.00  0.00     0.011 C 
HETATM    4  C12 UNL     1      -3.928  50.515 -22.078  1.00  0.00    -0.032 C 
HETATM    5  C13 UNL     1      -4.335  52.021 -22.030  1.00  0.00     0.016 C 
HETATM    6  C14 UNL     1      -3.222  50.098 -20.762  1.00  0.00     0.004 C 
HETATM    7  C15 UNL     1      -3.994  50.475 -19.489  1.00  0.00     0.007 C 
HETATM    8  C16 UNL     1      -3.254  49.979 -18.248  1.00  0.00     0.007 C 
HETATM    9  C17 UNL     1      -1.961  50.789 -18.061  1.00  0.00     0.018 C 
HETATM   10  C18 UNL     1      -1.131  50.419 -16.788  1.00  0.00     0.072 C 
HETATM   11  C19 UNL     1      -0.670  48.945 -16.790  1.00  0.00     0.030 C 
HETATM   12  C21 UNL     1       0.088  51.388 -16.657  1.00  0.00     0.146 C 
HETATM   13  C27 UNL     1       0.925  51.441 -17.943  1.00  0.00     0.066 C 
HETATM   14  C28 UNL     1       0.083  51.790 -19.167  1.00  0.00     0.130 C 
HETATM   15  C29 UNL     1      -1.080  50.818 -19.322  1.00  0.00    -0.001 A 
HETATM   16  C30 UNL     1      -0.788  49.555 -20.096  1.00  0.00     0.024 A 
HETATM   17  C31 UNL     1      -1.744  50.566 -20.710  1.00  0.00    -0.025 A 
HETATM   18  C32 UNL     1      -1.223  51.363 -21.908  1.00  0.00     0.011 C 
HETATM   19  C33 UNL     1      -1.785  51.023 -23.299  1.00  0.00     0.011 C 
HETATM   20  C34 UNL     1      -3.021  50.116 -23.300  1.00  0.00    -0.032 C 
HETATM   21  C35 UNL     1      -2.529  48.636 -23.263  1.00  0.00     0.016 C 
ENDROOT
BRANCH  12  22
HETATM   22  O3  UNL     1       0.912  50.951 -15.559  1.00  0.00    -0.352 OA
BRANCH  22  23
HETATM   23  C22 UNL     1       1.405  52.010 -14.734  1.00  0.00     0.291 C 
HETATM   24  O4  UNL     1       2.722  52.411 -15.113  1.00  0.00    -0.356 OA
HETATM   25  C23 UNL     1       3.668  51.332 -15.114  1.00  0.00     0.205 C 
HETATM   26  C24 UNL     1       3.470  50.328 -13.975  1.00  0.00     0.173 C 
HETATM   27  C25 UNL     1       2.770  51.021 -12.814  1.00  0.00     0.182 C 
HETATM   28  C26 UNL     1       1.397  51.550 -13.253  1.00  0.00     0.204 C 
BRANCH  26  29
HETATM   29  O5  UNL     1       4.729  49.800 -13.546  1.00  0.00    -0.391 OA
HETATM   30  H39 UNL     1       4.541  49.375 -12.683  1.00  0.00     0.210 HD
ENDBRANCH  26  29
BRANCH  27  31
HETATM   31  O6  UNL     1       2.634  50.106 -11.714  1.00  0.00    -0.390 OA
HETATM   32  H41 UNL     1       2.044  50.547 -11.071  1.00  0.00     0.210 HD
ENDBRANCH  27  31
BRANCH  28  33
HETATM   33  O7  UNL     1       1.051  52.628 -12.359  1.00  0.00    -0.388 OA
HETATM   34  H43 UNL     1       1.613  53.393 -12.593  1.00  0.00     0.210 HD
ENDBRANCH  28  33
ENDBRANCH  22  23
ENDBRANCH  12  22
BRANCH  10  35
HETATM   35  C20 UNL     1      -2.010  50.623 -15.553  1.00  0.00     0.151 C 
HETATM   36  O1  UNL     1      -1.840  50.141 -14.443  1.00  0.00    -0.649 OA
BRANCH  35  37
HETATM   37  O2  UNL     1      -3.089  51.401 -15.770  1.00  0.00    -0.776 OA
HETATM   38  H33 UNL     1      -3.540  51.423 -14.898  1.00  0.00     0.167 HD
ENDBRANCH  35  37
ENDBRANCH  10  35
BRANCH  14  39
HETATM   39  O8  UNL     1      -0.425  53.110 -19.017  1.00  0.00    -0.395 OA
HETATM   40  H47 UNL     1      -1.013  53.277 -19.773  1.00  0.00     0.210 HD
ENDBRANCH  14  39
BRANCH   1  41
HETATM   41  C7  UNL     1      -3.665  49.716 -25.904  1.00  0.00    -0.014 C 
HETATM   42  C8  UNL     1      -4.343  48.359 -26.144  1.00  0.00     0.010 C 
BRANCH  41  43
HETATM   43  C6  UNL     1      -2.132  49.514 -26.088  1.00  0.00     0.008 C 
BRANCH  43  44
HETATM   44  C5  UNL     1      -1.429  50.670 -26.808  1.00  0.00     0.028 C 
BRANCH  44  45
HETATM   45  C4  UNL     1      -0.013  50.831 -26.320  1.00  0.00    -0.025 C 
HETATM   46  C2  UNL     1       1.035  51.355 -26.986  1.00  0.00    -0.091 C 
HETATM   47  C1  UNL     1       0.975  51.940 -28.370  1.00  0.00     0.042 C 
HETATM   48  C3  UNL     1       2.401  51.408 -26.350  1.00  0.00     0.042 C 
ENDBRANCH  44  45
ENDBRANCH  43  44
ENDBRANCH  41  43
ENDBRANCH   1  41
TORSDOF 12
ENDMDL
MODEL 3
REMARK minimizedAffinity -8.09395409
REMARK CNNscore 0.386600673
REMARK CNNaffinity 6.84179163
REMARK  12 active torsions:
REMARK  status: ('A' for Active; 'I' for Inactive)
REMARK    1  A    between atoms: C4_4  and  C5_5 
REMARK    2  A    between atoms: C5_5  and  C6_6 
REMARK    3  A    between atoms: C6_6  and  C7_7 
REMARK    4  A    between atoms: C7_7  and  C9_9 
REMARK    5  A    between atoms: C18_18  and  C20_20 
REMARK    6  A    between atoms: C20_20  and  O2_22 
REMARK    7  A    between atoms: C21_23  and  O3_24 
REMARK    8  A    between atoms: O3_24  and  C22_25 
REMARK    9  A    between atoms: C24_28  and  O5_29 
REMARK   10  A    between atoms: C25_30  and  O6_31 
REMARK   11  A    between atoms: C26_32  and  O7_33 
REMARK   12  A    between atoms: C28_35  and  O8_36 
ROOT
HETATM    1  C9  UNL     1      -1.652  50.527 -18.310  1.00  0.00    -0.002 C 
HETATM    2  C10 UNL     1      -0.502  51.444 -18.804  1.00  0.00     0.006 C 
HETATM    3  C11 UNL     1      -0.647  51.598 -20.328  1.00  0.00     0.011 C 
HETATM    4  C12 UNL     1      -2.004  50.959 -20.676  1.00  0.00    -0.032 C 
HETATM    5  C13 UNL     1      -3.076  52.078 -20.487  1.00  0.00     0.016 C 
HETATM    6  C14 UNL     1      -2.084  50.362 -22.105  1.00  0.00     0.004 C 
HETATM    7  C15 UNL     1      -2.064  51.412 -23.225  1.00  0.00     0.007 C 
HETATM    8  C16 UNL     1      -2.091  50.734 -24.594  1.00  0.00     0.007 C 
HETATM    9  C17 UNL     1      -3.466  50.084 -24.821  1.00  0.00     0.018 C 
HETATM   10  C18 UNL     1      -3.647  49.399 -26.216  1.00  0.00     0.072 C 
HETATM   11  C19 UNL     1      -2.634  48.259 -26.452  1.00  0.00     0.030 C 
HETATM   12  C21 UNL     1      -5.116  48.884 -26.359  1.00  0.00     0.146 C 
HETATM   13  C27 UNL     1      -5.534  47.997 -25.178  1.00  0.00     0.066 C 
HETATM   14  C28 UNL     1      -5.330  48.688 -23.834  1.00  0.00     0.130 C 
HETATM   15  C29 UNL     1      -3.888  49.151 -23.673  1.00  0.00    -0.001 A 
HETATM   16  C30 UNL     1      -2.927  48.136 -23.102  1.00  0.00     0.024 A 
HETATM   17  C31 UNL     1      -3.257  49.360 -22.263  1.00  0.00    -0.025 A 
HETATM   18  C32 UNL     1      -4.149  49.133 -21.040  1.00  0.00     0.011 C 
HETATM   19  C33 UNL     1      -3.496  49.210 -19.649  1.00  0.00     0.011 C 
HETATM   20  C34 UNL     1      -2.077  49.792 -19.624  1.00  0.00    -0.032 C 
HETATM   21  C35 UNL     1      -1.078  48.627 -19.903  1.00  0.00     0.016 C 
ENDROOT
BRANCH  12  22
HETATM   22  O3  UNL     1      -5.230  48.142 -27.588  1.00  0.00    -0.352 OA
BRANCH  22  23
HETATM   23  C22 UNL     1      -6.410  47.340 -27.687  1.00  0.00     0.291 C 
HETATM   24  O4  UNL     1      -6.305  46.368 -28.727  1.00  0.00    -0.356 OA
HETATM   25  C23 UNL     1      -6.011  46.937 -30.012  1.00  0.00     0.205 C 
HETATM   26  C24 UNL     1      -6.710  48.272 -30.277  1.00  0.00     0.173 C 
HETATM   27  C25 UNL     1      -7.976  48.350 -29.434  1.00  0.00     0.182 C 
HETATM   28  C26 UNL     1      -7.633  48.259 -27.940  1.00  0.00     0.204 C 
BRANCH  26  29
HETATM   29  O5  UNL     1      -7.035  48.403 -31.664  1.00  0.00    -0.391 OA
HETATM   30  H39 UNL     1      -7.678  49.141 -31.703  1.00  0.00     0.210 HD
ENDBRANCH  26  29
BRANCH  27  31
HETATM   31  O6  UNL     1      -8.676  49.573 -29.721  1.00  0.00    -0.390 OA
HETATM   32  H41 UNL     1      -9.379  49.642 -29.045  1.00  0.00     0.210 HD
ENDBRANCH  27  31
BRANCH  28  33
HETATM   33  O7  UNL     1      -8.812  47.779 -27.262  1.00  0.00    -0.388 OA
HETATM   34  H43 UNL     1      -8.906  46.830 -27.475  1.00  0.00     0.210 HD
ENDBRANCH  28  33
ENDBRANCH  22  23
ENDBRANCH  12  22
BRANCH  10  35
HETATM   35  C20 UNL     1      -3.423  50.445 -27.309  1.00  0.00     0.151 C 
HETATM   36  O1  UNL     1      -3.259  51.646 -27.154  1.00  0.00    -0.649 OA
BRANCH  35  37
HETATM   37  O2  UNL     1      -3.449  49.945 -28.561  1.00  0.00    -0.776 OA
HETATM   38  H33 UNL     1      -3.301  50.732 -29.130  1.00  0.00     0.167 HD
ENDBRANCH  35  37
ENDBRANCH  10  35
BRANCH  14  39
HETATM   39  O8  UNL     1      -6.196  49.815 -23.758  1.00  0.00    -0.395 OA
HETATM   40  H47 UNL     1      -5.993  50.275 -22.925  1.00  0.00     0.210 HD
ENDBRANCH  14  39
BRANCH   1  41
HETATM   41  C7  UNL     1      -1.271  49.712 -17.035  1.00  0.00    -0.014 C 
HETATM   42  C8  UNL     1      -2.289  48.599 -16.746  1.00  0.00     0.010 C 
BRANCH  41  43
HETATM   43  C6  UNL     1      -1.192  50.616 -15.770  1.00  0.00     0.008 C 
BRANCH  43  44
HETATM   44  C5  UNL     1      -2.531  50.794 -15.042  1.00  0.00     0.028 C 
BRANCH  44  45
HETATM   45  C4  UNL     1      -2.337  50.808 -13.548  1.00  0.00    -0.025 C 
HETATM   46  C2  UNL     1      -1.534  50.016 -12.813  1.00  0.00    -0.091 C 
HETATM   47  C1  UNL     1      -0.612  48.965 -13.368  1.00  0.00     0.042 C 
HETATM   48  C3  UNL     1      -1.488  50.147 -11.312  1.00  0.00     0.042 C 
ENDBRANCH  44  45
ENDBRANCH  43  44
ENDBRANCH  41  43
ENDBRANCH   1  41
TORSDOF 12
ENDMDL
MODEL 4
REMARK minimizedAffinity -8.16934299
REMARK CNNscore 0.376861572
REMARK CNNaffinity 5.89602852
REMARK  12 active torsions:
REMARK  status: ('A' for Active; 'I' for Inactive)
REMARK    1  A    between atoms: C4_4  and  C5_5 
REMARK    2  A    between atoms: C5_5  and  C6_6 
REMARK    3  A    between atoms: C6_6  and  C7_7 
REMARK    4  A    between atoms: C7_7  and  C9_9 
REMARK    5  A    between atoms: C18_18  and  C20_20 
REMARK    6  A    between atoms: C20_20  and  O2_22 
REMARK    7  A    between atoms: C21_23  and  O3_24 
REMARK    8  A    between atoms: O3_24  and  C22_25 
REMARK    9  A    between atoms: C24_28  and  O5_29 
REMARK   10  A    between atoms: C25_30  and  O6_31 
REMARK   11  A    between atoms: C26_32  and  O7_33 
REMARK   12  A    between atoms: C28_35  and  O8_36 
ROOT
HETATM    1  C9  UNL     1     -16.854  44.547 -25.487  1.00  0.00    -0.002 C 
HETATM    2  C10 UNL     1     -16.276  44.266 -24.075  1.00  0.00     0.006 C 
HETATM    3  C11 UNL     1     -14.792  44.674 -24.086  1.00  0.00     0.011 C 
HETATM    4  C12 UNL     1     -14.578  45.397 -25.427  1.00  0.00    -0.032 C 
HETATM    5  C13 UNL     1     -14.960  46.891 -25.185  1.00  0.00     0.016 C 
HETATM    6  C14 UNL     1     -13.137  45.287 -25.991  1.00  0.00     0.004 C 
HETATM    7  C15 UNL     1     -12.085  46.055 -25.180  1.00  0.00     0.007 C 
HETATM    8  C16 UNL     1     -10.693  45.846 -25.774  1.00  0.00     0.007 C 
HETATM    9  C17 UNL     1     -10.599  46.561 -27.132  1.00  0.00     0.018 C 
HETATM   10  C18 UNL     1      -9.201  46.473 -27.826  1.00  0.00     0.072 C 
HETATM   11  C19 UNL     1      -8.777  45.018 -28.123  1.00  0.00     0.030 C 
HETATM   12  C21 UNL     1      -9.210  47.332 -29.132  1.00  0.00     0.146 C 
HETATM   13  C27 UNL     1     -10.380  46.967 -30.056  1.00  0.00     0.066 C 
HETATM   14  C28 UNL     1     -11.726  47.049 -29.344  1.00  0.00     0.130 C 
HETATM   15  C29 UNL     1     -11.735  46.175 -28.095  1.00  0.00    -0.001 A 
HETATM   16  C30 UNL     1     -12.125  44.732 -28.300  1.00  0.00     0.024 A 
HETATM   17  C31 UNL     1     -13.067  45.621 -27.505  1.00  0.00    -0.025 A 
HETATM   18  C32 UNL     1     -14.375  46.022 -28.191  1.00  0.00     0.011 C 
HETATM   19  C33 UNL     1     -15.678  45.373 -27.692  1.00  0.00     0.011 C 
HETATM   20  C34 UNL     1     -15.562  44.609 -26.367  1.00  0.00    -0.032 C 
HETATM   21  C35 UNL     1     -15.097  43.156 -26.692  1.00  0.00     0.016 C 
ENDROOT
BRANCH  12  22
HETATM   22  O3  UNL     1      -7.963  47.134 -29.826  1.00  0.00    -0.352 OA
BRANCH  22  23
HETATM   23  C22 UNL     1      -7.293  48.343 -30.193  1.00  0.00     0.291 C 
HETATM   24  O4  UNL     1      -7.792  48.876 -31.420  1.00  0.00    -0.356 OA
HETATM   25  C23 UNL     1      -7.727  47.948 -32.513  1.00  0.00     0.205 C 
HETATM   26  C24 UNL     1      -6.472  47.071 -32.512  1.00  0.00     0.173 C 
HETATM   27  C25 UNL     1      -5.357  47.795 -31.767  1.00  0.00     0.182 C 
HETATM   28  C26 UNL     1      -5.771  48.068 -30.314  1.00  0.00     0.204 C 
BRANCH  26  29
HETATM   29  O5  UNL     1      -6.060  46.781 -33.851  1.00  0.00    -0.391 OA
HETATM   30  H39 UNL     1      -5.145  46.441 -33.764  1.00  0.00     0.210 HD
ENDBRANCH  26  29
BRANCH  27  31
HETATM   31  O6  UNL     1      -4.154  47.009 -31.813  1.00  0.00    -0.390 OA
HETATM   32  H41 UNL     1      -3.532  47.438 -31.192  1.00  0.00     0.210 HD
ENDBRANCH  27  31
BRANCH  28  33
HETATM   33  O7  UNL     1      -4.987  49.188 -29.853  1.00  0.00    -0.388 OA
HETATM   34  H43 UNL     1      -5.339  49.989 -30.286  1.00  0.00     0.210 HD
ENDBRANCH  28  33
ENDBRANCH  22  23
ENDBRANCH  12  22
BRANCH  10  35
HETATM   35  C20 UNL     1      -8.150  47.075 -26.892  1.00  0.00     0.151 C 
HETATM   36  O1  UNL     1      -7.398  46.468 -26.144  1.00  0.00    -0.649 OA
BRANCH  35  37
HETATM   37  O2  UNL     1      -8.108  48.422 -26.910  1.00  0.00    -0.776 OA
HETATM   38  H33 UNL     1      -7.402  48.643 -26.264  1.00  0.00     0.167 HD
ENDBRANCH  35  37
ENDBRANCH  10  35
BRANCH  14  39
HETATM   39  O8  UNL     1     -11.972  48.401 -28.973  1.00  0.00    -0.395 OA
HETATM   40  H47 UNL     1     -12.798  48.410 -28.461  1.00  0.00     0.210 HD
ENDBRANCH  14  39
BRANCH   1  41
HETATM   41  C7  UNL     1     -18.024  43.587 -25.865  1.00  0.00    -0.014 C 
HETATM   42  C8  UNL     1     -17.527  42.155 -26.111  1.00  0.00     0.010 C 
BRANCH  41  43
HETATM   43  C6  UNL     1     -18.767  44.053 -27.151  1.00  0.00     0.008 C 
BRANCH  43  44
HETATM   44  C5  UNL     1     -18.690  43.059 -28.315  1.00  0.00     0.028 C 
BRANCH  44  45
HETATM   45  C4  UNL     1     -20.029  42.909 -28.990  1.00  0.00    -0.025 C 
HETATM   46  C2  UNL     1     -20.339  43.167 -30.275  1.00  0.00    -0.091 C 
HETATM   47  C1  UNL     1     -19.364  43.624 -31.325  1.00  0.00     0.042 C 
HETATM   48  C3  UNL     1     -21.750  42.991 -30.776  1.00  0.00     0.042 C 
ENDBRANCH  44  45
ENDBRANCH  43  44
ENDBRANCH  41  43
ENDBRANCH   1  41
TORSDOF 12
ENDMDL
MODEL 5
REMARK minimizedAffinity -8.65306377
REMARK CNNscore 0.351076186
REMARK CNNaffinity 6.9240365
REMARK  12 active torsions:
REMARK  status: ('A' for Active; 'I' for Inactive)
REMARK    1  A    between atoms: C4_4  and  C5_5 
REMARK    2  A    between atoms: C5_5  and  C6_6 
REMARK    3  A    between atoms: C6_6  and  C7_7 
REMARK    4  A    between atoms: C7_7  and  C9_9 
REMARK    5  A    between atoms: C18_18  and  C20_20 
REMARK    6  A    between atoms: C20_20  and  O2_22 
REMARK    7  A    between atoms: C21_23  and  O3_24 
REMARK    8  A    between atoms: O3_24  and  C22_25 
REMARK    9  A    between atoms: C24_28  and  O5_29 
REMARK   10  A    between atoms: C25_30  and  O6_31 
REMARK   11  A    between atoms: C26_32  and  O7_33 
REMARK   12  A    between atoms: C28_35  and  O8_36 
ROOT
HETATM    1  C9  UNL     1       0.079  51.392 -20.995  1.00  0.00    -0.002 C 
HETATM    2  C10 UNL     1      -0.262  52.210 -19.721  1.00  0.00     0.006 C 
HETATM    3  C11 UNL     1      -1.565  51.642 -19.134  1.00  0.00     0.011 C 
HETATM    4  C12 UNL     1      -1.849  50.358 -19.935  1.00  0.00    -0.032 C 
HETATM    5  C13 UNL     1      -1.059  49.215 -19.223  1.00  0.00     0.016 C 
HETATM    6  C14 UNL     1      -3.352  49.994 -20.050  1.00  0.00     0.004 C 
HETATM    7  C15 UNL     1      -3.993  49.550 -18.728  1.00  0.00     0.007 C 
HETATM    8  C16 UNL     1      -5.481  49.265 -18.924  1.00  0.00     0.007 C 
HETATM    9  C17 UNL     1      -5.655  47.998 -19.778  1.00  0.00     0.018 C 
HETATM   10  C18 UNL     1      -7.139  47.560 -20.009  1.00  0.00     0.072 C 
HETATM   11  C19 UNL     1      -7.968  48.639 -20.739  1.00  0.00     0.030 C 
HETATM   12  C21 UNL     1      -7.169  46.206 -20.789  1.00  0.00     0.146 C 
HETATM   13  C27 UNL     1      -6.336  46.261 -22.076  1.00  0.00     0.066 C 
HETATM   14  C28 UNL     1      -4.900  46.706 -21.817  1.00  0.00     0.130 C 
HETATM   15  C29 UNL     1      -4.868  48.049 -21.099  1.00  0.00    -0.001 A 
HETATM   16  C30 UNL     1      -4.906  49.273 -21.981  1.00  0.00     0.024 A 
HETATM   17  C31 UNL     1      -3.631  48.992 -21.201  1.00  0.00    -0.025 A 
HETATM   18  C32 UNL     1      -2.426  48.506 -22.010  1.00  0.00     0.011 C 
HETATM   19  C33 UNL     1      -1.259  49.486 -22.222  1.00  0.00     0.011 C 
HETATM   20  C34 UNL     1      -1.301  50.751 -21.356  1.00  0.00    -0.032 C 
HETATM   21  C35 UNL     1      -2.175  51.809 -22.098  1.00  0.00     0.016 C 
ENDROOT
BRANCH  12  22
HETATM   22  O3  UNL     1      -8.537  45.885 -21.108  1.00  0.00    -0.352 OA
BRANCH  22  23
HETATM   23  C22 UNL     1      -8.703  45.161 -22.330  1.00  0.00     0.291 C 
HETATM   24  O4  UNL     1      -9.062  46.019 -23.412  1.00  0.00    -0.356 OA
HETATM   25  C23 UNL     1     -10.243  46.795 -23.157  1.00  0.00     0.205 C 
HETATM   26  C24 UNL     1     -11.328  46.043 -22.383  1.00  0.00     0.173 C 
HETATM   27  C25 UNL     1     -11.166  44.547 -22.621  1.00  0.00     0.182 C 
HETATM   28  C26 UNL     1      -9.790  44.071 -22.134  1.00  0.00     0.204 C 
BRANCH  26  29
HETATM   29  O5  UNL     1     -12.629  46.468 -22.798  1.00  0.00    -0.391 OA
HETATM   30  H39 UNL     1     -13.240  45.786 -22.450  1.00  0.00     0.210 HD
ENDBRANCH  26  29
BRANCH  27  31
HETATM   31  O6  UNL     1     -12.217  43.832 -21.950  1.00  0.00    -0.390 OA
HETATM   32  H41 UNL     1     -11.973  42.887 -22.002  1.00  0.00     0.210 HD
ENDBRANCH  27  31
BRANCH  28  33
HETATM   33  O7  UNL     1      -9.475  42.865 -22.861  1.00  0.00    -0.388 OA
HETATM   34  H43 UNL     1      -9.254  43.125 -23.776  1.00  0.00     0.210 HD
ENDBRANCH  28  33
ENDBRANCH  22  23
ENDBRANCH  12  22
BRANCH  10  35
HETATM   35  C20 UNL     1      -7.797  47.319 -18.650  1.00  0.00     0.151 C 
HETATM   36  O1  UNL     1      -8.718  47.952 -18.156  1.00  0.00    -0.649 OA
BRANCH  35  37
HETATM   37  O2  UNL     1      -7.248  46.308 -17.946  1.00  0.00    -0.776 OA
HETATM   38  H33 UNL     1      -7.770  46.291 -17.115  1.00  0.00     0.167 HD
ENDBRANCH  35  37
ENDBRANCH  10  35
BRANCH  14  39
HETATM   39  O8  UNL     1      -4.251  45.727 -21.013  1.00  0.00    -0.395 OA
HETATM   40  H47 UNL     1      -3.365  46.071 -20.806  1.00  0.00     0.210 HD
ENDBRANCH  14  39
BRANCH   1  41
HETATM   41  C7  UNL     1       0.868  52.221 -22.054  1.00  0.00    -0.014 C 
HETATM   42  C8  UNL     1       1.086  53.670 -21.595  1.00  0.00     0.010 C 
BRANCH  41  43
HETATM   43  C6  UNL     1       0.129  52.268 -23.424  1.00  0.00     0.008 C 
BRANCH  43  44
HETATM   44  C5  UNL     1       0.788  53.186 -24.461  1.00  0.00     0.028 C 
BRANCH  44  45
HETATM   45  C4  UNL     1       0.418  52.774 -25.862  1.00  0.00    -0.025 C 
HETATM   46  C2  UNL     1       1.130  52.009 -26.712  1.00  0.00    -0.091 C 
HETATM   47  C1  UNL     1       2.449  51.361 -26.394  1.00  0.00     0.042 C 
HETATM   48  C3  UNL     1       0.618  51.721 -28.101  1.00  0.00     0.042 C 
ENDBRANCH  44  45
ENDBRANCH  43  44
ENDBRANCH  41  43
ENDBRANCH   1  41
TORSDOF 12
ENDMDL
MODEL 6
REMARK minimizedAffinity -9.63478756
REMARK CNNscore 0.338063508
REMARK CNNaffinity 6.62551689
REMARK  12 active torsions:
REMARK  status: ('A' for Active; 'I' for Inactive)
REMARK    1  A    between atoms: C4_4  and  C5_5 
REMARK    2  A    between atoms: C5_5  and  C6_6 
REMARK    3  A    between atoms: C6_6  and  C7_7 
REMARK    4  A    between atoms: C7_7  and  C9_9 
REMARK    5  A    between atoms: C18_18  and  C20_20 
REMARK    6  A    between atoms: C20_20  and  O2_22 
REMARK    7  A    between atoms: C21_23  and  O3_24 
REMARK    8  A    between atoms: O3_24  and  C22_25 
REMARK    9  A    between atoms: C24_28  and  O5_29 
REMARK   10  A    between atoms: C25_30  and  O6_31 
REMARK   11  A    between atoms: C26_32  and  O7_33 
REMARK   12  A    between atoms: C28_35  and  O8_36 
ROOT
HETATM    1  C9  UNL     1      -0.553  51.074 -19.856  1.00  0.00    -0.002 C 
HETATM    2  C10 UNL     1      -0.479  50.027 -18.712  1.00  0.00     0.006 C 
HETATM    3  C11 UNL     1      -1.491  48.912 -19.031  1.00  0.00     0.011 C 
HETATM    4  C12 UNL     1      -1.978  49.200 -20.463  1.00  0.00    -0.032 C 
HETATM    5  C13 UNL     1      -0.956  48.511 -21.420  1.00  0.00     0.016 C 
HETATM    6  C14 UNL     1      -3.420  48.711 -20.759  1.00  0.00     0.004 C 
HETATM    7  C15 UNL     1      -3.567  47.183 -20.802  1.00  0.00     0.007 C 
HETATM    8  C16 UNL     1      -5.024  46.794 -21.044  1.00  0.00     0.007 C 
HETATM    9  C17 UNL     1      -5.427  47.170 -22.480  1.00  0.00     0.018 C 
HETATM   10  C18 UNL     1      -6.886  46.772 -22.879  1.00  0.00     0.072 C 
HETATM   11  C19 UNL     1      -7.949  47.448 -21.987  1.00  0.00     0.030 C 
HETATM   12  C21 UNL     1      -7.125  47.105 -24.388  1.00  0.00     0.146 C 
HETATM   13  C27 UNL     1      -6.770  48.560 -24.721  1.00  0.00     0.066 C 
HETATM   14  C28 UNL     1      -5.347  48.919 -24.305  1.00  0.00     0.130 C 
HETATM   15  C29 UNL     1      -5.126  48.639 -22.824  1.00  0.00    -0.001 A 
HETATM   16  C30 UNL     1      -5.501  49.752 -21.876  1.00  0.00     0.024 A 
HETATM   17  C31 UNL     1      -4.029  49.393 -22.012  1.00  0.00    -0.025 A 
HETATM   18  C32 UNL     1      -3.145  50.392 -22.762  1.00  0.00     0.011 C 
HETATM   19  C33 UNL     1      -2.153  51.232 -21.939  1.00  0.00     0.011 C 
HETATM   20  C34 UNL     1      -1.950  50.773 -20.491  1.00  0.00    -0.032 C 
HETATM   21  C35 UNL     1      -3.059  51.439 -19.619  1.00  0.00     0.016 C 
ENDROOT
BRANCH  12  22
HETATM   22  O3  UNL     1      -8.508  46.857 -24.704  1.00  0.00    -0.352 OA
BRANCH  22  23
HETATM   23  C22 UNL     1      -9.348  48.011 -24.623  1.00  0.00     0.291 C 
HETATM   24  O4  UNL     1     -10.620  47.703 -24.051  1.00  0.00    -0.356 OA
HETATM   25  C23 UNL     1     -11.318  46.657 -24.743  1.00  0.00     0.205 C 
HETATM   26  C24 UNL     1     -11.150  46.695 -26.264  1.00  0.00     0.173 C 
HETATM   27  C25 UNL     1     -10.837  48.122 -26.696  1.00  0.00     0.182 C 
HETATM   28  C26 UNL     1      -9.536  48.608 -26.043  1.00  0.00     0.204 C 
BRANCH  26  29
HETATM   29  O5  UNL     1     -12.339  46.235 -26.913  1.00  0.00    -0.391 OA
HETATM   30  H39 UNL     1     -12.242  46.519 -27.846  1.00  0.00     0.210 HD
ENDBRANCH  26  29
BRANCH  27  31
HETATM   31  O6  UNL     1     -10.739  48.183 -28.130  1.00  0.00    -0.390 OA
HETATM   32  H41 UNL     1     -10.382  49.070 -28.335  1.00  0.00     0.210 HD
ENDBRANCH  27  31
BRANCH  28  33
HETATM   33  O7  UNL     1      -9.587  50.050 -26.014  1.00  0.00    -0.388 OA
HETATM   34  H43 UNL     1     -10.232  50.305 -25.326  1.00  0.00     0.210 HD
ENDBRANCH  28  33
ENDBRANCH  22  23
ENDBRANCH  12  22
BRANCH  10  35
HETATM   35  C20 UNL     1      -7.044  45.259 -22.716  1.00  0.00     0.151 C 
HETATM   36  O1  UNL     1      -6.557  44.560 -21.841  1.00  0.00    -0.649 OA
BRANCH  35  37
HETATM   37  O2  UNL     1      -7.784  44.678 -23.682  1.00  0.00    -0.776 OA
HETATM   38  H33 UNL     1      -7.781  43.727 -23.438  1.00  0.00     0.167 HD
ENDBRANCH  35  37
ENDBRANCH  10  35
BRANCH  14  39
HETATM   39  O8  UNL     1      -4.432  48.145 -25.072  1.00  0.00    -0.395 OA
HETATM   40  H47 UNL     1      -3.541  48.341 -24.736  1.00  0.00     0.210 HD
ENDBRANCH  14  39
BRANCH   1  41
HETATM   41  C7  UNL     1      -0.192  52.515 -19.382  1.00  0.00    -0.014 C 
HETATM   42  C8  UNL     1       1.008  53.084 -20.153  1.00  0.00     0.010 C 
BRANCH  41  43
HETATM   43  C6  UNL     1       0.162  52.556 -17.866  1.00  0.00     0.008 C 
BRANCH  43  44
HETATM   44  C5  UNL     1       1.666  52.607 -17.574  1.00  0.00     0.028 C 
BRANCH  44  45
HETATM   45  C4  UNL     1       1.985  51.946 -16.258  1.00  0.00    -0.025 C 
HETATM   46  C2  UNL     1       3.177  51.886 -15.632  1.00  0.00    -0.091 C 
HETATM   47  C1  UNL     1       4.444  52.530 -16.122  1.00  0.00     0.042 C 
HETATM   48  C3  UNL     1       3.323  51.149 -14.325  1.00  0.00     0.042 C 
ENDBRANCH  44  45
ENDBRANCH  43  44
ENDBRANCH  41  43
ENDBRANCH   1  41
TORSDOF 12
ENDMDL
MODEL 7
REMARK minimizedAffinity -7.80633545
REMARK CNNscore 0.32665661
REMARK CNNaffinity 5.68691111
REMARK  12 active torsions:
REMARK  status: ('A' for Active; 'I' for Inactive)
REMARK    1  A    between atoms: C4_4  and  C5_5 
REMARK    2  A    between atoms: C5_5  and  C6_6 
REMARK    3  A    between atoms: C6_6  and  C7_7 
REMARK    4  A    between atoms: C7_7  and  C9_9 
REMARK    5  A    between atoms: C18_18  and  C20_20 
REMARK    6  A    between atoms: C20_20  and  O2_22 
REMARK    7  A    between atoms: C21_23  and  O3_24 
REMARK    8  A    between atoms: O3_24  and  C22_25 
REMARK    9  A    between atoms: C24_28  and  O5_29 
REMARK   10  A    between atoms: C25_30  and  O6_31 
REMARK   11  A    between atoms: C26_32  and  O7_33 
REMARK   12  A    between atoms: C28_35  and  O8_36 
ROOT
HETATM    1  C9  UNL     1     -16.314  45.594 -22.231  1.00  0.00    -0.002 C 
HETATM    2  C10 UNL     1     -15.384  44.621 -21.457  1.00  0.00     0.006 C 
HETATM    3  C11 UNL     1     -14.058  44.524 -22.231  1.00  0.00     0.011 C 
HETATM    4  C12 UNL     1     -14.140  45.610 -23.319  1.00  0.00    -0.032 C 
HETATM    5  C13 UNL     1     -13.629  46.929 -22.660  1.00  0.00     0.016 C 
HETATM    6  C14 UNL     1     -13.330  45.292 -24.603  1.00  0.00     0.004 C 
HETATM    7  C15 UNL     1     -11.808  45.319 -24.408  1.00  0.00     0.007 C 
HETATM    8  C16 UNL     1     -11.095  44.942 -25.706  1.00  0.00     0.007 C 
HETATM    9  C17 UNL     1     -11.281  46.064 -26.741  1.00  0.00     0.018 C 
HETATM   10  C18 UNL     1     -10.550  45.829 -28.104  1.00  0.00     0.072 C 
HETATM   11  C19 UNL     1     -11.035  44.552 -28.822  1.00  0.00     0.030 C 
HETATM   12  C21 UNL     1     -10.725  47.087 -29.015  1.00  0.00     0.146 C 
HETATM   13  C27 UNL     1     -12.198  47.489 -29.167  1.00  0.00     0.066 C 
HETATM   14  C28 UNL     1     -12.884  47.696 -27.821  1.00  0.00     0.130 C 
HETATM   15  C29 UNL     1     -12.755  46.453 -26.949  1.00  0.00    -0.001 A 
HETATM   16  C30 UNL     1     -13.819  45.400 -27.135  1.00  0.00     0.024 A 
HETATM   17  C31 UNL     1     -13.780  46.151 -25.814  1.00  0.00    -0.025 A 
HETATM   18  C32 UNL     1     -14.898  47.168 -25.570  1.00  0.00     0.011 C 
HETATM   19  C33 UNL     1     -15.985  46.809 -24.542  1.00  0.00     0.011 C 
HETATM   20  C34 UNL     1     -15.675  45.594 -23.659  1.00  0.00    -0.032 C 
HETATM   21  C35 UNL     1     -16.139  44.317 -24.425  1.00  0.00     0.016 C 
ENDROOT
BRANCH  12  22
HETATM   22  O3  UNL     1     -10.162  46.803 -30.310  1.00  0.00    -0.352 OA
BRANCH  22  23
HETATM   23  C22 UNL     1      -9.634  47.946 -30.987  1.00  0.00     0.291 C 
HETATM   24  O4  UNL     1      -8.899  47.580 -32.155  1.00  0.00    -0.356 OA
HETATM   25  C23 UNL     1      -7.836  46.653 -31.892  1.00  0.00     0.205 C 
HETATM   26  C24 UNL     1      -7.102  46.904 -30.572  1.00  0.00     0.173 C 
HETATM   27  C25 UNL     1      -7.244  48.373 -30.193  1.00  0.00     0.182 C 
HETATM   28  C26 UNL     1      -8.724  48.742 -30.016  1.00  0.00     0.204 C 
BRANCH  26  29
HETATM   29  O5  UNL     1      -5.719  46.559 -30.691  1.00  0.00    -0.391 OA
HETATM   30  H39 UNL     1      -5.289  46.971 -29.913  1.00  0.00     0.210 HD
ENDBRANCH  26  29
BRANCH  27  31
HETATM   31  O6  UNL     1      -6.507  48.636 -28.987  1.00  0.00    -0.390 OA
HETATM   32  H41 UNL     1      -6.763  49.538 -28.710  1.00  0.00     0.210 HD
ENDBRANCH  27  31
BRANCH  28  33
HETATM   33  O7  UNL     1      -8.835  50.165 -30.223  1.00  0.00    -0.388 OA
HETATM   34  H43 UNL     1      -8.729  50.330 -31.180  1.00  0.00     0.210 HD
ENDBRANCH  28  33
ENDBRANCH  22  23
ENDBRANCH  12  22
BRANCH  10  35
HETATM   35  C20 UNL     1      -9.053  45.665 -27.836  1.00  0.00     0.151 C 
HETATM   36  O1  UNL     1      -8.376  44.668 -28.037  1.00  0.00    -0.649 OA
BRANCH  35  37
HETATM   37  O2  UNL     1      -8.471  46.752 -27.292  1.00  0.00    -0.776 OA
HETATM   38  H33 UNL     1      -7.533  46.483 -27.179  1.00  0.00     0.167 HD
ENDBRANCH  35  37
ENDBRANCH  10  35
BRANCH  14  39
HETATM   39  O8  UNL     1     -12.279  48.800 -27.158  1.00  0.00    -0.395 OA
HETATM   40  H47 UNL     1     -12.687  48.862 -26.277  1.00  0.00     0.210 HD
ENDBRANCH  14  39
BRANCH   1  41
HETATM   41  C7  UNL     1     -17.826  45.266 -22.040  1.00  0.00    -0.014 C 
HETATM   42  C8  UNL     1     -18.701  46.522 -22.167  1.00  0.00     0.010 C 
BRANCH  41  43
HETATM   43  C6  UNL     1     -18.113  44.635 -20.646  1.00  0.00     0.008 C 
BRANCH  43  44
HETATM   44  C5  UNL     1     -18.489  45.652 -19.562  1.00  0.00     0.028 C 
BRANCH  44  45
HETATM   45  C4  UNL     1     -19.589  45.121 -18.679  1.00  0.00    -0.025 C 
HETATM   46  C2  UNL     1     -19.783  43.850 -18.277  1.00  0.00    -0.091 C 
HETATM   47  C1  UNL     1     -18.882  42.692 -18.607  1.00  0.00     0.042 C 
HETATM   48  C3  UNL     1     -20.964  43.488 -17.413  1.00  0.00     0.042 C 
ENDBRANCH  44  45
ENDBRANCH  43  44
ENDBRANCH  41  43
ENDBRANCH   1  41
TORSDOF 12
ENDMDL
MODEL 8
REMARK minimizedAffinity -8.88075542
REMARK CNNscore 0.322213233
REMARK CNNaffinity 6.55478621
REMARK  12 active torsions:
REMARK  status: ('A' for Active; 'I' for Inactive)
REMARK    1  A    between atoms: C4_4  and  C5_5 
REMARK    2  A    between atoms: C5_5  and  C6_6 
REMARK    3  A    between atoms: C6_6  and  C7_7 
REMARK    4  A    between atoms: C7_7  and  C9_9 
REMARK    5  A    between atoms: C18_18  and  C20_20 
REMARK    6  A    between atoms: C20_20  and  O2_22 
REMARK    7  A    between atoms: C21_23  and  O3_24 
REMARK    8  A    between atoms: O3_24  and  C22_25 
REMARK    9  A    between atoms: C24_28  and  O5_29 
REMARK   10  A    between atoms: C25_30  and  O6_31 
REMARK   11  A    between atoms: C26_32  and  O7_33 
REMARK   12  A    between atoms: C28_35  and  O8_36 
ROOT
HETATM    1  C9  UNL     1      -1.567  49.461 -19.935  1.00  0.00    -0.002 C 
HETATM    2  C10 UNL     1      -1.523  48.124 -19.148  1.00  0.00     0.006 C 
HETATM    3  C11 UNL     1      -2.675  47.241 -19.660  1.00  0.00     0.011 C 
HETATM    4  C12 UNL     1      -3.236  47.975 -20.891  1.00  0.00    -0.032 C 
HETATM    5  C13 UNL     1      -2.376  47.512 -22.107  1.00  0.00     0.016 C 
HETATM    6  C14 UNL     1      -4.742  47.718 -21.159  1.00  0.00     0.004 C 
HETATM    7  C15 UNL     1      -5.064  46.289 -21.615  1.00  0.00     0.007 C 
HETATM    8  C16 UNL     1      -6.570  46.112 -21.801  1.00  0.00     0.007 C 
HETATM    9  C17 UNL     1      -7.037  46.924 -23.020  1.00  0.00     0.018 C 
HETATM   10  C18 UNL     1      -8.558  46.786 -23.358  1.00  0.00     0.072 C 
HETATM   11  C19 UNL     1      -9.467  47.260 -22.203  1.00  0.00     0.030 C 
HETATM   12  C21 UNL     1      -8.875  47.564 -24.676  1.00  0.00     0.146 C 
HETATM   13  C27 UNL     1      -8.386  49.018 -24.620  1.00  0.00     0.066 C 
HETATM   14  C28 UNL     1      -6.903  49.117 -24.274  1.00  0.00     0.130 C 
HETATM   15  C29 UNL     1      -6.601  48.398 -22.965  1.00  0.00    -0.001 A 
HETATM   16  C30 UNL     1      -6.773  49.214 -21.707  1.00  0.00     0.024 A 
HETATM   17  C31 UNL     1      -5.367  48.786 -22.095  1.00  0.00    -0.025 A 
HETATM   18  C32 UNL     1      -4.437  49.882 -22.621  1.00  0.00     0.011 C 
HETATM   19  C33 UNL     1      -3.295  50.357 -21.705  1.00  0.00     0.011 C 
HETATM   20  C34 UNL     1      -3.034  49.479 -20.476  1.00  0.00    -0.032 C 
HETATM   21  C35 UNL     1      -3.990  49.953 -19.338  1.00  0.00     0.016 C 
ENDROOT
BRANCH  12  22
HETATM   22  O3  UNL     1     -10.297  47.538 -24.900  1.00  0.00    -0.352 OA
BRANCH  22  23
HETATM   23  C22 UNL     1     -10.715  48.164 -26.116  1.00  0.00     0.291 C 
HETATM   24  O4  UNL     1     -12.136  48.181 -26.244  1.00  0.00    -0.356 OA
HETATM   25  C23 UNL     1     -12.733  46.879 -26.153  1.00  0.00     0.205 C 
HETATM   26  C24 UNL     1     -11.916  45.771 -26.824  1.00  0.00     0.173 C 
HETATM   27  C25 UNL     1     -11.047  46.382 -27.916  1.00  0.00     0.182 C 
HETATM   28  C26 UNL     1     -10.083  47.417 -27.320  1.00  0.00     0.204 C 
BRANCH  26  29
HETATM   29  O5  UNL     1     -12.779  44.776 -27.381  1.00  0.00    -0.391 OA
HETATM   30  H39 UNL     1     -12.208  44.258 -27.985  1.00  0.00     0.210 HD
ENDBRANCH  26  29
BRANCH  27  31
HETATM   31  O6  UNL     1     -10.321  45.344 -28.595  1.00  0.00    -0.390 OA
HETATM   32  H41 UNL     1      -9.671  45.802 -29.165  1.00  0.00     0.210 HD
ENDBRANCH  27  31
BRANCH  28  33
HETATM   33  O7  UNL     1      -9.722  48.324 -28.383  1.00  0.00    -0.388 OA
HETATM   34  H43 UNL     1     -10.498  48.891 -28.558  1.00  0.00     0.210 HD
ENDBRANCH  28  33
ENDBRANCH  22  23
ENDBRANCH  12  22
BRANCH  10  35
HETATM   35  C20 UNL     1      -8.873  45.311 -23.613  1.00  0.00     0.151 C 
HETATM   36  O1  UNL     1      -8.182  44.508 -24.222  1.00  0.00    -0.649 OA
BRANCH  35  37
HETATM   37  O2  UNL     1     -10.062  44.910 -23.122  1.00  0.00    -0.776 OA
HETATM   38  H33 UNL     1     -10.112  43.962 -23.373  1.00  0.00     0.167 HD
ENDBRANCH  35  37
ENDBRANCH  10  35
BRANCH  14  39
HETATM   39  O8  UNL     1      -6.144  48.525 -25.321  1.00  0.00    -0.395 OA
HETATM   40  H47 UNL     1      -5.213  48.539 -25.041  1.00  0.00     0.210 HD
ENDBRANCH  14  39
BRANCH   1  41
HETATM   41  C7  UNL     1      -1.011  50.664 -19.114  1.00  0.00    -0.014 C 
HETATM   42  C8  UNL     1      -2.134  51.437 -18.405  1.00  0.00     0.010 C 
BRANCH  41  43
HETATM   43  C6  UNL     1      -0.241  51.676 -20.013  1.00  0.00     0.008 C 
BRANCH  43  44
HETATM   44  C5  UNL     1       0.158  52.973 -19.298  1.00  0.00     0.028 C 
BRANCH  44  45
HETATM   45  C4  UNL     1       0.825  53.933 -20.250  1.00  0.00    -0.025 C 
HETATM   46  C2  UNL     1       1.039  53.770 -21.570  1.00  0.00    -0.091 C 
HETATM   47  C1  UNL     1       0.597  52.582 -22.378  1.00  0.00     0.042 C 
HETATM   48  C3  UNL     1       1.757  54.829 -22.368  1.00  0.00     0.042 C 
ENDBRANCH  44  45
ENDBRANCH  43  44
ENDBRANCH  41  43
ENDBRANCH   1  41
TORSDOF 12
ENDMDL
MODEL 9
REMARK minimizedAffinity -8.26454449
REMARK CNNscore 0.263351887
REMARK CNNaffinity 5.5019145
REMARK  12 active torsions:
REMARK  status: ('A' for Active; 'I' for Inactive)
REMARK    1  A    between atoms: C4_4  and  C5_5 
REMARK    2  A    between atoms: C5_5  and  C6_6 
REMARK    3  A    between atoms: C6_6  and  C7_7 
REMARK    4  A    between atoms: C7_7  and  C9_9 
REMARK    5  A    between atoms: C18_18  and  C20_20 
REMARK    6  A    between atoms: C20_20  and  O2_22 
REMARK    7  A    between atoms: C21_23  and  O3_24 
REMARK    8  A    between atoms: O3_24  and  C22_25 
REMARK    9  A    between atoms: C24_28  and  O5_29 
REMARK   10  A    between atoms: C25_30  and  O6_31 
REMARK   11  A    between atoms: C26_32  and  O7_33 
REMARK   12  A    between atoms: C28_35  and  O8_36 
ROOT
HETATM    1  C9  UNL     1       6.978  66.209 -36.265  1.00  0.00    -0.002 C 
HETATM    2  C10 UNL     1       6.326  66.458 -34.879  1.00  0.00     0.006 C 
HETATM    3  C11 UNL     1       4.914  67.018 -35.118  1.00  0.00     0.011 C 
HETATM    4  C12 UNL     1       4.670  66.877 -36.632  1.00  0.00    -0.032 C 
HETATM    5  C13 UNL     1       4.109  65.437 -36.853  1.00  0.00     0.016 C 
HETATM    6  C14 UNL     1       3.705  67.936 -37.227  1.00  0.00     0.004 C 
HETATM    7  C15 UNL     1       2.246  67.780 -36.774  1.00  0.00     0.007 C 
HETATM    8  C16 UNL     1       1.382  68.894 -37.363  1.00  0.00     0.007 C 
HETATM    9  C17 UNL     1       1.244  68.692 -38.881  1.00  0.00     0.018 C 
HETATM   10  C18 UNL     1       0.332  69.737 -39.604  1.00  0.00     0.072 C 
HETATM   11  C19 UNL     1       0.852  71.183 -39.449  1.00  0.00     0.030 C 
HETATM   12  C21 UNL     1       0.187  69.351 -41.111  1.00  0.00     0.146 C 
HETATM   13  C27 UNL     1       1.548  69.148 -41.790  1.00  0.00     0.066 C 
HETATM   14  C28 UNL     1       2.417  68.134 -41.052  1.00  0.00     0.130 C 
HETATM   15  C29 UNL     1       2.599  68.534 -39.593  1.00  0.00    -0.001 A 
HETATM   16  C30 UNL     1       3.745  69.471 -39.301  1.00  0.00     0.024 A 
HETATM   17  C31 UNL     1       3.830  68.050 -38.769  1.00  0.00    -0.025 A 
HETATM   18  C32 UNL     1       4.830  67.118 -39.458  1.00  0.00     0.011 C 
HETATM   19  C33 UNL     1       6.112  66.745 -38.692  1.00  0.00     0.011 C 
HETATM   20  C34 UNL     1       6.115  67.116 -37.204  1.00  0.00    -0.032 C 
HETATM   21  C35 UNL     1       6.607  68.591 -37.080  1.00  0.00     0.016 C 
ENDROOT
BRANCH  12  22
HETATM   22  O3  UNL     1      -0.543  70.392 -41.788  1.00  0.00    -0.352 OA
BRANCH  22  23
HETATM   23  C22 UNL     1      -1.143  69.987 -43.021  1.00  0.00     0.291 C 
HETATM   24  O4  UNL     1      -1.764  71.081 -43.695  1.00  0.00    -0.356 OA
HETATM   25  C23 UNL     1      -2.742  71.762 -42.895  1.00  0.00     0.205 C 
HETATM   26  C24 UNL     1      -3.576  70.835 -42.007  1.00  0.00     0.173 C 
HETATM   27  C25 UNL     1      -3.608  69.444 -42.627  1.00  0.00     0.182 C 
HETATM   28  C26 UNL     1      -2.187  68.874 -42.742  1.00  0.00     0.204 C 
BRANCH  26  29
HETATM   29  O5  UNL     1      -4.907  71.339 -41.863  1.00  0.00    -0.391 OA
HETATM   30  H39 UNL     1      -5.423  70.587 -41.503  1.00  0.00     0.210 HD
ENDBRANCH  26  29
BRANCH  27  31
HETATM   31  O6  UNL     1      -4.439  68.579 -41.835  1.00  0.00    -0.390 OA
HETATM   32  H41 UNL     1      -4.293  67.677 -42.184  1.00  0.00     0.210 HD
ENDBRANCH  27  31
BRANCH  28  33
HETATM   33  O7  UNL     1      -2.209  67.885 -43.792  1.00  0.00    -0.388 OA
HETATM   34  H43 UNL     1      -2.272  68.363 -44.642  1.00  0.00     0.210 HD
ENDBRANCH  28  33
ENDBRANCH  22  23
ENDBRANCH  12  22
BRANCH  10  35
HETATM   35  C20 UNL     1      -1.064  69.683 -38.982  1.00  0.00     0.151 C 
HETATM   36  O1  UNL     1      -1.964  70.497 -39.126  1.00  0.00    -0.649 OA
BRANCH  35  37
HETATM   37  O2  UNL     1      -1.265  68.622 -38.175  1.00  0.00    -0.776 OA
HETATM   38  H33 UNL     1      -2.187  68.740 -37.859  1.00  0.00     0.167 HD
ENDBRANCH  35  37
ENDBRANCH  10  35
BRANCH  14  39
HETATM   39  O8  UNL     1       1.792  66.857 -41.116  1.00  0.00    -0.395 OA
HETATM   40  H47 UNL     1       2.330  66.251 -40.578  1.00  0.00     0.210 HD
ENDBRANCH  14  39
BRANCH   1  41
HETATM   41  C7  UNL     1       8.531  66.349 -36.238  1.00  0.00    -0.014 C 
HETATM   42  C8  UNL     1       9.034  67.316 -37.321  1.00  0.00     0.010 C 
BRANCH  41  43
HETATM   43  C6  UNL     1       9.242  64.982 -36.463  1.00  0.00     0.008 C 
BRANCH  43  44
HETATM   44  C5  UNL     1       8.506  63.785 -35.850  1.00  0.00     0.028 C 
BRANCH  44  45
HETATM   45  C4  UNL     1       9.244  63.252 -34.649  1.00  0.00    -0.025 C 
HETATM   46  C2  UNL     1       9.101  62.050 -34.059  1.00  0.00    -0.091 C 
HETATM   47  C1  UNL     1       8.182  60.958 -34.533  1.00  0.00     0.042 C 
HETATM   48  C3  UNL     1       9.905  61.693 -32.835  1.00  0.00     0.042 C 
ENDBRANCH  44  45
ENDBRANCH  43  44
ENDBRANCH  41  43
ENDBRANCH   1  41
TORSDOF 12
ENDMDL
