MODEL 1
REMARK minimizedAffinity -9.59292316
REMARK  9 active torsions:
REMARK  status: ('A' for Active; 'I' for Inactive)
REMARK    1  A    between atoms: C2_2  and  C3_3 
REMARK    2  A    between atoms: C2_2  and  C9_11 
REMARK    3  A    between atoms: C3_3  and  C4_4 
REMARK    4  A    between atoms: C4_4  and  C5_5 
REMARK    5  A    between atoms: C5_5  and  O1_6 
REMARK    6  A    between atoms: C5_5  and  C6_7 
REMARK    7  A    between atoms: C6_7  and  O2_10 
REMARK    8  A    between atoms: C12_14  and  C13_15 
REMARK    9  A    between atoms: C13_15  and  O4_17 
ROOT
HETATM    1  C9  UNL     1       1.191   8.409  13.104  1.00  0.00    -0.001 C 
HETATM    2  C10 UNL     1       1.392   9.014  14.514  1.00  0.00     0.007 C 
HETATM    3  C11 UNL     1      -0.008   9.163  15.130  1.00  0.00     0.022 C 
HETATM    4  C12 UNL     1      -0.805   7.992  14.515  1.00  0.00     0.057 C 
HETATM    5  C14 UNL     1      -2.342   8.153  14.591  1.00  0.00     0.014 C 
HETATM    6  C15 UNL     1      -2.906   7.989  16.012  1.00  0.00     0.007 C 
HETATM    7  C16 UNL     1      -4.418   8.198  16.026  1.00  0.00     0.007 C 
HETATM    8  C17 UNL     1      -5.115   7.052  15.277  1.00  0.00     0.010 C 
HETATM    9  C18 UNL     1      -6.675   7.149  15.243  1.00  0.00     0.018 C 
HETATM   10  C19 UNL     1      -7.198   8.475  14.666  1.00  0.00     0.023 C 
HETATM   11  C20 UNL     1      -7.253   6.958  16.657  1.00  0.00     0.023 C 
HETATM   12  C21 UNL     1      -7.235   6.013  14.373  1.00  0.00     0.135 C 
HETATM   13  O5  UNL     1      -8.428   5.945  14.073  1.00  0.00    -0.297 OA
HETATM   14  C22 UNL     1      -6.276   4.928  13.954  1.00  0.00     0.080 C 
HETATM   15  C23 UNL     1      -5.081   5.526  13.227  1.00  0.00     0.018 C 
HETATM   16  C24 UNL     1      -4.544   6.806  13.874  1.00  0.00    -0.026 A 
HETATM   17  C25 UNL     1      -4.316   7.968  12.940  1.00  0.00     0.021 A 
HETATM   18  C26 UNL     1      -3.099   7.289  13.545  1.00  0.00    -0.027 A 
HETATM   19  C27 UNL     1      -2.264   6.422  12.581  1.00  0.00     0.011 C 
HETATM   20  C28 UNL     1      -0.820   6.850  12.254  1.00  0.00     0.012 C 
HETATM   21  C29 UNL     1      -0.343   8.081  13.023  1.00  0.00    -0.022 C 
HETATM   22  C30 UNL     1      -0.963   9.307  12.249  1.00  0.00     0.017 C 
ENDROOT
BRANCH   1  23
HETATM   23  C2  UNL     1       2.247   7.352  12.663  1.00  0.00    -0.014 C 
HETATM   24  C1  UNL     1       3.711   7.762  12.839  1.00  0.00     0.010 C 
BRANCH  23  25
HETATM   25  C3  UNL     1       1.986   6.950  11.184  1.00  0.00     0.007 C 
BRANCH  25  26
HETATM   26  C4  UNL     1       2.978   7.575  10.189  1.00  0.00     0.035 C 
BRANCH  26  27
HETATM   27  C5  UNL     1       2.878   6.924   8.801  1.00  0.00     0.151 C 
BRANCH  27  28
HETATM   28  O1  UNL     1       2.194   5.668   8.940  1.00  0.00    -0.393 OA
HETATM   29  H10 UNL     1       2.412   5.163   8.135  1.00  0.00     0.210 HD
ENDBRANCH  27  28
BRANCH  27  30
HETATM   30  C6  UNL     1       2.142   7.779   7.734  1.00  0.00     0.076 C 
HETATM   31  C7  UNL     1       0.815   8.325   8.267  1.00  0.00     0.048 C 
HETATM   32  C8  UNL     1       1.908   7.034   6.415  1.00  0.00     0.048 C 
BRANCH  30  33
HETATM   33  O2  UNL     1       2.975   8.922   7.453  1.00  0.00    -0.388 OA
HETATM   34  H17 UNL     1       3.669   8.619   6.839  1.00  0.00     0.210 HD
ENDBRANCH  30  33
ENDBRANCH  27  30
ENDBRANCH  26  27
ENDBRANCH  25  26
ENDBRANCH  23  25
ENDBRANCH   1  23
BRANCH   4  35
HETATM   35  C13 UNL     1      -0.430   6.670  15.232  1.00  0.00     0.149 C 
HETATM   36  O3  UNL     1      -0.760   5.537  14.918  1.00  0.00    -0.649 OA
BRANCH  35  37
HETATM   37  O4  UNL     1       0.293   6.819  16.358  1.00  0.00    -0.776 OA
HETATM   38  H23 UNL     1       0.418   5.899  16.674  1.00  0.00     0.167 HD
ENDBRANCH  35  37
ENDBRANCH   4  35
TORSDOF 9
ENDMDL
MODEL 2
REMARK minimizedAffinity -9.31562996
REMARK  9 active torsions:
REMARK  status: ('A' for Active; 'I' for Inactive)
REMARK    1  A    between atoms: C2_2  and  C3_3 
REMARK    2  A    between atoms: C2_2  and  C9_11 
REMARK    3  A    between atoms: C3_3  and  C4_4 
REMARK    4  A    between atoms: C4_4  and  C5_5 
REMARK    5  A    between atoms: C5_5  and  O1_6 
REMARK    6  A    between atoms: C5_5  and  C6_7 
REMARK    7  A    between atoms: C6_7  and  O2_10 
REMARK    8  A    between atoms: C12_14  and  C13_15 
REMARK    9  A    between atoms: C13_15  and  O4_17 
ROOT
HETATM    1  C9  UNL     1      -3.038   7.013  14.197  1.00  0.00    -0.001 C 
HETATM    2  C10 UNL     1      -2.932   8.204  15.180  1.00  0.00     0.007 C 
HETATM    3  C11 UNL     1      -1.451   8.613  15.214  1.00  0.00     0.022 C 
HETATM    4  C12 UNL     1      -0.948   8.285  13.791  1.00  0.00     0.057 C 
HETATM    5  C14 UNL     1       0.590   8.163  13.667  1.00  0.00     0.014 C 
HETATM    6  C15 UNL     1       1.322   9.510  13.778  1.00  0.00     0.007 C 
HETATM    7  C16 UNL     1       2.834   9.317  13.688  1.00  0.00     0.007 C 
HETATM    8  C17 UNL     1       3.223   8.864  12.273  1.00  0.00     0.010 C 
HETATM    9  C18 UNL     1       4.757   8.654  12.055  1.00  0.00     0.018 C 
HETATM   10  C19 UNL     1       5.393   7.673  13.055  1.00  0.00     0.023 C 
HETATM   11  C20 UNL     1       5.498  10.001  12.137  1.00  0.00     0.023 C 
HETATM   12  C21 UNL     1       4.996   8.095  10.643  1.00  0.00     0.135 C 
HETATM   13  O5  UNL     1       6.106   7.714  10.269  1.00  0.00    -0.297 OA
HETATM   14  C22 UNL     1       3.827   8.099   9.691  1.00  0.00     0.080 C 
HETATM   15  C23 UNL     1       2.648   7.350  10.295  1.00  0.00     0.018 C 
HETATM   16  C24 UNL     1       2.421   7.653  11.779  1.00  0.00    -0.026 A 
HETATM   17  C25 UNL     1       2.245   6.451  12.674  1.00  0.00     0.021 A 
HETATM   18  C26 UNL     1       1.039   7.340  12.428  1.00  0.00    -0.027 A 
HETATM   19  C27 UNL     1      -0.055   6.750  11.514  1.00  0.00     0.011 C 
HETATM   20  C28 UNL     1      -1.446   6.456  12.111  1.00  0.00     0.012 C 
HETATM   21  C29 UNL     1      -1.604   6.881  13.569  1.00  0.00    -0.022 C 
HETATM   22  C30 UNL     1      -0.918   5.733  14.403  1.00  0.00     0.017 C 
ENDROOT
BRANCH   1  23
HETATM   23  C2  UNL     1      -4.301   6.997  13.285  1.00  0.00    -0.014 C 
HETATM   24  C1  UNL     1      -5.244   8.194  13.434  1.00  0.00     0.010 C 
BRANCH  23  25
HETATM   25  C3  UNL     1      -5.086   5.676  13.517  1.00  0.00     0.007 C 
BRANCH  25  26
HETATM   26  C4  UNL     1      -4.422   4.443  12.882  1.00  0.00     0.035 C 
BRANCH  26  27
HETATM   27  C5  UNL     1      -5.452   3.362  12.522  1.00  0.00     0.151 C 
BRANCH  27  28
HETATM   28  O1  UNL     1      -6.653   4.014  12.076  1.00  0.00    -0.393 OA
HETATM   29  H10 UNL     1      -7.356   3.343  12.149  1.00  0.00     0.210 HD
ENDBRANCH  27  28
BRANCH  27  30
HETATM   30  C6  UNL     1      -4.991   2.361  11.429  1.00  0.00     0.076 C 
HETATM   31  C7  UNL     1      -6.051   1.289  11.164  1.00  0.00     0.048 C 
HETATM   32  C8  UNL     1      -3.645   1.699  11.740  1.00  0.00     0.048 C 
BRANCH  30  33
HETATM   33  O2  UNL     1      -4.844   3.106  10.202  1.00  0.00    -0.388 OA
HETATM   34  H17 UNL     1      -3.984   3.562  10.253  1.00  0.00     0.210 HD
ENDBRANCH  30  33
ENDBRANCH  27  30
ENDBRANCH  26  27
ENDBRANCH  25  26
ENDBRANCH  23  25
ENDBRANCH   1  23
BRANCH   4  35
HETATM   35  C13 UNL     1      -1.419   9.383  12.804  1.00  0.00     0.149 C 
HETATM   36  O3  UNL     1      -1.722   9.244  11.629  1.00  0.00    -0.649 OA
BRANCH  35  37
HETATM   37  O4  UNL     1      -1.431  10.632  13.306  1.00  0.00    -0.776 OA
HETATM   38  H23 UNL     1      -1.732  11.181  12.551  1.00  0.00     0.167 HD
ENDBRANCH  35  37
ENDBRANCH   4  35
TORSDOF 9
ENDMDL
MODEL 3
REMARK minimizedAffinity -9.2829895
REMARK  9 active torsions:
REMARK  status: ('A' for Active; 'I' for Inactive)
REMARK    1  A    between atoms: C2_2  and  C3_3 
REMARK    2  A    between atoms: C2_2  and  C9_11 
REMARK    3  A    between atoms: C3_3  and  C4_4 
REMARK    4  A    between atoms: C4_4  and  C5_5 
REMARK    5  A    between atoms: C5_5  and  O1_6 
REMARK    6  A    between atoms: C5_5  and  C6_7 
REMARK    7  A    between atoms: C6_7  and  O2_10 
REMARK    8  A    between atoms: C12_14  and  C13_15 
REMARK    9  A    between atoms: C13_15  and  O4_17 
ROOT
HETATM    1  C9  UNL     1      -2.879   6.970  14.129  1.00  0.00    -0.001 C 
HETATM    2  C10 UNL     1      -2.794   8.158  15.117  1.00  0.00     0.007 C 
HETATM    3  C11 UNL     1      -1.319   8.586  15.161  1.00  0.00     0.022 C 
HETATM    4  C12 UNL     1      -0.803   8.270  13.741  1.00  0.00     0.057 C 
HETATM    5  C14 UNL     1       0.737   8.168  13.626  1.00  0.00     0.014 C 
HETATM    6  C15 UNL     1       1.451   9.525  13.746  1.00  0.00     0.007 C 
HETATM    7  C16 UNL     1       2.966   9.351  13.665  1.00  0.00     0.007 C 
HETATM    8  C17 UNL     1       3.370   8.908  12.251  1.00  0.00     0.010 C 
HETATM    9  C18 UNL     1       4.908   8.719  12.041  1.00  0.00     0.018 C 
HETATM   10  C19 UNL     1       5.550   7.743  13.042  1.00  0.00     0.023 C 
HETATM   11  C20 UNL     1       5.630  10.075  12.132  1.00  0.00     0.023 C 
HETATM   12  C21 UNL     1       5.162   8.168  10.630  1.00  0.00     0.135 C 
HETATM   13  O5  UNL     1       6.280   7.802  10.262  1.00  0.00    -0.297 OA
HETATM   14  C22 UNL     1       3.999   8.160   9.670  1.00  0.00     0.080 C 
HETATM   15  C23 UNL     1       2.826   7.394  10.265  1.00  0.00     0.018 C 
HETATM   16  C24 UNL     1       2.587   7.688  11.748  1.00  0.00    -0.026 A 
HETATM   17  C25 UNL     1       2.421   6.482  12.638  1.00  0.00     0.021 A 
HETATM   18  C26 UNL     1       1.204   7.355  12.387  1.00  0.00    -0.027 A 
HETATM   19  C27 UNL     1       0.124   6.755  11.464  1.00  0.00     0.011 C 
HETATM   20  C28 UNL     1      -1.266   6.440  12.051  1.00  0.00     0.012 C 
HETATM   21  C29 UNL     1      -1.439   6.859  13.510  1.00  0.00    -0.022 C 
HETATM   22  C30 UNL     1      -0.743   5.716  14.345  1.00  0.00     0.017 C 
ENDROOT
BRANCH   1  23
HETATM   23  C2  UNL     1      -4.136   6.941  13.210  1.00  0.00    -0.014 C 
HETATM   24  C1  UNL     1      -5.052   8.164  13.297  1.00  0.00     0.010 C 
BRANCH  23  25
HETATM   25  C3  UNL     1      -4.952   5.649  13.496  1.00  0.00     0.007 C 
BRANCH  25  26
HETATM   26  C4  UNL     1      -6.074   5.842  14.528  1.00  0.00     0.035 C 
BRANCH  26  27
HETATM   27  C5  UNL     1      -7.083   4.684  14.497  1.00  0.00     0.151 C 
BRANCH  27  28
HETATM   28  O1  UNL     1      -8.120   4.963  15.452  1.00  0.00    -0.393 OA
HETATM   29  H10 UNL     1      -8.554   4.107  15.623  1.00  0.00     0.210 HD
ENDBRANCH  27  28
BRANCH  27  30
HETATM   30  C6  UNL     1      -7.736   4.426  13.112  1.00  0.00     0.076 C 
HETATM   31  C7  UNL     1      -6.724   3.868  12.109  1.00  0.00     0.048 C 
HETATM   32  C8  UNL     1      -8.425   5.663  12.526  1.00  0.00     0.048 C 
BRANCH  30  33
HETATM   33  O2  UNL     1      -8.739   3.407  13.296  1.00  0.00    -0.388 OA
HETATM   34  H17 UNL     1      -9.524   3.850  13.666  1.00  0.00     0.210 HD
ENDBRANCH  30  33
ENDBRANCH  27  30
ENDBRANCH  26  27
ENDBRANCH  25  26
ENDBRANCH  23  25
ENDBRANCH   1  23
BRANCH   4  35
HETATM   35  C13 UNL     1      -1.281   9.365  12.754  1.00  0.00     0.149 C 
HETATM   36  O3  UNL     1      -1.558   9.229  11.573  1.00  0.00    -0.649 OA
BRANCH  35  37
HETATM   37  O4  UNL     1      -1.335  10.609  13.267  1.00  0.00    -0.776 OA
HETATM   38  H23 UNL     1      -1.635  11.157  12.511  1.00  0.00     0.167 HD
ENDBRANCH  35  37
ENDBRANCH   4  35
TORSDOF 9
ENDMDL
MODEL 4
REMARK minimizedAffinity -8.99860001
REMARK  9 active torsions:
REMARK  status: ('A' for Active; 'I' for Inactive)
REMARK    1  A    between atoms: C2_2  and  C3_3 
REMARK    2  A    between atoms: C2_2  and  C9_11 
REMARK    3  A    between atoms: C3_3  and  C4_4 
REMARK    4  A    between atoms: C4_4  and  C5_5 
REMARK    5  A    between atoms: C5_5  and  O1_6 
REMARK    6  A    between atoms: C5_5  and  C6_7 
REMARK    7  A    between atoms: C6_7  and  O2_10 
REMARK    8  A    between atoms: C12_14  and  C13_15 
REMARK    9  A    between atoms: C13_15  and  O4_17 
ROOT
HETATM    1  C9  UNL     1      -3.172   8.426  15.486  1.00  0.00    -0.001 C 
HETATM    2  C10 UNL     1      -2.061   8.542  16.558  1.00  0.00     0.007 C 
HETATM    3  C11 UNL     1      -0.767   8.035  15.903  1.00  0.00     0.022 C 
HETATM    4  C12 UNL     1      -0.936   8.414  14.416  1.00  0.00     0.057 C 
HETATM    5  C14 UNL     1      -0.014   7.635  13.447  1.00  0.00     0.014 C 
HETATM    6  C15 UNL     1       1.464   8.050  13.541  1.00  0.00     0.007 C 
HETATM    7  C16 UNL     1       2.324   7.220  12.591  1.00  0.00     0.007 C 
HETATM    8  C17 UNL     1       1.991   7.573  11.134  1.00  0.00     0.010 C 
HETATM    9  C18 UNL     1       2.830   6.797  10.068  1.00  0.00     0.018 C 
HETATM   10  C19 UNL     1       2.747   5.268  10.212  1.00  0.00     0.023 C 
HETATM   11  C20 UNL     1       4.307   7.225  10.134  1.00  0.00     0.023 C 
HETATM   12  C21 UNL     1       2.321   7.157   8.663  1.00  0.00     0.135 C 
HETATM   13  O5  UNL     1       2.723   6.578   7.652  1.00  0.00    -0.297 OA
HETATM   14  C22 UNL     1       1.357   8.311   8.552  1.00  0.00     0.080 C 
HETATM   15  C23 UNL     1       0.144   8.076   9.441  1.00  0.00     0.018 C 
HETATM   16  C24 UNL     1       0.491   7.505  10.819  1.00  0.00    -0.026 A 
HETATM   17  C25 UNL     1      -0.316   6.308  11.255  1.00  0.00     0.021 A 
HETATM   18  C26 UNL     1      -0.538   7.622  11.984  1.00  0.00    -0.027 A 
HETATM   19  C27 UNL     1      -1.869   8.340  11.684  1.00  0.00     0.011 C 
HETATM   20  C28 UNL     1      -2.900   8.503  12.818  1.00  0.00     0.012 C 
HETATM   21  C29 UNL     1      -2.423   7.990  14.176  1.00  0.00    -0.022 C 
HETATM   22  C30 UNL     1      -2.624   6.428  14.113  1.00  0.00     0.017 C 
ENDROOT
BRANCH   1  23
HETATM   23  C2  UNL     1      -4.206   9.590  15.453  1.00  0.00    -0.014 C 
HETATM   24  C1  UNL     1      -3.950  10.736  16.435  1.00  0.00     0.010 C 
BRANCH  23  25
HETATM   25  C3  UNL     1      -5.634   9.016  15.672  1.00  0.00     0.007 C 
BRANCH  25  26
HETATM   26  C4  UNL     1      -6.168   8.211  14.476  1.00  0.00     0.035 C 
BRANCH  26  27
HETATM   27  C5  UNL     1      -6.464   6.753  14.858  1.00  0.00     0.151 C 
BRANCH  27  28
HETATM   28  O1  UNL     1      -6.054   6.551  16.220  1.00  0.00    -0.393 OA
HETATM   29  H10 UNL     1      -5.971   5.586  16.327  1.00  0.00     0.210 HD
ENDBRANCH  27  28
BRANCH  27  30
HETATM   30  C6  UNL     1      -7.952   6.332  14.716  1.00  0.00     0.076 C 
HETATM   31  C7  UNL     1      -8.204   5.590  13.401  1.00  0.00     0.048 C 
HETATM   32  C8  UNL     1      -8.930   7.504  14.850  1.00  0.00     0.048 C 
BRANCH  30  33
HETATM   33  O2  UNL     1      -8.235   5.397  15.777  1.00  0.00    -0.388 OA
HETATM   34  H17 UNL     1      -8.383   5.925  16.583  1.00  0.00     0.210 HD
ENDBRANCH  30  33
ENDBRANCH  27  30
ENDBRANCH  26  27
ENDBRANCH  25  26
ENDBRANCH  23  25
ENDBRANCH   1  23
BRANCH   4  35
HETATM   35  C13 UNL     1      -0.654   9.927  14.226  1.00  0.00     0.149 C 
HETATM   36  O3  UNL     1       0.187  10.602  14.798  1.00  0.00    -0.649 OA
BRANCH  35  37
HETATM   37  O4  UNL     1      -1.482  10.556  13.371  1.00  0.00    -0.776 OA
HETATM   38  H23 UNL     1      -1.171  11.486  13.392  1.00  0.00     0.167 HD
ENDBRANCH  35  37
ENDBRANCH   4  35
TORSDOF 9
ENDMDL
MODEL 5
REMARK minimizedAffinity -8.67309856
REMARK  9 active torsions:
REMARK  status: ('A' for Active; 'I' for Inactive)
REMARK    1  A    between atoms: C2_2  and  C3_3 
REMARK    2  A    between atoms: C2_2  and  C9_11 
REMARK    3  A    between atoms: C3_3  and  C4_4 
REMARK    4  A    between atoms: C4_4  and  C5_5 
REMARK    5  A    between atoms: C5_5  and  O1_6 
REMARK    6  A    between atoms: C5_5  and  C6_7 
REMARK    7  A    between atoms: C6_7  and  O2_10 
REMARK    8  A    between atoms: C12_14  and  C13_15 
REMARK    9  A    between atoms: C13_15  and  O4_17 
ROOT
HETATM    1  C9  UNL     1       0.760   8.770  13.536  1.00  0.00    -0.001 C 
HETATM    2  C10 UNL     1       0.708   9.205  15.020  1.00  0.00     0.007 C 
HETATM    3  C11 UNL     1      -0.741   8.996  15.487  1.00  0.00     0.022 C 
HETATM    4  C12 UNL     1      -1.224   7.788  14.655  1.00  0.00     0.057 C 
HETATM    5  C14 UNL     1      -2.762   7.638  14.575  1.00  0.00     0.014 C 
HETATM    6  C15 UNL     1      -3.402   7.176  15.894  1.00  0.00     0.007 C 
HETATM    7  C16 UNL     1      -4.920   7.086  15.761  1.00  0.00     0.007 C 
HETATM    8  C17 UNL     1      -5.299   5.941  14.811  1.00  0.00     0.010 C 
HETATM    9  C18 UNL     1      -6.836   5.739  14.613  1.00  0.00     0.018 C 
HETATM   10  C19 UNL     1      -7.568   7.006  14.138  1.00  0.00     0.023 C 
HETATM   11  C20 UNL     1      -7.484   5.250  15.921  1.00  0.00     0.023 C 
HETATM   12  C21 UNL     1      -7.072   4.646  13.559  1.00  0.00     0.135 C 
HETATM   13  O5  UNL     1      -8.195   4.391  13.120  1.00  0.00    -0.297 OA
HETATM   14  C22 UNL     1      -5.878   3.832  13.128  1.00  0.00     0.080 C 
HETATM   15  C23 UNL     1      -4.772   4.743  12.615  1.00  0.00     0.018 C 
HETATM   16  C24 UNL     1      -4.569   6.002  13.462  1.00  0.00    -0.026 A 
HETATM   17  C25 UNL     1      -4.503   7.302  12.701  1.00  0.00     0.021 A 
HETATM   18  C26 UNL     1      -3.231   6.795  13.356  1.00  0.00    -0.027 A 
HETATM   19  C27 UNL     1      -2.154   6.244  12.399  1.00  0.00     0.011 C 
HETATM   20  C28 UNL     1      -0.806   6.982  12.290  1.00  0.00     0.012 C 
HETATM   21  C29 UNL     1      -0.661   8.166  13.244  1.00  0.00    -0.022 C 
HETATM   22  C30 UNL     1      -1.450   9.343  12.552  1.00  0.00     0.017 C 
ENDROOT
BRANCH   1  23
HETATM   23  C2  UNL     1       2.045   8.006  13.098  1.00  0.00    -0.014 C 
HETATM   24  C1  UNL     1       3.113   7.827  14.179  1.00  0.00     0.010 C 
BRANCH  23  25
HETATM   25  C3  UNL     1       2.663   8.709  11.856  1.00  0.00     0.007 C 
BRANCH  25  26
HETATM   26  C4  UNL     1       2.233   8.088  10.517  1.00  0.00     0.035 C 
BRANCH  26  27
HETATM   27  C5  UNL     1       3.411   7.412   9.799  1.00  0.00     0.151 C 
BRANCH  27  28
HETATM   28  O1  UNL     1       4.621   7.758  10.492  1.00  0.00    -0.393 OA
HETATM   29  H10 UNL     1       5.342   7.578   9.862  1.00  0.00     0.210 HD
ENDBRANCH  27  28
BRANCH  27  30
HETATM   30  C6  UNL     1       3.314   5.865   9.704  1.00  0.00     0.076 C 
HETATM   31  C7  UNL     1       3.082   5.403   8.263  1.00  0.00     0.048 C 
HETATM   32  C8  UNL     1       2.244   5.266  10.623  1.00  0.00     0.048 C 
BRANCH  30  33
HETATM   33  O2  UNL     1       4.591   5.331  10.107  1.00  0.00    -0.388 OA
HETATM   34  H17 UNL     1       4.606   5.345  11.082  1.00  0.00     0.210 HD
ENDBRANCH  30  33
ENDBRANCH  27  30
ENDBRANCH  26  27
ENDBRANCH  25  26
ENDBRANCH  23  25
ENDBRANCH   1  23
BRANCH   4  35
HETATM   35  C13 UNL     1      -0.649   6.478  15.252  1.00  0.00     0.149 C 
HETATM   36  O3  UNL     1      -0.893   5.334  14.900  1.00  0.00    -0.649 OA
BRANCH  35  37
HETATM   37  O4  UNL     1       0.162   6.644  16.313  1.00  0.00    -0.776 OA
HETATM   38  H23 UNL     1       0.409   5.728  16.559  1.00  0.00     0.167 HD
ENDBRANCH  35  37
ENDBRANCH   4  35
TORSDOF 9
ENDMDL
MODEL 6
REMARK minimizedAffinity -8.49290848
REMARK  9 active torsions:
REMARK  status: ('A' for Active; 'I' for Inactive)
REMARK    1  A    between atoms: C2_2  and  C3_3 
REMARK    2  A    between atoms: C2_2  and  C9_11 
REMARK    3  A    between atoms: C3_3  and  C4_4 
REMARK    4  A    between atoms: C4_4  and  C5_5 
REMARK    5  A    between atoms: C5_5  and  O1_6 
REMARK    6  A    between atoms: C5_5  and  C6_7 
REMARK    7  A    between atoms: C6_7  and  O2_10 
REMARK    8  A    between atoms: C12_14  and  C13_15 
REMARK    9  A    between atoms: C13_15  and  O4_17 
ROOT
HETATM    1  C9  UNL     1       0.675   7.166  11.696  1.00  0.00    -0.001 C 
HETATM    2  C10 UNL     1       0.370   8.604  11.213  1.00  0.00     0.007 C 
HETATM    3  C11 UNL     1      -1.143   8.812  11.386  1.00  0.00     0.022 C 
HETATM    4  C12 UNL     1      -1.494   7.942  12.612  1.00  0.00     0.057 C 
HETATM    5  C14 UNL     1      -2.997   7.594  12.742  1.00  0.00     0.014 C 
HETATM    6  C15 UNL     1      -3.870   8.792  13.152  1.00  0.00     0.007 C 
HETATM    7  C16 UNL     1      -5.341   8.394  13.224  1.00  0.00     0.007 C 
HETATM    8  C17 UNL     1      -5.568   7.425  14.394  1.00  0.00     0.010 C 
HETATM    9  C18 UNL     1      -7.050   6.963  14.580  1.00  0.00     0.018 C 
HETATM   10  C19 UNL     1      -7.661   6.328  13.319  1.00  0.00     0.023 C 
HETATM   11  C20 UNL     1      -7.929   8.149  15.017  1.00  0.00     0.023 C 
HETATM   12  C21 UNL     1      -7.117   5.916  15.703  1.00  0.00     0.135 C 
HETATM   13  O5  UNL     1      -8.150   5.292  15.956  1.00  0.00    -0.297 OA
HETATM   14  C22 UNL     1      -5.882   5.728  16.547  1.00  0.00     0.080 C 
HETATM   15  C23 UNL     1      -4.685   5.394  15.669  1.00  0.00     0.018 C 
HETATM   16  C24 UNL     1      -4.610   6.227  14.387  1.00  0.00    -0.026 A 
HETATM   17  C25 UNL     1      -4.384   5.451  13.113  1.00  0.00     0.021 A 
HETATM   18  C26 UNL     1      -3.259   6.337  13.617  1.00  0.00    -0.027 A 
HETATM   19  C27 UNL     1      -2.041   5.603  14.215  1.00  0.00     0.011 C 
HETATM   20  C28 UNL     1      -0.680   5.713  13.500  1.00  0.00     0.012 C 
HETATM   21  C29 UNL     1      -0.683   6.644  12.288  1.00  0.00    -0.022 C 
HETATM   22  C30 UNL     1      -1.313   5.789  11.122  1.00  0.00     0.017 C 
ENDROOT
BRANCH   1  23
HETATM   23  C2  UNL     1       2.002   6.985  12.492  1.00  0.00    -0.014 C 
HETATM   24  C1  UNL     1       2.422   8.172  13.363  1.00  0.00     0.010 C 
BRANCH  23  25
HETATM   25  C3  UNL     1       3.148   6.623  11.506  1.00  0.00     0.007 C 
BRANCH  25  26
HETATM   26  C4  UNL     1       3.230   7.554  10.285  1.00  0.00     0.035 C 
BRANCH  26  27
HETATM   27  C5  UNL     1       3.026   6.787   8.970  1.00  0.00     0.151 C 
BRANCH  27  28
HETATM   28  O1  UNL     1       2.272   5.597   9.254  1.00  0.00    -0.393 OA
HETATM   29  H10 UNL     1       2.421   5.007   8.492  1.00  0.00     0.210 HD
ENDBRANCH  27  28
BRANCH  27  30
HETATM   30  C6  UNL     1       2.296   7.587   7.856  1.00  0.00     0.076 C 
HETATM   31  C7  UNL     1       0.931   8.092   8.329  1.00  0.00     0.048 C 
HETATM   32  C8  UNL     1       2.139   6.802   6.549  1.00  0.00     0.048 C 
BRANCH  30  33
HETATM   33  O2  UNL     1       3.093   8.755   7.577  1.00  0.00    -0.388 OA
HETATM   34  H17 UNL     1       3.821   8.466   6.996  1.00  0.00     0.210 HD
ENDBRANCH  30  33
ENDBRANCH  27  30
ENDBRANCH  26  27
ENDBRANCH  25  26
ENDBRANCH  23  25
ENDBRANCH   1  23
BRANCH   4  35
HETATM   35  C13 UNL     1      -1.061   8.669  13.910  1.00  0.00     0.149 C 
HETATM   36  O3  UNL     1      -1.092   8.233  15.050  1.00  0.00    -0.649 OA
BRANCH  35  37
HETATM   37  O4  UNL     1      -0.664   9.945  13.742  1.00  0.00    -0.776 OA
HETATM   38  H23 UNL     1      -0.449  10.241  14.653  1.00  0.00     0.167 HD
ENDBRANCH  35  37
ENDBRANCH   4  35
TORSDOF 9
ENDMDL
MODEL 7
REMARK minimizedAffinity -8.46858978
REMARK  9 active torsions:
REMARK  status: ('A' for Active; 'I' for Inactive)
REMARK    1  A    between atoms: C2_2  and  C3_3 
REMARK    2  A    between atoms: C2_2  and  C9_11 
REMARK    3  A    between atoms: C3_3  and  C4_4 
REMARK    4  A    between atoms: C4_4  and  C5_5 
REMARK    5  A    between atoms: C5_5  and  O1_6 
REMARK    6  A    between atoms: C5_5  and  C6_7 
REMARK    7  A    between atoms: C6_7  and  O2_10 
REMARK    8  A    between atoms: C12_14  and  C13_15 
REMARK    9  A    between atoms: C13_15  and  O4_17 
ROOT
HETATM    1  C9  UNL     1      -2.625   7.694  13.705  1.00  0.00    -0.001 C 
HETATM    2  C10 UNL     1      -2.832   6.438  12.824  1.00  0.00     0.007 C 
HETATM    3  C11 UNL     1      -1.535   6.248  12.022  1.00  0.00     0.022 C 
HETATM    4  C12 UNL     1      -0.438   6.788  12.964  1.00  0.00     0.057 C 
HETATM    5  C14 UNL     1       0.893   7.146  12.261  1.00  0.00     0.014 C 
HETATM    6  C15 UNL     1       1.689   5.915  11.794  1.00  0.00     0.007 C 
HETATM    7  C16 UNL     1       2.968   6.335  11.075  1.00  0.00     0.007 C 
HETATM    8  C17 UNL     1       3.944   6.981  12.070  1.00  0.00     0.010 C 
HETATM    9  C18 UNL     1       5.305   7.434  11.447  1.00  0.00     0.018 C 
HETATM   10  C19 UNL     1       5.149   8.390  10.253  1.00  0.00     0.023 C 
HETATM   11  C20 UNL     1       6.122   6.208  11.002  1.00  0.00     0.023 C 
HETATM   12  C21 UNL     1       6.134   8.162  12.517  1.00  0.00     0.135 C 
HETATM   13  O5  UNL     1       7.190   8.737  12.248  1.00  0.00    -0.297 OA
HETATM   14  C22 UNL     1       5.646   8.084  13.941  1.00  0.00     0.080 C 
HETATM   15  C23 UNL     1       4.213   8.587  14.040  1.00  0.00     0.018 C 
HETATM   16  C24 UNL     1       3.311   8.107  12.899  1.00  0.00    -0.026 A 
HETATM   17  C25 UNL     1       2.489   9.172  12.219  1.00  0.00     0.021 A 
HETATM   18  C26 UNL     1       1.763   8.147  13.071  1.00  0.00    -0.027 A 
HETATM   19  C27 UNL     1       1.212   8.660  14.418  1.00  0.00     0.011 C 
HETATM   20  C28 UNL     1      -0.313   8.687  14.638  1.00  0.00     0.012 C 
HETATM   21  C29 UNL     1      -1.123   8.096  13.484  1.00  0.00    -0.022 C 
HETATM   22  C30 UNL     1      -1.181   9.242  12.402  1.00  0.00     0.017 C 
ENDROOT
BRANCH   1  23
HETATM   23  C2  UNL     1      -3.216   7.618  15.144  1.00  0.00    -0.014 C 
HETATM   24  C1  UNL     1      -2.227   7.872  16.284  1.00  0.00     0.010 C 
BRANCH  23  25
HETATM   25  C3  UNL     1      -3.908   6.240  15.343  1.00  0.00     0.007 C 
BRANCH  25  26
HETATM   26  C4  UNL     1      -5.339   6.180  14.783  1.00  0.00     0.035 C 
BRANCH  26  27
HETATM   27  C5  UNL     1      -6.388   6.128  15.903  1.00  0.00     0.151 C 
BRANCH  27  28
HETATM   28  O1  UNL     1      -6.468   7.429  16.507  1.00  0.00    -0.393 OA
HETATM   29  H10 UNL     1      -6.893   7.289  17.373  1.00  0.00     0.210 HD
ENDBRANCH  27  28
BRANCH  27  30
HETATM   30  C6  UNL     1      -7.809   5.701  15.445  1.00  0.00     0.076 C 
HETATM   31  C7  UNL     1      -7.882   5.527  13.927  1.00  0.00     0.048 C 
HETATM   32  C8  UNL     1      -8.911   6.656  15.916  1.00  0.00     0.048 C 
BRANCH  30  33
HETATM   33  O2  UNL     1      -8.073   4.405  16.021  1.00  0.00    -0.388 OA
HETATM   34  H17 UNL     1      -8.336   4.559  16.948  1.00  0.00     0.210 HD
ENDBRANCH  30  33
ENDBRANCH  27  30
ENDBRANCH  26  27
ENDBRANCH  25  26
ENDBRANCH  23  25
ENDBRANCH   1  23
BRANCH   4  35
HETATM   35  C13 UNL     1      -0.128   5.739  14.063  1.00  0.00     0.149 C 
HETATM   36  O3  UNL     1      -0.136   4.523  13.950  1.00  0.00    -0.649 OA
BRANCH  35  37
HETATM   37  O4  UNL     1       0.117   6.250  15.284  1.00  0.00    -0.776 OA
HETATM   38  H23 UNL     1       0.272   5.456  15.838  1.00  0.00     0.167 HD
ENDBRANCH  35  37
ENDBRANCH   4  35
TORSDOF 9
ENDMDL
MODEL 8
REMARK minimizedAffinity -8.37679863
REMARK  9 active torsions:
REMARK  status: ('A' for Active; 'I' for Inactive)
REMARK    1  A    between atoms: C2_2  and  C3_3 
REMARK    2  A    between atoms: C2_2  and  C9_11 
REMARK    3  A    between atoms: C3_3  and  C4_4 
REMARK    4  A    between atoms: C4_4  and  C5_5 
REMARK    5  A    between atoms: C5_5  and  O1_6 
REMARK    6  A    between atoms: C5_5  and  C6_7 
REMARK    7  A    between atoms: C6_7  and  O2_10 
REMARK    8  A    between atoms: C12_14  and  C13_15 
REMARK    9  A    between atoms: C13_15  and  O4_17 
ROOT
HETATM    1  C9  UNL     1      -0.863   6.552  12.540  1.00  0.00    -0.001 C 
HETATM    2  C10 UNL     1       0.654   6.859  12.577  1.00  0.00     0.007 C 
HETATM    3  C11 UNL     1       0.815   8.178  13.349  1.00  0.00     0.022 C 
HETATM    4  C12 UNL     1      -0.350   8.153  14.362  1.00  0.00     0.057 C 
HETATM    5  C14 UNL     1      -0.713   9.536  14.956  1.00  0.00     0.014 C 
HETATM    6  C15 UNL     1       0.335  10.073  15.945  1.00  0.00     0.007 C 
HETATM    7  C16 UNL     1      -0.062  11.453  16.462  1.00  0.00     0.007 C 
HETATM    8  C17 UNL     1      -1.308  11.344  17.354  1.00  0.00     0.010 C 
HETATM    9  C18 UNL     1      -1.796  12.699  17.961  1.00  0.00     0.018 C 
HETATM   10  C19 UNL     1      -2.066  13.785  16.906  1.00  0.00     0.023 C 
HETATM   11  C20 UNL     1      -0.767  13.232  18.974  1.00  0.00     0.023 C 
HETATM   12  C21 UNL     1      -3.105  12.466  18.731  1.00  0.00     0.135 C 
HETATM   13  O5  UNL     1      -3.769  13.398  19.190  1.00  0.00    -0.297 OA
HETATM   14  C22 UNL     1      -3.517  11.037  18.977  1.00  0.00     0.080 C 
HETATM   15  C23 UNL     1      -3.610  10.278  17.661  1.00  0.00     0.018 C 
HETATM   16  C24 UNL     1      -2.464  10.583  16.693  1.00  0.00    -0.026 A 
HETATM   17  C25 UNL     1      -2.871  10.913  15.278  1.00  0.00     0.021 A 
HETATM   18  C26 UNL     1      -2.158   9.595  15.526  1.00  0.00    -0.027 A 
HETATM   19  C27 UNL     1      -3.030   8.328  15.423  1.00  0.00     0.011 C 
HETATM   20  C28 UNL     1      -2.739   7.312  14.301  1.00  0.00     0.012 C 
HETATM   21  C29 UNL     1      -1.518   7.653  13.448  1.00  0.00    -0.022 C 
HETATM   22  C30 UNL     1      -2.026   8.746  12.432  1.00  0.00     0.017 C 
ENDROOT
BRANCH   1  23
HETATM   23  C2  UNL     1      -1.255   5.055  12.709  1.00  0.00    -0.014 C 
HETATM   24  C1  UNL     1      -0.235   4.037  12.195  1.00  0.00     0.010 C 
BRANCH  23  25
HETATM   25  C3  UNL     1      -2.634   4.805  12.036  1.00  0.00     0.007 C 
BRANCH  25  26
HETATM   26  C4  UNL     1      -3.331   3.520  12.512  1.00  0.00     0.035 C 
BRANCH  26  27
HETATM   27  C5  UNL     1      -3.767   2.638  11.333  1.00  0.00     0.151 C 
BRANCH  27  28
HETATM   28  O1  UNL     1      -3.393   1.281  11.622  1.00  0.00    -0.393 OA
HETATM   29  H10 UNL     1      -3.402   0.820  10.763  1.00  0.00     0.210 HD
ENDBRANCH  27  28
BRANCH  27  30
HETATM   30  C6  UNL     1      -5.286   2.680  11.015  1.00  0.00     0.076 C 
HETATM   31  C7  UNL     1      -5.948   1.320  11.246  1.00  0.00     0.048 C 
HETATM   32  C8  UNL     1      -5.597   3.179   9.599  1.00  0.00     0.048 C 
BRANCH  30  33
HETATM   33  O2  UNL     1      -5.893   3.596  11.949  1.00  0.00    -0.388 OA
HETATM   34  H17 UNL     1      -5.722   4.495  11.611  1.00  0.00     0.210 HD
ENDBRANCH  30  33
ENDBRANCH  27  30
ENDBRANCH  26  27
ENDBRANCH  25  26
ENDBRANCH  23  25
ENDBRANCH   1  23
BRANCH   4  35
HETATM   35  C13 UNL     1       0.001   7.209  15.540  1.00  0.00     0.149 C 
HETATM   36  O3  UNL     1       0.882   7.357  16.373  1.00  0.00    -0.649 OA
BRANCH  35  37
HETATM   37  O4  UNL     1      -0.725   6.076  15.596  1.00  0.00    -0.776 OA
HETATM   38  H23 UNL     1      -0.360   5.607  16.376  1.00  0.00     0.167 HD
ENDBRANCH  35  37
ENDBRANCH   4  35
TORSDOF 9
ENDMDL
MODEL 9
REMARK minimizedAffinity -8.28102779
REMARK  9 active torsions:
REMARK  status: ('A' for Active; 'I' for Inactive)
REMARK    1  A    between atoms: C2_2  and  C3_3 
REMARK    2  A    between atoms: C2_2  and  C9_11 
REMARK    3  A    between atoms: C3_3  and  C4_4 
REMARK    4  A    between atoms: C4_4  and  C5_5 
REMARK    5  A    between atoms: C5_5  and  O1_6 
REMARK    6  A    between atoms: C5_5  and  C6_7 
REMARK    7  A    between atoms: C6_7  and  O2_10 
REMARK    8  A    between atoms: C12_14  and  C13_15 
REMARK    9  A    between atoms: C13_15  and  O4_17 
ROOT
HETATM    1  C9  UNL     1      -5.917   7.005  14.278  1.00  0.00    -0.001 C 
HETATM    2  C10 UNL     1      -5.835   5.551  13.753  1.00  0.00     0.007 C 
HETATM    3  C11 UNL     1      -4.504   5.435  12.994  1.00  0.00     0.022 C 
HETATM    4  C12 UNL     1      -3.570   6.413  13.739  1.00  0.00     0.057 C 
HETATM    5  C14 UNL     1      -2.321   6.847  12.935  1.00  0.00     0.014 C 
HETATM    6  C15 UNL     1      -1.275   5.730  12.779  1.00  0.00     0.007 C 
HETATM    7  C16 UNL     1      -0.089   6.208  11.945  1.00  0.00     0.007 C 
HETATM    8  C17 UNL     1       0.702   7.274  12.717  1.00  0.00     0.010 C 
HETATM    9  C18 UNL     1       1.958   7.824  11.966  1.00  0.00     0.018 C 
HETATM   10  C19 UNL     1       1.643   8.391  10.571  1.00  0.00     0.023 C 
HETATM   11  C20 UNL     1       3.024   6.723  11.828  1.00  0.00     0.023 C 
HETATM   12  C21 UNL     1       2.587   8.957  12.793  1.00  0.00     0.135 C 
HETATM   13  O5  UNL     1       3.509   9.650  12.359  1.00  0.00    -0.297 OA
HETATM   14  C22 UNL     1       2.084   9.145  14.201  1.00  0.00     0.080 C 
HETATM   15  C23 UNL     1       0.576   9.349  14.203  1.00  0.00     0.018 C 
HETATM   16  C24 UNL     1      -0.173   8.418  13.246  1.00  0.00    -0.026 A 
HETATM   17  C25 UNL     1      -1.177   9.080  12.337  1.00  0.00     0.021 A 
HETATM   18  C26 UNL     1      -1.701   8.179  13.441  1.00  0.00    -0.027 A 
HETATM   19  C27 UNL     1      -2.385   8.893  14.625  1.00  0.00     0.011 C 
HETATM   20  C28 UNL     1      -3.889   8.659  14.868  1.00  0.00     0.012 C 
HETATM   21  C29 UNL     1      -4.525   7.639  13.924  1.00  0.00    -0.022 C 
HETATM   22  C30 UNL     1      -4.787   8.434  12.588  1.00  0.00     0.017 C 
ENDROOT
BRANCH   1  23
HETATM   23  C2  UNL     1      -6.523   7.177  15.703  1.00  0.00    -0.014 C 
HETATM   24  C1  UNL     1      -6.830   5.881  16.456  1.00  0.00     0.010 C 
BRANCH  23  25
HETATM   25  C3  UNL     1      -7.804   8.052  15.615  1.00  0.00     0.007 C 
BRANCH  25  26
HETATM   26  C4  UNL     1      -8.937   7.410  14.797  1.00  0.00     0.035 C 
BRANCH  26  27
HETATM   27  C5  UNL     1     -10.290   8.084  15.070  1.00  0.00     0.151 C 
BRANCH  27  28
HETATM   28  O1  UNL     1     -10.129   9.502  14.904  1.00  0.00    -0.393 OA
HETATM   29  H10 UNL     1     -10.887   9.906  15.365  1.00  0.00     0.210 HD
ENDBRANCH  27  28
BRANCH  27  30
HETATM   30  C6  UNL     1     -11.452   7.603  14.160  1.00  0.00     0.076 C 
HETATM   31  C7  UNL     1     -10.947   7.183  12.778  1.00  0.00     0.048 C 
HETATM   32  C8  UNL     1     -12.576   8.635  14.013  1.00  0.00     0.048 C 
BRANCH  30  33
HETATM   33  O2  UNL     1     -12.013   6.423  14.770  1.00  0.00    -0.388 OA
HETATM   34  H17 UNL     1     -12.601   6.730  15.485  1.00  0.00     0.210 HD
ENDBRANCH  30  33
ENDBRANCH  27  30
ENDBRANCH  26  27
ENDBRANCH  25  26
ENDBRANCH  23  25
ENDBRANCH   1  23
BRANCH   4  35
HETATM   35  C13 UNL     1      -3.083   5.766  15.061  1.00  0.00     0.149 C 
HETATM   36  O3  UNL     1      -2.490   4.707  15.194  1.00  0.00    -0.649 OA
BRANCH  35  37
HETATM   37  O4  UNL     1      -3.413   6.440  16.179  1.00  0.00    -0.776 OA
HETATM   38  H23 UNL     1      -3.045   5.885  16.899  1.00  0.00     0.167 HD
ENDBRANCH  35  37
ENDBRANCH   4  35
TORSDOF 9
ENDMDL
