MODEL 1
REMARK minimizedAffinity -8.23936081
REMARK  8 active torsions:
REMARK  status: ('A' for Active; 'I' for Inactive)
REMARK    1  A    between atoms: C4_4  and  C5_5 
REMARK    2  A    between atoms: C5_5  and  C6_6 
REMARK    3  A    between atoms: C6_6  and  C7_7 
REMARK    4  A    between atoms: C7_7  and  C9_9 
REMARK    5  A    between atoms: C21_21  and  C22_22 
REMARK    6  A    between atoms: C22_22  and  C23_23 
REMARK    7  A    between atoms: C23_23  and  C24_24 
REMARK    8  A    between atoms: C24_24  and  O1_25 
ROOT
HETATM    1  C9  UNL     1       1.735   7.150  13.644  1.00  0.00    -0.002 C 
HETATM    2  C10 UNL     1       1.749   7.647  15.114  1.00  0.00     0.006 C 
HETATM    3  C11 UNL     1       0.351   7.345  15.705  1.00  0.00     0.011 C 
HETATM    4  C12 UNL     1      -0.585   7.402  14.481  1.00  0.00    -0.032 C 
HETATM    5  C13 UNL     1      -0.790   8.915  14.196  1.00  0.00     0.016 C 
HETATM    6  C14 UNL     1      -1.966   6.692  14.613  1.00  0.00     0.003 C 
HETATM    7  C15 UNL     1      -2.845   7.170  15.782  1.00  0.00     0.010 C 
HETATM    8  C16 UNL     1      -4.046   6.241  15.948  1.00  0.00     0.035 C 
HETATM    9  C17 UNL     1      -4.883   6.110  14.666  1.00  0.00    -0.073 C 
HETATM   10  C18 UNL     1      -6.206   6.432  14.690  1.00  0.00    -0.085 C 
HETATM   11  C19 UNL     1      -6.850   7.111  15.888  1.00  0.00     0.043 C 
HETATM   12  C20 UNL     1      -7.230   6.210  13.611  1.00  0.00     0.043 C 
HETATM   13  C21 UNL     1      -3.982   5.560  13.519  1.00  0.00     0.023 C 
HETATM   14  C25 UNL     1      -2.783   6.589  13.242  1.00  0.00    -0.032 C 
HETATM   15  C26 UNL     1      -3.385   7.952  12.800  1.00  0.00     0.016 C 
HETATM   16  C27 UNL     1      -1.834   6.087  12.094  1.00  0.00     0.011 C 
HETATM   17  C28 UNL     1      -0.404   6.693  12.059  1.00  0.00     0.011 C 
HETATM   18  C29 UNL     1       0.278   6.611  13.430  1.00  0.00    -0.032 C 
HETATM   19  C30 UNL     1       0.419   5.066  13.750  1.00  0.00     0.016 C 
ENDROOT
BRANCH   1  20
HETATM   20  C7  UNL     1       2.446   7.997  12.550  1.00  0.00    -0.014 C 
HETATM   21  C8  UNL     1       2.390   9.489  12.920  1.00  0.00     0.010 C 
BRANCH  20  22
HETATM   22  C6  UNL     1       2.099   7.786  11.060  1.00  0.00     0.008 C 
BRANCH  22  23
HETATM   23  C5  UNL     1       2.862   6.692  10.303  1.00  0.00     0.028 C 
BRANCH  23  24
HETATM   24  C4  UNL     1       2.320   6.531   8.906  1.00  0.00    -0.025 C 
HETATM   25  C2  UNL     1       2.405   7.400   7.879  1.00  0.00    -0.091 C 
HETATM   26  C1  UNL     1       1.763   7.083   6.554  1.00  0.00     0.042 C 
HETATM   27  C3  UNL     1       3.118   8.723   7.918  1.00  0.00     0.042 C 
ENDBRANCH  23  24
ENDBRANCH  22  23
ENDBRANCH  20  22
ENDBRANCH   1  20
BRANCH  13  28
HETATM   28  C22 UNL     1      -4.608   4.866  12.275  1.00  0.00     0.012 C 
BRANCH  28  29
HETATM   29  C23 UNL     1      -4.973   3.381  12.327  1.00  0.00     0.027 C 
BRANCH  29  30
HETATM   30  C24 UNL     1      -5.423   2.877  10.957  1.00  0.00     0.164 C 
BRANCH  30  31
HETATM   31  O1  UNL     1      -4.498   3.291   9.960  1.00  0.00    -0.401 OA
HETATM   32  H42 UNL     1      -4.430   4.260  10.007  1.00  0.00     0.209 HD
ENDBRANCH  30  31
ENDBRANCH  29  30
ENDBRANCH  28  29
ENDBRANCH  13  28
TORSDOF 8
ENDMDL
MODEL 2
REMARK minimizedAffinity -8.21785164
REMARK  8 active torsions:
REMARK  status: ('A' for Active; 'I' for Inactive)
REMARK    1  A    between atoms: C4_4  and  C5_5 
REMARK    2  A    between atoms: C5_5  and  C6_6 
REMARK    3  A    between atoms: C6_6  and  C7_7 
REMARK    4  A    between atoms: C7_7  and  C9_9 
REMARK    5  A    between atoms: C21_21  and  C22_22 
REMARK    6  A    between atoms: C22_22  and  C23_23 
REMARK    7  A    between atoms: C23_23  and  C24_24 
REMARK    8  A    between atoms: C24_24  and  O1_25 
ROOT
HETATM    1  C9  UNL     1      -2.571   7.575  13.512  1.00  0.00    -0.002 C 
HETATM    2  C10 UNL     1      -2.198   7.551  15.018  1.00  0.00     0.006 C 
HETATM    3  C11 UNL     1      -0.669   7.773  15.106  1.00  0.00     0.011 C 
HETATM    4  C12 UNL     1      -0.137   7.194  13.780  1.00  0.00    -0.032 C 
HETATM    5  C13 UNL     1      -0.145   5.653  13.977  1.00  0.00     0.016 C 
HETATM    6  C14 UNL     1       1.275   7.664  13.320  1.00  0.00     0.003 C 
HETATM    7  C15 UNL     1       2.414   7.416  14.324  1.00  0.00     0.010 C 
HETATM    8  C16 UNL     1       3.683   8.133  13.865  1.00  0.00     0.035 C 
HETATM    9  C17 UNL     1       4.120   7.729  12.448  1.00  0.00    -0.073 C 
HETATM   10  C18 UNL     1       5.362   7.208  12.249  1.00  0.00    -0.085 C 
HETATM   11  C19 UNL     1       6.269   6.821  13.405  1.00  0.00     0.043 C 
HETATM   12  C20 UNL     1       6.043   6.919  10.939  1.00  0.00     0.043 C 
HETATM   13  C21 UNL     1       2.971   8.056  11.445  1.00  0.00     0.023 C 
HETATM   14  C25 UNL     1       1.665   7.212  11.836  1.00  0.00    -0.032 C 
HETATM   15  C26 UNL     1       2.001   5.696  11.741  1.00  0.00     0.016 C 
HETATM   16  C27 UNL     1       0.467   7.500  10.860  1.00  0.00     0.011 C 
HETATM   17  C28 UNL     1      -0.955   7.165  11.387  1.00  0.00     0.011 C 
HETATM   18  C29 UNL     1      -1.202   7.768  12.775  1.00  0.00    -0.032 C 
HETATM   19  C30 UNL     1      -1.118   9.339  12.583  1.00  0.00     0.016 C 
ENDROOT
BRANCH   1  20
HETATM   20  C7  UNL     1      -3.635   6.573  12.978  1.00  0.00    -0.014 C 
HETATM   21  C8  UNL     1      -5.045   7.040  13.379  1.00  0.00     0.010 C 
BRANCH  20  22
HETATM   22  C6  UNL     1      -3.466   5.059  13.224  1.00  0.00     0.008 C 
BRANCH  22  23
HETATM   23  C5  UNL     1      -4.106   4.100  12.213  1.00  0.00     0.028 C 
BRANCH  23  24
HETATM   24  C4  UNL     1      -5.480   3.681  12.667  1.00  0.00    -0.025 C 
HETATM   25  C2  UNL     1      -6.232   2.663  12.203  1.00  0.00    -0.091 C 
HETATM   26  C1  UNL     1      -7.611   2.416  12.755  1.00  0.00     0.042 C 
HETATM   27  C3  UNL     1      -5.811   1.689  11.137  1.00  0.00     0.042 C 
ENDBRANCH  23  24
ENDBRANCH  22  23
ENDBRANCH  20  22
ENDBRANCH   1  20
BRANCH  13  28
HETATM   28  C22 UNL     1       3.263   8.228   9.927  1.00  0.00     0.012 C 
BRANCH  28  29
HETATM   29  C23 UNL     1       3.051   7.057   8.966  1.00  0.00     0.027 C 
BRANCH  29  30
HETATM   30  C24 UNL     1       2.467   7.532   7.637  1.00  0.00     0.164 C 
BRANCH  30  31
HETATM   31  O1  UNL     1       2.816   8.892   7.413  1.00  0.00    -0.401 OA
HETATM   32  H42 UNL     1       2.500   9.406   8.175  1.00  0.00     0.209 HD
ENDBRANCH  30  31
ENDBRANCH  29  30
ENDBRANCH  28  29
ENDBRANCH  13  28
TORSDOF 8
ENDMDL
MODEL 3
REMARK minimizedAffinity -8.19223213
REMARK  8 active torsions:
REMARK  status: ('A' for Active; 'I' for Inactive)
REMARK    1  A    between atoms: C4_4  and  C5_5 
REMARK    2  A    between atoms: C5_5  and  C6_6 
REMARK    3  A    between atoms: C6_6  and  C7_7 
REMARK    4  A    between atoms: C7_7  and  C9_9 
REMARK    5  A    between atoms: C21_21  and  C22_22 
REMARK    6  A    between atoms: C22_22  and  C23_23 
REMARK    7  A    between atoms: C23_23  and  C24_24 
REMARK    8  A    between atoms: C24_24  and  O1_25 
ROOT
HETATM    1  C9  UNL     1      -3.219   7.896  14.864  1.00  0.00    -0.002 C 
HETATM    2  C10 UNL     1      -2.583   8.827  15.930  1.00  0.00     0.006 C 
HETATM    3  C11 UNL     1      -1.218   9.290  15.364  1.00  0.00     0.011 C 
HETATM    4  C12 UNL     1      -0.787   8.129  14.447  1.00  0.00    -0.032 C 
HETATM    5  C13 UNL     1      -0.263   7.026  15.406  1.00  0.00     0.016 C 
HETATM    6  C14 UNL     1       0.286   8.446  13.362  1.00  0.00     0.003 C 
HETATM    7  C15 UNL     1       1.611   9.019  13.892  1.00  0.00     0.010 C 
HETATM    8  C16 UNL     1       2.472   9.511  12.729  1.00  0.00     0.035 C 
HETATM    9  C17 UNL     1       2.741   8.419  11.681  1.00  0.00    -0.073 C 
HETATM   10  C18 UNL     1       4.023   8.081  11.375  1.00  0.00    -0.085 C 
HETATM   11  C19 UNL     1       5.207   8.599  12.175  1.00  0.00     0.043 C 
HETATM   12  C20 UNL     1       4.502   7.181  10.269  1.00  0.00     0.043 C 
HETATM   13  C21 UNL     1       1.381   7.906  11.114  1.00  0.00     0.023 C 
HETATM   14  C25 UNL     1       0.514   7.269  12.303  1.00  0.00    -0.032 C 
HETATM   15  C26 UNL     1       1.295   6.066  12.904  1.00  0.00     0.016 C 
HETATM   16  C27 UNL     1      -0.874   6.735  11.795  1.00  0.00     0.011 C 
HETATM   17  C28 UNL     1      -1.987   6.562  12.865  1.00  0.00     0.011 C 
HETATM   18  C29 UNL     1      -2.149   7.824  13.721  1.00  0.00    -0.032 C 
HETATM   19  C30 UNL     1      -2.612   8.965  12.725  1.00  0.00     0.016 C 
ENDROOT
BRANCH   1  20
HETATM   20  C7  UNL     1      -3.985   6.624  15.328  1.00  0.00    -0.014 C 
HETATM   21  C8  UNL     1      -3.203   5.363  14.923  1.00  0.00     0.010 C 
BRANCH  20  22
HETATM   22  C6  UNL     1      -5.487   6.466  15.010  1.00  0.00     0.008 C 
BRANCH  22  23
HETATM   23  C5  UNL     1      -5.881   6.230  13.546  1.00  0.00     0.028 C 
BRANCH  23  24
HETATM   24  C4  UNL     1      -6.695   4.970  13.406  1.00  0.00    -0.025 C 
HETATM   25  C2  UNL     1      -6.344   3.820  12.796  1.00  0.00    -0.091 C 
HETATM   26  C1  UNL     1      -7.312   2.669  12.719  1.00  0.00     0.042 C 
HETATM   27  C3  UNL     1      -5.011   3.549  12.155  1.00  0.00     0.042 C 
ENDBRANCH  23  24
ENDBRANCH  22  23
ENDBRANCH  20  22
ENDBRANCH   1  20
BRANCH  13  28
HETATM   28  C22 UNL     1       1.311   7.188   9.736  1.00  0.00     0.012 C 
BRANCH  28  29
HETATM   29  C23 UNL     1       1.048   7.994   8.462  1.00  0.00     0.027 C 
BRANCH  29  30
HETATM   30  C24 UNL     1       2.191   7.834   7.463  1.00  0.00     0.164 C 
BRANCH  30  31
HETATM   31  O1  UNL     1       3.074   8.945   7.553  1.00  0.00    -0.401 OA
HETATM   32  H42 UNL     1       2.548   9.750   7.407  1.00  0.00     0.209 HD
ENDBRANCH  30  31
ENDBRANCH  29  30
ENDBRANCH  28  29
ENDBRANCH  13  28
TORSDOF 8
ENDMDL
MODEL 4
REMARK minimizedAffinity -8.19076633
REMARK  8 active torsions:
REMARK  status: ('A' for Active; 'I' for Inactive)
REMARK    1  A    between atoms: C4_4  and  C5_5 
REMARK    2  A    between atoms: C5_5  and  C6_6 
REMARK    3  A    between atoms: C6_6  and  C7_7 
REMARK    4  A    between atoms: C7_7  and  C9_9 
REMARK    5  A    between atoms: C21_21  and  C22_22 
REMARK    6  A    between atoms: C22_22  and  C23_23 
REMARK    7  A    between atoms: C23_23  and  C24_24 
REMARK    8  A    between atoms: C24_24  and  O1_25 
ROOT
HETATM    1  C9  UNL     1      -0.829   6.713  13.369  1.00  0.00    -0.002 C 
HETATM    2  C10 UNL     1      -0.657   8.118  14.004  1.00  0.00     0.006 C 
HETATM    3  C11 UNL     1      -1.979   8.444  14.741  1.00  0.00     0.011 C 
HETATM    4  C12 UNL     1      -3.044   7.664  13.945  1.00  0.00    -0.032 C 
HETATM    5  C13 UNL     1      -3.295   8.508  12.666  1.00  0.00     0.016 C 
HETATM    6  C14 UNL     1      -4.395   7.377  14.667  1.00  0.00     0.003 C 
HETATM    7  C15 UNL     1      -5.144   8.618  15.185  1.00  0.00     0.010 C 
HETATM    8  C16 UNL     1      -6.310   8.192  16.075  1.00  0.00     0.035 C 
HETATM    9  C17 UNL     1      -7.283   7.234  15.369  1.00  0.00    -0.073 C 
HETATM   10  C18 UNL     1      -8.598   7.570  15.259  1.00  0.00    -0.085 C 
HETATM   11  C19 UNL     1      -9.112   8.951  15.632  1.00  0.00     0.043 C 
HETATM   12  C20 UNL     1      -9.733   6.711  14.773  1.00  0.00     0.043 C 
HETATM   13  C21 UNL     1      -6.509   5.958  14.917  1.00  0.00     0.023 C 
HETATM   14  C25 UNL     1      -5.358   6.372  13.880  1.00  0.00    -0.032 C 
HETATM   15  C26 UNL     1      -6.019   7.028  12.634  1.00  0.00     0.016 C 
HETATM   16  C27 UNL     1      -4.537   5.125  13.387  1.00  0.00     0.011 C 
HETATM   17  C28 UNL     1      -3.126   5.409  12.803  1.00  0.00     0.011 C 
HETATM   18  C29 UNL     1      -2.295   6.297  13.737  1.00  0.00    -0.032 C 
HETATM   19  C30 UNL     1      -2.105   5.462  15.070  1.00  0.00     0.016 C 
ENDROOT
BRANCH   1  20
HETATM   20  C7  UNL     1      -0.252   6.445  11.949  1.00  0.00    -0.014 C 
HETATM   21  C8  UNL     1       1.116   5.749  12.061  1.00  0.00     0.010 C 
BRANCH  20  22
HETATM   22  C6  UNL     1      -0.208   7.580  10.904  1.00  0.00     0.008 C 
BRANCH  22  23
HETATM   23  C5  UNL     1       1.169   8.013  10.385  1.00  0.00     0.028 C 
BRANCH  23  24
HETATM   24  C4  UNL     1       1.223   7.934   8.882  1.00  0.00    -0.025 C 
HETATM   25  C2  UNL     1       1.942   7.085   8.122  1.00  0.00    -0.091 C 
HETATM   26  C1  UNL     1       1.903   7.181   6.619  1.00  0.00     0.042 C 
HETATM   27  C3  UNL     1       2.824   5.985   8.646  1.00  0.00     0.042 C 
ENDBRANCH  23  24
ENDBRANCH  22  23
ENDBRANCH  20  22
ENDBRANCH   1  20
BRANCH  13  28
HETATM   28  C22 UNL     1      -7.262   4.627  14.630  1.00  0.00     0.012 C 
BRANCH  28  29
HETATM   29  C23 UNL     1      -7.722   4.296  13.209  1.00  0.00     0.027 C 
BRANCH  29  30
HETATM   30  C24 UNL     1      -7.252   2.905  12.789  1.00  0.00     0.164 C 
BRANCH  30  31
HETATM   31  O1  UNL     1      -8.373   2.055  12.585  1.00  0.00    -0.401 OA
HETATM   32  H42 UNL     1      -8.892   2.051  13.407  1.00  0.00     0.209 HD
ENDBRANCH  30  31
ENDBRANCH  29  30
ENDBRANCH  28  29
ENDBRANCH  13  28
TORSDOF 8
ENDMDL
MODEL 5
REMARK minimizedAffinity -8.00125122
REMARK  8 active torsions:
REMARK  status: ('A' for Active; 'I' for Inactive)
REMARK    1  A    between atoms: C4_4  and  C5_5 
REMARK    2  A    between atoms: C5_5  and  C6_6 
REMARK    3  A    between atoms: C6_6  and  C7_7 
REMARK    4  A    between atoms: C7_7  and  C9_9 
REMARK    5  A    between atoms: C21_21  and  C22_22 
REMARK    6  A    between atoms: C22_22  and  C23_23 
REMARK    7  A    between atoms: C23_23  and  C24_24 
REMARK    8  A    between atoms: C24_24  and  O1_25 
ROOT
HETATM    1  C9  UNL     1      -3.030   7.663  13.949  1.00  0.00    -0.002 C 
HETATM    2  C10 UNL     1      -2.633   8.458  15.221  1.00  0.00     0.006 C 
HETATM    3  C11 UNL     1      -1.217   9.032  14.969  1.00  0.00     0.011 C 
HETATM    4  C12 UNL     1      -0.577   8.018  14.000  1.00  0.00    -0.032 C 
HETATM    5  C13 UNL     1      -0.169   6.810  14.886  1.00  0.00     0.016 C 
HETATM    6  C14 UNL     1       0.647   8.510  13.171  1.00  0.00     0.003 C 
HETATM    7  C15 UNL     1       1.832   9.043  13.996  1.00  0.00     0.010 C 
HETATM    8  C16 UNL     1       2.852   9.711  13.076  1.00  0.00     0.035 C 
HETATM    9  C17 UNL     1       3.351   8.781  11.960  1.00  0.00    -0.073 C 
HETATM   10  C18 UNL     1       4.683   8.523  11.843  1.00  0.00    -0.085 C 
HETATM   11  C19 UNL     1       5.685   8.960  12.899  1.00  0.00     0.043 C 
HETATM   12  C20 UNL     1       5.389   7.796  10.732  1.00  0.00     0.043 C 
HETATM   13  C21 UNL     1       2.137   8.312  11.101  1.00  0.00     0.023 C 
HETATM   14  C25 UNL     1       1.113   7.495  12.026  1.00  0.00    -0.032 C 
HETATM   15  C26 UNL     1       1.841   6.244  12.595  1.00  0.00     0.016 C 
HETATM   16  C27 UNL     1      -0.139   6.996  11.216  1.00  0.00     0.011 C 
HETATM   17  C28 UNL     1      -1.408   6.649  12.043  1.00  0.00     0.011 C 
HETATM   18  C29 UNL     1      -1.778   7.777  13.012  1.00  0.00    -0.032 C 
HETATM   19  C30 UNL     1      -2.122   9.030  12.106  1.00  0.00     0.016 C 
ENDROOT
BRANCH   1  20
HETATM   20  C7  UNL     1      -3.798   6.319  14.102  1.00  0.00    -0.014 C 
HETATM   21  C8  UNL     1      -4.201   6.108  15.571  1.00  0.00     0.010 C 
BRANCH  20  22
HETATM   22  C6  UNL     1      -3.216   5.022  13.500  1.00  0.00     0.008 C 
BRANCH  22  23
HETATM   23  C5  UNL     1      -4.009   4.344  12.377  1.00  0.00     0.028 C 
BRANCH  23  24
HETATM   24  C4  UNL     1      -5.431   4.087  12.804  1.00  0.00    -0.025 C 
HETATM   25  C2  UNL     1      -6.255   3.103  12.393  1.00  0.00    -0.091 C 
HETATM   26  C1  UNL     1      -7.670   3.026  12.903  1.00  0.00     0.042 C 
HETATM   27  C3  UNL     1      -5.888   2.010  11.428  1.00  0.00     0.042 C 
ENDBRANCH  23  24
ENDBRANCH  22  23
ENDBRANCH  20  22
ENDBRANCH   1  20
BRANCH  13  28
HETATM   28  C22 UNL     1       2.340   7.786   9.651  1.00  0.00     0.012 C 
BRANCH  28  29
HETATM   29  C23 UNL     1       1.990   6.338   9.303  1.00  0.00     0.027 C 
BRANCH  29  30
HETATM   30  C24 UNL     1       3.245   5.474   9.214  1.00  0.00     0.164 C 
BRANCH  30  31
HETATM   31  O1  UNL     1       3.345   4.894   7.919  1.00  0.00    -0.401 OA
HETATM   32  H42 UNL     1       2.526   4.397   7.757  1.00  0.00     0.209 HD
ENDBRANCH  30  31
ENDBRANCH  29  30
ENDBRANCH  28  29
ENDBRANCH  13  28
TORSDOF 8
ENDMDL
MODEL 6
REMARK minimizedAffinity -7.56553602
REMARK  8 active torsions:
REMARK  status: ('A' for Active; 'I' for Inactive)
REMARK    1  A    between atoms: C4_4  and  C5_5 
REMARK    2  A    between atoms: C5_5  and  C6_6 
REMARK    3  A    between atoms: C6_6  and  C7_7 
REMARK    4  A    between atoms: C7_7  and  C9_9 
REMARK    5  A    between atoms: C21_21  and  C22_22 
REMARK    6  A    between atoms: C22_22  and  C23_23 
REMARK    7  A    between atoms: C23_23  and  C24_24 
REMARK    8  A    between atoms: C24_24  and  O1_25 
ROOT
HETATM    1  C9  UNL     1       0.986   7.245  12.728  1.00  0.00    -0.002 C 
HETATM    2  C10 UNL     1       1.520   6.255  11.659  1.00  0.00     0.006 C 
HETATM    3  C11 UNL     1       0.298   5.473  11.120  1.00  0.00     0.011 C 
HETATM    4  C12 UNL     1      -0.685   5.463  12.308  1.00  0.00    -0.032 C 
HETATM    5  C13 UNL     1      -0.141   4.377  13.276  1.00  0.00     0.016 C 
HETATM    6  C14 UNL     1      -2.183   5.185  11.983  1.00  0.00     0.003 C 
HETATM    7  C15 UNL     1      -2.465   3.862  11.249  1.00  0.00     0.010 C 
HETATM    8  C16 UNL     1      -3.918   3.824  10.777  1.00  0.00     0.035 C 
HETATM    9  C17 UNL     1      -4.924   4.028  11.921  1.00  0.00    -0.073 C 
HETATM   10  C18 UNL     1      -5.869   3.078  12.164  1.00  0.00    -0.085 C 
HETATM   11  C19 UNL     1      -5.846   1.723  11.476  1.00  0.00     0.043 C 
HETATM   12  C20 UNL     1      -7.041   3.161  13.103  1.00  0.00     0.043 C 
HETATM   13  C21 UNL     1      -4.656   5.406  12.600  1.00  0.00     0.023 C 
HETATM   14  C25 UNL     1      -3.175   5.418  13.216  1.00  0.00    -0.032 C 
HETATM   15  C26 UNL     1      -3.069   4.297  14.289  1.00  0.00     0.016 C 
HETATM   16  C27 UNL     1      -2.842   6.786  13.915  1.00  0.00     0.011 C 
HETATM   17  C28 UNL     1      -1.337   7.123  14.101  1.00  0.00     0.011 C 
HETATM   18  C29 UNL     1      -0.553   6.953  12.795  1.00  0.00    -0.032 C 
HETATM   19  C30 UNL     1      -1.162   8.012  11.785  1.00  0.00     0.016 C 
ENDROOT
BRANCH   1  20
HETATM   20  C7  UNL     1       1.814   7.484  14.023  1.00  0.00    -0.014 C 
HETATM   21  C8  UNL     1       0.889   7.452  15.252  1.00  0.00     0.010 C 
BRANCH  20  22
HETATM   22  C6  UNL     1       2.797   8.670  14.106  1.00  0.00     0.008 C 
BRANCH  22  23
HETATM   23  C5  UNL     1       3.593   9.021  12.843  1.00  0.00     0.028 C 
BRANCH  23  24
HETATM   24  C4  UNL     1       4.678   8.005  12.594  1.00  0.00    -0.025 C 
HETATM   25  C2  UNL     1       5.030   7.439  11.423  1.00  0.00    -0.091 C 
HETATM   26  C1  UNL     1       6.121   6.402  11.371  1.00  0.00     0.042 C 
HETATM   27  C3  UNL     1       4.417   7.756  10.087  1.00  0.00     0.042 C 
ENDBRANCH  23  24
ENDBRANCH  22  23
ENDBRANCH  20  22
ENDBRANCH   1  20
BRANCH  13  28
HETATM   28  C22 UNL     1      -5.763   6.115  13.431  1.00  0.00     0.012 C 
BRANCH  28  29
HETATM   29  C23 UNL     1      -5.890   5.844  14.932  1.00  0.00     0.027 C 
BRANCH  29  30
HETATM   30  C24 UNL     1      -7.318   6.086  15.416  1.00  0.00     0.164 C 
BRANCH  30  31
HETATM   31  O1  UNL     1      -7.854   4.890  15.966  1.00  0.00    -0.401 OA
HETATM   32  H42 UNL     1      -7.794   4.201  15.283  1.00  0.00     0.209 HD
ENDBRANCH  30  31
ENDBRANCH  29  30
ENDBRANCH  28  29
ENDBRANCH  13  28
TORSDOF 8
ENDMDL
MODEL 7
REMARK minimizedAffinity -7.39407539
REMARK  8 active torsions:
REMARK  status: ('A' for Active; 'I' for Inactive)
REMARK    1  A    between atoms: C4_4  and  C5_5 
REMARK    2  A    between atoms: C5_5  and  C6_6 
REMARK    3  A    between atoms: C6_6  and  C7_7 
REMARK    4  A    between atoms: C7_7  and  C9_9 
REMARK    5  A    between atoms: C21_21  and  C22_22 
REMARK    6  A    between atoms: C22_22  and  C23_23 
REMARK    7  A    between atoms: C23_23  and  C24_24 
REMARK    8  A    between atoms: C24_24  and  O1_25 
ROOT
HETATM    1  C9  UNL     1      -1.570  11.464  16.589  1.00  0.00    -0.002 C 
HETATM    2  C10 UNL     1      -0.161  11.231  15.982  1.00  0.00     0.006 C 
HETATM    3  C11 UNL     1      -0.312  10.132  14.903  1.00  0.00     0.011 C 
HETATM    4  C12 UNL     1      -1.503   9.290  15.401  1.00  0.00    -0.032 C 
HETATM    5  C13 UNL     1      -0.927   8.402  16.537  1.00  0.00     0.016 C 
HETATM    6  C14 UNL     1      -2.230   8.401  14.347  1.00  0.00     0.003 C 
HETATM    7  C15 UNL     1      -1.337   7.391  13.607  1.00  0.00     0.010 C 
HETATM    8  C16 UNL     1      -2.107   6.763  12.446  1.00  0.00     0.035 C 
HETATM    9  C17 UNL     1      -3.419   6.096  12.889  1.00  0.00    -0.073 C 
HETATM   10  C18 UNL     1      -3.626   4.777  12.625  1.00  0.00    -0.085 C 
HETATM   11  C19 UNL     1      -2.524   3.880  12.084  1.00  0.00     0.043 C 
HETATM   12  C20 UNL     1      -4.892   3.986  12.810  1.00  0.00     0.043 C 
HETATM   13  C21 UNL     1      -4.330   7.160  13.574  1.00  0.00     0.023 C 
HETATM   14  C25 UNL     1      -3.588   7.740  14.873  1.00  0.00    -0.032 C 
HETATM   15  C26 UNL     1      -3.339   6.573  15.870  1.00  0.00     0.016 C 
HETATM   16  C27 UNL     1      -4.457   8.824  15.609  1.00  0.00     0.011 C 
HETATM   17  C28 UNL     1      -3.699   9.803  16.547  1.00  0.00     0.011 C 
HETATM   18  C29 UNL     1      -2.488  10.432  15.848  1.00  0.00    -0.032 C 
HETATM   19  C30 UNL     1      -3.076  11.277  14.644  1.00  0.00     0.016 C 
ENDROOT
BRANCH   1  20
HETATM   20  C7  UNL     1      -1.707  11.705  18.120  1.00  0.00    -0.014 C 
HETATM   21  C8  UNL     1      -1.613  13.210  18.426  1.00  0.00     0.010 C 
BRANCH  20  22
HETATM   22  C6  UNL     1      -0.852  10.888  19.112  1.00  0.00     0.008 C 
BRANCH  22  23
HETATM   23  C5  UNL     1       0.306  11.611  19.812  1.00  0.00     0.028 C 
BRANCH  23  24
HETATM   24  C4  UNL     1       1.266  10.621  20.420  1.00  0.00    -0.025 C 
HETATM   25  C2  UNL     1       2.272  10.865  21.282  1.00  0.00    -0.091 C 
HETATM   26  C1  UNL     1       3.162   9.747  21.756  1.00  0.00     0.042 C 
HETATM   27  C3  UNL     1       2.614  12.211  21.859  1.00  0.00     0.042 C 
ENDBRANCH  23  24
ENDBRANCH  22  23
ENDBRANCH  20  22
ENDBRANCH   1  20
BRANCH  13  28
HETATM   28  C22 UNL     1      -5.866   6.944  13.686  1.00  0.00     0.012 C 
BRANCH  28  29
HETATM   29  C23 UNL     1      -6.473   6.398  14.980  1.00  0.00     0.027 C 
BRANCH  29  30
HETATM   30  C24 UNL     1      -7.636   5.452  14.686  1.00  0.00     0.164 C 
BRANCH  30  31
HETATM   31  O1  UNL     1      -8.047   4.804  15.882  1.00  0.00    -0.401 OA
HETATM   32  H42 UNL     1      -7.271   4.351  16.253  1.00  0.00     0.209 HD
ENDBRANCH  30  31
ENDBRANCH  29  30
ENDBRANCH  28  29
ENDBRANCH  13  28
TORSDOF 8
ENDMDL
MODEL 8
REMARK minimizedAffinity -7.38738871
REMARK  8 active torsions:
REMARK  status: ('A' for Active; 'I' for Inactive)
REMARK    1  A    between atoms: C4_4  and  C5_5 
REMARK    2  A    between atoms: C5_5  and  C6_6 
REMARK    3  A    between atoms: C6_6  and  C7_7 
REMARK    4  A    between atoms: C7_7  and  C9_9 
REMARK    5  A    between atoms: C21_21  and  C22_22 
REMARK    6  A    between atoms: C22_22  and  C23_23 
REMARK    7  A    between atoms: C23_23  and  C24_24 
REMARK    8  A    between atoms: C24_24  and  O1_25 
ROOT
HETATM    1  C9  UNL     1      -6.037   6.958  14.061  1.00  0.00    -0.002 C 
HETATM    2  C10 UNL     1      -6.244   7.729  15.392  1.00  0.00     0.006 C 
HETATM    3  C11 UNL     1      -4.899   8.418  15.726  1.00  0.00     0.011 C 
HETATM    4  C12 UNL     1      -3.844   7.495  15.084  1.00  0.00    -0.032 C 
HETATM    5  C13 UNL     1      -3.717   6.287  16.051  1.00  0.00     0.016 C 
HETATM    6  C14 UNL     1      -2.439   8.111  14.812  1.00  0.00     0.003 C 
HETATM    7  C15 UNL     1      -1.726   8.699  16.043  1.00  0.00     0.010 C 
HETATM    8  C16 UNL     1      -0.487   9.479  15.607  1.00  0.00     0.035 C 
HETATM    9  C17 UNL     1       0.490   8.634  14.775  1.00  0.00    -0.073 C 
HETATM   10  C18 UNL     1       1.777   8.483  15.194  1.00  0.00    -0.085 C 
HETATM   11  C19 UNL     1       2.239   8.952  16.564  1.00  0.00     0.043 C 
HETATM   12  C20 UNL     1       2.924   7.856  14.449  1.00  0.00     0.043 C 
HETATM   13  C21 UNL     1      -0.241   8.110  13.501  1.00  0.00     0.023 C 
HETATM   14  C25 UNL     1      -1.473   7.181  13.939  1.00  0.00    -0.032 C 
HETATM   15  C26 UNL     1      -0.926   5.967  14.741  1.00  0.00     0.016 C 
HETATM   16  C27 UNL     1      -2.257   6.622  12.696  1.00  0.00     0.011 C 
HETATM   17  C28 UNL     1      -3.714   6.146  12.948  1.00  0.00     0.011 C 
HETATM   18  C29 UNL     1      -4.532   7.203  13.699  1.00  0.00    -0.032 C 
HETATM   19  C30 UNL     1      -4.596   8.462  12.739  1.00  0.00     0.016 C 
ENDROOT
BRANCH   1  20
HETATM   20  C7  UNL     1      -6.685   5.554  13.888  1.00  0.00    -0.014 C 
HETATM   21  C8  UNL     1      -7.607   5.250  15.081  1.00  0.00     0.010 C 
BRANCH  20  22
HETATM   22  C6  UNL     1      -5.806   4.332  13.547  1.00  0.00     0.008 C 
BRANCH  22  23
HETATM   23  C5  UNL     1      -6.155   3.539  12.282  1.00  0.00     0.028 C 
BRANCH  23  24
HETATM   24  C4  UNL     1      -5.130   3.775  11.202  1.00  0.00    -0.025 C 
HETATM   25  C2  UNL     1      -3.955   3.141  11.021  1.00  0.00    -0.091 C 
HETATM   26  C1  UNL     1      -3.033   3.542   9.901  1.00  0.00     0.042 C 
HETATM   27  C3  UNL     1      -3.443   2.006  11.864  1.00  0.00     0.042 C 
ENDBRANCH  23  24
ENDBRANCH  22  23
ENDBRANCH  20  22
ENDBRANCH   1  20
BRANCH  13  28
HETATM   28  C22 UNL     1       0.561   7.659  12.248  1.00  0.00     0.012 C 
BRANCH  28  29
HETATM   29  C23 UNL     1       0.674   6.174  11.900  1.00  0.00     0.027 C 
BRANCH  29  30
HETATM   30  C24 UNL     1       2.085   5.822  11.435  1.00  0.00     0.164 C 
BRANCH  30  31
HETATM   31  O1  UNL     1       2.032   4.792  10.457  1.00  0.00    -0.401 OA
HETATM   32  H42 UNL     1       1.560   4.038  10.850  1.00  0.00     0.209 HD
ENDBRANCH  30  31
ENDBRANCH  29  30
ENDBRANCH  28  29
ENDBRANCH  13  28
TORSDOF 8
ENDMDL
MODEL 9
REMARK minimizedAffinity -7.37317324
REMARK  8 active torsions:
REMARK  status: ('A' for Active; 'I' for Inactive)
REMARK    1  A    between atoms: C4_4  and  C5_5 
REMARK    2  A    between atoms: C5_5  and  C6_6 
REMARK    3  A    between atoms: C6_6  and  C7_7 
REMARK    4  A    between atoms: C7_7  and  C9_9 
REMARK    5  A    between atoms: C21_21  and  C22_22 
REMARK    6  A    between atoms: C22_22  and  C23_23 
REMARK    7  A    between atoms: C23_23  and  C24_24 
REMARK    8  A    between atoms: C24_24  and  O1_25 
ROOT
HETATM    1  C9  UNL     1      -4.896   6.726  13.344  1.00  0.00    -0.002 C 
HETATM    2  C10 UNL     1      -5.810   7.265  14.476  1.00  0.00     0.006 C 
HETATM    3  C11 UNL     1      -4.970   8.281  15.286  1.00  0.00     0.011 C 
HETATM    4  C12 UNL     1      -3.522   7.779  15.118  1.00  0.00    -0.032 C 
HETATM    5  C13 UNL     1      -3.396   6.571  16.086  1.00  0.00     0.016 C 
HETATM    6  C14 UNL     1      -2.382   8.805  15.394  1.00  0.00     0.003 C 
HETATM    7  C15 UNL     1      -2.397   9.449  16.790  1.00  0.00     0.010 C 
HETATM    8  C16 UNL     1      -1.392  10.599  16.847  1.00  0.00     0.035 C 
HETATM    9  C17 UNL     1       0.034  10.166  16.472  1.00  0.00    -0.073 C 
HETATM   10  C18 UNL     1       1.051  10.358  17.357  1.00  0.00    -0.085 C 
HETATM   11  C19 UNL     1       0.801  10.803  18.788  1.00  0.00     0.043 C 
HETATM   12  C20 UNL     1       2.526  10.175  17.123  1.00  0.00     0.043 C 
HETATM   13  C21 UNL     1       0.029   9.580  15.027  1.00  0.00     0.023 C 
HETATM   14  C25 UNL     1      -0.925   8.291  14.978  1.00  0.00    -0.032 C 
HETATM   15  C26 UNL     1      -0.367   7.218  15.955  1.00  0.00     0.016 C 
HETATM   16  C27 UNL     1      -0.975   7.654  13.542  1.00  0.00     0.011 C 
HETATM   17  C28 UNL     1      -2.197   6.748  13.226  1.00  0.00     0.011 C 
HETATM   18  C29 UNL     1      -3.520   7.438  13.582  1.00  0.00    -0.032 C 
HETATM   19  C30 UNL     1      -3.609   8.711  12.644  1.00  0.00     0.016 C 
ENDROOT
BRANCH   1  20
HETATM   20  C7  UNL     1      -4.964   5.218  12.966  1.00  0.00    -0.014 C 
HETATM   21  C8  UNL     1      -6.293   4.614  13.450  1.00  0.00     0.010 C 
BRANCH  20  22
HETATM   22  C6  UNL     1      -3.782   4.283  13.297  1.00  0.00     0.008 C 
BRANCH  22  23
HETATM   23  C5  UNL     1      -3.377   3.249  12.239  1.00  0.00     0.028 C 
BRANCH  23  24
HETATM   24  C4  UNL     1      -4.009   3.569  10.909  1.00  0.00    -0.025 C 
HETATM   25  C2  UNL     1      -5.063   2.965  10.325  1.00  0.00    -0.091 C 
HETATM   26  C1  UNL     1      -5.534   3.397   8.961  1.00  0.00     0.042 C 
HETATM   27  C3  UNL     1      -5.866   1.846  10.928  1.00  0.00     0.042 C 
ENDBRANCH  23  24
ENDBRANCH  22  23
ENDBRANCH  20  22
ENDBRANCH   1  20
BRANCH  13  28
HETATM   28  C22 UNL     1       1.336   9.513  14.188  1.00  0.00     0.012 C 
BRANCH  28  29
HETATM   29  C23 UNL     1       1.922   8.159  13.784  1.00  0.00     0.027 C 
BRANCH  29  30
HETATM   30  C24 UNL     1       3.222   7.875  14.535  1.00  0.00     0.164 C 
BRANCH  30  31
HETATM   31  O1  UNL     1       3.022   6.825  15.471  1.00  0.00    -0.401 OA
HETATM   32  H42 UNL     1       2.292   7.088  16.057  1.00  0.00     0.209 HD
ENDBRANCH  30  31
ENDBRANCH  29  30
ENDBRANCH  28  29
ENDBRANCH  13  28
TORSDOF 8
ENDMDL
