MODEL 1
REMARK minimizedAffinity -9.40985394
REMARK  9 active torsions:
REMARK  status: ('A' for Active; 'I' for Inactive)
REMARK    1  A    between atoms: C12_14  and  C13_15 
REMARK    2  A    between atoms: C13_15  and  C15_17 
REMARK    3  A    between atoms: C15_17  and  C16_18 
REMARK    4  A    between atoms: C16_18  and  C17_19 
REMARK    5  A    between atoms: C18_20  and  C20_22 
REMARK    6  A    between atoms: C26_29  and  C27_30 
REMARK    7  A    between atoms: C27_30  and  C28_31 
REMARK    8  A    between atoms: C28_31  and  C29_32 
REMARK    9  A    between atoms: C29_32  and  O5_34 
ROOT
HETATM    1  C1  UNL     1       0.320  50.969 -16.936  1.00  0.00     0.025 C 
HETATM    2  C2  UNL     1      -0.727  50.926 -17.770  1.00  0.00     0.015 C 
HETATM    3  C3  UNL     1      -1.816  49.947 -17.557  1.00  0.00     0.289 C 
HETATM    4  O1  UNL     1      -1.774  48.957 -16.851  1.00  0.00    -0.260 OA
HETATM    5  O2  UNL     1      -2.880  50.350 -18.297  1.00  0.00    -0.311 OA
HETATM    6  C4  UNL     1      -2.613  51.641 -18.864  1.00  0.00     0.142 C 
HETATM    7  C5  UNL     1      -3.311  51.763 -20.207  1.00  0.00     0.039 C 
HETATM    8  C6  UNL     1      -2.799  50.706 -21.196  1.00  0.00     0.006 C 
HETATM    9  C7  UNL     1      -1.291  50.914 -21.460  1.00  0.00    -0.027 A 
HETATM   10  C8  UNL     1      -0.902  51.221 -22.912  1.00  0.00     0.011 C 
HETATM   11  C9  UNL     1      -1.635  50.429 -24.012  1.00  0.00     0.011 C 
HETATM   12  C10 UNL     1      -2.914  49.714 -23.551  1.00  0.00    -0.032 C 
HETATM   13  C11 UNL     1      -2.514  48.317 -22.986  1.00  0.00     0.016 C 
HETATM   14  C12 UNL     1      -4.031  49.517 -24.631  1.00  0.00    -0.002 C 
HETATM   15  C21 UNL     1      -5.318  49.392 -23.762  1.00  0.00     0.006 C 
HETATM   16  C22 UNL     1      -4.988  49.920 -22.356  1.00  0.00     0.011 C 
HETATM   17  C23 UNL     1      -3.636  50.641 -22.509  1.00  0.00    -0.032 C 
HETATM   18  C24 UNL     1      -3.966  52.074 -23.035  1.00  0.00     0.016 C 
HETATM   19  C25 UNL     1      -0.303  50.050 -20.697  1.00  0.00     0.022 A 
HETATM   20  C26 UNL     1      -0.438  51.497 -20.283  1.00  0.00    -0.021 A 
HETATM   21  C30 UNL     1      -1.097  51.812 -18.917  1.00  0.00     0.063 C 
ENDROOT
BRANCH  14  22
HETATM   22  C13 UNL     1      -3.914  48.372 -25.683  1.00  0.00    -0.014 C 
HETATM   23  C14 UNL     1      -2.897  48.708 -26.780  1.00  0.00     0.010 C 
BRANCH  22  24
HETATM   24  C15 UNL     1      -5.304  48.080 -26.317  1.00  0.00     0.008 C 
BRANCH  24  25
HETATM   25  C16 UNL     1      -5.287  48.000 -27.849  1.00  0.00     0.028 C 
BRANCH  25  26
HETATM   26  C17 UNL     1      -6.466  47.220 -28.361  1.00  0.00    -0.017 C 
HETATM   27  C18 UNL     1      -6.629  46.704 -29.594  1.00  0.00    -0.028 C 
HETATM   28  C19 UNL     1      -5.693  46.831 -30.754  1.00  0.00     0.051 C 
BRANCH  27  29
HETATM   29  C20 UNL     1      -7.883  45.939 -29.871  1.00  0.00     0.265 C 
HETATM   30  O3  UNL     1      -8.182  45.483 -30.968  1.00  0.00    -0.302 OA
ENDBRANCH  27  29
ENDBRANCH  25  26
ENDBRANCH  24  25
ENDBRANCH  22  24
ENDBRANCH  14  22
BRANCH  20  31
HETATM   31  C27 UNL     1       0.686  52.472 -20.665  1.00  0.00     0.021 C 
BRANCH  31  32
HETATM   32  C28 UNL     1       0.601  53.010 -22.089  1.00  0.00     0.111 C 
BRANCH  32  33
HETATM   33  C29 UNL     1       1.450  54.240 -22.270  1.00  0.00     0.139 C 
HETATM   34  O4  UNL     1       2.117  54.814 -21.427  1.00  0.00    -0.650 OA
BRANCH  33  35
HETATM   35  O5  UNL     1       1.412  54.689 -23.541  1.00  0.00    -0.776 OA
HETATM   36  H41 UNL     1       1.988  55.482 -23.531  1.00  0.00     0.167 HD
ENDBRANCH  33  35
ENDBRANCH  32  33
ENDBRANCH  31  32
ENDBRANCH  20  31
TORSDOF 9
ENDMDL
MODEL 2
REMARK minimizedAffinity -9.31474972
REMARK  9 active torsions:
REMARK  status: ('A' for Active; 'I' for Inactive)
REMARK    1  A    between atoms: C12_14  and  C13_15 
REMARK    2  A    between atoms: C13_15  and  C15_17 
REMARK    3  A    between atoms: C15_17  and  C16_18 
REMARK    4  A    between atoms: C16_18  and  C17_19 
REMARK    5  A    between atoms: C18_20  and  C20_22 
REMARK    6  A    between atoms: C26_29  and  C27_30 
REMARK    7  A    between atoms: C27_30  and  C28_31 
REMARK    8  A    between atoms: C28_31  and  C29_32 
REMARK    9  A    between atoms: C29_32  and  O5_34 
ROOT
HETATM    1  C1  UNL     1       0.238  50.585 -17.021  1.00  0.00     0.025 C 
HETATM    2  C2  UNL     1      -0.827  50.540 -17.832  1.00  0.00     0.015 C 
HETATM    3  C3  UNL     1      -1.672  49.327 -17.892  1.00  0.00     0.289 C 
HETATM    4  O1  UNL     1      -1.380  48.217 -17.486  1.00  0.00    -0.260 OA
HETATM    5  O2  UNL     1      -2.841  49.671 -18.490  1.00  0.00    -0.311 OA
HETATM    6  C4  UNL     1      -2.886  51.093 -18.682  1.00  0.00     0.142 C 
HETATM    7  C5  UNL     1      -3.676  51.414 -19.938  1.00  0.00     0.039 C 
HETATM    8  C6  UNL     1      -3.018  50.798 -21.181  1.00  0.00     0.006 C 
HETATM    9  C7  UNL     1      -1.605  51.392 -21.381  1.00  0.00    -0.027 A 
HETATM   10  C8  UNL     1      -1.381  52.153 -22.694  1.00  0.00     0.011 C 
HETATM   11  C9  UNL     1      -2.000  51.544 -23.968  1.00  0.00     0.011 C 
HETATM   12  C10 UNL     1      -3.070  50.471 -23.717  1.00  0.00    -0.032 C 
HETATM   13  C11 UNL     1      -2.353  49.097 -23.559  1.00  0.00     0.016 C 
HETATM   14  C12 UNL     1      -4.187  50.332 -24.806  1.00  0.00    -0.002 C 
HETATM   15  C21 UNL     1      -5.362  49.701 -24.001  1.00  0.00     0.006 C 
HETATM   16  C22 UNL     1      -5.062  49.893 -22.505  1.00  0.00     0.011 C 
HETATM   17  C23 UNL     1      -3.903  50.905 -22.458  1.00  0.00    -0.032 C 
HETATM   18  C24 UNL     1      -4.558  52.319 -22.569  1.00  0.00     0.016 C 
HETATM   19  C25 UNL     1      -0.414  50.592 -20.888  1.00  0.00     0.022 A 
HETATM   20  C26 UNL     1      -0.821  51.811 -20.093  1.00  0.00    -0.021 A 
HETATM   21  C30 UNL     1      -1.445  51.597 -18.691  1.00  0.00     0.063 C 
ENDROOT
BRANCH  14  22
HETATM   22  C13 UNL     1      -3.900  49.563 -26.132  1.00  0.00    -0.014 C 
HETATM   23  C14 UNL     1      -2.851  48.461 -25.936  1.00  0.00     0.010 C 
BRANCH  22  24
HETATM   24  C15 UNL     1      -3.432  50.552 -27.237  1.00  0.00     0.008 C 
BRANCH  24  25
HETATM   25  C16 UNL     1      -1.910  50.624 -27.408  1.00  0.00     0.028 C 
BRANCH  25  26
HETATM   26  C17 UNL     1      -1.401  52.012 -27.131  1.00  0.00    -0.017 C 
HETATM   27  C18 UNL     1      -0.203  52.524 -27.473  1.00  0.00    -0.028 C 
HETATM   28  C19 UNL     1       0.916  51.813 -28.166  1.00  0.00     0.051 C 
BRANCH  27  29
HETATM   29  C20 UNL     1       0.077  53.948 -27.112  1.00  0.00     0.265 C 
HETATM   30  O3  UNL     1       0.054  54.383 -25.967  1.00  0.00    -0.302 OA
ENDBRANCH  27  29
ENDBRANCH  25  26
ENDBRANCH  24  25
ENDBRANCH  22  24
ENDBRANCH  14  22
BRANCH  20  31
HETATM   31  C27 UNL     1       0.049  53.073 -20.195  1.00  0.00     0.021 C 
BRANCH  31  32
HETATM   32  C28 UNL     1       1.327  52.896 -21.007  1.00  0.00     0.111 C 
BRANCH  32  33
HETATM   33  C29 UNL     1       1.512  54.010 -22.002  1.00  0.00     0.139 C 
HETATM   34  O4  UNL     1       1.899  55.145 -21.785  1.00  0.00    -0.650 OA
BRANCH  33  35
HETATM   35  O5  UNL     1       1.194  53.618 -23.252  1.00  0.00    -0.776 OA
HETATM   36  H41 UNL     1       1.347  54.418 -23.799  1.00  0.00     0.167 HD
ENDBRANCH  33  35
ENDBRANCH  32  33
ENDBRANCH  31  32
ENDBRANCH  20  31
TORSDOF 9
ENDMDL
MODEL 3
REMARK minimizedAffinity -9.1530838
REMARK  9 active torsions:
REMARK  status: ('A' for Active; 'I' for Inactive)
REMARK    1  A    between atoms: C12_14  and  C13_15 
REMARK    2  A    between atoms: C13_15  and  C15_17 
REMARK    3  A    between atoms: C15_17  and  C16_18 
REMARK    4  A    between atoms: C16_18  and  C17_19 
REMARK    5  A    between atoms: C18_20  and  C20_22 
REMARK    6  A    between atoms: C26_29  and  C27_30 
REMARK    7  A    between atoms: C27_30  and  C28_31 
REMARK    8  A    between atoms: C28_31  and  C29_32 
REMARK    9  A    between atoms: C29_32  and  O5_34 
ROOT
HETATM    1  C1  UNL     1       0.325  50.467 -17.256  1.00  0.00     0.025 C 
HETATM    2  C2  UNL     1      -0.788  50.553 -17.996  1.00  0.00     0.015 C 
HETATM    3  C3  UNL     1      -1.988  49.764 -17.639  1.00  0.00     0.289 C 
HETATM    4  O1  UNL     1      -2.033  48.809 -16.886  1.00  0.00    -0.260 OA
HETATM    5  O2  UNL     1      -3.043  50.297 -18.308  1.00  0.00    -0.311 OA
HETATM    6  C4  UNL     1      -2.637  51.506 -18.965  1.00  0.00     0.142 C 
HETATM    7  C5  UNL     1      -3.428  51.680 -20.250  1.00  0.00     0.039 C 
HETATM    8  C6  UNL     1      -3.174  50.516 -21.219  1.00  0.00     0.006 C 
HETATM    9  C7  UNL     1      -1.681  50.477 -21.619  1.00  0.00    -0.027 A 
HETATM   10  C8  UNL     1      -1.385  50.661 -23.113  1.00  0.00     0.011 C 
HETATM   11  C9  UNL     1      -2.327  49.947 -24.103  1.00  0.00     0.011 C 
HETATM   12  C10 UNL     1      -3.651  49.459 -23.498  1.00  0.00    -0.032 C 
HETATM   13  C11 UNL     1      -3.416  48.041 -22.894  1.00  0.00     0.016 C 
HETATM   14  C12 UNL     1      -4.879  49.393 -24.468  1.00  0.00    -0.002 C 
HETATM   15  C21 UNL     1      -6.085  49.505 -23.489  1.00  0.00     0.006 C 
HETATM   16  C22 UNL     1      -5.553  50.032 -22.146  1.00  0.00     0.011 C 
HETATM   17  C23 UNL     1      -4.127  50.528 -22.451  1.00  0.00    -0.032 C 
HETATM   18  C24 UNL     1      -4.284  51.973 -23.025  1.00  0.00     0.016 C 
HETATM   19  C25 UNL     1      -0.770  49.502 -20.896  1.00  0.00     0.022 A 
HETATM   20  C26 UNL     1      -0.647  50.969 -20.552  1.00  0.00    -0.021 A 
HETATM   21  C30 UNL     1      -1.124  51.437 -19.154  1.00  0.00     0.063 C 
ENDROOT
BRANCH  14  22
HETATM   22  C13 UNL     1      -5.033  48.202 -25.463  1.00  0.00    -0.014 C 
HETATM   23  C14 UNL     1      -4.448  48.531 -26.842  1.00  0.00     0.010 C 
BRANCH  22  24
HETATM   24  C15 UNL     1      -6.530  47.806 -25.601  1.00  0.00     0.008 C 
BRANCH  24  25
HETATM   25  C16 UNL     1      -6.940  47.396 -27.021  1.00  0.00     0.028 C 
BRANCH  25  26
HETATM   26  C17 UNL     1      -8.393  47.693 -27.270  1.00  0.00    -0.017 C 
HETATM   27  C18 UNL     1      -9.371  47.803 -26.351  1.00  0.00    -0.028 C 
HETATM   28  C19 UNL     1      -9.245  47.607 -24.873  1.00  0.00     0.051 C 
BRANCH  27  29
HETATM   29  C20 UNL     1     -10.748  48.131 -26.833  1.00  0.00     0.265 C 
HETATM   30  O3  UNL     1     -11.721  48.260 -26.100  1.00  0.00    -0.302 OA
ENDBRANCH  27  29
ENDBRANCH  25  26
ENDBRANCH  24  25
ENDBRANCH  22  24
ENDBRANCH  14  22
BRANCH  20  31
HETATM   31  C27 UNL     1       0.572  51.741 -21.079  1.00  0.00     0.021 C 
BRANCH  31  32
HETATM   32  C28 UNL     1       0.294  53.198 -21.432  1.00  0.00     0.111 C 
BRANCH  32  33
HETATM   33  C29 UNL     1       1.389  54.107 -20.941  1.00  0.00     0.139 C 
HETATM   34  O4  UNL     1       2.103  54.838 -21.605  1.00  0.00    -0.650 OA
BRANCH  33  35
HETATM   35  O5  UNL     1       1.523  54.047 -19.601  1.00  0.00    -0.776 OA
HETATM   36  H41 UNL     1       2.258  54.666 -19.406  1.00  0.00     0.167 HD
ENDBRANCH  33  35
ENDBRANCH  32  33
ENDBRANCH  31  32
ENDBRANCH  20  31
TORSDOF 9
ENDMDL
MODEL 4
REMARK minimizedAffinity -8.84676933
REMARK  9 active torsions:
REMARK  status: ('A' for Active; 'I' for Inactive)
REMARK    1  A    between atoms: C12_14  and  C13_15 
REMARK    2  A    between atoms: C13_15  and  C15_17 
REMARK    3  A    between atoms: C15_17  and  C16_18 
REMARK    4  A    between atoms: C16_18  and  C17_19 
REMARK    5  A    between atoms: C18_20  and  C20_22 
REMARK    6  A    between atoms: C26_29  and  C27_30 
REMARK    7  A    between atoms: C27_30  and  C28_31 
REMARK    8  A    between atoms: C28_31  and  C29_32 
REMARK    9  A    between atoms: C29_32  and  O5_34 
ROOT
HETATM    1  C1  UNL     1      -2.330  51.620 -27.580  1.00  0.00     0.025 C 
HETATM    2  C2  UNL     1      -2.651  51.747 -26.286  1.00  0.00     0.015 C 
HETATM    3  C3  UNL     1      -1.935  52.716 -25.428  1.00  0.00     0.289 C 
HETATM    4  O1  UNL     1      -0.874  53.259 -25.673  1.00  0.00    -0.260 OA
HETATM    5  O2  UNL     1      -2.677  52.895 -24.305  1.00  0.00    -0.311 OA
HETATM    6  C4  UNL     1      -3.936  52.220 -24.444  1.00  0.00     0.142 C 
HETATM    7  C5  UNL     1      -4.406  51.729 -23.086  1.00  0.00     0.039 C 
HETATM    8  C6  UNL     1      -3.407  50.731 -22.481  1.00  0.00     0.006 C 
HETATM    9  C7  UNL     1      -3.290  49.484 -23.387  1.00  0.00    -0.027 A 
HETATM   10  C8  UNL     1      -3.699  48.152 -22.746  1.00  0.00     0.011 C 
HETATM   11  C9  UNL     1      -3.263  47.919 -21.286  1.00  0.00     0.011 C 
HETATM   12  C10 UNL     1      -2.811  49.180 -20.537  1.00  0.00    -0.032 C 
HETATM   13  C11 UNL     1      -1.294  49.399 -20.823  1.00  0.00     0.016 C 
HETATM   14  C12 UNL     1      -3.036  49.189 -18.987  1.00  0.00    -0.002 C 
HETATM   15  C21 UNL     1      -3.095  50.713 -18.666  1.00  0.00     0.006 C 
HETATM   16  C22 UNL     1      -3.328  51.462 -19.989  1.00  0.00     0.011 C 
HETATM   17  C23 UNL     1      -3.725  50.370 -21.000  1.00  0.00    -0.032 C 
HETATM   18  C24 UNL     1      -5.256  50.129 -20.797  1.00  0.00     0.016 C 
HETATM   19  C25 UNL     1      -2.121  49.405 -24.351  1.00  0.00     0.022 A 
HETATM   20  C26 UNL     1      -3.486  49.703 -24.925  1.00  0.00    -0.021 A 
HETATM   21  C30 UNL     1      -3.751  51.122 -25.489  1.00  0.00     0.063 C 
ENDROOT
BRANCH  14  22
HETATM   22  C13 UNL     1      -2.054  48.425 -18.046  1.00  0.00    -0.014 C 
HETATM   23  C14 UNL     1      -2.686  48.137 -16.679  1.00  0.00     0.010 C 
BRANCH  22  24
HETATM   24  C15 UNL     1      -0.740  49.236 -17.865  1.00  0.00     0.008 C 
BRANCH  24  25
HETATM   25  C16 UNL     1      -0.072  49.047 -16.498  1.00  0.00     0.028 C 
BRANCH  25  26
HETATM   26  C17 UNL     1       0.644  50.297 -16.069  1.00  0.00    -0.017 C 
HETATM   27  C18 UNL     1       0.799  51.432 -16.779  1.00  0.00    -0.028 C 
HETATM   28  C19 UNL     1       0.334  51.690 -18.176  1.00  0.00     0.051 C 
BRANCH  27  29
HETATM   29  C20 UNL     1       1.533  52.564 -16.134  1.00  0.00     0.265 C 
HETATM   30  O3  UNL     1       2.678  52.892 -16.419  1.00  0.00    -0.302 OA
ENDBRANCH  27  29
ENDBRANCH  25  26
ENDBRANCH  24  25
ENDBRANCH  22  24
ENDBRANCH  14  22
BRANCH  20  31
HETATM   31  C27 UNL     1      -4.213  48.589 -25.693  1.00  0.00     0.021 C 
BRANCH  31  32
HETATM   32  C28 UNL     1      -3.672  48.327 -27.094  1.00  0.00     0.111 C 
BRANCH  32  33
HETATM   33  C29 UNL     1      -4.770  48.322 -28.122  1.00  0.00     0.139 C 
HETATM   34  O4  UNL     1      -4.657  48.408 -29.332  1.00  0.00    -0.650 OA
BRANCH  33  35
HETATM   35  O5  UNL     1      -5.986  48.201 -27.552  1.00  0.00    -0.776 OA
HETATM   36  H41 UNL     1      -6.608  48.216 -28.310  1.00  0.00     0.167 HD
ENDBRANCH  33  35
ENDBRANCH  32  33
ENDBRANCH  31  32
ENDBRANCH  20  31
TORSDOF 9
ENDMDL
MODEL 5
REMARK minimizedAffinity -8.75860882
REMARK  9 active torsions:
REMARK  status: ('A' for Active; 'I' for Inactive)
REMARK    1  A    between atoms: C12_14  and  C13_15 
REMARK    2  A    between atoms: C13_15  and  C15_17 
REMARK    3  A    between atoms: C15_17  and  C16_18 
REMARK    4  A    between atoms: C16_18  and  C17_19 
REMARK    5  A    between atoms: C18_20  and  C20_22 
REMARK    6  A    between atoms: C26_29  and  C27_30 
REMARK    7  A    between atoms: C27_30  and  C28_31 
REMARK    8  A    between atoms: C28_31  and  C29_32 
REMARK    9  A    between atoms: C29_32  and  O5_34 
ROOT
HETATM    1  C1  UNL     1      -8.678  48.069 -23.832  1.00  0.00     0.025 C 
HETATM    2  C2  UNL     1      -7.606  47.907 -23.046  1.00  0.00     0.015 C 
HETATM    3  C3  UNL     1      -7.700  48.157 -21.590  1.00  0.00     0.289 C 
HETATM    4  O1  UNL     1      -8.583  48.764 -21.013  1.00  0.00    -0.260 OA
HETATM    5  O2  UNL     1      -6.616  47.586 -21.006  1.00  0.00    -0.311 OA
HETATM    6  C4  UNL     1      -5.888  46.824 -21.979  1.00  0.00     0.142 C 
HETATM    7  C5  UNL     1      -4.407  46.850 -21.645  1.00  0.00     0.039 C 
HETATM    8  C6  UNL     1      -3.857  48.284 -21.672  1.00  0.00     0.006 C 
HETATM    9  C7  UNL     1      -4.003  48.880 -23.091  1.00  0.00    -0.027 A 
HETATM   10  C8  UNL     1      -2.695  49.279 -23.786  1.00  0.00     0.011 C 
HETATM   11  C9  UNL     1      -1.626  49.968 -22.915  1.00  0.00     0.011 C 
HETATM   12  C10 UNL     1      -1.839  49.831 -21.400  1.00  0.00    -0.032 C 
HETATM   13  C11 UNL     1      -2.780  50.984 -20.936  1.00  0.00     0.016 C 
HETATM   14  C12 UNL     1      -0.551  49.846 -20.510  1.00  0.00    -0.002 C 
HETATM   15  C21 UNL     1      -1.017  49.083 -19.234  1.00  0.00     0.006 C 
HETATM   16  C22 UNL     1      -2.312  48.330 -19.584  1.00  0.00     0.011 C 
HETATM   17  C23 UNL     1      -2.405  48.394 -21.120  1.00  0.00    -0.032 C 
HETATM   18  C24 UNL     1      -1.512  47.229 -21.657  1.00  0.00     0.016 C 
HETATM   19  C25 UNL     1      -5.185  49.790 -23.369  1.00  0.00     0.022 A 
HETATM   20  C26 UNL     1      -5.223  48.393 -23.944  1.00  0.00    -0.021 A 
HETATM   21  C30 UNL     1      -6.240  47.384 -23.355  1.00  0.00     0.063 C 
ENDROOT
BRANCH  14  22
HETATM   22  C13 UNL     1       0.152  51.195 -20.167  1.00  0.00    -0.014 C 
HETATM   23  C14 UNL     1      -0.835  52.224 -19.600  1.00  0.00     0.010 C 
BRANCH  22  24
HETATM   24  C15 UNL     1       0.855  51.773 -21.428  1.00  0.00     0.008 C 
BRANCH  24  25
HETATM   25  C16 UNL     1       0.152  52.994 -22.033  1.00  0.00     0.028 C 
BRANCH  25  26
HETATM   26  C17 UNL     1       0.473  53.134 -23.494  1.00  0.00    -0.017 C 
HETATM   27  C18 UNL     1      -0.392  53.098 -24.526  1.00  0.00    -0.028 C 
HETATM   28  C19 UNL     1      -1.867  52.863 -24.457  1.00  0.00     0.051 C 
BRANCH  27  29
HETATM   29  C20 UNL     1       0.157  53.286 -25.904  1.00  0.00     0.265 C 
HETATM   30  O3  UNL     1       1.305  53.010 -26.230  1.00  0.00    -0.302 OA
ENDBRANCH  27  29
ENDBRANCH  25  26
ENDBRANCH  24  25
ENDBRANCH  22  24
ENDBRANCH  14  22
BRANCH  20  31
HETATM   31  C27 UNL     1      -4.983  48.218 -25.451  1.00  0.00     0.021 C 
BRANCH  31  32
HETATM   32  C28 UNL     1      -3.530  48.380 -25.884  1.00  0.00     0.111 C 
BRANCH  32  33
HETATM   33  C29 UNL     1      -3.423  48.804 -27.324  1.00  0.00     0.139 C 
HETATM   34  O4  UNL     1      -3.922  48.267 -28.297  1.00  0.00    -0.650 OA
BRANCH  33  35
HETATM   35  O5  UNL     1      -2.675  49.917 -27.461  1.00  0.00    -0.776 OA
HETATM   36  H41 UNL     1      -2.674  50.088 -28.426  1.00  0.00     0.167 HD
ENDBRANCH  33  35
ENDBRANCH  32  33
ENDBRANCH  31  32
ENDBRANCH  20  31
TORSDOF 9
ENDMDL
MODEL 6
REMARK minimizedAffinity -8.73054314
REMARK  9 active torsions:
REMARK  status: ('A' for Active; 'I' for Inactive)
REMARK    1  A    between atoms: C12_14  and  C13_15 
REMARK    2  A    between atoms: C13_15  and  C15_17 
REMARK    3  A    between atoms: C15_17  and  C16_18 
REMARK    4  A    between atoms: C16_18  and  C17_19 
REMARK    5  A    between atoms: C18_20  and  C20_22 
REMARK    6  A    between atoms: C26_29  and  C27_30 
REMARK    7  A    between atoms: C27_30  and  C28_31 
REMARK    8  A    between atoms: C28_31  and  C29_32 
REMARK    9  A    between atoms: C29_32  and  O5_34 
ROOT
HETATM    1  C1  UNL     1      -7.510  48.664 -23.900  1.00  0.00     0.025 C 
HETATM    2  C2  UNL     1      -6.539  48.444 -23.003  1.00  0.00     0.015 C 
HETATM    3  C3  UNL     1      -6.865  48.289 -21.568  1.00  0.00     0.289 C 
HETATM    4  O1  UNL     1      -7.907  48.603 -21.022  1.00  0.00    -0.260 OA
HETATM    5  O2  UNL     1      -5.787  47.733 -20.961  1.00  0.00    -0.311 OA
HETATM    6  C4  UNL     1      -4.817  47.354 -21.948  1.00  0.00     0.142 C 
HETATM    7  C5  UNL     1      -3.420  47.486 -21.370  1.00  0.00     0.039 C 
HETATM    8  C6  UNL     1      -3.124  48.936 -20.960  1.00  0.00     0.006 C 
HETATM    9  C7  UNL     1      -3.180  49.858 -22.200  1.00  0.00    -0.027 A 
HETATM   10  C8  UNL     1      -1.878  50.594 -22.545  1.00  0.00     0.011 C 
HETATM   11  C9  UNL     1      -1.067  51.165 -21.365  1.00  0.00     0.011 C 
HETATM   12  C10 UNL     1      -1.452  50.609 -19.986  1.00  0.00    -0.032 C 
HETATM   13  C11 UNL     1      -2.629  51.466 -19.428  1.00  0.00     0.016 C 
HETATM   14  C12 UNL     1      -0.314  50.559 -18.912  1.00  0.00    -0.002 C 
HETATM   15  C21 UNL     1      -0.808  49.434 -17.954  1.00  0.00     0.006 C 
HETATM   16  C22 UNL     1      -1.898  48.637 -18.689  1.00  0.00     0.011 C 
HETATM   17  C23 UNL     1      -1.797  49.087 -20.158  1.00  0.00    -0.032 C 
HETATM   18  C24 UNL     1      -0.656  48.231 -20.796  1.00  0.00     0.016 C 
HETATM   19  C25 UNL     1      -4.452  50.647 -22.450  1.00  0.00     0.022 A 
HETATM   20  C26 UNL     1      -4.175  49.457 -23.339  1.00  0.00    -0.021 A 
HETATM   21  C30 UNL     1      -5.075  48.204 -23.190  1.00  0.00     0.063 C 
ENDROOT
BRANCH  14  22
HETATM   22  C13 UNL     1       0.097  51.852 -18.142  1.00  0.00    -0.014 C 
HETATM   23  C14 UNL     1       0.521  52.974 -19.098  1.00  0.00     0.010 C 
BRANCH  22  24
HETATM   24  C15 UNL     1       1.249  51.541 -17.144  1.00  0.00     0.008 C 
BRANCH  24  25
HETATM   25  C16 UNL     1       0.876  51.755 -15.672  1.00  0.00     0.028 C 
BRANCH  25  26
HETATM   26  C17 UNL     1       1.789  50.977 -14.766  1.00  0.00    -0.017 C 
HETATM   27  C18 UNL     1       3.123  51.112 -14.642  1.00  0.00    -0.028 C 
HETATM   28  C19 UNL     1       4.011  52.036 -15.413  1.00  0.00     0.051 C 
BRANCH  27  29
HETATM   29  C20 UNL     1       3.824  50.239 -13.650  1.00  0.00     0.265 C 
HETATM   30  O3  UNL     1       4.928  49.741 -13.832  1.00  0.00    -0.302 OA
ENDBRANCH  27  29
ENDBRANCH  25  26
ENDBRANCH  24  25
ENDBRANCH  22  24
ENDBRANCH  14  22
BRANCH  20  31
HETATM   31  C27 UNL     1      -3.712  49.716 -24.781  1.00  0.00     0.021 C 
BRANCH  31  32
HETATM   32  C28 UNL     1      -3.356  48.458 -25.567  1.00  0.00     0.111 C 
BRANCH  32  33
HETATM   33  C29 UNL     1      -4.065  48.413 -26.893  1.00  0.00     0.139 C 
HETATM   34  O4  UNL     1      -3.565  48.357 -28.003  1.00  0.00    -0.650 OA
BRANCH  33  35
HETATM   35  O5  UNL     1      -5.405  48.436 -26.743  1.00  0.00    -0.776 OA
HETATM   36  H41 UNL     1      -5.748  48.408 -27.661  1.00  0.00     0.167 HD
ENDBRANCH  33  35
ENDBRANCH  32  33
ENDBRANCH  31  32
ENDBRANCH  20  31
TORSDOF 9
ENDMDL
MODEL 7
REMARK minimizedAffinity -8.70504093
REMARK  9 active torsions:
REMARK  status: ('A' for Active; 'I' for Inactive)
REMARK    1  A    between atoms: C12_14  and  C13_15 
REMARK    2  A    between atoms: C13_15  and  C15_17 
REMARK    3  A    between atoms: C15_17  and  C16_18 
REMARK    4  A    between atoms: C16_18  and  C17_19 
REMARK    5  A    between atoms: C18_20  and  C20_22 
REMARK    6  A    between atoms: C26_29  and  C27_30 
REMARK    7  A    between atoms: C27_30  and  C28_31 
REMARK    8  A    between atoms: C28_31  and  C29_32 
REMARK    9  A    between atoms: C29_32  and  O5_34 
ROOT
HETATM    1  C1  UNL     1       0.262  54.069 -26.057  1.00  0.00     0.025 C 
HETATM    2  C2  UNL     1      -0.502  52.973 -25.965  1.00  0.00     0.015 C 
HETATM    3  C3  UNL     1      -1.525  52.683 -26.994  1.00  0.00     0.289 C 
HETATM    4  O1  UNL     1      -1.972  53.464 -27.813  1.00  0.00    -0.260 OA
HETATM    5  O2  UNL     1      -1.883  51.381 -26.860  1.00  0.00    -0.311 OA
HETATM    6  C4  UNL     1      -1.029  50.740 -25.901  1.00  0.00     0.142 C 
HETATM    7  C5  UNL     1      -1.803  49.657 -25.171  1.00  0.00     0.039 C 
HETATM    8  C6  UNL     1      -2.998  50.248 -24.408  1.00  0.00     0.006 C 
HETATM    9  C7  UNL     1      -2.501  51.240 -23.332  1.00  0.00    -0.027 A 
HETATM   10  C8  UNL     1      -2.849  50.882 -21.881  1.00  0.00     0.011 C 
HETATM   11  C9  UNL     1      -4.260  50.318 -21.621  1.00  0.00     0.011 C 
HETATM   12  C10 UNL     1      -5.003  49.832 -22.874  1.00  0.00    -0.032 C 
HETATM   13  C11 UNL     1      -5.742  51.051 -23.504  1.00  0.00     0.016 C 
HETATM   14  C12 UNL     1      -6.034  48.672 -22.668  1.00  0.00    -0.002 C 
HETATM   15  C21 UNL     1      -6.098  48.025 -24.084  1.00  0.00     0.006 C 
HETATM   16  C22 UNL     1      -4.874  48.512 -24.878  1.00  0.00     0.011 C 
HETATM   17  C23 UNL     1      -3.952  49.161 -23.829  1.00  0.00    -0.032 C 
HETATM   18  C24 UNL     1      -3.142  47.991 -23.182  1.00  0.00     0.016 C 
HETATM   19  C25 UNL     1      -2.530  52.723 -23.655  1.00  0.00     0.022 A 
HETATM   20  C26 UNL     1      -1.187  52.031 -23.647  1.00  0.00    -0.021 A 
HETATM   21  C30 UNL     1      -0.457  51.831 -24.999  1.00  0.00     0.063 C 
ENDROOT
BRANCH  14  22
HETATM   22  C13 UNL     1      -7.451  48.973 -22.091  1.00  0.00    -0.014 C 
HETATM   23  C14 UNL     1      -7.379  49.527 -20.663  1.00  0.00     0.010 C 
BRANCH  22  24
HETATM   24  C15 UNL     1      -8.329  47.690 -22.121  1.00  0.00     0.008 C 
BRANCH  24  25
HETATM   25  C16 UNL     1      -8.205  46.877 -23.415  1.00  0.00     0.028 C 
BRANCH  25  26
HETATM   26  C17 UNL     1      -9.527  46.789 -24.126  1.00  0.00    -0.017 C 
HETATM   27  C18 UNL     1      -9.955  47.555 -25.148  1.00  0.00    -0.028 C 
HETATM   28  C19 UNL     1      -9.231  48.701 -25.779  1.00  0.00     0.051 C 
BRANCH  27  29
HETATM   29  C20 UNL     1     -11.308  47.267 -25.717  1.00  0.00     0.265 C 
HETATM   30  O3  UNL     1     -12.065  48.123 -26.157  1.00  0.00    -0.302 OA
ENDBRANCH  27  29
ENDBRANCH  25  26
ENDBRANCH  24  25
ENDBRANCH  22  24
ENDBRANCH  14  22
BRANCH  20  31
HETATM   31  C27 UNL     1      -0.240  52.291 -22.467  1.00  0.00     0.021 C 
BRANCH  31  32
HETATM   32  C28 UNL     1       0.957  53.175 -22.799  1.00  0.00     0.111 C 
BRANCH  32  33
HETATM   33  C29 UNL     1       1.290  54.109 -21.666  1.00  0.00     0.139 C 
HETATM   34  O4  UNL     1       0.919  54.034 -20.508  1.00  0.00    -0.650 OA
BRANCH  33  35
HETATM   35  O5  UNL     1       2.099  55.110 -22.067  1.00  0.00    -0.776 OA
HETATM   36  H41 UNL     1       2.236  55.644 -21.256  1.00  0.00     0.167 HD
ENDBRANCH  33  35
ENDBRANCH  32  33
ENDBRANCH  31  32
ENDBRANCH  20  31
TORSDOF 9
ENDMDL
MODEL 8
REMARK minimizedAffinity -8.61249542
REMARK  9 active torsions:
REMARK  status: ('A' for Active; 'I' for Inactive)
REMARK    1  A    between atoms: C12_14  and  C13_15 
REMARK    2  A    between atoms: C13_15  and  C15_17 
REMARK    3  A    between atoms: C15_17  and  C16_18 
REMARK    4  A    between atoms: C16_18  and  C17_19 
REMARK    5  A    between atoms: C18_20  and  C20_22 
REMARK    6  A    between atoms: C26_29  and  C27_30 
REMARK    7  A    between atoms: C27_30  and  C28_31 
REMARK    8  A    between atoms: C28_31  and  C29_32 
REMARK    9  A    between atoms: C29_32  and  O5_34 
ROOT
HETATM    1  C1  UNL     1       0.030  53.941 -25.786  1.00  0.00     0.025 C 
HETATM    2  C2  UNL     1      -0.701  52.832 -25.612  1.00  0.00     0.015 C 
HETATM    3  C3  UNL     1      -1.715  52.438 -26.616  1.00  0.00     0.289 C 
HETATM    4  O1  UNL     1      -2.184  53.143 -27.490  1.00  0.00    -0.260 OA
HETATM    5  O2  UNL     1      -2.035  51.139 -26.387  1.00  0.00    -0.311 OA
HETATM    6  C4  UNL     1      -1.163  50.596 -25.385  1.00  0.00     0.142 C 
HETATM    7  C5  UNL     1      -1.906  49.547 -24.576  1.00  0.00     0.039 C 
HETATM    8  C6  UNL     1      -3.119  50.157 -23.857  1.00  0.00     0.006 C 
HETATM    9  C7  UNL     1      -2.652  51.240 -22.857  1.00  0.00    -0.027 A 
HETATM   10  C8  UNL     1      -2.990  50.979 -21.384  1.00  0.00     0.011 C 
HETATM   11  C9  UNL     1      -4.384  50.394 -21.082  1.00  0.00     0.011 C 
HETATM   12  C10 UNL     1      -5.112  49.797 -22.295  1.00  0.00    -0.032 C 
HETATM   13  C11 UNL     1      -5.886  50.944 -23.012  1.00  0.00     0.016 C 
HETATM   14  C12 UNL     1      -6.108  48.625 -22.003  1.00  0.00    -0.002 C 
HETATM   15  C21 UNL     1      -6.152  47.874 -23.368  1.00  0.00     0.006 C 
HETATM   16  C22 UNL     1      -4.942  48.337 -24.197  1.00  0.00     0.011 C 
HETATM   17  C23 UNL     1      -4.041  49.088 -23.199  1.00  0.00    -0.032 C 
HETATM   18  C24 UNL     1      -3.198  47.993 -22.469  1.00  0.00     0.016 C 
HETATM   19  C25 UNL     1      -2.724  52.693 -23.289  1.00  0.00     0.022 A 
HETATM   20  C26 UNL     1      -1.361  52.043 -23.232  1.00  0.00    -0.021 A 
HETATM   21  C30 UNL     1      -0.624  51.766 -24.566  1.00  0.00     0.063 C 
ENDROOT
BRANCH  14  22
HETATM   22  C13 UNL     1      -7.535  48.926 -21.449  1.00  0.00    -0.014 C 
HETATM   23  C14 UNL     1      -7.526  49.114 -19.927  1.00  0.00     0.010 C 
BRANCH  22  24
HETATM   24  C15 UNL     1      -8.516  47.784 -21.838  1.00  0.00     0.008 C 
BRANCH  24  25
HETATM   25  C16 UNL     1      -9.281  47.186 -20.651  1.00  0.00     0.028 C 
BRANCH  25  26
HETATM   26  C17 UNL     1     -10.767  47.301 -20.853  1.00  0.00    -0.017 C 
HETATM   27  C18 UNL     1     -11.705  47.496 -19.907  1.00  0.00    -0.028 C 
HETATM   28  C19 UNL     1     -11.489  47.594 -18.430  1.00  0.00     0.051 C 
BRANCH  27  29
HETATM   29  C20 UNL     1     -13.130  47.605 -20.349  1.00  0.00     0.265 C 
HETATM   30  O3  UNL     1     -13.729  48.665 -20.482  1.00  0.00    -0.302 OA
ENDBRANCH  27  29
ENDBRANCH  25  26
ENDBRANCH  24  25
ENDBRANCH  22  24
ENDBRANCH  14  22
BRANCH  20  31
HETATM   31  C27 UNL     1      -0.423  52.417 -22.074  1.00  0.00     0.021 C 
BRANCH  31  32
HETATM   32  C28 UNL     1       0.905  53.026 -22.508  1.00  0.00     0.111 C 
BRANCH  32  33
HETATM   33  C29 UNL     1       1.339  54.130 -21.582  1.00  0.00     0.139 C 
HETATM   34  O4  UNL     1       1.105  54.237 -20.391  1.00  0.00    -0.650 OA
BRANCH  33  35
HETATM   35  O5  UNL     1       2.070  55.062 -22.226  1.00  0.00    -0.776 OA
HETATM   36  H41 UNL     1       2.284  55.720 -21.531  1.00  0.00     0.167 HD
ENDBRANCH  33  35
ENDBRANCH  32  33
ENDBRANCH  31  32
ENDBRANCH  20  31
TORSDOF 9
ENDMDL
MODEL 9
REMARK minimizedAffinity -8.54594707
REMARK  9 active torsions:
REMARK  status: ('A' for Active; 'I' for Inactive)
REMARK    1  A    between atoms: C12_14  and  C13_15 
REMARK    2  A    between atoms: C13_15  and  C15_17 
REMARK    3  A    between atoms: C15_17  and  C16_18 
REMARK    4  A    between atoms: C16_18  and  C17_19 
REMARK    5  A    between atoms: C18_20  and  C20_22 
REMARK    6  A    between atoms: C26_29  and  C27_30 
REMARK    7  A    between atoms: C27_30  and  C28_31 
REMARK    8  A    between atoms: C28_31  and  C29_32 
REMARK    9  A    between atoms: C29_32  and  O5_34 
ROOT
HETATM    1  C1  UNL     1      -3.742  48.646 -26.815  1.00  0.00     0.025 C 
HETATM    2  C2  UNL     1      -3.396  49.423 -25.781  1.00  0.00     0.015 C 
HETATM    3  C3  UNL     1      -2.136  50.198 -25.814  1.00  0.00     0.289 C 
HETATM    4  O1  UNL     1      -1.197  50.026 -26.569  1.00  0.00    -0.260 OA
HETATM    5  O2  UNL     1      -2.210  51.143 -24.842  1.00  0.00    -0.311 OA
HETATM    6  C4  UNL     1      -3.526  51.146 -24.270  1.00  0.00     0.142 C 
HETATM    7  C5  UNL     1      -3.446  51.534 -22.805  1.00  0.00     0.039 C 
HETATM    8  C6  UNL     1      -2.597  50.531 -22.010  1.00  0.00     0.006 C 
HETATM    9  C7  UNL     1      -3.247  49.130 -22.063  1.00  0.00    -0.027 A 
HETATM   10  C8  UNL     1      -3.668  48.537 -20.712  1.00  0.00     0.011 C 
HETATM   11  C9  UNL     1      -2.702  48.745 -19.528  1.00  0.00     0.011 C 
HETATM   12  C10 UNL     1      -1.635  49.828 -19.747  1.00  0.00    -0.032 C 
HETATM   13  C11 UNL     1      -0.417  49.173 -20.464  1.00  0.00     0.016 C 
HETATM   14  C12 UNL     1      -1.124  50.572 -18.468  1.00  0.00    -0.002 C 
HETATM   15  C21 UNL     1      -0.614  51.925 -19.048  1.00  0.00     0.006 C 
HETATM   16  C22 UNL     1      -1.205  52.082 -20.459  1.00  0.00     0.011 C 
HETATM   17  C23 UNL     1      -2.296  51.001 -20.556  1.00  0.00    -0.032 C 
HETATM   18  C24 UNL     1      -3.571  51.611 -19.889  1.00  0.00     0.016 C 
HETATM   19  C25 UNL     1      -2.710  48.127 -23.068  1.00  0.00     0.022 A 
HETATM   20  C26 UNL     1      -4.048  48.766 -23.358  1.00  0.00    -0.021 A 
HETATM   21  C30 UNL     1      -4.141  49.773 -24.532  1.00  0.00     0.063 C 
ENDROOT
BRANCH  14  22
HETATM   22  C13 UNL     1      -0.074  49.896 -17.533  1.00  0.00    -0.014 C 
HETATM   23  C14 UNL     1      -0.743  49.115 -16.395  1.00  0.00     0.010 C 
BRANCH  22  24
HETATM   24  C15 UNL     1       0.892  50.965 -16.948  1.00  0.00     0.008 C 
BRANCH  24  25
HETATM   25  C16 UNL     1       0.649  51.284 -15.467  1.00  0.00     0.028 C 
BRANCH  25  26
HETATM   26  C17 UNL     1       1.721  50.682 -14.602  1.00  0.00    -0.017 C 
HETATM   27  C18 UNL     1       3.019  51.037 -14.548  1.00  0.00    -0.028 C 
HETATM   28  C19 UNL     1       3.703  52.081 -15.371  1.00  0.00     0.051 C 
BRANCH  27  29
HETATM   29  C20 UNL     1       3.902  50.307 -13.586  1.00  0.00     0.265 C 
HETATM   30  O3  UNL     1       4.844  49.598 -13.920  1.00  0.00    -0.302 OA
ENDBRANCH  27  29
ENDBRANCH  25  26
ENDBRANCH  24  25
ENDBRANCH  22  24
ENDBRANCH  14  22
BRANCH  20  31
HETATM   31  C27 UNL     1      -5.317  47.921 -23.169  1.00  0.00     0.021 C 
BRANCH  31  32
HETATM   32  C28 UNL     1      -6.381  48.565 -22.289  1.00  0.00     0.111 C 
BRANCH  32  33
HETATM   33  C29 UNL     1      -7.355  49.378 -23.099  1.00  0.00     0.139 C 
HETATM   34  O4  UNL     1      -8.229  48.968 -23.843  1.00  0.00    -0.650 OA
BRANCH  33  35
HETATM   35  O5  UNL     1      -7.171  50.701 -22.918  1.00  0.00    -0.776 OA
HETATM   36  H41 UNL     1      -7.848  51.117 -23.493  1.00  0.00     0.167 HD
ENDBRANCH  33  35
ENDBRANCH  32  33
ENDBRANCH  31  32
ENDBRANCH  20  31
TORSDOF 9
ENDMDL
