MODEL 1
REMARK minimizedAffinity -9.51197529
REMARK  8 active torsions:
REMARK  status: ('A' for Active; 'I' for Inactive)
REMARK    1  A    between atoms: C12_14  and  C13_15 
REMARK    2  A    between atoms: C13_15  and  C15_17 
REMARK    3  A    between atoms: C15_17  and  C16_18 
REMARK    4  A    between atoms: C16_18  and  C17_20 
REMARK    5  A    between atoms: C26_29  and  C27_30 
REMARK    6  A    between atoms: C27_30  and  C28_31 
REMARK    7  A    between atoms: C28_31  and  C29_32 
REMARK    8  A    between atoms: C29_32  and  O5_34 
ROOT
HETATM    1  C1  UNL     1      -2.977  50.826 -27.856  1.00  0.00     0.025 C 
HETATM    2  C2  UNL     1      -3.044  49.866 -26.926  1.00  0.00     0.015 C 
HETATM    3  C3  UNL     1      -4.035  48.772 -27.019  1.00  0.00     0.289 C 
HETATM    4  O1  UNL     1      -4.778  48.545 -27.956  1.00  0.00    -0.260 OA
HETATM    5  O2  UNL     1      -3.959  48.044 -25.875  1.00  0.00    -0.311 OA
HETATM    6  C4  UNL     1      -3.120  48.704 -24.907  1.00  0.00     0.142 C 
HETATM    7  C5  UNL     1      -4.021  49.331 -23.853  1.00  0.00     0.039 C 
HETATM    8  C6  UNL     1      -3.323  50.251 -22.838  1.00  0.00     0.006 C 
HETATM    9  C7  UNL     1      -2.292  51.207 -23.488  1.00  0.00    -0.027 A 
HETATM   10  C8  UNL     1      -1.503  52.078 -22.489  1.00  0.00     0.011 C 
HETATM   11  C9  UNL     1      -1.048  51.373 -21.201  1.00  0.00     0.011 C 
HETATM   12  C10 UNL     1      -2.208  50.611 -20.544  1.00  0.00    -0.032 C 
HETATM   13  C11 UNL     1      -3.296  51.641 -20.127  1.00  0.00     0.016 C 
HETATM   14  C12 UNL     1      -1.863  49.708 -19.317  1.00  0.00    -0.002 C 
HETATM   15  C21 UNL     1      -2.967  48.610 -19.359  1.00  0.00     0.006 C 
HETATM   16  C22 UNL     1      -3.665  48.715 -20.730  1.00  0.00     0.011 C 
HETATM   17  C23 UNL     1      -2.698  49.535 -21.600  1.00  0.00    -0.032 C 
HETATM   18  C24 UNL     1      -1.576  48.557 -22.072  1.00  0.00     0.016 C 
HETATM   19  C25 UNL     1      -2.770  52.003 -24.678  1.00  0.00     0.022 A 
HETATM   20  C26 UNL     1      -1.750  50.903 -24.921  1.00  0.00    -0.021 A 
HETATM   21  C30 UNL     1      -2.234  49.664 -25.688  1.00  0.00     0.063 C 
ENDROOT
BRANCH  14  22
HETATM   22  C13 UNL     1      -1.585  50.265 -17.887  1.00  0.00    -0.007 C 
HETATM   23  C14 UNL     1      -2.789  50.757 -17.072  1.00  0.00     0.011 C 
BRANCH  22  24
HETATM   24  C15 UNL     1      -0.480  51.339 -17.905  1.00  0.00     0.087 C 
BRANCH  24  25
HETATM   25  C16 UNL     1       0.389  51.340 -16.655  1.00  0.00     0.149 C 
HETATM   26  O3  UNL     1       0.120  50.677 -15.658  1.00  0.00    -0.293 OA
BRANCH  25  27
HETATM   27  C17 UNL     1       1.641  52.153 -16.738  1.00  0.00     0.052 C 
HETATM   28  C18 UNL     1       2.692  52.065 -15.901  1.00  0.00    -0.084 C 
HETATM   29  C19 UNL     1       3.918  52.910 -16.128  1.00  0.00     0.043 C 
HETATM   30  C20 UNL     1       2.772  51.170 -14.695  1.00  0.00     0.043 C 
ENDBRANCH  25  27
ENDBRANCH  24  25
ENDBRANCH  22  24
ENDBRANCH  14  22
BRANCH  20  31
HETATM   31  C27 UNL     1      -0.281  51.248 -25.227  1.00  0.00     0.021 C 
BRANCH  31  32
HETATM   32  C28 UNL     1      -0.062  52.235 -26.372  1.00  0.00     0.111 C 
BRANCH  32  33
HETATM   33  C29 UNL     1       0.316  53.596 -25.853  1.00  0.00     0.139 C 
HETATM   34  O4  UNL     1       0.061  54.677 -26.353  1.00  0.00    -0.650 OA
BRANCH  33  35
HETATM   35  O5  UNL     1       1.038  53.517 -24.718  1.00  0.00    -0.776 OA
HETATM   36  H41 UNL     1       1.232  54.451 -24.488  1.00  0.00     0.167 HD
ENDBRANCH  33  35
ENDBRANCH  32  33
ENDBRANCH  31  32
ENDBRANCH  20  31
TORSDOF 8
ENDMDL
MODEL 2
REMARK minimizedAffinity -9.38929558
REMARK  8 active torsions:
REMARK  status: ('A' for Active; 'I' for Inactive)
REMARK    1  A    between atoms: C12_14  and  C13_15 
REMARK    2  A    between atoms: C13_15  and  C15_17 
REMARK    3  A    between atoms: C15_17  and  C16_18 
REMARK    4  A    between atoms: C16_18  and  C17_20 
REMARK    5  A    between atoms: C26_29  and  C27_30 
REMARK    6  A    between atoms: C27_30  and  C28_31 
REMARK    7  A    between atoms: C28_31  and  C29_32 
REMARK    8  A    between atoms: C29_32  and  O5_34 
ROOT
HETATM    1  C1  UNL     1      -2.721  51.088 -28.141  1.00  0.00     0.025 C 
HETATM    2  C2  UNL     1      -2.910  50.039 -27.332  1.00  0.00     0.015 C 
HETATM    3  C3  UNL     1      -3.895  48.984 -27.656  1.00  0.00     0.289 C 
HETATM    4  O1  UNL     1      -4.523  48.873 -28.692  1.00  0.00    -0.260 OA
HETATM    5  O2  UNL     1      -3.965  48.140 -26.595  1.00  0.00    -0.311 OA
HETATM    6  C4  UNL     1      -3.240  48.676 -25.470  1.00  0.00     0.142 C 
HETATM    7  C5  UNL     1      -4.254  49.211 -24.469  1.00  0.00     0.039 C 
HETATM    8  C6  UNL     1      -3.672  50.004 -23.288  1.00  0.00     0.006 C 
HETATM    9  C7  UNL     1      -2.559  50.997 -23.707  1.00  0.00    -0.027 A 
HETATM   10  C8  UNL     1      -1.886  51.741 -22.535  1.00  0.00     0.011 C 
HETATM   11  C9  UNL     1      -1.597  50.896 -21.285  1.00  0.00     0.011 C 
HETATM   12  C10 UNL     1      -2.836  50.097 -20.853  1.00  0.00    -0.032 C 
HETATM   13  C11 UNL     1      -3.954  51.104 -20.461  1.00  0.00     0.016 C 
HETATM   14  C12 UNL     1      -2.651  49.064 -19.696  1.00  0.00    -0.002 C 
HETATM   15  C21 UNL     1      -3.754  48.004 -19.984  1.00  0.00     0.006 C 
HETATM   16  C22 UNL     1      -4.281  48.267 -21.409  1.00  0.00     0.011 C 
HETATM   17  C23 UNL     1      -3.208  49.149 -22.067  1.00  0.00    -0.032 C 
HETATM   18  C24 UNL     1      -2.048  48.198 -22.505  1.00  0.00     0.016 C 
HETATM   19  C25 UNL     1      -2.883  51.924 -24.854  1.00  0.00     0.022 A 
HETATM   20  C26 UNL     1      -1.853  50.831 -25.090  1.00  0.00    -0.021 A 
HETATM   21  C30 UNL     1      -2.256  49.690 -26.035  1.00  0.00     0.063 C 
ENDROOT
BRANCH  14  22
HETATM   22  C13 UNL     1      -2.539  49.463 -18.193  1.00  0.00    -0.007 C 
HETATM   23  C14 UNL     1      -2.736  50.944 -17.837  1.00  0.00     0.011 C 
BRANCH  22  24
HETATM   24  C15 UNL     1      -1.235  48.935 -17.564  1.00  0.00     0.087 C 
BRANCH  24  25
HETATM   25  C16 UNL     1      -0.208  50.024 -17.285  1.00  0.00     0.149 C 
HETATM   26  O3  UNL     1       0.481  50.044 -16.270  1.00  0.00    -0.293 OA
BRANCH  25  27
HETATM   27  C17 UNL     1      -0.036  51.042 -18.366  1.00  0.00     0.052 C 
HETATM   28  C18 UNL     1       0.693  52.171 -18.274  1.00  0.00    -0.084 C 
HETATM   29  C19 UNL     1       0.825  53.090 -19.459  1.00  0.00     0.043 C 
HETATM   30  C20 UNL     1       1.423  52.638 -17.044  1.00  0.00     0.043 C 
ENDBRANCH  25  27
ENDBRANCH  24  25
ENDBRANCH  22  24
ENDBRANCH  14  22
BRANCH  20  31
HETATM   31  C27 UNL     1      -0.355  51.171 -25.182  1.00  0.00     0.021 C 
BRANCH  31  32
HETATM   32  C28 UNL     1       0.081  51.882 -26.461  1.00  0.00     0.111 C 
BRANCH  32  33
HETATM   33  C29 UNL     1       0.130  53.373 -26.265  1.00  0.00     0.139 C 
HETATM   34  O4  UNL     1      -0.435  54.227 -26.927  1.00  0.00    -0.650 OA
BRANCH  33  35
HETATM   35  O5  UNL     1       0.930  53.718 -25.237  1.00  0.00    -0.776 OA
HETATM   36  H41 UNL     1       0.890  54.698 -25.216  1.00  0.00     0.167 HD
ENDBRANCH  33  35
ENDBRANCH  32  33
ENDBRANCH  31  32
ENDBRANCH  20  31
TORSDOF 8
ENDMDL
MODEL 3
REMARK minimizedAffinity -9.03459644
REMARK  8 active torsions:
REMARK  status: ('A' for Active; 'I' for Inactive)
REMARK    1  A    between atoms: C12_14  and  C13_15 
REMARK    2  A    between atoms: C13_15  and  C15_17 
REMARK    3  A    between atoms: C15_17  and  C16_18 
REMARK    4  A    between atoms: C16_18  and  C17_20 
REMARK    5  A    between atoms: C26_29  and  C27_30 
REMARK    6  A    between atoms: C27_30  and  C28_31 
REMARK    7  A    between atoms: C28_31  and  C29_32 
REMARK    8  A    between atoms: C29_32  and  O5_34 
ROOT
HETATM    1  C1  UNL     1      -3.165  50.627 -27.657  1.00  0.00     0.025 C 
HETATM    2  C2  UNL     1      -2.735  51.414 -26.663  1.00  0.00     0.015 C 
HETATM    3  C3  UNL     1      -1.751  52.491 -26.906  1.00  0.00     0.289 C 
HETATM    4  O1  UNL     1      -1.333  52.861 -27.987  1.00  0.00    -0.260 OA
HETATM    5  O2  UNL     1      -1.404  53.017 -25.702  1.00  0.00    -0.311 OA
HETATM    6  C4  UNL     1      -1.934  52.216 -24.627  1.00  0.00     0.142 C 
HETATM    7  C5  UNL     1      -0.789  51.405 -24.036  1.00  0.00     0.039 C 
HETATM    8  C6  UNL     1      -1.189  50.338 -23.004  1.00  0.00     0.006 C 
HETATM    9  C7  UNL     1      -2.440  49.524 -23.420  1.00  0.00    -0.027 A 
HETATM   10  C8  UNL     1      -2.927  48.510 -22.364  1.00  0.00     0.011 C 
HETATM   11  C9  UNL     1      -2.894  48.993 -20.906  1.00  0.00     0.011 C 
HETATM   12  C10 UNL     1      -1.533  49.614 -20.556  1.00  0.00    -0.032 C 
HETATM   13  C11 UNL     1      -0.445  48.510 -20.683  1.00  0.00     0.016 C 
HETATM   14  C12 UNL     1      -1.401  50.301 -19.160  1.00  0.00    -0.002 C 
HETATM   15  C21 UNL     1      -0.294  51.372 -19.391  1.00  0.00     0.006 C 
HETATM   16  C22 UNL     1      -0.082  51.489 -20.914  1.00  0.00     0.011 C 
HETATM   17  C23 UNL     1      -1.332  50.844 -21.535  1.00  0.00    -0.032 C 
HETATM   18  C24 UNL     1      -2.474  51.908 -21.456  1.00  0.00     0.016 C 
HETATM   19  C25 UNL     1      -2.425  48.932 -24.809  1.00  0.00     0.022 A 
HETATM   20  C26 UNL     1      -3.389  50.075 -24.531  1.00  0.00    -0.021 A 
HETATM   21  C30 UNL     1      -3.089  51.417 -25.212  1.00  0.00     0.063 C 
ENDROOT
BRANCH  14  22
HETATM   22  C13 UNL     1      -1.246  49.516 -17.822  1.00  0.00    -0.007 C 
HETATM   23  C14 UNL     1      -2.328  49.720 -16.751  1.00  0.00     0.011 C 
BRANCH  22  24
HETATM   24  C15 UNL     1       0.153  49.716 -17.208  1.00  0.00     0.087 C 
BRANCH  24  25
HETATM   25  C16 UNL     1       0.238  50.905 -16.261  1.00  0.00     0.149 C 
HETATM   26  O3  UNL     1      -0.541  51.069 -15.327  1.00  0.00    -0.293 OA
BRANCH  25  27
HETATM   27  C17 UNL     1       1.383  51.838 -16.496  1.00  0.00     0.052 C 
HETATM   28  C18 UNL     1       2.515  51.890 -15.768  1.00  0.00    -0.084 C 
HETATM   29  C19 UNL     1       3.617  52.846 -16.143  1.00  0.00     0.043 C 
HETATM   30  C20 UNL     1       2.807  51.056 -14.551  1.00  0.00     0.043 C 
ENDBRANCH  25  27
ENDBRANCH  24  25
ENDBRANCH  22  24
ENDBRANCH  14  22
BRANCH  20  31
HETATM   31  C27 UNL     1      -4.899  49.811 -24.388  1.00  0.00     0.021 C 
BRANCH  31  32
HETATM   32  C28 UNL     1      -5.627  50.690 -23.373  1.00  0.00     0.111 C 
BRANCH  32  33
HETATM   33  C29 UNL     1      -6.971  50.113 -23.018  1.00  0.00     0.139 C 
HETATM   34  O4  UNL     1      -7.440  49.958 -21.905  1.00  0.00    -0.650 OA
BRANCH  33  35
HETATM   35  O5  UNL     1      -7.655  49.727 -24.113  1.00  0.00    -0.776 OA
HETATM   36  H41 UNL     1      -8.495  49.363 -23.759  1.00  0.00     0.167 HD
ENDBRANCH  33  35
ENDBRANCH  32  33
ENDBRANCH  31  32
ENDBRANCH  20  31
TORSDOF 8
ENDMDL
MODEL 4
REMARK minimizedAffinity -8.93538475
REMARK  8 active torsions:
REMARK  status: ('A' for Active; 'I' for Inactive)
REMARK    1  A    between atoms: C12_14  and  C13_15 
REMARK    2  A    between atoms: C13_15  and  C15_17 
REMARK    3  A    between atoms: C15_17  and  C16_18 
REMARK    4  A    between atoms: C16_18  and  C17_20 
REMARK    5  A    between atoms: C26_29  and  C27_30 
REMARK    6  A    between atoms: C27_30  and  C28_31 
REMARK    7  A    between atoms: C28_31  and  C29_32 
REMARK    8  A    between atoms: C29_32  and  O5_34 
ROOT
HETATM    1  C1  UNL     1      -3.135  51.038 -26.589  1.00  0.00     0.025 C 
HETATM    2  C2  UNL     1      -3.017  50.075 -25.667  1.00  0.00     0.015 C 
HETATM    3  C3  UNL     1      -3.977  48.952 -25.600  1.00  0.00     0.289 C 
HETATM    4  O1  UNL     1      -4.860  48.705 -26.399  1.00  0.00    -0.260 OA
HETATM    5  O2  UNL     1      -3.689  48.224 -24.490  1.00  0.00    -0.311 OA
HETATM    6  C4  UNL     1      -2.718  48.907 -23.672  1.00  0.00     0.142 C 
HETATM    7  C5  UNL     1      -3.447  49.505 -22.477  1.00  0.00     0.039 C 
HETATM    8  C6  UNL     1      -2.615  50.443 -21.588  1.00  0.00     0.006 C 
HETATM    9  C7  UNL     1      -1.735  51.430 -22.396  1.00  0.00    -0.027 A 
HETATM   10  C8  UNL     1      -0.815  52.322 -21.537  1.00  0.00     0.011 C 
HETATM   11  C9  UNL     1      -0.130  51.629 -20.349  1.00  0.00     0.011 C 
HETATM   12  C10 UNL     1      -1.140  50.831 -19.511  1.00  0.00    -0.032 C 
HETATM   13  C11 UNL     1      -2.172  51.827 -18.910  1.00  0.00     0.016 C 
HETATM   14  C12 UNL     1      -0.568  49.936 -18.366  1.00  0.00    -0.002 C 
HETATM   15  C21 UNL     1      -1.631  48.806 -18.229  1.00  0.00     0.006 C 
HETATM   16  C22 UNL     1      -2.552  48.893 -19.463  1.00  0.00     0.011 C 
HETATM   17  C23 UNL     1      -1.770  49.743 -20.477  1.00  0.00    -0.032 C 
HETATM   18  C24 UNL     1      -0.715  48.799 -21.139  1.00  0.00     0.016 C 
HETATM   19  C25 UNL     1      -2.430  52.214 -23.483  1.00  0.00     0.022 A 
HETATM   20  C26 UNL     1      -1.434  51.145 -23.901  1.00  0.00    -0.021 A 
HETATM   21  C30 UNL     1      -2.005  49.894 -24.584  1.00  0.00     0.063 C 
ENDROOT
BRANCH  14  22
HETATM   22  C13 UNL     1      -0.069  50.498 -17.000  1.00  0.00    -0.007 C 
HETATM   23  C14 UNL     1       1.041  51.559 -17.034  1.00  0.00     0.011 C 
BRANCH  22  24
HETATM   24  C15 UNL     1       0.310  49.364 -16.027  1.00  0.00     0.087 C 
BRANCH  24  25
HETATM   25  C16 UNL     1       0.683  49.855 -14.635  1.00  0.00     0.149 C 
HETATM   26  O3  UNL     1      -0.092  50.486 -13.923  1.00  0.00    -0.293 OA
BRANCH  25  27
HETATM   27  C17 UNL     1       2.041  49.458 -14.152  1.00  0.00     0.052 C 
HETATM   28  C18 UNL     1       3.058  50.300 -13.888  1.00  0.00    -0.084 C 
HETATM   29  C19 UNL     1       4.365  49.772 -13.356  1.00  0.00     0.043 C 
HETATM   30  C20 UNL     1       3.027  51.792 -14.085  1.00  0.00     0.043 C 
ENDBRANCH  25  27
ENDBRANCH  24  25
ENDBRANCH  22  24
ENDBRANCH  14  22
BRANCH  20  31
HETATM   31  C27 UNL     1      -0.048  51.534 -24.447  1.00  0.00     0.021 C 
BRANCH  31  32
HETATM   32  C28 UNL     1      -0.010  51.936 -25.920  1.00  0.00     0.111 C 
BRANCH  32  33
HETATM   33  C29 UNL     1      -0.071  53.431 -26.078  1.00  0.00     0.139 C 
HETATM   34  O4  UNL     1       0.530  54.270 -25.430  1.00  0.00    -0.650 OA
BRANCH  33  35
HETATM   35  O5  UNL     1      -0.929  53.799 -27.050  1.00  0.00    -0.776 OA
HETATM   36  H41 UNL     1      -0.891  54.779 -27.050  1.00  0.00     0.167 HD
ENDBRANCH  33  35
ENDBRANCH  32  33
ENDBRANCH  31  32
ENDBRANCH  20  31
TORSDOF 8
ENDMDL
MODEL 5
REMARK minimizedAffinity -8.92173862
REMARK  8 active torsions:
REMARK  status: ('A' for Active; 'I' for Inactive)
REMARK    1  A    between atoms: C12_14  and  C13_15 
REMARK    2  A    between atoms: C13_15  and  C15_17 
REMARK    3  A    between atoms: C15_17  and  C16_18 
REMARK    4  A    between atoms: C16_18  and  C17_20 
REMARK    5  A    between atoms: C26_29  and  C27_30 
REMARK    6  A    between atoms: C27_30  and  C28_31 
REMARK    7  A    between atoms: C28_31  and  C29_32 
REMARK    8  A    between atoms: C29_32  and  O5_34 
ROOT
HETATM    1  C1  UNL     1      -4.782  48.087 -26.533  1.00  0.00     0.025 C 
HETATM    2  C2  UNL     1      -4.183  49.266 -26.328  1.00  0.00     0.015 C 
HETATM    3  C3  UNL     1      -3.460  49.962 -27.415  1.00  0.00     0.289 C 
HETATM    4  O1  UNL     1      -3.431  49.639 -28.588  1.00  0.00    -0.260 OA
HETATM    5  O2  UNL     1      -2.845  51.047 -26.878  1.00  0.00    -0.311 OA
HETATM    6  C4  UNL     1      -2.927  51.017 -25.439  1.00  0.00     0.142 C 
HETATM    7  C5  UNL     1      -1.565  50.605 -24.899  1.00  0.00     0.039 C 
HETATM    8  C6  UNL     1      -1.503  50.323 -23.389  1.00  0.00     0.006 C 
HETATM    9  C7  UNL     1      -2.705  49.494 -22.872  1.00  0.00    -0.027 A 
HETATM   10  C8  UNL     1      -2.726  49.274 -21.345  1.00  0.00     0.011 C 
HETATM   11  C9  UNL     1      -2.327  50.486 -20.489  1.00  0.00     0.011 C 
HETATM   12  C10 UNL     1      -1.014  51.111 -20.985  1.00  0.00    -0.032 C 
HETATM   13  C11 UNL     1       0.120  50.060 -20.824  1.00  0.00     0.016 C 
HETATM   14  C12 UNL     1      -0.567  52.451 -20.320  1.00  0.00    -0.002 C 
HETATM   15  C21 UNL     1       0.277  53.139 -21.433  1.00  0.00     0.006 C 
HETATM   16  C22 UNL     1       0.014  52.374 -22.746  1.00  0.00     0.011 C 
HETATM   17  C23 UNL     1      -1.270  51.571 -22.481  1.00  0.00    -0.032 C 
HETATM   18  C24 UNL     1      -2.465  52.565 -22.641  1.00  0.00     0.016 C 
HETATM   19  C25 UNL     1      -3.025  48.229 -23.631  1.00  0.00     0.022 A 
HETATM   20  C26 UNL     1      -4.002  49.389 -23.735  1.00  0.00    -0.021 A 
HETATM   21  C30 UNL     1      -4.091  50.100 -25.093  1.00  0.00     0.063 C 
ENDROOT
BRANCH  14  22
HETATM   22  C13 UNL     1       0.075  52.538 -18.901  1.00  0.00    -0.007 C 
HETATM   23  C14 UNL     1       1.550  52.958 -18.816  1.00  0.00     0.011 C 
BRANCH  22  24
HETATM   24  C15 UNL     1      -0.156  51.244 -18.097  1.00  0.00     0.087 C 
BRANCH  24  25
HETATM   25  C16 UNL     1       0.309  51.335 -16.650  1.00  0.00     0.149 C 
HETATM   26  O3  UNL     1      -0.408  51.031 -15.701  1.00  0.00    -0.293 OA
BRANCH  25  27
HETATM   27  C17 UNL     1       1.729  51.756 -16.452  1.00  0.00     0.052 C 
HETATM   28  C18 UNL     1       2.433  51.637 -15.310  1.00  0.00    -0.084 C 
HETATM   29  C19 UNL     1       3.878  52.057 -15.259  1.00  0.00     0.043 C 
HETATM   30  C20 UNL     1       1.895  51.108 -14.008  1.00  0.00     0.043 C 
ENDBRANCH  25  27
ENDBRANCH  24  25
ENDBRANCH  22  24
ENDBRANCH  14  22
BRANCH  20  31
HETATM   31  C27 UNL     1      -5.356  49.343 -23.004  1.00  0.00     0.021 C 
BRANCH  31  32
HETATM   32  C28 UNL     1      -6.501  50.084 -23.692  1.00  0.00     0.111 C 
BRANCH  32  33
HETATM   33  C29 UNL     1      -7.624  49.146 -24.042  1.00  0.00     0.139 C 
HETATM   34  O4  UNL     1      -7.780  48.000 -23.657  1.00  0.00    -0.650 OA
BRANCH  33  35
HETATM   35  O5  UNL     1      -8.496  49.707 -24.902  1.00  0.00    -0.776 OA
HETATM   36  H41 UNL     1      -9.165  49.007 -25.061  1.00  0.00     0.167 HD
ENDBRANCH  33  35
ENDBRANCH  32  33
ENDBRANCH  31  32
ENDBRANCH  20  31
TORSDOF 8
ENDMDL
MODEL 6
REMARK minimizedAffinity -8.88913059
REMARK  8 active torsions:
REMARK  status: ('A' for Active; 'I' for Inactive)
REMARK    1  A    between atoms: C12_14  and  C13_15 
REMARK    2  A    between atoms: C13_15  and  C15_17 
REMARK    3  A    between atoms: C15_17  and  C16_18 
REMARK    4  A    between atoms: C16_18  and  C17_20 
REMARK    5  A    between atoms: C26_29  and  C27_30 
REMARK    6  A    between atoms: C27_30  and  C28_31 
REMARK    7  A    between atoms: C28_31  and  C29_32 
REMARK    8  A    between atoms: C29_32  and  O5_34 
ROOT
HETATM    1  C1  UNL     1      -2.947  51.062 -28.181  1.00  0.00     0.025 C 
HETATM    2  C2  UNL     1      -3.032  50.017 -27.349  1.00  0.00     0.015 C 
HETATM    3  C3  UNL     1      -3.923  48.873 -27.640  1.00  0.00     0.289 C 
HETATM    4  O1  UNL     1      -4.551  48.686 -28.665  1.00  0.00    -0.260 OA
HETATM    5  O2  UNL     1      -3.904  48.047 -26.562  1.00  0.00    -0.311 OA
HETATM    6  C4  UNL     1      -3.215  48.667 -25.458  1.00  0.00     0.142 C 
HETATM    7  C5  UNL     1      -4.260  49.131 -24.453  1.00  0.00     0.039 C 
HETATM    8  C6  UNL     1      -3.736  49.996 -23.295  1.00  0.00     0.006 C 
HETATM    9  C7  UNL     1      -2.721  51.075 -23.749  1.00  0.00    -0.027 A 
HETATM   10  C8  UNL     1      -2.102  51.898 -22.601  1.00  0.00     0.011 C 
HETATM   11  C9  UNL     1      -1.722  51.108 -21.339  1.00  0.00     0.011 C 
HETATM   12  C10 UNL     1      -2.880  50.211 -20.875  1.00  0.00    -0.032 C 
HETATM   13  C11 UNL     1      -4.078  51.123 -20.485  1.00  0.00     0.016 C 
HETATM   14  C12 UNL     1      -2.589  49.222 -19.701  1.00  0.00    -0.002 C 
HETATM   15  C21 UNL     1      -3.597  48.062 -19.953  1.00  0.00     0.006 C 
HETATM   16  C22 UNL     1      -4.164  48.249 -21.375  1.00  0.00     0.011 C 
HETATM   17  C23 UNL     1      -3.182  49.210 -22.065  1.00  0.00    -0.032 C 
HETATM   18  C24 UNL     1      -1.948  48.357 -22.502  1.00  0.00     0.016 C 
HETATM   19  C25 UNL     1      -3.141  51.946 -24.908  1.00  0.00     0.022 A 
HETATM   20  C26 UNL     1      -2.021  50.944 -25.139  1.00  0.00    -0.021 A 
HETATM   21  C30 UNL     1      -2.333  49.754 -26.056  1.00  0.00     0.063 C 
ENDROOT
BRANCH  14  22
HETATM   22  C13 UNL     1      -2.494  49.659 -18.208  1.00  0.00    -0.007 C 
HETATM   23  C14 UNL     1      -3.760  49.523 -17.349  1.00  0.00     0.011 C 
BRANCH  22  24
HETATM   24  C15 UNL     1      -1.908  51.077 -18.070  1.00  0.00     0.087 C 
BRANCH  24  25
HETATM   25  C16 UNL     1      -0.407  51.094 -17.813  1.00  0.00     0.149 C 
HETATM   26  O3  UNL     1       0.300  52.064 -18.067  1.00  0.00    -0.293 OA
BRANCH  25  27
HETATM   27  C17 UNL     1       0.151  49.870 -17.161  1.00  0.00     0.052 C 
HETATM   28  C18 UNL     1       0.232  49.655 -15.834  1.00  0.00    -0.084 C 
HETATM   29  C19 UNL     1       0.772  48.352 -15.306  1.00  0.00     0.043 C 
HETATM   30  C20 UNL     1      -0.174  50.634 -14.767  1.00  0.00     0.043 C 
ENDBRANCH  25  27
ENDBRANCH  24  25
ENDBRANCH  22  24
ENDBRANCH  14  22
BRANCH  20  31
HETATM   31  C27 UNL     1      -0.560  51.414 -25.259  1.00  0.00     0.021 C 
BRANCH  31  32
HETATM   32  C28 UNL     1      -0.331  52.629 -26.155  1.00  0.00     0.111 C 
BRANCH  32  33
HETATM   33  C29 UNL     1       0.355  53.738 -25.404  1.00  0.00     0.139 C 
HETATM   34  O4  UNL     1       1.028  53.642 -24.392  1.00  0.00    -0.650 OA
BRANCH  33  35
HETATM   35  O5  UNL     1       0.128  54.940 -25.967  1.00  0.00    -0.776 OA
HETATM   36  H41 UNL     1       0.609  55.573 -25.391  1.00  0.00     0.167 HD
ENDBRANCH  33  35
ENDBRANCH  32  33
ENDBRANCH  31  32
ENDBRANCH  20  31
TORSDOF 8
ENDMDL
MODEL 7
REMARK minimizedAffinity -8.88711071
REMARK  8 active torsions:
REMARK  status: ('A' for Active; 'I' for Inactive)
REMARK    1  A    between atoms: C12_14  and  C13_15 
REMARK    2  A    between atoms: C13_15  and  C15_17 
REMARK    3  A    between atoms: C15_17  and  C16_18 
REMARK    4  A    between atoms: C16_18  and  C17_20 
REMARK    5  A    between atoms: C26_29  and  C27_30 
REMARK    6  A    between atoms: C27_30  and  C28_31 
REMARK    7  A    between atoms: C28_31  and  C29_32 
REMARK    8  A    between atoms: C29_32  and  O5_34 
ROOT
HETATM    1  C1  UNL     1      -6.023  46.402 -21.586  1.00  0.00     0.025 C 
HETATM    2  C2  UNL     1      -6.209  47.290 -22.570  1.00  0.00     0.015 C 
HETATM    3  C3  UNL     1      -7.152  47.023 -23.679  1.00  0.00     0.289 C 
HETATM    4  O1  UNL     1      -7.922  46.086 -23.765  1.00  0.00    -0.260 OA
HETATM    5  O2  UNL     1      -7.022  48.026 -24.585  1.00  0.00    -0.311 OA
HETATM    6  C4  UNL     1      -5.888  48.857 -24.266  1.00  0.00     0.142 C 
HETATM    7  C5  UNL     1      -4.765  48.514 -25.235  1.00  0.00     0.039 C 
HETATM    8  C6  UNL     1      -3.401  49.153 -24.931  1.00  0.00     0.006 C 
HETATM    9  C7  UNL     1      -3.024  49.104 -23.430  1.00  0.00    -0.027 A 
HETATM   10  C8  UNL     1      -1.705  49.822 -23.074  1.00  0.00     0.011 C 
HETATM   11  C9  UNL     1      -1.460  51.162 -23.786  1.00  0.00     0.011 C 
HETATM   12  C10 UNL     1      -1.683  51.037 -25.301  1.00  0.00    -0.032 C 
HETATM   13  C11 UNL     1      -0.639  50.034 -25.868  1.00  0.00     0.016 C 
HETATM   14  C12 UNL     1      -1.634  52.354 -26.139  1.00  0.00    -0.002 C 
HETATM   15  C21 UNL     1      -2.550  52.037 -27.358  1.00  0.00     0.006 C 
HETATM   16  C22 UNL     1      -3.325  50.747 -27.024  1.00  0.00     0.011 C 
HETATM   17  C23 UNL     1      -3.191  50.592 -25.500  1.00  0.00    -0.032 C 
HETATM   18  C24 UNL     1      -4.228  51.566 -24.855  1.00  0.00     0.016 C 
HETATM   19  C25 UNL     1      -3.137  47.760 -22.752  1.00  0.00     0.022 A 
HETATM   20  C26 UNL     1      -4.132  48.842 -22.361  1.00  0.00    -0.021 A 
HETATM   21  C30 UNL     1      -5.590  48.631 -22.791  1.00  0.00     0.063 C 
ENDROOT
BRANCH  14  22
HETATM   22  C13 UNL     1      -0.310  53.085 -26.521  1.00  0.00    -0.007 C 
HETATM   23  C14 UNL     1       0.199  52.921 -27.961  1.00  0.00     0.011 C 
BRANCH  22  24
HETATM   24  C15 UNL     1       0.818  52.770 -25.520  1.00  0.00     0.087 C 
BRANCH  24  25
HETATM   25  C16 UNL     1       0.815  53.672 -24.294  1.00  0.00     0.149 C 
HETATM   26  O3  UNL     1       1.033  54.878 -24.355  1.00  0.00    -0.293 OA
BRANCH  25  27
HETATM   27  C17 UNL     1       0.456  53.008 -23.003  1.00  0.00     0.052 C 
HETATM   28  C18 UNL     1       0.898  53.371 -21.783  1.00  0.00    -0.084 C 
HETATM   29  C19 UNL     1       0.419  52.645 -20.554  1.00  0.00     0.043 C 
HETATM   30  C20 UNL     1       1.878  54.478 -21.506  1.00  0.00     0.043 C 
ENDBRANCH  25  27
ENDBRANCH  24  25
ENDBRANCH  22  24
ENDBRANCH  14  22
BRANCH  20  31
HETATM   31  C27 UNL     1      -4.014  49.563 -21.006  1.00  0.00     0.021 C 
BRANCH  31  32
HETATM   32  C28 UNL     1      -3.332  48.768 -19.895  1.00  0.00     0.111 C 
BRANCH  32  33
HETATM   33  C29 UNL     1      -2.115  49.488 -19.380  1.00  0.00     0.139 C 
HETATM   34  O4  UNL     1      -0.967  49.079 -19.353  1.00  0.00    -0.650 OA
BRANCH  33  35
HETATM   35  O5  UNL     1      -2.422  50.704 -18.888  1.00  0.00    -0.776 OA
HETATM   36  H41 UNL     1      -1.564  51.065 -18.577  1.00  0.00     0.167 HD
ENDBRANCH  33  35
ENDBRANCH  32  33
ENDBRANCH  31  32
ENDBRANCH  20  31
TORSDOF 8
ENDMDL
MODEL 8
REMARK minimizedAffinity -8.83094215
REMARK  8 active torsions:
REMARK  status: ('A' for Active; 'I' for Inactive)
REMARK    1  A    between atoms: C12_14  and  C13_15 
REMARK    2  A    between atoms: C13_15  and  C15_17 
REMARK    3  A    between atoms: C15_17  and  C16_18 
REMARK    4  A    between atoms: C16_18  and  C17_20 
REMARK    5  A    between atoms: C26_29  and  C27_30 
REMARK    6  A    between atoms: C27_30  and  C28_31 
REMARK    7  A    between atoms: C28_31  and  C29_32 
REMARK    8  A    between atoms: C29_32  and  O5_34 
ROOT
HETATM    1  C1  UNL     1      -6.057  47.230 -18.282  1.00  0.00     0.025 C 
HETATM    2  C2  UNL     1      -6.170  48.383 -18.951  1.00  0.00     0.015 C 
HETATM    3  C3  UNL     1      -7.492  48.987 -19.226  1.00  0.00     0.289 C 
HETATM    4  O1  UNL     1      -8.565  48.608 -18.795  1.00  0.00    -0.260 OA
HETATM    5  O2  UNL     1      -7.298  50.061 -20.034  1.00  0.00    -0.311 OA
HETATM    6  C4  UNL     1      -5.937  50.103 -20.506  1.00  0.00     0.142 C 
HETATM    7  C5  UNL     1      -5.928  49.643 -21.957  1.00  0.00     0.039 C 
HETATM    8  C6  UNL     1      -4.540  49.428 -22.582  1.00  0.00     0.006 C 
HETATM    9  C7  UNL     1      -3.554  48.691 -21.642  1.00  0.00    -0.027 A 
HETATM   10  C8  UNL     1      -2.123  48.544 -22.199  1.00  0.00     0.011 C 
HETATM   11  C9  UNL     1      -1.561  49.771 -22.934  1.00  0.00     0.011 C 
HETATM   12  C10 UNL     1      -2.557  50.301 -23.977  1.00  0.00    -0.032 C 
HETATM   13  C11 UNL     1      -2.771  49.198 -25.052  1.00  0.00     0.016 C 
HETATM   14  C12 UNL     1      -2.198  51.644 -24.688  1.00  0.00    -0.002 C 
HETATM   15  C21 UNL     1      -3.590  52.233 -25.064  1.00  0.00     0.006 C 
HETATM   16  C22 UNL     1      -4.652  51.422 -24.295  1.00  0.00     0.011 C 
HETATM   17  C23 UNL     1      -3.870  50.703 -23.184  1.00  0.00    -0.032 C 
HETATM   18  C24 UNL     1      -3.628  51.752 -22.052  1.00  0.00     0.016 C 
HETATM   19  C25 UNL     1      -4.053  47.411 -21.016  1.00  0.00     0.022 A 
HETATM   20  C26 UNL     1      -3.853  48.616 -20.111  1.00  0.00    -0.021 A 
HETATM   21  C30 UNL     1      -5.118  49.267 -19.534  1.00  0.00     0.063 C 
ENDROOT
BRANCH  14  22
HETATM   22  C13 UNL     1      -1.138  51.762 -25.824  1.00  0.00    -0.007 C 
HETATM   23  C14 UNL     1      -1.246  50.778 -26.999  1.00  0.00     0.011 C 
BRANCH  22  24
HETATM   24  C15 UNL     1       0.297  51.760 -25.262  1.00  0.00     0.087 C 
BRANCH  24  25
HETATM   25  C16 UNL     1       0.558  52.873 -24.256  1.00  0.00     0.149 C 
HETATM   26  O3  UNL     1       0.840  54.020 -24.591  1.00  0.00    -0.293 OA
BRANCH  25  27
HETATM   27  C17 UNL     1       0.380  52.501 -22.819  1.00  0.00     0.052 C 
HETATM   28  C18 UNL     1       0.827  53.207 -21.763  1.00  0.00    -0.084 C 
HETATM   29  C19 UNL     1       0.536  52.744 -20.360  1.00  0.00     0.043 C 
HETATM   30  C20 UNL     1       1.638  54.472 -21.842  1.00  0.00     0.043 C 
ENDBRANCH  25  27
ENDBRANCH  24  25
ENDBRANCH  22  24
ENDBRANCH  14  22
BRANCH  20  31
HETATM   31  C27 UNL     1      -2.662  48.678 -19.139  1.00  0.00     0.021 C 
BRANCH  31  32
HETATM   32  C28 UNL     1      -1.884  49.993 -19.133  1.00  0.00     0.111 C 
BRANCH  32  33
HETATM   33  C29 UNL     1      -1.990  50.682 -17.799  1.00  0.00     0.139 C 
HETATM   34  O4  UNL     1      -2.976  51.206 -17.312  1.00  0.00    -0.650 OA
BRANCH  33  35
HETATM   35  O5  UNL     1      -0.810  50.698 -17.149  1.00  0.00    -0.776 OA
HETATM   36  H41 UNL     1      -1.000  51.175 -16.313  1.00  0.00     0.167 HD
ENDBRANCH  33  35
ENDBRANCH  32  33
ENDBRANCH  31  32
ENDBRANCH  20  31
TORSDOF 8
ENDMDL
MODEL 9
REMARK minimizedAffinity -8.82891083
REMARK  8 active torsions:
REMARK  status: ('A' for Active; 'I' for Inactive)
REMARK    1  A    between atoms: C12_14  and  C13_15 
REMARK    2  A    between atoms: C13_15  and  C15_17 
REMARK    3  A    between atoms: C15_17  and  C16_18 
REMARK    4  A    between atoms: C16_18  and  C17_20 
REMARK    5  A    between atoms: C26_29  and  C27_30 
REMARK    6  A    between atoms: C27_30  and  C28_31 
REMARK    7  A    between atoms: C28_31  and  C29_32 
REMARK    8  A    between atoms: C29_32  and  O5_34 
ROOT
HETATM    1  C1  UNL     1       0.285  53.724 -25.515  1.00  0.00     0.025 C 
HETATM    2  C2  UNL     1      -0.227  52.524 -25.812  1.00  0.00     0.015 C 
HETATM    3  C3  UNL     1      -0.381  52.079 -27.214  1.00  0.00     0.289 C 
HETATM    4  O1  UNL     1       0.031  52.652 -28.206  1.00  0.00    -0.260 OA
HETATM    5  O2  UNL     1      -1.050  50.897 -27.205  1.00  0.00    -0.311 OA
HETATM    6  C4  UNL     1      -1.555  50.610 -25.885  1.00  0.00     0.142 C 
HETATM    7  C5  UNL     1      -3.052  50.882 -25.885  1.00  0.00     0.039 C 
HETATM    8  C6  UNL     1      -3.742  50.825 -24.513  1.00  0.00     0.006 C 
HETATM    9  C7  UNL     1      -2.936  51.529 -23.393  1.00  0.00    -0.027 A 
HETATM   10  C8  UNL     1      -3.551  51.408 -21.984  1.00  0.00     0.011 C 
HETATM   11  C9  UNL     1      -4.139  50.034 -21.626  1.00  0.00     0.011 C 
HETATM   12  C10 UNL     1      -5.073  49.522 -22.732  1.00  0.00    -0.032 C 
HETATM   13  C11 UNL     1      -6.275  50.503 -22.849  1.00  0.00     0.016 C 
HETATM   14  C12 UNL     1      -5.617  48.065 -22.589  1.00  0.00    -0.002 C 
HETATM   15  C21 UNL     1      -5.871  47.632 -24.064  1.00  0.00     0.006 C 
HETATM   16  C22 UNL     1      -5.181  48.670 -24.971  1.00  0.00     0.011 C 
HETATM   17  C23 UNL     1      -4.196  49.405 -24.047  1.00  0.00    -0.032 C 
HETATM   18  C24 UNL     1      -2.946  48.481 -23.893  1.00  0.00     0.016 C 
HETATM   19  C25 UNL     1      -2.464  52.933 -23.686  1.00  0.00     0.022 A 
HETATM   20  C26 UNL     1      -1.418  51.832 -23.605  1.00  0.00    -0.021 A 
HETATM   21  C30 UNL     1      -0.724  51.438 -24.916  1.00  0.00     0.063 C 
ENDROOT
BRANCH  14  22
HETATM   22  C13 UNL     1      -6.761  47.663 -21.610  1.00  0.00    -0.007 C 
HETATM   23  C14 UNL     1      -8.147  48.281 -21.848  1.00  0.00     0.011 C 
BRANCH  22  24
HETATM   24  C15 UNL     1      -6.340  47.854 -20.140  1.00  0.00     0.087 C 
BRANCH  24  25
HETATM   25  C16 UNL     1      -7.166  48.898 -19.401  1.00  0.00     0.149 C 
HETATM   26  O3  UNL     1      -7.318  50.043 -19.816  1.00  0.00    -0.293 OA
BRANCH  25  27
HETATM   27  C17 UNL     1      -7.849  48.421 -18.159  1.00  0.00     0.052 C 
HETATM   28  C18 UNL     1      -9.165  48.163 -18.035  1.00  0.00    -0.084 C 
HETATM   29  C19 UNL     1      -9.719  47.637 -16.737  1.00  0.00     0.043 C 
HETATM   30  C20 UNL     1     -10.196  48.363 -19.113  1.00  0.00     0.043 C 
ENDBRANCH  25  27
ENDBRANCH  24  25
ENDBRANCH  22  24
ENDBRANCH  14  22
BRANCH  20  31
HETATM   31  C27 UNL     1      -0.483  51.727 -22.387  1.00  0.00     0.021 C 
BRANCH  31  32
HETATM   32  C28 UNL     1       0.635  52.765 -22.325  1.00  0.00     0.111 C 
BRANCH  32  33
HETATM   33  C29 UNL     1       0.673  53.445 -20.984  1.00  0.00     0.139 C 
HETATM   34  O4  UNL     1       1.341  54.412 -20.661  1.00  0.00    -0.650 OA
BRANCH  33  35
HETATM   35  O5  UNL     1      -0.133  52.839 -20.091  1.00  0.00    -0.776 OA
HETATM   36  H41 UNL     1      -0.017  53.357 -19.267  1.00  0.00     0.167 HD
ENDBRANCH  33  35
ENDBRANCH  32  33
ENDBRANCH  31  32
ENDBRANCH  20  31
TORSDOF 8
ENDMDL
