MODEL 1
REMARK minimizedAffinity -7.1461606
REMARK CNNscore 0.543464005
REMARK CNNaffinity 5.57937193
REMARK  4 active torsions:
REMARK  status: ('A' for Active; 'I' for Inactive)
REMARK    1  A    between atoms: C4_4  and  C5_5 
REMARK    2  A    between atoms: C5_5  and  C6_6 
REMARK    3  A    between atoms: C6_6  and  C7_7 
REMARK    4  A    between atoms: C7_7  and  C9_9 
ROOT
HETATM    1  C9  UNL     1      -3.839  -9.814   4.094  1.00  0.00    -0.002 C 
HETATM    2  C10 UNL     1      -2.475 -10.030   4.754  1.00  0.00     0.007 C 
HETATM    3  C11 UNL     1      -2.799  -9.997   6.233  1.00  0.00     0.015 C 
HETATM    4  C12 UNL     1      -4.049 -10.900   6.387  1.00  0.00    -0.013 C 
HETATM    5  C13 UNL     1      -3.549 -12.358   6.571  1.00  0.00     0.021 C 
HETATM    6  C14 UNL     1      -4.852 -10.563   7.664  1.00  0.00    -0.070 C 
HETATM    7  C15 UNL     1      -4.232 -10.180   8.800  1.00  0.00    -0.022 C 
HETATM    8  C16 UNL     1      -4.899  -9.954  10.122  1.00  0.00     0.034 C 
HETATM    9  C17 UNL     1      -6.342 -10.490  10.181  1.00  0.00     0.013 C 
HETATM   10  C18 UNL     1      -7.062 -10.171  11.541  1.00  0.00     0.018 C 
HETATM   11  C19 UNL     1      -6.749  -8.782  12.130  1.00  0.00     0.023 C 
HETATM   12  C20 UNL     1      -6.645 -11.218  12.598  1.00  0.00     0.023 C 
HETATM   13  C21 UNL     1      -8.574 -10.316  11.364  1.00  0.00     0.135 C 
HETATM   14  O1  UNL     1      -9.388  -9.775  12.111  1.00  0.00    -0.297 OA
HETATM   15  C22 UNL     1      -9.031 -11.231  10.260  1.00  0.00     0.080 C 
HETATM   16  C23 UNL     1      -8.591 -10.682   8.915  1.00  0.00     0.017 C 
HETATM   17  C24 UNL     1      -7.132 -10.117   8.873  1.00  0.00    -0.031 C 
HETATM   18  C25 UNL     1      -7.220  -8.577   8.699  1.00  0.00     0.016 C 
HETATM   19  C26 UNL     1      -6.364 -10.780   7.647  1.00  0.00     0.024 C 
HETATM   20  C27 UNL     1      -7.029 -10.455   6.289  1.00  0.00     0.010 C 
HETATM   21  C28 UNL     1      -6.090  -9.798   5.288  1.00  0.00     0.011 C 
HETATM   22  C29 UNL     1      -4.830 -10.655   5.010  1.00  0.00    -0.029 C 
HETATM   23  C30 UNL     1      -5.254 -11.984   4.340  1.00  0.00     0.016 C 
ENDROOT
BRANCH   1  24
HETATM   24  C7  UNL     1      -3.827 -10.058   2.548  1.00  0.00    -0.014 C 
HETATM   25  C8  UNL     1      -2.666 -10.972   2.139  1.00  0.00     0.010 C 
BRANCH  24  26
HETATM   26  C6  UNL     1      -5.183 -10.643   2.057  1.00  0.00     0.008 C 
BRANCH  26  27
HETATM   27  C5  UNL     1      -5.662 -10.170   0.673  1.00  0.00     0.028 C 
BRANCH  27  28
HETATM   28  C4  UNL     1      -4.992 -10.880  -0.473  1.00  0.00    -0.025 C 
HETATM   29  C2  UNL     1      -5.167 -10.682  -1.795  1.00  0.00    -0.091 C 
HETATM   30  C1  UNL     1      -4.406 -11.511  -2.799  1.00  0.00     0.042 C 
HETATM   31  C3  UNL     1      -6.094  -9.673  -2.412  1.00  0.00     0.042 C 
ENDBRANCH  27  28
ENDBRANCH  26  27
ENDBRANCH  24  26
ENDBRANCH   1  24
TORSDOF 4
ENDMDL
MODEL 2
REMARK minimizedAffinity -6.50190783
REMARK CNNscore 0.53599143
REMARK CNNaffinity 6.67958689
REMARK  4 active torsions:
REMARK  status: ('A' for Active; 'I' for Inactive)
REMARK    1  A    between atoms: C4_4  and  C5_5 
REMARK    2  A    between atoms: C5_5  and  C6_6 
REMARK    3  A    between atoms: C6_6  and  C7_7 
REMARK    4  A    between atoms: C7_7  and  C9_9 
ROOT
HETATM    1  C9  UNL     1     -12.193 -13.021  29.199  1.00  0.00    -0.002 C 
HETATM    2  C10 UNL     1     -12.913 -13.502  30.460  1.00  0.00     0.007 C 
HETATM    3  C11 UNL     1     -13.426 -12.218  31.076  1.00  0.00     0.015 C 
HETATM    4  C12 UNL     1     -14.060 -11.436  29.897  1.00  0.00    -0.013 C 
HETATM    5  C13 UNL     1     -15.532 -11.912  29.762  1.00  0.00     0.021 C 
HETATM    6  C14 UNL     1     -14.129  -9.919  30.181  1.00  0.00    -0.070 C 
HETATM    7  C15 UNL     1     -14.368  -9.448  31.423  1.00  0.00    -0.022 C 
HETATM    8  C16 UNL     1     -14.579  -8.010  31.783  1.00  0.00     0.034 C 
HETATM    9  C17 UNL     1     -14.810  -7.099  30.563  1.00  0.00     0.013 C 
HETATM   10  C18 UNL     1     -14.945  -5.581  30.945  1.00  0.00     0.018 C 
HETATM   11  C19 UNL     1     -14.004  -5.109  32.070  1.00  0.00     0.023 C 
HETATM   12  C20 UNL     1     -16.390  -5.297  31.411  1.00  0.00     0.023 C 
HETATM   13  C21 UNL     1     -14.716  -4.720  29.701  1.00  0.00     0.135 C 
HETATM   14  O1  UNL     1     -14.385  -3.537  29.761  1.00  0.00    -0.297 OA
HETATM   15  C22 UNL     1     -14.997  -5.375  28.376  1.00  0.00     0.080 C 
HETATM   16  C23 UNL     1     -14.040  -6.534  28.157  1.00  0.00     0.017 C 
HETATM   17  C24 UNL     1     -13.794  -7.437  29.411  1.00  0.00    -0.031 C 
HETATM   18  C25 UNL     1     -12.331  -7.216  29.880  1.00  0.00     0.016 C 
HETATM   19  C26 UNL     1     -14.030  -8.957  28.998  1.00  0.00     0.024 C 
HETATM   20  C27 UNL     1     -13.060  -9.424  27.888  1.00  0.00     0.010 C 
HETATM   21  C28 UNL     1     -12.242 -10.650  28.265  1.00  0.00     0.011 C 
HETATM   22  C29 UNL     1     -13.132 -11.854  28.660  1.00  0.00    -0.029 C 
HETATM   23  C30 UNL     1     -13.965 -12.298  27.434  1.00  0.00     0.016 C 
ENDROOT
BRANCH   1  24
HETATM   24  C7  UNL     1     -11.782 -14.183  28.234  1.00  0.00    -0.014 C 
HETATM   25  C8  UNL     1     -12.955 -15.138  27.985  1.00  0.00     0.010 C 
BRANCH  24  26
HETATM   26  C6  UNL     1     -11.228 -13.633  26.888  1.00  0.00     0.008 C 
BRANCH  26  27
HETATM   27  C5  UNL     1      -9.703 -13.717  26.700  1.00  0.00     0.028 C 
BRANCH  27  28
HETATM   28  C4  UNL     1      -9.132 -12.587  25.885  1.00  0.00    -0.025 C 
HETATM   29  C2  UNL     1      -8.311 -12.659  24.818  1.00  0.00    -0.091 C 
HETATM   30  C1  UNL     1      -7.832 -11.401  24.138  1.00  0.00     0.042 C 
HETATM   31  C3  UNL     1      -7.789 -13.925  24.201  1.00  0.00     0.042 C 
ENDBRANCH  27  28
ENDBRANCH  26  27
ENDBRANCH  24  26
ENDBRANCH   1  24
TORSDOF 4
ENDMDL
MODEL 3
REMARK minimizedAffinity -9.06364441
REMARK CNNscore 0.529751837
REMARK CNNaffinity 7.22165871
REMARK  4 active torsions:
REMARK  status: ('A' for Active; 'I' for Inactive)
REMARK    1  A    between atoms: C4_4  and  C5_5 
REMARK    2  A    between atoms: C5_5  and  C6_6 
REMARK    3  A    between atoms: C6_6  and  C7_7 
REMARK    4  A    between atoms: C7_7  and  C9_9 
ROOT
HETATM    1  C9  UNL     1      -5.704   6.489  13.373  1.00  0.00    -0.002 C 
HETATM    2  C10 UNL     1      -5.123   7.554  14.306  1.00  0.00     0.007 C 
HETATM    3  C11 UNL     1      -6.339   8.364  14.705  1.00  0.00     0.015 C 
HETATM    4  C12 UNL     1      -7.417   7.312  15.070  1.00  0.00    -0.013 C 
HETATM    5  C13 UNL     1      -7.221   6.945  16.565  1.00  0.00     0.021 C 
HETATM    6  C14 UNL     1      -8.847   7.886  14.957  1.00  0.00    -0.070 C 
HETATM    7  C15 UNL     1      -9.114   9.169  15.280  1.00  0.00    -0.022 C 
HETATM    8  C16 UNL     1     -10.476   9.789  15.328  1.00  0.00     0.034 C 
HETATM    9  C17 UNL     1     -11.621   8.761  15.274  1.00  0.00     0.013 C 
HETATM   10  C18 UNL     1     -13.044   9.426  15.238  1.00  0.00     0.018 C 
HETATM   11  C19 UNL     1     -13.141  10.706  14.388  1.00  0.00     0.023 C 
HETATM   12  C20 UNL     1     -13.470   9.800  16.675  1.00  0.00     0.023 C 
HETATM   13  C21 UNL     1     -14.070   8.408  14.736  1.00  0.00     0.135 C 
HETATM   14  O1  UNL     1     -15.152   8.735  14.250  1.00  0.00    -0.297 OA
HETATM   15  C22 UNL     1     -13.725   6.957  14.940  1.00  0.00     0.080 C 
HETATM   16  C23 UNL     1     -12.485   6.602  14.137  1.00  0.00     0.017 C 
HETATM   17  C24 UNL     1     -11.339   7.666  14.180  1.00  0.00    -0.031 C 
HETATM   18  C25 UNL     1     -11.227   8.307  12.770  1.00  0.00     0.016 C 
HETATM   19  C26 UNL     1      -9.981   6.936  14.576  1.00  0.00     0.024 C 
HETATM   20  C27 UNL     1      -9.573   5.852  13.552  1.00  0.00     0.010 C 
HETATM   21  C28 UNL     1      -8.182   6.051  12.969  1.00  0.00     0.011 C 
HETATM   22  C29 UNL     1      -7.087   6.110  14.063  1.00  0.00    -0.029 C 
HETATM   23  C30 UNL     1      -7.019   4.746  14.791  1.00  0.00     0.016 C 
ENDROOT
BRANCH   1  24
HETATM   24  C7  UNL     1      -4.688   5.354  13.015  1.00  0.00    -0.014 C 
HETATM   25  C8  UNL     1      -3.569   5.261  14.059  1.00  0.00     0.010 C 
BRANCH  24  26
HETATM   26  C6  UNL     1      -5.403   3.982  12.856  1.00  0.00     0.008 C 
BRANCH  26  27
HETATM   27  C5  UNL     1      -5.197   3.263  11.511  1.00  0.00     0.028 C 
BRANCH  27  28
HETATM   28  C4  UNL     1      -4.023   2.321  11.504  1.00  0.00    -0.025 C 
HETATM   29  C2  UNL     1      -2.740   2.589  11.187  1.00  0.00    -0.091 C 
HETATM   30  C1  UNL     1      -1.700   1.498  11.227  1.00  0.00     0.042 C 
HETATM   31  C3  UNL     1      -2.204   3.930  10.772  1.00  0.00     0.042 C 
ENDBRANCH  27  28
ENDBRANCH  26  27
ENDBRANCH  24  26
ENDBRANCH   1  24
TORSDOF 4
ENDMDL
MODEL 4
REMARK minimizedAffinity -6.33284426
REMARK CNNscore 0.488239318
REMARK CNNaffinity 6.64295721
REMARK  4 active torsions:
REMARK  status: ('A' for Active; 'I' for Inactive)
REMARK    1  A    between atoms: C4_4  and  C5_5 
REMARK    2  A    between atoms: C5_5  and  C6_6 
REMARK    3  A    between atoms: C6_6  and  C7_7 
REMARK    4  A    between atoms: C7_7  and  C9_9 
ROOT
HETATM    1  C9  UNL     1     -13.018 -11.240  25.622  1.00  0.00    -0.002 C 
HETATM    2  C10 UNL     1     -12.156 -11.963  26.660  1.00  0.00     0.007 C 
HETATM    3  C11 UNL     1     -12.082 -10.968  27.799  1.00  0.00     0.015 C 
HETATM    4  C12 UNL     1     -13.539 -10.478  27.996  1.00  0.00    -0.013 C 
HETATM    5  C13 UNL     1     -14.238 -11.472  28.962  1.00  0.00     0.021 C 
HETATM    6  C14 UNL     1     -13.596  -9.099  28.691  1.00  0.00    -0.070 C 
HETATM    7  C15 UNL     1     -12.705  -8.758  29.645  1.00  0.00    -0.022 C 
HETATM    8  C16 UNL     1     -12.745  -7.507  30.466  1.00  0.00     0.034 C 
HETATM    9  C17 UNL     1     -14.080  -6.745  30.360  1.00  0.00     0.013 C 
HETATM   10  C18 UNL     1     -14.080  -5.391  31.156  1.00  0.00     0.018 C 
HETATM   11  C19 UNL     1     -12.757  -4.604  31.100  1.00  0.00     0.023 C 
HETATM   12  C20 UNL     1     -14.379  -5.673  32.645  1.00  0.00     0.023 C 
HETATM   13  C21 UNL     1     -15.218  -4.501  30.650  1.00  0.00     0.135 C 
HETATM   14  O1  UNL     1     -15.228  -3.281  30.802  1.00  0.00    -0.297 OA
HETATM   15  C22 UNL     1     -16.384  -5.209  30.014  1.00  0.00     0.080 C 
HETATM   16  C23 UNL     1     -15.932  -5.921  28.751  1.00  0.00     0.017 C 
HETATM   17  C24 UNL     1     -14.564  -6.671  28.865  1.00  0.00    -0.031 C 
HETATM   18  C25 UNL     1     -13.531  -5.918  27.984  1.00  0.00     0.016 C 
HETATM   19  C26 UNL     1     -14.758  -8.166  28.352  1.00  0.00     0.024 C 
HETATM   20  C27 UNL     1     -15.203  -8.229  26.873  1.00  0.00     0.010 C 
HETATM   21  C28 UNL     1     -14.282  -9.059  25.991  1.00  0.00     0.011 C 
HETATM   22  C29 UNL     1     -14.124 -10.511  26.504  1.00  0.00    -0.029 C 
HETATM   23  C30 UNL     1     -15.492 -11.230  26.433  1.00  0.00     0.016 C 
ENDROOT
BRANCH   1  24
HETATM   24  C7  UNL     1     -13.465 -12.159  24.436  1.00  0.00    -0.014 C 
HETATM   25  C8  UNL     1     -14.028 -11.331  23.275  1.00  0.00     0.010 C 
BRANCH  24  26
HETATM   26  C6  UNL     1     -12.296 -13.062  23.947  1.00  0.00     0.008 C 
BRANCH  26  27
HETATM   27  C5  UNL     1     -11.241 -12.381  23.058  1.00  0.00     0.028 C 
BRANCH  27  28
HETATM   28  C4  UNL     1      -9.927 -12.143  23.753  1.00  0.00    -0.025 C 
HETATM   29  C2  UNL     1      -8.891 -11.385  23.343  1.00  0.00    -0.091 C 
HETATM   30  C1  UNL     1      -7.641 -11.282  24.180  1.00  0.00     0.042 C 
HETATM   31  C3  UNL     1      -8.840 -10.589  22.069  1.00  0.00     0.042 C 
ENDBRANCH  27  28
ENDBRANCH  26  27
ENDBRANCH  24  26
ENDBRANCH   1  24
TORSDOF 4
ENDMDL
MODEL 5
REMARK minimizedAffinity -9.15921974
REMARK CNNscore 0.435289025
REMARK CNNaffinity 6.94174242
REMARK  4 active torsions:
REMARK  status: ('A' for Active; 'I' for Inactive)
REMARK    1  A    between atoms: C4_4  and  C5_5 
REMARK    2  A    between atoms: C5_5  and  C6_6 
REMARK    3  A    between atoms: C6_6  and  C7_7 
REMARK    4  A    between atoms: C7_7  and  C9_9 
ROOT
HETATM    1  C9  UNL     1      -4.383   7.116  13.793  1.00  0.00    -0.002 C 
HETATM    2  C10 UNL     1      -4.493   5.607  13.565  1.00  0.00     0.007 C 
HETATM    3  C11 UNL     1      -3.268   5.294  12.731  1.00  0.00     0.015 C 
HETATM    4  C12 UNL     1      -2.105   6.035  13.439  1.00  0.00    -0.013 C 
HETATM    5  C13 UNL     1      -1.550   5.087  14.536  1.00  0.00     0.021 C 
HETATM    6  C14 UNL     1      -0.925   6.309  12.478  1.00  0.00    -0.070 C 
HETATM    7  C15 UNL     1      -0.590   5.429  11.512  1.00  0.00    -0.022 C 
HETATM    8  C16 UNL     1       0.605   5.534  10.616  1.00  0.00     0.034 C 
HETATM    9  C17 UNL     1       1.627   6.591  11.076  1.00  0.00     0.013 C 
HETATM   10  C18 UNL     1       2.833   6.754  10.083  1.00  0.00     0.018 C 
HETATM   11  C19 UNL     1       2.461   6.666   8.590  1.00  0.00     0.023 C 
HETATM   12  C20 UNL     1       3.876   5.648  10.358  1.00  0.00     0.023 C 
HETATM   13  C21 UNL     1       3.537   8.086  10.349  1.00  0.00     0.135 C 
HETATM   14  O1  UNL     1       4.243   8.647   9.512  1.00  0.00    -0.297 OA
HETATM   15  C22 UNL     1       3.389   8.651  11.736  1.00  0.00     0.080 C 
HETATM   16  C23 UNL     1       1.933   8.986  12.007  1.00  0.00     0.017 C 
HETATM   17  C24 UNL     1       0.903   7.917  11.513  1.00  0.00    -0.031 C 
HETATM   18  C25 UNL     1       0.108   8.530  10.328  1.00  0.00     0.016 C 
HETATM   19  C26 UNL     1      -0.072   7.553  12.718  1.00  0.00     0.024 C 
HETATM   20  C27 UNL     1      -0.873   8.777  13.218  1.00  0.00     0.010 C 
HETATM   21  C28 UNL     1      -2.381   8.574  13.193  1.00  0.00     0.011 C 
HETATM   22  C29 UNL     1      -2.824   7.342  14.020  1.00  0.00    -0.029 C 
HETATM   23  C30 UNL     1      -2.482   7.578  15.511  1.00  0.00     0.016 C 
ENDROOT
BRANCH   1  24
HETATM   24  C7  UNL     1      -5.400   7.661  14.850  1.00  0.00    -0.014 C 
HETATM   25  C8  UNL     1      -5.184   9.157  15.109  1.00  0.00     0.010 C 
BRANCH  24  26
HETATM   26  C6  UNL     1      -6.869   7.389  14.415  1.00  0.00     0.008 C 
BRANCH  26  27
HETATM   27  C5  UNL     1      -7.639   6.349  15.248  1.00  0.00     0.028 C 
BRANCH  27  28
HETATM   28  C4  UNL     1      -7.432   4.931  14.786  1.00  0.00    -0.025 C 
HETATM   29  C2  UNL     1      -7.796   4.373  13.615  1.00  0.00    -0.091 C 
HETATM   30  C1  UNL     1      -7.510   2.919  13.340  1.00  0.00     0.042 C 
HETATM   31  C3  UNL     1      -8.500   5.081  12.491  1.00  0.00     0.042 C 
ENDBRANCH  27  28
ENDBRANCH  26  27
ENDBRANCH  24  26
ENDBRANCH   1  24
TORSDOF 4
ENDMDL
MODEL 6
REMARK minimizedAffinity -5.85555506
REMARK CNNscore 0.410750687
REMARK CNNaffinity 5.85772467
REMARK  4 active torsions:
REMARK  status: ('A' for Active; 'I' for Inactive)
REMARK    1  A    between atoms: C4_4  and  C5_5 
REMARK    2  A    between atoms: C5_5  and  C6_6 
REMARK    3  A    between atoms: C6_6  and  C7_7 
REMARK    4  A    between atoms: C7_7  and  C9_9 
ROOT
HETATM    1  C9  UNL     1      -8.197  -8.654  -2.532  1.00  0.00    -0.002 C 
HETATM    2  C10 UNL     1      -6.992  -8.980  -3.417  1.00  0.00     0.007 C 
HETATM    3  C11 UNL     1      -5.950  -9.448  -2.423  1.00  0.00     0.015 C 
HETATM    4  C12 UNL     1      -6.701 -10.435  -1.493  1.00  0.00    -0.013 C 
HETATM    5  C13 UNL     1      -6.640 -11.837  -2.156  1.00  0.00     0.021 C 
HETATM    6  C14 UNL     1      -6.003 -10.582  -0.122  1.00  0.00    -0.070 C 
HETATM    7  C15 UNL     1      -4.658 -10.545  -0.014  1.00  0.00    -0.022 C 
HETATM    8  C16 UNL     1      -3.878 -10.803   1.239  1.00  0.00     0.034 C 
HETATM    9  C17 UNL     1      -4.720 -11.425   2.369  1.00  0.00     0.013 C 
HETATM   10  C18 UNL     1      -3.915 -11.611   3.705  1.00  0.00     0.018 C 
HETATM   11  C19 UNL     1      -2.935 -10.469   4.036  1.00  0.00     0.023 C 
HETATM   12  C20 UNL     1      -3.086 -12.912   3.626  1.00  0.00     0.023 C 
HETATM   13  C21 UNL     1      -4.892 -11.791   4.869  1.00  0.00     0.135 C 
HETATM   14  O1  UNL     1      -4.581 -11.576   6.039  1.00  0.00    -0.297 OA
HETATM   15  C22 UNL     1      -6.252 -12.330   4.519  1.00  0.00     0.080 C 
HETATM   16  C23 UNL     1      -6.984 -11.347   3.621  1.00  0.00     0.017 C 
HETATM   17  C24 UNL     1      -6.113 -10.703   2.492  1.00  0.00    -0.031 C 
HETATM   18  C25 UNL     1      -5.929  -9.199   2.829  1.00  0.00     0.016 C 
HETATM   19  C26 UNL     1      -6.866 -10.882   1.101  1.00  0.00     0.024 C 
HETATM   20  C27 UNL     1      -8.245 -10.182   1.084  1.00  0.00     0.010 C 
HETATM   21  C28 UNL     1      -8.407  -9.176  -0.046  1.00  0.00     0.011 C 
HETATM   22  C29 UNL     1      -8.176  -9.811  -1.440  1.00  0.00    -0.029 C 
HETATM   23  C30 UNL     1      -9.266 -10.878  -1.701  1.00  0.00     0.016 C 
ENDROOT
BRANCH   1  24
HETATM   24  C7  UNL     1      -9.509  -8.386  -3.341  1.00  0.00    -0.014 C 
HETATM   25  C8  UNL     1     -10.569  -7.701  -2.469  1.00  0.00     0.010 C 
BRANCH  24  26
HETATM   26  C6  UNL     1      -9.225  -7.543  -4.618  1.00  0.00     0.008 C 
BRANCH  26  27
HETATM   27  C5  UNL     1      -9.295  -6.016  -4.450  1.00  0.00     0.028 C 
BRANCH  27  28
HETATM   28  C4  UNL     1      -9.860  -5.302  -5.650  1.00  0.00    -0.025 C 
HETATM   29  C2  UNL     1      -9.736  -4.002  -5.983  1.00  0.00    -0.091 C 
HETATM   30  C1  UNL     1     -10.393  -3.466  -7.230  1.00  0.00     0.042 C 
HETATM   31  C3  UNL     1      -8.974  -2.969  -5.201  1.00  0.00     0.042 C 
ENDBRANCH  27  28
ENDBRANCH  26  27
ENDBRANCH  24  26
ENDBRANCH   1  24
TORSDOF 4
ENDMDL
MODEL 7
REMARK minimizedAffinity -8.07894993
REMARK CNNscore 0.378592044
REMARK CNNaffinity 6.88554192
REMARK  4 active torsions:
REMARK  status: ('A' for Active; 'I' for Inactive)
REMARK    1  A    between atoms: C4_4  and  C5_5 
REMARK    2  A    between atoms: C5_5  and  C6_6 
REMARK    3  A    between atoms: C6_6  and  C7_7 
REMARK    4  A    between atoms: C7_7  and  C9_9 
ROOT
HETATM    1  C9  UNL     1      -9.315   7.579  14.044  1.00  0.00    -0.002 C 
HETATM    2  C10 UNL     1      -9.455   6.238  13.322  1.00  0.00     0.007 C 
HETATM    3  C11 UNL     1      -8.022   5.863  13.008  1.00  0.00     0.015 C 
HETATM    4  C12 UNL     1      -7.246   6.121  14.325  1.00  0.00    -0.013 C 
HETATM    5  C13 UNL     1      -7.351   4.834  15.187  1.00  0.00     0.021 C 
HETATM    6  C14 UNL     1      -5.737   6.341  14.072  1.00  0.00    -0.070 C 
HETATM    7  C15 UNL     1      -5.084   5.668  13.101  1.00  0.00    -0.022 C 
HETATM    8  C16 UNL     1      -3.608   5.710  12.855  1.00  0.00     0.034 C 
HETATM    9  C17 UNL     1      -2.812   6.359  14.004  1.00  0.00     0.013 C 
HETATM   10  C18 UNL     1      -1.275   6.476  13.698  1.00  0.00     0.018 C 
HETATM   11  C19 UNL     1      -0.929   6.840  12.242  1.00  0.00     0.023 C 
HETATM   12  C20 UNL     1      -0.588   5.126  14.005  1.00  0.00     0.023 C 
HETATM   13  C21 UNL     1      -0.645   7.504  14.639  1.00  0.00     0.135 C 
HETATM   14  O1  UNL     1       0.417   8.073  14.390  1.00  0.00    -0.297 OA
HETATM   15  C22 UNL     1      -1.355   7.735  15.946  1.00  0.00     0.080 C 
HETATM   16  C23 UNL     1      -2.733   8.320  15.690  1.00  0.00     0.017 C 
HETATM   17  C24 UNL     1      -3.521   7.670  14.506  1.00  0.00    -0.031 C 
HETATM   18  C25 UNL     1      -3.621   8.718  13.364  1.00  0.00     0.016 C 
HETATM   19  C26 UNL     1      -4.970   7.259  15.022  1.00  0.00     0.024 C 
HETATM   20  C27 UNL     1      -5.787   8.476  15.515  1.00  0.00     0.010 C 
HETATM   21  C28 UNL     1      -7.128   8.638  14.814  1.00  0.00     0.011 C 
HETATM   22  C29 UNL     1      -8.020   7.379  14.947  1.00  0.00    -0.029 C 
HETATM   23  C30 UNL     1      -8.377   7.160  16.436  1.00  0.00     0.016 C 
ENDROOT
BRANCH   1  24
HETATM   24  C7  UNL     1     -10.644   8.071  14.707  1.00  0.00    -0.014 C 
HETATM   25  C8  UNL     1     -11.665   6.932  14.815  1.00  0.00     0.010 C 
BRANCH  24  26
HETATM   26  C6  UNL     1     -10.380   8.703  16.105  1.00  0.00     0.008 C 
BRANCH  26  27
HETATM   27  C5  UNL     1     -11.515   9.568  16.681  1.00  0.00     0.028 C 
BRANCH  27  28
HETATM   28  C4  UNL     1     -11.524   9.628  18.185  1.00  0.00    -0.025 C 
HETATM   29  C2  UNL     1     -11.161  10.652  18.983  1.00  0.00    -0.091 C 
HETATM   30  C1  UNL     1     -11.228  10.513  20.483  1.00  0.00     0.042 C 
HETATM   31  C3  UNL     1     -10.664  11.990  18.514  1.00  0.00     0.042 C 
ENDBRANCH  27  28
ENDBRANCH  26  27
ENDBRANCH  24  26
ENDBRANCH   1  24
TORSDOF 4
ENDMDL
MODEL 8
REMARK minimizedAffinity -6.22008133
REMARK CNNscore 0.363069773
REMARK CNNaffinity 5.65652037
REMARK  4 active torsions:
REMARK  status: ('A' for Active; 'I' for Inactive)
REMARK    1  A    between atoms: C4_4  and  C5_5 
REMARK    2  A    between atoms: C5_5  and  C6_6 
REMARK    3  A    between atoms: C6_6  and  C7_7 
REMARK    4  A    between atoms: C7_7  and  C9_9 
ROOT
HETATM    1  C9  UNL     1      -3.515 -11.953   5.062  1.00  0.00    -0.002 C 
HETATM    2  C10 UNL     1      -2.269 -12.785   4.754  1.00  0.00     0.007 C 
HETATM    3  C11 UNL     1      -2.414 -13.091   3.278  1.00  0.00     0.015 C 
HETATM    4  C12 UNL     1      -2.800 -11.737   2.628  1.00  0.00    -0.013 C 
HETATM    5  C13 UNL     1      -1.482 -10.986   2.301  1.00  0.00     0.021 C 
HETATM    6  C14 UNL     1      -3.525 -11.932   1.276  1.00  0.00    -0.070 C 
HETATM    7  C15 UNL     1      -3.190 -12.937   0.440  1.00  0.00    -0.022 C 
HETATM    8  C16 UNL     1      -3.735 -13.139  -0.939  1.00  0.00     0.034 C 
HETATM    9  C17 UNL     1      -4.509 -11.922  -1.479  1.00  0.00     0.013 C 
HETATM   10  C18 UNL     1      -5.151 -12.176  -2.890  1.00  0.00     0.018 C 
HETATM   11  C19 UNL     1      -5.731 -13.589  -3.094  1.00  0.00     0.023 C 
HETATM   12  C20 UNL     1      -4.081 -11.962  -3.985  1.00  0.00     0.023 C 
HETATM   13  C21 UNL     1      -6.246 -11.139  -3.148  1.00  0.00     0.135 C 
HETATM   14  O1  UNL     1      -7.151 -11.313  -3.962  1.00  0.00    -0.297 OA
HETATM   15  C22 UNL     1      -6.118  -9.837  -2.404  1.00  0.00     0.080 C 
HETATM   16  C23 UNL     1      -6.236 -10.080  -0.909  1.00  0.00     0.017 C 
HETATM   17  C24 UNL     1      -5.466 -11.334  -0.377  1.00  0.00    -0.031 C 
HETATM   18  C25 UNL     1      -6.516 -12.389   0.065  1.00  0.00     0.016 C 
HETATM   19  C26 UNL     1      -4.560 -10.891   0.854  1.00  0.00     0.024 C 
HETATM   20  C27 UNL     1      -5.393 -10.323   2.026  1.00  0.00     0.010 C 
HETATM   21  C28 UNL     1      -5.165 -11.043   3.346  1.00  0.00     0.011 C 
HETATM   22  C29 UNL     1      -3.676 -11.036   3.772  1.00  0.00    -0.029 C 
HETATM   23  C30 UNL     1      -3.226  -9.579   4.034  1.00  0.00     0.016 C 
ENDROOT
BRANCH   1  24
HETATM   24  C7  UNL     1      -3.484 -11.287   6.479  1.00  0.00    -0.014 C 
HETATM   25  C8  UNL     1      -2.679  -9.983   6.461  1.00  0.00     0.010 C 
BRANCH  24  26
HETATM   26  C6  UNL     1      -4.922 -11.035   7.018  1.00  0.00     0.008 C 
BRANCH  26  27
HETATM   27  C5  UNL     1      -5.192  -9.635   7.596  1.00  0.00     0.028 C 
BRANCH  27  28
HETATM   28  C4  UNL     1      -5.865  -9.657   8.943  1.00  0.00    -0.025 C 
HETATM   29  C2  UNL     1      -5.291  -9.663  10.163  1.00  0.00    -0.091 C 
HETATM   30  C1  UNL     1      -6.143  -9.701  11.407  1.00  0.00     0.042 C 
HETATM   31  C3  UNL     1      -3.813  -9.638  10.434  1.00  0.00     0.042 C 
ENDBRANCH  27  28
ENDBRANCH  26  27
ENDBRANCH  24  26
ENDBRANCH   1  24
TORSDOF 4
ENDMDL
MODEL 9
REMARK minimizedAffinity -6.26265383
REMARK CNNscore 0.337090939
REMARK CNNaffinity 5.89236069
REMARK  4 active torsions:
REMARK  status: ('A' for Active; 'I' for Inactive)
REMARK    1  A    between atoms: C4_4  and  C5_5 
REMARK    2  A    between atoms: C5_5  and  C6_6 
REMARK    3  A    between atoms: C6_6  and  C7_7 
REMARK    4  A    between atoms: C7_7  and  C9_9 
ROOT
HETATM    1  C9  UNL     1     -12.099   7.741  23.533  1.00  0.00    -0.002 C 
HETATM    2  C10 UNL     1     -11.254   8.691  24.384  1.00  0.00     0.007 C 
HETATM    3  C11 UNL     1     -10.812   9.745  23.390  1.00  0.00     0.015 C 
HETATM    4  C12 UNL     1     -12.096  10.112  22.602  1.00  0.00    -0.013 C 
HETATM    5  C13 UNL     1     -12.827  11.227  23.397  1.00  0.00     0.021 C 
HETATM    6  C14 UNL     1     -11.770  10.720  21.219  1.00  0.00    -0.070 C 
HETATM    7  C15 UNL     1     -10.695  11.516  21.039  1.00  0.00    -0.022 C 
HETATM    8  C16 UNL     1     -10.360  12.256  19.781  1.00  0.00     0.034 C 
HETATM    9  C17 UNL     1     -11.515  12.289  18.762  1.00  0.00     0.013 C 
HETATM   10  C18 UNL     1     -11.125  12.991  17.412  1.00  0.00     0.018 C 
HETATM   11  C19 UNL     1      -9.694  12.701  16.920  1.00  0.00     0.023 C 
HETATM   12  C20 UNL     1     -11.248  14.522  17.578  1.00  0.00     0.023 C 
HETATM   13  C21 UNL     1     -12.124  12.594  16.323  1.00  0.00     0.135 C 
HETATM   14  O1  UNL     1     -11.866  12.669  15.123  1.00  0.00    -0.297 OA
HETATM   15  C22 UNL     1     -13.490  12.173  16.793  1.00  0.00     0.080 C 
HETATM   16  C23 UNL     1     -13.385  10.907  17.625  1.00  0.00     0.017 C 
HETATM   17  C24 UNL     1     -12.193  10.875  18.638  1.00  0.00    -0.031 C 
HETATM   18  C25 UNL     1     -11.174   9.812  18.145  1.00  0.00     0.016 C 
HETATM   19  C26 UNL     1     -12.757  10.489  20.076  1.00  0.00     0.024 C 
HETATM   20  C27 UNL     1     -13.423   9.094  20.094  1.00  0.00     0.010 C 
HETATM   21  C28 UNL     1     -12.830   8.145  21.125  1.00  0.00     0.011 C 
HETATM   22  C29 UNL     1     -12.891   8.722  22.561  1.00  0.00    -0.029 C 
HETATM   23  C30 UNL     1     -14.370   8.888  22.983  1.00  0.00     0.016 C 
ENDROOT
BRANCH   1  24
HETATM   24  C7  UNL     1     -12.893   6.689  24.377  1.00  0.00    -0.014 C 
HETATM   25  C8  UNL     1     -13.878   7.373  25.332  1.00  0.00     0.010 C 
BRANCH  24  26
HETATM   26  C6  UNL     1     -13.636   5.673  23.462  1.00  0.00     0.008 C 
BRANCH  26  27
HETATM   27  C5  UNL     1     -14.012   4.329  24.110  1.00  0.00     0.028 C 
BRANCH  27  28
HETATM   28  C4  UNL     1     -12.926   3.291  24.022  1.00  0.00    -0.025 C 
HETATM   29  C2  UNL     1     -12.469   2.475  24.993  1.00  0.00    -0.091 C 
HETATM   30  C1  UNL     1     -11.353   1.502  24.711  1.00  0.00     0.042 C 
HETATM   31  C3  UNL     1     -12.977   2.431  26.407  1.00  0.00     0.042 C 
ENDBRANCH  27  28
ENDBRANCH  26  27
ENDBRANCH  24  26
ENDBRANCH   1  24
TORSDOF 4
ENDMDL
