MODEL 1
REMARK minimizedAffinity -10.2737007
REMARK  5 active torsions:
REMARK  status: ('A' for Active; 'I' for Inactive)
REMARK    1  A    between atoms: C2_2  and  C3_3 
REMARK    2  A    between atoms: C3_3  and  N1_4 
REMARK    3  A    between atoms: C4_5  and  S1_6 
REMARK    4  A    between atoms: S1_6  and  C5_7 
REMARK    5  A    between atoms: C21_31  and  C22_32 
ROOT
HETATM    1  C5  UNL     1      -1.294  50.407 -22.648  1.00  0.00     0.093 A 
HETATM    2  C6  UNL     1      -0.538  51.327 -21.985  1.00  0.00    -0.016 A 
HETATM    3  C7  UNL     1      -0.143  51.162 -20.523  1.00  0.00     0.042 C 
HETATM    4  C8  UNL     1       0.345  52.419 -19.817  1.00  0.00     0.005 C 
HETATM    5  C9  UNL     1       1.397  53.105 -20.662  1.00  0.00     0.005 C 
HETATM    6  C10 UNL     1       0.776  53.560 -21.974  1.00  0.00     0.041 C 
HETATM    7  C11 UNL     1      -0.017  52.500 -22.727  1.00  0.00    -0.025 A 
HETATM    8  C12 UNL     1      -0.267  52.645 -24.054  1.00  0.00     0.096 A 
HETATM    9  C13 UNL     1       0.205  53.779 -24.789  1.00  0.00     0.104 C 
HETATM   10  N2  UNL     1       0.604  54.727 -25.329  1.00  0.00    -0.191 NA
HETATM   11  C14 UNL     1      -1.060  51.682 -24.743  1.00  0.00     0.135 A 
HETATM   12  N3  UNL     1      -1.406  51.655 -26.011  1.00  0.00    -0.339 N 
ATOM     13  H3  UNL     1      -1.137  52.318 -26.738  1.00  0.00     0.167 HD
HETATM   14  C15 UNL     1      -2.198  50.558 -26.152  1.00  0.00     0.061 A 
HETATM   15  C16 UNL     1      -2.833  50.095 -27.317  1.00  0.00     0.032 A 
HETATM   16  C17 UNL     1      -3.639  48.958 -27.248  1.00  0.00     0.002 A 
HETATM   17  C18 UNL     1      -3.817  48.299 -26.037  1.00  0.00     0.002 A 
HETATM   18  C19 UNL     1      -3.189  48.748 -24.867  1.00  0.00     0.032 A 
HETATM   19  C20 UNL     1      -2.362  49.884 -24.942  1.00  0.00     0.068 A 
HETATM   20  N4  UNL     1      -1.580  50.601 -24.025  1.00  0.00    -0.287 N 
ENDROOT
BRANCH   1  21
HETATM   21  S1  UNL     1      -1.861  48.964 -21.835  1.00  0.00    -0.033 SA
BRANCH  21  22
HETATM   22  C4  UNL     1      -3.495  49.474 -21.547  1.00  0.00     0.169 A 
HETATM   23  N1  UNL     1      -4.480  48.651 -21.067  1.00  0.00    -0.307 N 
HETATM   24  C21 UNL     1      -5.612  49.438 -20.982  1.00  0.00     0.135 A 
HETATM   25  N6  UNL     1      -5.316  50.645 -21.429  1.00  0.00    -0.283 N 
HETATM   26  N5  UNL     1      -3.987  50.671 -21.766  1.00  0.00    -0.278 N 
ATOM     27  H6  UNL     1      -5.967  51.426 -21.509  1.00  0.00     0.188 HD
ATOM     28  H5  UNL     1      -3.472  51.477 -22.123  1.00  0.00     0.189 HD
BRANCH  23  29
HETATM   29  C3  UNL     1      -4.404  47.219 -20.833  1.00  0.00     0.159 C 
BRANCH  29  30
HETATM   30  C2  UNL     1      -3.095  46.630 -21.279  1.00  0.00    -0.017 C 
HETATM   31  C1  UNL     1      -2.079  47.341 -21.786  1.00  0.00     0.008 C 
ENDBRANCH  29  30
ENDBRANCH  23  29
BRANCH  24  32
HETATM   32  C22 UNL     1      -6.928  49.006 -20.530  1.00  0.00     0.009 A 
HETATM   33  C23 UNL     1      -7.319  49.241 -19.206  1.00  0.00     0.015 A 
HETATM   34  C24 UNL     1      -8.580  48.840 -18.760  1.00  0.00     0.001 A 
HETATM   35  C25 UNL     1      -9.454  48.191 -19.630  1.00  0.00     0.000 A 
HETATM   36  C26 UNL     1      -9.066  47.933 -20.944  1.00  0.00     0.001 A 
HETATM   37  C27 UNL     1      -7.806  48.335 -21.391  1.00  0.00     0.015 A 
ENDBRANCH  24  32
ENDBRANCH  21  22
ENDBRANCH   1  21
TORSDOF 5
ENDMDL
MODEL 2
REMARK minimizedAffinity -9.96000767
REMARK  5 active torsions:
REMARK  status: ('A' for Active; 'I' for Inactive)
REMARK    1  A    between atoms: C2_2  and  C3_3 
REMARK    2  A    between atoms: C3_3  and  N1_4 
REMARK    3  A    between atoms: C4_5  and  S1_6 
REMARK    4  A    between atoms: S1_6  and  C5_7 
REMARK    5  A    between atoms: C21_31  and  C22_32 
ROOT
HETATM    1  C5  UNL     1      -2.289  50.478 -22.877  1.00  0.00     0.093 A 
HETATM    2  C6  UNL     1      -1.306  51.277 -22.373  1.00  0.00    -0.016 A 
HETATM    3  C7  UNL     1      -1.154  51.548 -20.882  1.00  0.00     0.042 C 
HETATM    4  C8  UNL     1      -0.291  52.744 -20.505  1.00  0.00     0.005 C 
HETATM    5  C9  UNL     1       1.023  52.683 -21.254  1.00  0.00     0.005 C 
HETATM    6  C10 UNL     1       0.760  52.794 -22.748  1.00  0.00     0.041 C 
HETATM    7  C11 UNL     1      -0.301  51.852 -23.299  1.00  0.00    -0.025 A 
HETATM    8  C12 UNL     1      -0.342  51.566 -24.627  1.00  0.00     0.096 A 
HETATM    9  C13 UNL     1       0.602  52.126 -25.546  1.00  0.00     0.104 C 
HETATM   10  N2  UNL     1       1.389  52.619 -26.245  1.00  0.00    -0.191 NA
HETATM   11  C14 UNL     1      -1.373  50.732 -25.149  1.00  0.00     0.135 A 
HETATM   12  N3  UNL     1      -1.574  50.351 -26.391  1.00  0.00    -0.339 N 
ATOM     13  H3  UNL     1      -0.999  50.570 -27.204  1.00  0.00     0.167 HD
HETATM   14  C15 UNL     1      -2.711  49.603 -26.366  1.00  0.00     0.061 A 
HETATM   15  C16 UNL     1      -3.355  48.975 -27.445  1.00  0.00     0.032 A 
HETATM   16  C17 UNL     1      -4.541  48.275 -27.216  1.00  0.00     0.002 A 
HETATM   17  C18 UNL     1      -5.080  48.210 -25.937  1.00  0.00     0.002 A 
HETATM   18  C19 UNL     1      -4.447  48.830 -24.851  1.00  0.00     0.032 A 
HETATM   19  C20 UNL     1      -3.242  49.520 -25.078  1.00  0.00     0.068 A 
HETATM   20  N4  UNL     1      -2.339  50.229 -24.274  1.00  0.00    -0.287 N 
ENDROOT
BRANCH   1  21
HETATM   21  S1  UNL     1      -3.448  49.711 -21.812  1.00  0.00    -0.033 SA
BRANCH  21  22
HETATM   22  C4  UNL     1      -2.817  50.296 -20.304  1.00  0.00     0.169 A 
HETATM   23  N1  UNL     1      -1.867  49.639 -19.568  1.00  0.00    -0.307 N 
HETATM   24  C21 UNL     1      -1.645  50.432 -18.458  1.00  0.00     0.135 A 
HETATM   25  N6  UNL     1      -2.454  51.474 -18.522  1.00  0.00    -0.283 N 
HETATM   26  N5  UNL     1      -3.174  51.396 -19.686  1.00  0.00    -0.278 N 
ATOM     27  H6  UNL     1      -2.529  52.213 -17.822  1.00  0.00     0.188 HD
ATOM     28  H5  UNL     1      -3.865  52.073 -20.013  1.00  0.00     0.189 HD
BRANCH  23  29
HETATM   29  C3  UNL     1      -1.309  48.320 -19.812  1.00  0.00     0.159 C 
BRANCH  29  30
HETATM   30  C2  UNL     1      -2.329  47.226 -19.666  1.00  0.00    -0.017 C 
HETATM   31  C1  UNL     1      -2.980  46.945 -18.530  1.00  0.00     0.008 C 
ENDBRANCH  29  30
ENDBRANCH  23  29
BRANCH  24  32
HETATM   32  C22 UNL     1      -0.720  50.149 -17.369  1.00  0.00     0.009 A 
HETATM   33  C23 UNL     1       0.308  51.055 -17.078  1.00  0.00     0.015 A 
HETATM   34  C24 UNL     1       1.198  50.801 -16.033  1.00  0.00     0.001 A 
HETATM   35  C25 UNL     1       1.076  49.636 -15.278  1.00  0.00     0.000 A 
HETATM   36  C26 UNL     1       0.068  48.718 -15.574  1.00  0.00     0.001 A 
HETATM   37  C27 UNL     1      -0.823  48.971 -16.618  1.00  0.00     0.015 A 
ENDBRANCH  24  32
ENDBRANCH  21  22
ENDBRANCH   1  21
TORSDOF 5
ENDMDL
MODEL 3
REMARK minimizedAffinity -9.58117294
REMARK  5 active torsions:
REMARK  status: ('A' for Active; 'I' for Inactive)
REMARK    1  A    between atoms: C2_2  and  C3_3 
REMARK    2  A    between atoms: C3_3  and  N1_4 
REMARK    3  A    between atoms: C4_5  and  S1_6 
REMARK    4  A    between atoms: S1_6  and  C5_7 
REMARK    5  A    between atoms: C21_31  and  C22_32 
ROOT
HETATM    1  C5  UNL     1      -1.428  50.541 -23.627  1.00  0.00     0.093 A 
HETATM    2  C6  UNL     1      -2.008  50.151 -24.797  1.00  0.00    -0.016 A 
HETATM    3  C7  UNL     1      -2.903  48.923 -24.898  1.00  0.00     0.042 C 
HETATM    4  C8  UNL     1      -3.148  48.388 -26.302  1.00  0.00     0.005 C 
HETATM    5  C9  UNL     1      -3.559  49.522 -27.216  1.00  0.00     0.005 C 
HETATM    6  C10 UNL     1      -2.419  50.523 -27.328  1.00  0.00     0.041 C 
HETATM    7  C11 UNL     1      -1.823  50.989 -26.006  1.00  0.00    -0.025 A 
HETATM    8  C12 UNL     1      -1.108  52.142 -25.945  1.00  0.00     0.096 A 
HETATM    9  C13 UNL     1      -0.895  52.957 -27.102  1.00  0.00     0.104 C 
HETATM   10  N2  UNL     1      -0.747  53.571 -28.077  1.00  0.00    -0.191 NA
HETATM   11  C14 UNL     1      -0.502  52.545 -24.720  1.00  0.00     0.135 A 
HETATM   12  N3  UNL     1       0.221  53.615 -24.471  1.00  0.00    -0.339 N 
ATOM     13  H3  UNL     1       0.451  54.368 -25.120  1.00  0.00     0.167 HD
HETATM   14  C15 UNL     1       0.597  53.509 -23.168  1.00  0.00     0.061 A 
HETATM   15  C16 UNL     1       1.392  54.396 -22.424  1.00  0.00     0.032 A 
HETATM   16  C17 UNL     1       1.697  54.090 -21.097  1.00  0.00     0.002 A 
HETATM   17  C18 UNL     1       1.225  52.914 -20.524  1.00  0.00     0.002 A 
HETATM   18  C19 UNL     1       0.430  52.020 -21.253  1.00  0.00     0.032 A 
HETATM   19  C20 UNL     1       0.108  52.339 -22.586  1.00  0.00     0.068 A 
HETATM   20  N4  UNL     1      -0.648  51.727 -23.596  1.00  0.00    -0.287 N 
ENDROOT
BRANCH   1  21
HETATM   21  S1  UNL     1      -1.687  49.629 -22.154  1.00  0.00    -0.033 SA
BRANCH  21  22
HETATM   22  C4  UNL     1      -3.372  49.987 -21.942  1.00  0.00     0.169 A 
HETATM   23  N1  UNL     1      -4.252  49.161 -21.294  1.00  0.00    -0.307 N 
HETATM   24  C21 UNL     1      -5.472  49.808 -21.342  1.00  0.00     0.135 A 
HETATM   25  N6  UNL     1      -5.322  50.931 -22.020  1.00  0.00    -0.283 N 
HETATM   26  N5  UNL     1      -4.004  51.050 -22.380  1.00  0.00    -0.278 N 
ATOM     27  H6  UNL     1      -6.062  51.598 -22.240  1.00  0.00     0.188 HD
ATOM     28  H5  UNL     1      -3.588  51.826 -22.896  1.00  0.00     0.189 HD
BRANCH  23  29
HETATM   29  C3  UNL     1      -4.005  47.822 -20.787  1.00  0.00     0.159 C 
BRANCH  29  30
HETATM   30  C2  UNL     1      -4.625  46.756 -21.645  1.00  0.00    -0.017 C 
HETATM   31  C1  UNL     1      -4.868  45.502 -21.237  1.00  0.00     0.008 C 
ENDBRANCH  29  30
ENDBRANCH  23  29
BRANCH  24  32
HETATM   32  C22 UNL     1      -6.729  49.317 -20.792  1.00  0.00     0.009 A 
HETATM   33  C23 UNL     1      -7.013  49.508 -19.433  1.00  0.00     0.015 A 
HETATM   34  C24 UNL     1      -8.216  49.050 -18.892  1.00  0.00     0.001 A 
HETATM   35  C25 UNL     1      -9.138  48.390 -19.701  1.00  0.00     0.000 A 
HETATM   36  C26 UNL     1      -8.855  48.176 -21.050  1.00  0.00     0.001 A 
HETATM   37  C27 UNL     1      -7.653  48.634 -21.592  1.00  0.00     0.015 A 
ENDBRANCH  24  32
ENDBRANCH  21  22
ENDBRANCH   1  21
TORSDOF 5
ENDMDL
MODEL 4
REMARK minimizedAffinity -9.36542511
REMARK  5 active torsions:
REMARK  status: ('A' for Active; 'I' for Inactive)
REMARK    1  A    between atoms: C2_2  and  C3_3 
REMARK    2  A    between atoms: C3_3  and  N1_4 
REMARK    3  A    between atoms: C4_5  and  S1_6 
REMARK    4  A    between atoms: S1_6  and  C5_7 
REMARK    5  A    between atoms: C21_31  and  C22_32 
ROOT
HETATM    1  C5  UNL     1      -1.860  49.867 -22.179  1.00  0.00     0.093 A 
HETATM    2  C6  UNL     1      -2.216  49.784 -23.492  1.00  0.00    -0.016 A 
HETATM    3  C7  UNL     1      -3.079  48.653 -24.037  1.00  0.00     0.042 C 
HETATM    4  C8  UNL     1      -3.064  48.469 -25.548  1.00  0.00     0.005 C 
HETATM    5  C9  UNL     1      -3.299  49.800 -26.227  1.00  0.00     0.005 C 
HETATM    6  C10 UNL     1      -2.156  50.748 -25.896  1.00  0.00     0.041 C 
HETATM    7  C11 UNL     1      -1.812  50.869 -24.418  1.00  0.00    -0.025 A 
HETATM    8  C12 UNL     1      -1.119  51.944 -23.961  1.00  0.00     0.096 A 
HETATM    9  C13 UNL     1      -0.697  52.995 -24.837  1.00  0.00     0.104 C 
HETATM   10  N2  UNL     1      -0.372  53.810 -25.598  1.00  0.00    -0.191 NA
HETATM   11  C14 UNL     1      -0.747  52.026 -22.588  1.00  0.00     0.135 A 
HETATM   12  N3  UNL     1      -0.081  52.977 -21.970  1.00  0.00    -0.339 N 
ATOM     13  H3  UNL     1       0.265  53.848 -22.372  1.00  0.00     0.167 HD
HETATM   14  C15 UNL     1       0.051  52.556 -20.683  1.00  0.00     0.061 A 
HETATM   15  C16 UNL     1       0.697  53.212 -19.622  1.00  0.00     0.032 A 
HETATM   16  C17 UNL     1       0.753  52.594 -18.372  1.00  0.00     0.002 A 
HETATM   17  C18 UNL     1       0.183  51.340 -18.185  1.00  0.00     0.002 A 
HETATM   18  C19 UNL     1      -0.466  50.674 -19.233  1.00  0.00     0.032 A 
HETATM   19  C20 UNL     1      -0.539  51.306 -20.489  1.00  0.00     0.068 A 
HETATM   20  N4  UNL     1      -1.097  50.978 -21.732  1.00  0.00    -0.287 N 
ENDROOT
BRANCH   1  21
HETATM   21  S1  UNL     1      -2.385  48.652 -21.033  1.00  0.00    -0.033 SA
BRANCH  21  22
HETATM   22  C4  UNL     1      -3.989  49.256 -20.758  1.00  0.00     0.169 A 
HETATM   23  N1  UNL     1      -5.018  48.496 -20.266  1.00  0.00    -0.307 N 
HETATM   24  C21 UNL     1      -6.105  49.344 -20.198  1.00  0.00     0.135 A 
HETATM   25  N6  UNL     1      -5.744  50.525 -20.666  1.00  0.00    -0.283 N 
HETATM   26  N5  UNL     1      -4.415  50.473 -21.000  1.00  0.00    -0.278 N 
ATOM     27  H6  UNL     1      -6.351  51.339 -20.762  1.00  0.00     0.188 HD
ATOM     28  H5  UNL     1      -3.857  51.243 -21.371  1.00  0.00     0.189 HD
BRANCH  23  29
HETATM   29  C3  UNL     1      -5.020  47.066 -20.005  1.00  0.00     0.159 C 
BRANCH  29  30
HETATM   30  C2  UNL     1      -5.110  46.250 -21.264  1.00  0.00    -0.017 C 
HETATM   31  C1  UNL     1      -6.252  45.766 -21.772  1.00  0.00     0.008 C 
ENDBRANCH  29  30
ENDBRANCH  23  29
BRANCH  24  32
HETATM   32  C22 UNL     1      -7.444  48.992 -19.742  1.00  0.00     0.009 A 
HETATM   33  C23 UNL     1      -8.362  48.442 -20.646  1.00  0.00     0.015 A 
HETATM   34  C24 UNL     1      -9.646  48.093 -20.223  1.00  0.00     0.001 A 
HETATM   35  C25 UNL     1     -10.026  48.301 -18.899  1.00  0.00     0.000 A 
HETATM   36  C26 UNL     1      -9.126  48.868 -17.997  1.00  0.00     0.001 A 
HETATM   37  C27 UNL     1      -7.842  49.217 -18.418  1.00  0.00     0.015 A 
ENDBRANCH  24  32
ENDBRANCH  21  22
ENDBRANCH   1  21
TORSDOF 5
ENDMDL
MODEL 5
REMARK minimizedAffinity -9.33884239
REMARK  5 active torsions:
REMARK  status: ('A' for Active; 'I' for Inactive)
REMARK    1  A    between atoms: C2_2  and  C3_3 
REMARK    2  A    between atoms: C3_3  and  N1_4 
REMARK    3  A    between atoms: C4_5  and  S1_6 
REMARK    4  A    between atoms: S1_6  and  C5_7 
REMARK    5  A    between atoms: C21_31  and  C22_32 
ROOT
HETATM    1  C5  UNL     1      -1.459  50.808 -23.197  1.00  0.00     0.093 A 
HETATM    2  C6  UNL     1      -1.177  50.745 -21.865  1.00  0.00    -0.016 A 
HETATM    3  C7  UNL     1      -1.714  49.639 -20.966  1.00  0.00     0.042 C 
HETATM    4  C8  UNL     1      -1.656  49.908 -19.469  1.00  0.00     0.005 C 
HETATM    5  C9  UNL     1      -0.271  50.387 -19.089  1.00  0.00     0.005 C 
HETATM    6  C10 UNL     1       0.013  51.714 -19.778  1.00  0.00     0.041 C 
HETATM    7  C11 UNL     1      -0.255  51.745 -21.276  1.00  0.00    -0.025 A 
HETATM    8  C12 UNL     1       0.321  52.697 -22.056  1.00  0.00     0.096 A 
HETATM    9  C13 UNL     1       1.197  53.689 -21.509  1.00  0.00     0.104 C 
HETATM   10  N2  UNL     1       1.890  54.474 -21.006  1.00  0.00    -0.191 NA
HETATM   11  C14 UNL     1       0.021  52.761 -23.448  1.00  0.00     0.135 A 
HETATM   12  N3  UNL     1       0.475  53.603 -24.350  1.00  0.00    -0.339 N 
ATOM     13  H3  UNL     1       1.154  54.351 -24.210  1.00  0.00     0.167 HD
HETATM   14  C15 UNL     1      -0.150  53.268 -25.511  1.00  0.00     0.061 A 
HETATM   15  C16 UNL     1      -0.016  53.876 -26.771  1.00  0.00     0.032 A 
HETATM   16  C17 UNL     1      -0.776  53.402 -27.840  1.00  0.00     0.002 A 
HETATM   17  C18 UNL     1      -1.662  52.347 -27.657  1.00  0.00     0.002 A 
HETATM   18  C19 UNL     1      -1.806  51.730 -26.407  1.00  0.00     0.032 A 
HETATM   19  C20 UNL     1      -1.025  52.196 -25.333  1.00  0.00     0.068 A 
HETATM   20  N4  UNL     1      -0.881  51.838 -23.985  1.00  0.00    -0.287 N 
ENDROOT
BRANCH   1  21
HETATM   21  S1  UNL     1      -2.476  49.599 -23.953  1.00  0.00    -0.033 SA
BRANCH  21  22
HETATM   22  C4  UNL     1      -3.964  50.001 -23.155  1.00  0.00     0.169 A 
HETATM   23  N1  UNL     1      -4.748  49.090 -22.497  1.00  0.00    -0.307 N 
HETATM   24  C21 UNL     1      -5.822  49.810 -22.009  1.00  0.00     0.135 A 
HETATM   25  N6  UNL     1      -5.694  51.065 -22.397  1.00  0.00    -0.283 N 
HETATM   26  N5  UNL     1      -4.522  51.187 -23.100  1.00  0.00    -0.278 N 
ATOM     27  H6  UNL     1      -6.356  51.818 -22.207  1.00  0.00     0.188 HD
ATOM     28  H5  UNL     1      -4.151  52.046 -23.507  1.00  0.00     0.189 HD
BRANCH  23  29
HETATM   29  C3  UNL     1      -4.578  47.648 -22.441  1.00  0.00     0.159 C 
BRANCH  29  30
HETATM   30  C2  UNL     1      -4.262  47.158 -21.056  1.00  0.00    -0.017 C 
HETATM   31  C1  UNL     1      -3.855  45.914 -20.769  1.00  0.00     0.008 C 
ENDBRANCH  29  30
ENDBRANCH  23  29
BRANCH  24  32
HETATM   32  C22 UNL     1      -6.940  49.274 -21.242  1.00  0.00     0.009 A 
HETATM   33  C23 UNL     1      -7.040  49.555 -19.874  1.00  0.00     0.015 A 
HETATM   34  C24 UNL     1      -8.108  49.055 -19.127  1.00  0.00     0.001 A 
HETATM   35  C25 UNL     1      -9.078  48.263 -19.739  1.00  0.00     0.000 A 
HETATM   36  C26 UNL     1      -8.976  47.961 -21.096  1.00  0.00     0.001 A 
HETATM   37  C27 UNL     1      -7.908  48.460 -21.844  1.00  0.00     0.015 A 
ENDBRANCH  24  32
ENDBRANCH  21  22
ENDBRANCH   1  21
TORSDOF 5
ENDMDL
MODEL 6
REMARK minimizedAffinity -9.12820816
REMARK  5 active torsions:
REMARK  status: ('A' for Active; 'I' for Inactive)
REMARK    1  A    between atoms: C2_2  and  C3_3 
REMARK    2  A    between atoms: C3_3  and  N1_4 
REMARK    3  A    between atoms: C4_5  and  S1_6 
REMARK    4  A    between atoms: S1_6  and  C5_7 
REMARK    5  A    between atoms: C21_31  and  C22_32 
ROOT
HETATM    1  C5  UNL     1      -1.261  49.890 -20.468  1.00  0.00     0.093 A 
HETATM    2  C6  UNL     1      -0.679  50.530 -19.414  1.00  0.00    -0.016 A 
HETATM    3  C7  UNL     1      -0.714  49.973 -17.997  1.00  0.00     0.042 C 
HETATM    4  C8  UNL     1      -0.387  50.959 -16.884  1.00  0.00     0.005 C 
HETATM    5  C9  UNL     1       0.887  51.703 -17.218  1.00  0.00     0.005 C 
HETATM    6  C10 UNL     1       0.677  52.529 -18.478  1.00  0.00     0.041 C 
HETATM    7  C11 UNL     1       0.079  51.781 -19.661  1.00  0.00    -0.025 A 
HETATM    8  C12 UNL     1       0.214  52.269 -20.922  1.00  0.00     0.096 A 
HETATM    9  C13 UNL     1       0.921  53.486 -21.185  1.00  0.00     0.104 C 
HETATM   10  N2  UNL     1       1.496  54.484 -21.334  1.00  0.00    -0.191 NA
HETATM   11  C14 UNL     1      -0.397  51.598 -22.020  1.00  0.00     0.135 A 
HETATM   12  N3  UNL     1      -0.378  51.917 -23.295  1.00  0.00    -0.339 N 
ATOM     13  H3  UNL     1       0.111  52.701 -23.727  1.00  0.00     0.167 HD
HETATM   14  C15 UNL     1      -1.147  50.985 -23.919  1.00  0.00     0.061 A 
HETATM   15  C16 UNL     1      -1.452  50.892 -25.287  1.00  0.00     0.032 A 
HETATM   16  C17 UNL     1      -2.295  49.872 -25.730  1.00  0.00     0.002 A 
HETATM   17  C18 UNL     1      -2.832  48.965 -24.824  1.00  0.00     0.002 A 
HETATM   18  C19 UNL     1      -2.535  49.043 -23.456  1.00  0.00     0.032 A 
HETATM   19  C20 UNL     1      -1.670  50.061 -23.013  1.00  0.00     0.068 A 
HETATM   20  N4  UNL     1      -1.144  50.443 -21.771  1.00  0.00    -0.287 N 
ENDROOT
BRANCH   1  21
HETATM   21  S1  UNL     1      -2.095  48.368 -20.238  1.00  0.00    -0.033 SA
BRANCH  21  22
HETATM   22  C4  UNL     1      -3.705  48.995 -20.077  1.00  0.00     0.169 A 
HETATM   23  N1  UNL     1      -4.792  48.233 -19.739  1.00  0.00    -0.307 N 
HETATM   24  C21 UNL     1      -5.863  49.105 -19.716  1.00  0.00     0.135 A 
HETATM   25  N6  UNL     1      -5.434  50.303 -20.066  1.00  0.00    -0.283 N 
HETATM   26  N5  UNL     1      -4.079  50.237 -20.275  1.00  0.00    -0.278 N 
ATOM     27  H6  UNL     1      -6.011  51.138 -20.164  1.00  0.00     0.188 HD
ATOM     28  H5  UNL     1      -3.472  51.014 -20.537  1.00  0.00     0.189 HD
BRANCH  23  29
HETATM   29  C3  UNL     1      -4.849  46.790 -19.578  1.00  0.00     0.159 C 
BRANCH  29  30
HETATM   30  C2  UNL     1      -4.810  46.061 -20.891  1.00  0.00    -0.017 C 
HETATM   31  C1  UNL     1      -5.874  45.871 -21.683  1.00  0.00     0.008 C 
ENDBRANCH  29  30
ENDBRANCH  23  29
BRANCH  24  32
HETATM   32  C22 UNL     1      -7.247  48.760 -19.416  1.00  0.00     0.009 A 
HETATM   33  C23 UNL     1      -7.696  48.786 -18.089  1.00  0.00     0.015 A 
HETATM   34  C24 UNL     1      -9.020  48.465 -17.785  1.00  0.00     0.001 A 
HETATM   35  C25 UNL     1      -9.902  48.107 -18.802  1.00  0.00     0.000 A 
HETATM   36  C26 UNL     1      -9.460  48.058 -20.123  1.00  0.00     0.001 A 
HETATM   37  C27 UNL     1      -8.136  48.378 -20.428  1.00  0.00     0.015 A 
ENDBRANCH  24  32
ENDBRANCH  21  22
ENDBRANCH   1  21
TORSDOF 5
ENDMDL
MODEL 7
REMARK minimizedAffinity -9.02574921
REMARK  5 active torsions:
REMARK  status: ('A' for Active; 'I' for Inactive)
REMARK    1  A    between atoms: C2_2  and  C3_3 
REMARK    2  A    between atoms: C3_3  and  N1_4 
REMARK    3  A    between atoms: C4_5  and  S1_6 
REMARK    4  A    between atoms: S1_6  and  C5_7 
REMARK    5  A    between atoms: C21_31  and  C22_32 
ROOT
HETATM    1  C5  UNL     1      -2.420  50.673 -23.085  1.00  0.00     0.093 A 
HETATM    2  C6  UNL     1      -2.747  50.118 -24.286  1.00  0.00    -0.016 A 
HETATM    3  C7  UNL     1      -4.040  49.344 -24.506  1.00  0.00     0.042 C 
HETATM    4  C8  UNL     1      -4.087  48.460 -25.744  1.00  0.00     0.005 C 
HETATM    5  C9  UNL     1      -3.634  49.249 -26.953  1.00  0.00     0.005 C 
HETATM    6  C10 UNL     1      -2.181  49.663 -26.773  1.00  0.00     0.041 C 
HETATM    7  C11 UNL     1      -1.849  50.332 -25.446  1.00  0.00    -0.025 A 
HETATM    8  C12 UNL     1      -0.730  51.092 -25.323  1.00  0.00     0.096 A 
HETATM    9  C13 UNL     1       0.165  51.296 -26.421  1.00  0.00     0.104 C 
HETATM   10  N2  UNL     1       0.860  51.416 -27.345  1.00  0.00    -0.191 NA
HETATM   11  C14 UNL     1      -0.391  51.669 -24.065  1.00  0.00     0.135 A 
HETATM   12  N3  UNL     1       0.641  52.423 -23.755  1.00  0.00    -0.339 N 
ATOM     13  H3  UNL     1       1.374  52.752 -24.383  1.00  0.00     0.167 HD
HETATM   14  C15 UNL     1       0.527  52.672 -22.423  1.00  0.00     0.061 A 
HETATM   15  C16 UNL     1       1.391  53.423 -21.608  1.00  0.00     0.032 A 
HETATM   16  C17 UNL     1       1.116  53.534 -20.245  1.00  0.00     0.002 A 
HETATM   17  C18 UNL     1       0.005  52.900 -19.700  1.00  0.00     0.002 A 
HETATM   18  C19 UNL     1      -0.865  52.148 -20.500  1.00  0.00     0.032 A 
HETATM   19  C20 UNL     1      -0.598  52.052 -21.879  1.00  0.00     0.068 A 
HETATM   20  N4  UNL     1      -1.222  51.427 -22.968  1.00  0.00    -0.287 N 
ENDROOT
BRANCH   1  21
HETATM   21  S1  UNL     1      -3.490  50.517 -21.708  1.00  0.00    -0.033 SA
BRANCH  21  22
HETATM   22  C4  UNL     1      -3.317  48.808 -21.459  1.00  0.00     0.169 A 
HETATM   23  N1  UNL     1      -4.339  47.986 -21.063  1.00  0.00    -0.307 N 
HETATM   24  C21 UNL     1      -3.789  46.721 -20.987  1.00  0.00     0.135 A 
HETATM   25  N6  UNL     1      -2.504  46.807 -21.279  1.00  0.00    -0.283 N 
HETATM   26  N5  UNL     1      -2.214  48.111 -21.591  1.00  0.00    -0.278 N 
ATOM     27  H6  UNL     1      -1.840  46.033 -21.275  1.00  0.00     0.188 HD
ATOM     28  H5  UNL     1      -1.303  48.473 -21.876  1.00  0.00     0.189 HD
BRANCH  23  29
HETATM   29  C3  UNL     1      -5.683  48.369 -20.663  1.00  0.00     0.159 C 
BRANCH  29  30
HETATM   30  C2  UNL     1      -6.627  48.463 -21.829  1.00  0.00    -0.017 C 
HETATM   31  C1  UNL     1      -7.231  49.591 -22.224  1.00  0.00     0.008 C 
ENDBRANCH  29  30
ENDBRANCH  23  29
BRANCH  24  32
HETATM   32  C22 UNL     1      -4.485  45.502 -20.596  1.00  0.00     0.009 A 
HETATM   33  C23 UNL     1      -4.118  44.842 -19.416  1.00  0.00     0.015 A 
HETATM   34  C24 UNL     1      -4.779  43.677 -19.024  1.00  0.00     0.001 A 
HETATM   35  C25 UNL     1      -5.804  43.157 -19.812  1.00  0.00     0.000 A 
HETATM   36  C26 UNL     1      -6.162  43.795 -20.998  1.00  0.00     0.001 A 
HETATM   37  C27 UNL     1      -5.502  44.961 -21.392  1.00  0.00     0.015 A 
ENDBRANCH  24  32
ENDBRANCH  21  22
ENDBRANCH   1  21
TORSDOF 5
ENDMDL
MODEL 8
REMARK minimizedAffinity -8.95859623
REMARK  5 active torsions:
REMARK  status: ('A' for Active; 'I' for Inactive)
REMARK    1  A    between atoms: C2_2  and  C3_3 
REMARK    2  A    between atoms: C3_3  and  N1_4 
REMARK    3  A    between atoms: C4_5  and  S1_6 
REMARK    4  A    between atoms: S1_6  and  C5_7 
REMARK    5  A    between atoms: C21_31  and  C22_32 
ROOT
HETATM    1  C5  UNL     1      -2.263  51.173 -23.263  1.00  0.00     0.093 A 
HETATM    2  C6  UNL     1      -2.331  50.895 -24.595  1.00  0.00    -0.016 A 
HETATM    3  C7  UNL     1      -3.591  50.350 -25.255  1.00  0.00     0.042 C 
HETATM    4  C8  UNL     1      -3.407  49.721 -26.629  1.00  0.00     0.005 C 
HETATM    5  C9  UNL     1      -2.606  50.650 -27.514  1.00  0.00     0.005 C 
HETATM    6  C10 UNL     1      -1.212  50.830 -26.931  1.00  0.00     0.041 C 
HETATM    7  C11 UNL     1      -1.161  51.197 -25.454  1.00  0.00    -0.025 A 
HETATM    8  C12 UNL     1      -0.047  51.767 -24.927  1.00  0.00     0.096 A 
HETATM    9  C13 UNL     1       1.105  52.049 -25.730  1.00  0.00     0.104 C 
HETATM   10  N2  UNL     1       2.013  52.243 -26.429  1.00  0.00    -0.191 NA
HETATM   11  C14 UNL     1       0.020  52.056 -23.534  1.00  0.00     0.135 A 
HETATM   12  N3  UNL     1       1.004  52.598 -22.850  1.00  0.00    -0.339 N 
ATOM     13  H3  UNL     1       1.895  52.937 -23.216  1.00  0.00     0.167 HD
HETATM   14  C15 UNL     1       0.588  52.612 -21.555  1.00  0.00     0.061 A 
HETATM   15  C16 UNL     1       1.285  53.083 -20.430  1.00  0.00     0.032 A 
HETATM   16  C17 UNL     1       0.694  52.978 -19.170  1.00  0.00     0.002 A 
HETATM   17  C18 UNL     1      -0.565  52.407 -19.033  1.00  0.00     0.002 A 
HETATM   18  C19 UNL     1      -1.273  51.935 -20.146  1.00  0.00     0.032 A 
HETATM   19  C20 UNL     1      -0.684  52.058 -21.419  1.00  0.00     0.068 A 
HETATM   20  N4  UNL     1      -1.072  51.729 -22.726  1.00  0.00    -0.287 N 
ENDROOT
BRANCH   1  21
HETATM   21  S1  UNL     1      -3.649  50.911 -22.224  1.00  0.00    -0.033 SA
BRANCH  21  22
HETATM   22  C4  UNL     1      -3.377  49.232 -21.877  1.00  0.00     0.169 A 
HETATM   23  N1  UNL     1      -4.325  48.399 -21.344  1.00  0.00    -0.307 N 
HETATM   24  C21 UNL     1      -3.712  47.166 -21.230  1.00  0.00     0.135 A 
HETATM   25  N6  UNL     1      -2.460  47.283 -21.633  1.00  0.00    -0.283 N 
HETATM   26  N5  UNL     1      -2.257  48.573 -22.054  1.00  0.00    -0.278 N 
ATOM     27  H6  UNL     1      -1.762  46.540 -21.632  1.00  0.00     0.188 HD
ATOM     28  H5  UNL     1      -1.389  48.951 -22.436  1.00  0.00     0.189 HD
BRANCH  23  29
HETATM   29  C3  UNL     1      -5.648  48.753 -20.861  1.00  0.00     0.159 C 
BRANCH  29  30
HETATM   30  C2  UNL     1      -6.699  48.655 -21.931  1.00  0.00    -0.017 C 
HETATM   31  C1  UNL     1      -7.322  49.707 -22.479  1.00  0.00     0.008 C 
ENDBRANCH  29  30
ENDBRANCH  23  29
BRANCH  24  32
HETATM   32  C22 UNL     1      -4.317  45.950 -20.702  1.00  0.00     0.009 A 
HETATM   33  C23 UNL     1      -5.356  45.329 -21.408  1.00  0.00     0.015 A 
HETATM   34  C24 UNL     1      -5.942  44.160 -20.920  1.00  0.00     0.001 A 
HETATM   35  C25 UNL     1      -5.501  43.608 -19.718  1.00  0.00     0.000 A 
HETATM   36  C26 UNL     1      -4.482  44.230 -18.998  1.00  0.00     0.001 A 
HETATM   37  C27 UNL     1      -3.895  45.399 -19.486  1.00  0.00     0.015 A 
ENDBRANCH  24  32
ENDBRANCH  21  22
ENDBRANCH   1  21
TORSDOF 5
ENDMDL
MODEL 9
REMARK minimizedAffinity -8.89124203
REMARK  5 active torsions:
REMARK  status: ('A' for Active; 'I' for Inactive)
REMARK    1  A    between atoms: C2_2  and  C3_3 
REMARK    2  A    between atoms: C3_3  and  N1_4 
REMARK    3  A    between atoms: C4_5  and  S1_6 
REMARK    4  A    between atoms: S1_6  and  C5_7 
REMARK    5  A    between atoms: C21_31  and  C22_32 
ROOT
HETATM    1  C5  UNL     1      -2.388  50.749 -22.591  1.00  0.00     0.093 A 
HETATM    2  C6  UNL     1      -2.755  50.088 -23.726  1.00  0.00    -0.016 A 
HETATM    3  C7  UNL     1      -4.052  49.298 -23.831  1.00  0.00     0.042 C 
HETATM    4  C8  UNL     1      -4.140  48.307 -24.983  1.00  0.00     0.005 C 
HETATM    5  C9  UNL     1      -3.730  48.984 -26.272  1.00  0.00     0.005 C 
HETATM    6  C10 UNL     1      -2.272  49.412 -26.180  1.00  0.00     0.041 C 
HETATM    7  C11 UNL     1      -1.897  50.197 -24.931  1.00  0.00    -0.025 A 
HETATM    8  C12 UNL     1      -0.776  50.964 -24.914  1.00  0.00     0.096 A 
HETATM    9  C13 UNL     1       0.080  51.069 -26.056  1.00  0.00     0.104 C 
HETATM   10  N2  UNL     1       0.743  51.105 -27.010  1.00  0.00    -0.191 NA
HETATM   11  C14 UNL     1      -0.396  51.651 -23.725  1.00  0.00     0.135 A 
HETATM   12  N3  UNL     1       0.644  52.429 -23.520  1.00  0.00    -0.339 N 
ATOM     13  H3  UNL     1       1.355  52.700 -24.199  1.00  0.00     0.167 HD
HETATM   14  C15 UNL     1       0.576  52.796 -22.212  1.00  0.00     0.061 A 
HETATM   15  C16 UNL     1       1.464  53.617 -21.497  1.00  0.00     0.032 A 
HETATM   16  C17 UNL     1       1.236  53.850 -20.141  1.00  0.00     0.002 A 
HETATM   17  C18 UNL     1       0.146  53.267 -19.504  1.00  0.00     0.002 A 
HETATM   18  C19 UNL     1      -0.750  52.448 -20.204  1.00  0.00     0.032 A 
HETATM   19  C20 UNL     1      -0.529  52.229 -21.576  1.00  0.00     0.068 A 
HETATM   20  N4  UNL     1      -1.188  51.509 -22.583  1.00  0.00    -0.287 N 
ENDROOT
BRANCH   1  21
HETATM   21  S1  UNL     1      -3.410  50.717 -21.170  1.00  0.00    -0.033 SA
BRANCH  21  22
HETATM   22  C4  UNL     1      -2.409  49.709 -20.173  1.00  0.00     0.169 A 
HETATM   23  N1  UNL     1      -2.216  49.911 -18.832  1.00  0.00    -0.307 N 
HETATM   24  C21 UNL     1      -1.367  48.901 -18.423  1.00  0.00     0.135 A 
HETATM   25  N6  UNL     1      -1.046  48.174 -19.477  1.00  0.00    -0.283 N 
HETATM   26  N5  UNL     1      -1.712  48.670 -20.569  1.00  0.00    -0.278 N 
ATOM     27  H6  UNL     1      -0.409  47.377 -19.480  1.00  0.00     0.188 HD
ATOM     28  H5  UNL     1      -1.672  48.299 -21.518  1.00  0.00     0.189 HD
BRANCH  23  29
HETATM   29  C3  UNL     1      -2.680  51.028 -18.026  1.00  0.00     0.159 C 
BRANCH  29  30
HETATM   30  C2  UNL     1      -3.403  50.583 -16.786  1.00  0.00    -0.017 C 
HETATM   31  C1  UNL     1      -3.058  50.938 -15.541  1.00  0.00     0.008 C 
ENDBRANCH  29  30
ENDBRANCH  23  29
BRANCH  24  32
HETATM   32  C22 UNL     1      -0.860  48.696 -17.072  1.00  0.00     0.009 A 
HETATM   33  C23 UNL     1       0.195  49.488 -16.600  1.00  0.00     0.015 A 
HETATM   34  C24 UNL     1       0.687  49.309 -15.306  1.00  0.00     0.001 A 
HETATM   35  C25 UNL     1       0.137  48.332 -14.479  1.00  0.00     0.000 A 
HETATM   36  C26 UNL     1      -0.899  47.525 -14.947  1.00  0.00     0.001 A 
HETATM   37  C27 UNL     1      -1.392  47.703 -16.241  1.00  0.00     0.015 A 
ENDBRANCH  24  32
ENDBRANCH  21  22
ENDBRANCH   1  21
TORSDOF 5
ENDMDL
