MODEL 1
REMARK minimizedAffinity -6.04070139
REMARK CNNscore 0.672327936
REMARK CNNaffinity 6.19159937
REMARK  12 active torsions:
REMARK  status: ('A' for Active; 'I' for Inactive)
REMARK    1  A    between atoms: C2_2  and  O2_4 
REMARK    2  A    between atoms: O2_4  and  C3_5 
REMARK    3  A    between atoms: C4_6  and  O3_7 
REMARK    4  A    between atoms: O3_7  and  C5_8 
REMARK    5  A    between atoms: C5_8  and  C6_10 
REMARK    6  A    between atoms: C12_16  and  C13_17 
REMARK    7  A    between atoms: C13_17  and  O5_18 
REMARK    8  A    between atoms: O5_18  and  C14_19 
REMARK    9  A    between atoms: C14_19  and  C15_21 
REMARK   10  A    between atoms: C20_28  and  O7_29 
REMARK   11  A    between atoms: O7_29  and  C21_30 
REMARK   12  A    between atoms: C21_30  and  C22_32 
ROOT
HETATM    1  C3  UNL     1      15.805  -2.616   3.995  1.00  0.00     0.169 C 
HETATM    2  C4  UNL     1      15.082  -3.822   4.674  1.00  0.00     0.178 C 
HETATM    3  C12 UNL     1      15.931  -4.602   5.753  1.00  0.00     0.069 C 
HETATM    4  C20 UNL     1      15.498  -6.102   5.808  1.00  0.00     0.148 C 
HETATM    5  C25 UNL     1      16.248  -6.899   6.886  1.00  0.00     0.034 C 
HETATM    6  C26 UNL     1      17.707  -6.483   7.067  1.00  0.00     0.010 C 
HETATM    7  C27 UNL     1      18.309  -5.809   5.828  1.00  0.00     0.017 C 
HETATM    8  C28 UNL     1      18.554  -6.857   4.729  1.00  0.00     0.013 C 
HETATM    9  C29 UNL     1      17.480  -4.558   5.392  1.00  0.00     0.080 C 
HETATM   10  C30 UNL     1      17.706  -4.182   3.920  1.00  0.00     0.050 C 
HETATM   11  C31 UNL     1      17.353  -2.705   3.976  1.00  0.00     0.054 C 
HETATM   12  C32 UNL     1      18.151  -2.290   5.231  1.00  0.00     0.061 C 
HETATM   13  C33 UNL     1      19.656  -2.121   4.916  1.00  0.00     0.046 C 
HETATM   14  C34 UNL     1      17.726  -1.016   5.961  1.00  0.00     0.046 C 
HETATM   15  O9  UNL     1      18.036  -3.420   6.122  1.00  0.00    -0.368 OA
ENDROOT
BRANCH   3  16
HETATM   16  C13 UNL     1      15.633  -3.919   7.135  1.00  0.00     0.197 C 
BRANCH  16  17
HETATM   17  O5  UNL     1      16.723  -4.126   8.052  1.00  0.00    -0.316 OA
BRANCH  17  18
HETATM   18  C14 UNL     1      16.697  -3.396   9.191  1.00  0.00     0.294 C 
HETATM   19  O6  UNL     1      16.072  -2.366   9.375  1.00  0.00    -0.259 OA
BRANCH  18  20
HETATM   20  C15 UNL     1      17.569  -4.027  10.204  1.00  0.00     0.054 A 
HETATM   21  C16 UNL     1      18.725  -3.425  10.711  1.00  0.00     0.020 A 
HETATM   22  C17 UNL     1      19.479  -4.095  11.673  1.00  0.00     0.018 A 
HETATM   23  C18 UNL     1      19.051  -5.345  12.093  1.00  0.00     0.087 A 
HETATM   24  N1  UNL     1      17.945  -5.959  11.617  1.00  0.00    -0.374 N 
HETATM   25  C19 UNL     1      17.230  -5.286  10.679  1.00  0.00     0.105 A 
ATOM     26  H1  UNL     1      17.661  -6.882  11.946  1.00  0.00     0.164 HD
ENDBRANCH  18  20
ENDBRANCH  17  18
ENDBRANCH  16  17
ENDBRANCH   3  16
BRANCH   2  27
HETATM   27  O3  UNL     1      14.699  -4.749   3.614  1.00  0.00    -0.308 OA
BRANCH  27  28
HETATM   28  C5  UNL     1      13.753  -4.308   2.744  1.00  0.00     0.293 C 
HETATM   29  O4  UNL     1      12.698  -3.775   3.051  1.00  0.00    -0.259 OA
BRANCH  28  30
HETATM   30  C6  UNL     1      14.161  -4.572   1.340  1.00  0.00     0.039 A 
HETATM   31  C7  UNL     1      15.358  -4.087   0.798  1.00  0.00     0.017 A 
HETATM   32  C8  UNL     1      15.706  -4.392  -0.521  1.00  0.00     0.001 A 
HETATM   33  C9  UNL     1      14.860  -5.178  -1.303  1.00  0.00     0.000 A 
HETATM   34  C10 UNL     1      13.667  -5.664  -0.771  1.00  0.00     0.001 A 
HETATM   35  C11 UNL     1      13.318  -5.363   0.546  1.00  0.00     0.017 A 
ENDBRANCH  28  30
ENDBRANCH  27  28
ENDBRANCH   2  27
BRANCH   4  36
HETATM   36  O7  UNL     1      14.078  -6.234   6.031  1.00  0.00    -0.315 OA
BRANCH  36  37
HETATM   37  C21 UNL     1      13.654  -6.180   7.326  1.00  0.00     0.262 C 
HETATM   38  O8  UNL     1      14.219  -6.709   8.272  1.00  0.00    -0.265 OA
BRANCH  37  39
HETATM   39  C22 UNL     1      12.379  -5.363   7.413  1.00  0.00     0.077 C 
HETATM   40  C23 UNL     1      11.640  -5.706   8.701  1.00  0.00     0.020 C 
HETATM   41  C24 UNL     1      11.498  -5.603   6.192  1.00  0.00     0.020 C 
ENDBRANCH  37  39
ENDBRANCH  36  37
ENDBRANCH   4  36
BRANCH   1  42
HETATM   42  O2  UNL     1      15.298  -1.395   4.557  1.00  0.00    -0.313 OA
BRANCH  42  43
HETATM   43  C2  UNL     1      14.637  -0.569   3.699  1.00  0.00     0.255 C 
HETATM   44  C1  UNL     1      15.600   0.390   3.069  1.00  0.00     0.126 C 
HETATM   45  O1  UNL     1      13.440  -0.610   3.453  1.00  0.00    -0.266 OA
ENDBRANCH  42  43
ENDBRANCH   1  42
TORSDOF 12
ENDMDL
MODEL 2
REMARK minimizedAffinity -5.44446754
REMARK CNNscore 0.553727388
REMARK CNNaffinity 6.65000582
REMARK  12 active torsions:
REMARK  status: ('A' for Active; 'I' for Inactive)
REMARK    1  A    between atoms: C2_2  and  O2_4 
REMARK    2  A    between atoms: O2_4  and  C3_5 
REMARK    3  A    between atoms: C4_6  and  O3_7 
REMARK    4  A    between atoms: O3_7  and  C5_8 
REMARK    5  A    between atoms: C5_8  and  C6_10 
REMARK    6  A    between atoms: C12_16  and  C13_17 
REMARK    7  A    between atoms: C13_17  and  O5_18 
REMARK    8  A    between atoms: O5_18  and  C14_19 
REMARK    9  A    between atoms: C14_19  and  C15_21 
REMARK   10  A    between atoms: C20_28  and  O7_29 
REMARK   11  A    between atoms: O7_29  and  C21_30 
REMARK   12  A    between atoms: C21_30  and  C22_32 
ROOT
HETATM    1  C3  UNL     1     -15.645   3.809  28.055  1.00  0.00     0.169 C 
HETATM    2  C4  UNL     1     -15.565   4.603  26.713  1.00  0.00     0.178 C 
HETATM    3  C12 UNL     1     -16.537   5.843  26.599  1.00  0.00     0.069 C 
HETATM    4  C20 UNL     1     -16.939   6.085  25.109  1.00  0.00     0.148 C 
HETATM    5  C25 UNL     1     -17.836   7.320  24.929  1.00  0.00     0.034 C 
HETATM    6  C26 UNL     1     -18.828   7.542  26.069  1.00  0.00     0.010 C 
HETATM    7  C27 UNL     1     -19.158   6.265  26.849  1.00  0.00     0.017 C 
HETATM    8  C28 UNL     1     -20.060   5.351  26.001  1.00  0.00     0.013 C 
HETATM    9  C29 UNL     1     -17.872   5.592  27.427  1.00  0.00     0.080 C 
HETATM   10  C30 UNL     1     -18.072   4.100  27.737  1.00  0.00     0.050 C 
HETATM   11  C31 UNL     1     -17.001   3.915  28.800  1.00  0.00     0.054 C 
HETATM   12  C32 UNL     1     -17.287   5.150  29.682  1.00  0.00     0.061 C 
HETATM   13  C33 UNL     1     -18.514   4.922  30.595  1.00  0.00     0.046 C 
HETATM   14  C34 UNL     1     -16.168   5.653  30.593  1.00  0.00     0.046 C 
HETATM   15  O9  UNL     1     -17.652   6.186  28.745  1.00  0.00    -0.368 OA
ENDROOT
BRANCH   3  16
HETATM   16  C13 UNL     1     -15.740   7.085  27.136  1.00  0.00     0.197 C 
BRANCH  16  17
HETATM   17  O5  UNL     1     -14.618   7.380  26.284  1.00  0.00    -0.316 OA
BRANCH  17  18
HETATM   18  C14 UNL     1     -14.444   8.678  25.947  1.00  0.00     0.294 C 
HETATM   19  O6  UNL     1     -15.186   9.603  26.227  1.00  0.00    -0.259 OA
BRANCH  18  20
HETATM   20  C15 UNL     1     -13.205   8.822  25.155  1.00  0.00     0.054 A 
HETATM   21  C16 UNL     1     -12.505   7.741  24.610  1.00  0.00     0.020 A 
HETATM   22  C17 UNL     1     -11.349   7.978  23.867  1.00  0.00     0.018 A 
HETATM   23  C18 UNL     1     -10.932   9.289  23.698  1.00  0.00     0.087 A 
HETATM   24  N1  UNL     1     -11.579  10.356  24.219  1.00  0.00    -0.374 N 
HETATM   25  C19 UNL     1     -12.701  10.097  24.939  1.00  0.00     0.105 A 
ATOM     26  H1  UNL     1     -11.242  11.308  24.077  1.00  0.00     0.164 HD
ENDBRANCH  18  20
ENDBRANCH  17  18
ENDBRANCH  16  17
ENDBRANCH   3  16
BRANCH   2  27
HETATM   27  O3  UNL     1     -15.867   3.665  25.637  1.00  0.00    -0.308 OA
BRANCH  27  28
HETATM   28  C5  UNL     1     -15.447   2.387  25.819  1.00  0.00     0.293 C 
HETATM   29  O4  UNL     1     -16.131   1.466  26.236  1.00  0.00    -0.259 OA
BRANCH  28  30
HETATM   30  C6  UNL     1     -14.013   2.244  25.455  1.00  0.00     0.039 A 
HETATM   31  C7  UNL     1     -13.099   1.540  26.250  1.00  0.00     0.017 A 
HETATM   32  C8  UNL     1     -11.769   1.411  25.842  1.00  0.00     0.001 A 
HETATM   33  C9  UNL     1     -11.345   1.986  24.644  1.00  0.00     0.000 A 
HETATM   34  C10 UNL     1     -12.248   2.688  23.848  1.00  0.00     0.001 A 
HETATM   35  C11 UNL     1     -13.579   2.816  24.251  1.00  0.00     0.017 A 
ENDBRANCH  28  30
ENDBRANCH  27  28
ENDBRANCH   2  27
BRANCH   4  36
HETATM   36  O7  UNL     1     -15.778   6.222  24.264  1.00  0.00    -0.315 OA
BRANCH  36  37
HETATM   37  C21 UNL     1     -15.955   5.974  22.935  1.00  0.00     0.262 C 
HETATM   38  O8  UNL     1     -17.027   6.019  22.349  1.00  0.00    -0.265 OA
BRANCH  37  39
HETATM   39  C22 UNL     1     -14.622   5.636  22.295  1.00  0.00     0.077 C 
HETATM   40  C23 UNL     1     -14.143   6.818  21.459  1.00  0.00     0.020 C 
HETATM   41  C24 UNL     1     -14.732   4.372  21.449  1.00  0.00     0.020 C 
ENDBRANCH  37  39
ENDBRANCH  36  37
ENDBRANCH   4  36
BRANCH   1  42
HETATM   42  O2  UNL     1     -14.508   4.148  28.864  1.00  0.00    -0.313 OA
BRANCH  42  43
HETATM   43  C2  UNL     1     -13.745   3.105  29.295  1.00  0.00     0.255 C 
HETATM   44  C1  UNL     1     -12.303   3.509  29.333  1.00  0.00     0.126 C 
HETATM   45  O1  UNL     1     -14.166   2.008  29.631  1.00  0.00    -0.266 OA
ENDBRANCH  42  43
ENDBRANCH   1  42
TORSDOF 12
ENDMDL
MODEL 3
REMARK minimizedAffinity -6.57396603
REMARK CNNscore 0.377311021
REMARK CNNaffinity 6.09842443
REMARK  12 active torsions:
REMARK  status: ('A' for Active; 'I' for Inactive)
REMARK    1  A    between atoms: C2_2  and  O2_4 
REMARK    2  A    between atoms: O2_4  and  C3_5 
REMARK    3  A    between atoms: C4_6  and  O3_7 
REMARK    4  A    between atoms: O3_7  and  C5_8 
REMARK    5  A    between atoms: C5_8  and  C6_10 
REMARK    6  A    between atoms: C12_16  and  C13_17 
REMARK    7  A    between atoms: C13_17  and  O5_18 
REMARK    8  A    between atoms: O5_18  and  C14_19 
REMARK    9  A    between atoms: C14_19  and  C15_21 
REMARK   10  A    between atoms: C20_28  and  O7_29 
REMARK   11  A    between atoms: O7_29  and  C21_30 
REMARK   12  A    between atoms: C21_30  and  C22_32 
ROOT
HETATM    1  C3  UNL     1       4.622  12.558  17.368  1.00  0.00     0.169 C 
HETATM    2  C4  UNL     1       4.128  11.513  18.418  1.00  0.00     0.178 C 
HETATM    3  C12 UNL     1       2.561  11.416  18.595  1.00  0.00     0.069 C 
HETATM    4  C20 UNL     1       2.203  10.983  20.052  1.00  0.00     0.148 C 
HETATM    5  C25 UNL     1       0.691  10.812  20.267  1.00  0.00     0.034 C 
HETATM    6  C26 UNL     1      -0.165  11.819  19.501  1.00  0.00     0.010 C 
HETATM    7  C27 UNL     1       0.579  13.112  19.150  1.00  0.00     0.017 C 
HETATM    8  C28 UNL     1       0.772  13.966  20.415  1.00  0.00     0.013 C 
HETATM    9  C29 UNL     1       1.875  12.827  18.326  1.00  0.00     0.080 C 
HETATM   10  C30 UNL     1       2.893  13.975  18.408  1.00  0.00     0.050 C 
HETATM   11  C31 UNL     1       3.650  13.739  17.111  1.00  0.00     0.054 C 
HETATM   12  C32 UNL     1       2.462  13.545  16.144  1.00  0.00     0.061 C 
HETATM   13  C33 UNL     1       1.820  14.898  15.756  1.00  0.00     0.046 C 
HETATM   14  C34 UNL     1       2.720  12.806  14.831  1.00  0.00     0.046 C 
HETATM   15  O9  UNL     1       1.479  12.825  16.919  1.00  0.00    -0.368 OA
ENDROOT
BRANCH   3  16
HETATM   16  C13 UNL     1       2.064  10.323  17.585  1.00  0.00     0.197 C 
BRANCH  16  17
HETATM   17  O5  UNL     1       3.168   9.536  17.099  1.00  0.00    -0.316 OA
BRANCH  17  18
HETATM   18  C14 UNL     1       3.060   9.064  15.837  1.00  0.00     0.294 C 
HETATM   19  O6  UNL     1       3.930   9.078  14.983  1.00  0.00    -0.259 OA
BRANCH  18  20
HETATM   20  C15 UNL     1       1.698   8.533  15.621  1.00  0.00     0.054 A 
HETATM   21  C16 UNL     1       0.752   9.144  14.793  1.00  0.00     0.020 A 
HETATM   22  C17 UNL     1      -0.506   8.560  14.644  1.00  0.00     0.018 A 
HETATM   23  C18 UNL     1      -0.773   7.387  15.332  1.00  0.00     0.087 A 
HETATM   24  N1  UNL     1       0.115   6.775  16.147  1.00  0.00    -0.374 N 
HETATM   25  C19 UNL     1       1.331   7.366  16.276  1.00  0.00     0.105 A 
ATOM     26  H1  UNL     1      -0.116   5.914  16.642  1.00  0.00     0.164 HD
ENDBRANCH  18  20
ENDBRANCH  17  18
ENDBRANCH  16  17
ENDBRANCH   3  16
BRANCH   2  27
HETATM   27  O3  UNL     1       4.727  11.870  19.699  1.00  0.00    -0.308 OA
BRANCH  27  28
HETATM   28  C5  UNL     1       6.024  11.505  19.878  1.00  0.00     0.293 C 
HETATM   29  O4  UNL     1       6.619  10.657  19.232  1.00  0.00    -0.259 OA
BRANCH  28  30
HETATM   30  C6  UNL     1       6.641  12.271  20.991  1.00  0.00     0.039 A 
HETATM   31  C7  UNL     1       5.894  13.090  21.849  1.00  0.00     0.017 A 
HETATM   32  C8  UNL     1       6.523  13.764  22.899  1.00  0.00     0.001 A 
HETATM   33  C9  UNL     1       7.897  13.627  23.095  1.00  0.00     0.000 A 
HETATM   34  C10 UNL     1       8.647  12.815  22.246  1.00  0.00     0.001 A 
HETATM   35  C11 UNL     1       8.022  12.138  21.197  1.00  0.00     0.017 A 
ENDBRANCH  28  30
ENDBRANCH  27  28
ENDBRANCH   2  27
BRANCH   4  36
HETATM   36  O7  UNL     1       2.870   9.757  20.418  1.00  0.00    -0.315 OA
BRANCH  36  37
HETATM   37  C21 UNL     1       2.613   9.268  21.665  1.00  0.00     0.262 C 
HETATM   38  O8  UNL     1       1.932   8.282  21.905  1.00  0.00    -0.265 OA
BRANCH  37  39
HETATM   39  C22 UNL     1       3.301  10.132  22.704  1.00  0.00     0.077 C 
HETATM   40  C23 UNL     1       4.786   9.788  22.752  1.00  0.00     0.020 C 
HETATM   41  C24 UNL     1       2.652   9.954  24.072  1.00  0.00     0.020 C 
ENDBRANCH  37  39
ENDBRANCH  36  37
ENDBRANCH   4  36
BRANCH   1  42
HETATM   42  O2  UNL     1       5.025  11.865  16.177  1.00  0.00    -0.313 OA
BRANCH  42  43
HETATM   43  C2  UNL     1       6.357  11.607  16.054  1.00  0.00     0.255 C 
HETATM   44  C1  UNL     1       7.144  12.859  16.291  1.00  0.00     0.126 C 
HETATM   45  O1  UNL     1       6.849  10.514  15.812  1.00  0.00    -0.266 OA
ENDBRANCH  42  43
ENDBRANCH   1  42
TORSDOF 12
ENDMDL
MODEL 4
REMARK minimizedAffinity -5.55467749
REMARK CNNscore 0.320783883
REMARK CNNaffinity 6.53574991
REMARK  12 active torsions:
REMARK  status: ('A' for Active; 'I' for Inactive)
REMARK    1  A    between atoms: C2_2  and  O2_4 
REMARK    2  A    between atoms: O2_4  and  C3_5 
REMARK    3  A    between atoms: C4_6  and  O3_7 
REMARK    4  A    between atoms: O3_7  and  C5_8 
REMARK    5  A    between atoms: C5_8  and  C6_10 
REMARK    6  A    between atoms: C12_16  and  C13_17 
REMARK    7  A    between atoms: C13_17  and  O5_18 
REMARK    8  A    between atoms: O5_18  and  C14_19 
REMARK    9  A    between atoms: C14_19  and  C15_21 
REMARK   10  A    between atoms: C20_28  and  O7_29 
REMARK   11  A    between atoms: O7_29  and  C21_30 
REMARK   12  A    between atoms: C21_30  and  C22_32 
ROOT
HETATM    1  C3  UNL     1      13.910  -7.115   6.841  1.00  0.00     0.169 C 
HETATM    2  C4  UNL     1      15.313  -6.500   6.541  1.00  0.00     0.178 C 
HETATM    3  C12 UNL     1      16.128  -7.200   5.383  1.00  0.00     0.069 C 
HETATM    4  C20 UNL     1      17.663  -7.066   5.639  1.00  0.00     0.148 C 
HETATM    5  C25 UNL     1      18.509  -7.677   4.511  1.00  0.00     0.034 C 
HETATM    6  C26 UNL     1      17.911  -8.940   3.896  1.00  0.00     0.010 C 
HETATM    7  C27 UNL     1      16.946  -9.678   4.832  1.00  0.00     0.017 C 
HETATM    8  C28 UNL     1      17.736 -10.379   5.951  1.00  0.00     0.013 C 
HETATM    9  C29 UNL     1      15.782  -8.751   5.308  1.00  0.00     0.080 C 
HETATM   10  C30 UNL     1      15.126  -9.247   6.606  1.00  0.00     0.050 C 
HETATM   11  C31 UNL     1      13.753  -8.610   6.457  1.00  0.00     0.054 C 
HETATM   12  C32 UNL     1      13.444  -8.987   4.992  1.00  0.00     0.061 C 
HETATM   13  C33 UNL     1      12.993 -10.461   4.870  1.00  0.00     0.046 C 
HETATM   14  C34 UNL     1      12.399  -8.160   4.245  1.00  0.00     0.046 C 
HETATM   15  O9  UNL     1      14.716  -8.884   4.317  1.00  0.00    -0.368 OA
ENDROOT
BRANCH   3  16
HETATM   16  C13 UNL     1      15.750  -6.452   4.056  1.00  0.00     0.197 C 
BRANCH  16  17
HETATM   17  O5  UNL     1      15.395  -5.083   4.324  1.00  0.00    -0.316 OA
BRANCH  17  18
HETATM   18  C14 UNL     1      15.601  -4.201   3.320  1.00  0.00     0.294 C 
HETATM   19  O6  UNL     1      16.495  -4.244   2.493  1.00  0.00    -0.259 OA
BRANCH  18  20
HETATM   20  C15 UNL     1      14.577  -3.137   3.377  1.00  0.00     0.054 A 
HETATM   21  C16 UNL     1      13.258  -3.355   3.787  1.00  0.00     0.020 A 
HETATM   22  C17 UNL     1      12.365  -2.284   3.818  1.00  0.00     0.018 A 
HETATM   23  C18 UNL     1      12.823  -1.034   3.434  1.00  0.00     0.087 A 
HETATM   24  N1  UNL     1      14.088  -0.791   3.023  1.00  0.00    -0.374 N 
HETATM   25  C19 UNL     1      14.936  -1.851   3.001  1.00  0.00     0.105 A 
ATOM     26  H1  UNL     1      14.391   0.143   2.744  1.00  0.00     0.164 HD
ENDBRANCH  18  20
ENDBRANCH  17  18
ENDBRANCH  16  17
ENDBRANCH   3  16
BRANCH   2  27
HETATM   27  O3  UNL     1      16.089  -6.570   7.774  1.00  0.00    -0.308 OA
BRANCH  27  28
HETATM   28  C5  UNL     1      15.597  -5.876   8.834  1.00  0.00     0.293 C 
HETATM   29  O4  UNL     1      14.527  -6.084   9.385  1.00  0.00    -0.259 OA
BRANCH  28  30
HETATM   30  C6  UNL     1      16.533  -4.797   9.241  1.00  0.00     0.039 A 
HETATM   31  C7  UNL     1      17.324  -4.880  10.394  1.00  0.00     0.017 A 
HETATM   32  C8  UNL     1      18.211  -3.847  10.712  1.00  0.00     0.001 A 
HETATM   33  C9  UNL     1      18.308  -2.729   9.885  1.00  0.00     0.000 A 
HETATM   34  C10 UNL     1      17.524  -2.639   8.737  1.00  0.00     0.001 A 
HETATM   35  C11 UNL     1      16.639  -3.669   8.414  1.00  0.00     0.017 A 
ENDBRANCH  28  30
ENDBRANCH  27  28
ENDBRANCH   2  27
BRANCH   4  36
HETATM   36  O7  UNL     1      18.050  -5.688   5.823  1.00  0.00    -0.315 OA
BRANCH  36  37
HETATM   37  C21 UNL     1      19.203  -5.463   6.515  1.00  0.00     0.262 C 
HETATM   38  O8  UNL     1      19.750  -4.376   6.632  1.00  0.00    -0.265 OA
BRANCH  37  39
HETATM   39  C22 UNL     1      19.700  -6.763   7.118  1.00  0.00     0.077 C 
HETATM   40  C23 UNL     1      19.568  -6.704   8.636  1.00  0.00     0.020 C 
HETATM   41  C24 UNL     1      21.141  -7.037   6.702  1.00  0.00     0.020 C 
ENDBRANCH  37  39
ENDBRANCH  36  37
ENDBRANCH   4  36
BRANCH   1  42
HETATM   42  O2  UNL     1      12.899  -6.262   6.283  1.00  0.00    -0.313 OA
BRANCH  42  43
HETATM   43  C2  UNL     1      12.474  -5.238   7.075  1.00  0.00     0.255 C 
HETATM   44  C1  UNL     1      11.282  -5.670   7.874  1.00  0.00     0.126 C 
HETATM   45  O1  UNL     1      12.995  -4.134   7.151  1.00  0.00    -0.266 OA
ENDBRANCH  42  43
ENDBRANCH   1  42
TORSDOF 12
ENDMDL
MODEL 5
REMARK minimizedAffinity -5.49051237
REMARK CNNscore 0.307520688
REMARK CNNaffinity 6.46069717
REMARK  12 active torsions:
REMARK  status: ('A' for Active; 'I' for Inactive)
REMARK    1  A    between atoms: C2_2  and  O2_4 
REMARK    2  A    between atoms: O2_4  and  C3_5 
REMARK    3  A    between atoms: C4_6  and  O3_7 
REMARK    4  A    between atoms: O3_7  and  C5_8 
REMARK    5  A    between atoms: C5_8  and  C6_10 
REMARK    6  A    between atoms: C12_16  and  C13_17 
REMARK    7  A    between atoms: C13_17  and  O5_18 
REMARK    8  A    between atoms: O5_18  and  C14_19 
REMARK    9  A    between atoms: C14_19  and  C15_21 
REMARK   10  A    between atoms: C20_28  and  O7_29 
REMARK   11  A    between atoms: O7_29  and  C21_30 
REMARK   12  A    between atoms: C21_30  and  C22_32 
ROOT
HETATM    1  C3  UNL     1      13.482  -4.355   5.628  1.00  0.00     0.169 C 
HETATM    2  C4  UNL     1      14.464  -5.280   4.840  1.00  0.00     0.178 C 
HETATM    3  C12 UNL     1      14.656  -6.730   5.435  1.00  0.00     0.069 C 
HETATM    4  C20 UNL     1      16.084  -7.269   5.107  1.00  0.00     0.148 C 
HETATM    5  C25 UNL     1      16.308  -8.704   5.609  1.00  0.00     0.034 C 
HETATM    6  C26 UNL     1      15.626  -9.013   6.940  1.00  0.00     0.010 C 
HETATM    7  C27 UNL     1      15.354  -7.767   7.792  1.00  0.00     0.017 C 
HETATM    8  C28 UNL     1      16.673  -7.239   8.383  1.00  0.00     0.013 C 
HETATM    9  C29 UNL     1      14.495  -6.716   7.018  1.00  0.00     0.080 C 
HETATM   10  C30 UNL     1      14.642  -5.296   7.588  1.00  0.00     0.050 C 
HETATM   11  C31 UNL     1      13.321  -4.699   7.131  1.00  0.00     0.054 C 
HETATM   12  C32 UNL     1      12.359  -5.832   7.549  1.00  0.00     0.061 C 
HETATM   13  C33 UNL     1      12.075  -5.802   9.070  1.00  0.00     0.046 C 
HETATM   14  C34 UNL     1      10.995  -5.904   6.865  1.00  0.00     0.046 C 
HETATM   15  O9  UNL     1      13.097  -7.046   7.289  1.00  0.00    -0.368 OA
ENDROOT
BRANCH   3  16
HETATM   16  C13 UNL     1      13.579  -7.642   4.747  1.00  0.00     0.197 C 
BRANCH  16  17
HETATM   17  O5  UNL     1      13.929  -7.895   3.373  1.00  0.00    -0.316 OA
BRANCH  17  18
HETATM   18  C14 UNL     1      13.179  -8.814   2.723  1.00  0.00     0.294 C 
HETATM   19  O6  UNL     1      12.693  -8.695   1.611  1.00  0.00    -0.259 OA
BRANCH  18  20
HETATM   20  C15 UNL     1      13.008 -10.008   3.576  1.00  0.00     0.054 A 
HETATM   21  C16 UNL     1      11.848 -10.275   4.310  1.00  0.00     0.020 A 
HETATM   22  C17 UNL     1      11.777 -11.435   5.080  1.00  0.00     0.018 A 
HETATM   23  C18 UNL     1      12.870 -12.287   5.091  1.00  0.00     0.087 A 
HETATM   24  N1  UNL     1      14.009 -12.055   4.401  1.00  0.00    -0.374 N 
HETATM   25  C19 UNL     1      14.053 -10.917   3.661  1.00  0.00     0.105 A 
ATOM     26  H1  UNL     1      14.797 -12.702   4.434  1.00  0.00     0.164 HD
ENDBRANCH  18  20
ENDBRANCH  17  18
ENDBRANCH  16  17
ENDBRANCH   3  16
BRANCH   2  27
HETATM   27  O3  UNL     1      15.758  -4.607   4.806  1.00  0.00    -0.308 OA
BRANCH  27  28
HETATM   28  C5  UNL     1      15.748  -3.304   4.424  1.00  0.00     0.293 C 
HETATM   29  O4  UNL     1      15.571  -2.348   5.163  1.00  0.00    -0.259 OA
BRANCH  28  30
HETATM   30  C6  UNL     1      15.969  -3.179   2.960  1.00  0.00     0.039 A 
HETATM   31  C7  UNL     1      16.738  -4.097   2.232  1.00  0.00     0.017 A 
HETATM   32  C8  UNL     1      16.886  -3.947   0.851  1.00  0.00     0.001 A 
HETATM   33  C9  UNL     1      16.272  -2.882   0.192  1.00  0.00     0.000 A 
HETATM   34  C10 UNL     1      15.506  -1.966   0.909  1.00  0.00     0.001 A 
HETATM   35  C11 UNL     1      15.353  -2.113   2.289  1.00  0.00     0.017 A 
ENDBRANCH  28  30
ENDBRANCH  27  28
ENDBRANCH   2  27
BRANCH   4  36
HETATM   36  O7  UNL     1      16.355  -7.221   3.691  1.00  0.00    -0.315 OA
BRANCH  36  37
HETATM   37  C21 UNL     1      17.653  -7.388   3.309  1.00  0.00     0.262 C 
HETATM   38  O8  UNL     1      18.620  -6.905   3.879  1.00  0.00    -0.265 OA
BRANCH  37  39
HETATM   39  C22 UNL     1      17.714  -8.265   2.073  1.00  0.00     0.077 C 
HETATM   40  C23 UNL     1      19.136  -8.273   1.522  1.00  0.00     0.020 C 
HETATM   41  C24 UNL     1      16.719  -7.789   1.021  1.00  0.00     0.020 C 
ENDBRANCH  37  39
ENDBRANCH  36  37
ENDBRANCH   4  36
BRANCH   1  42
HETATM   42  O2  UNL     1      12.241  -4.279   4.911  1.00  0.00    -0.313 OA
BRANCH  42  43
HETATM   43  C2  UNL     1      12.212  -3.427   3.848  1.00  0.00     0.255 C 
HETATM   44  C1  UNL     1      12.416  -4.191   2.576  1.00  0.00     0.126 C 
HETATM   45  O1  UNL     1      12.021  -2.221   3.908  1.00  0.00    -0.266 OA
ENDBRANCH  42  43
ENDBRANCH   1  42
TORSDOF 12
ENDMDL
MODEL 6
REMARK minimizedAffinity -7.8381629
REMARK CNNscore 0.235258281
REMARK CNNaffinity 7.26069784
REMARK  12 active torsions:
REMARK  status: ('A' for Active; 'I' for Inactive)
REMARK    1  A    between atoms: C2_2  and  O2_4 
REMARK    2  A    between atoms: O2_4  and  C3_5 
REMARK    3  A    between atoms: C4_6  and  O3_7 
REMARK    4  A    between atoms: O3_7  and  C5_8 
REMARK    5  A    between atoms: C5_8  and  C6_10 
REMARK    6  A    between atoms: C12_16  and  C13_17 
REMARK    7  A    between atoms: C13_17  and  O5_18 
REMARK    8  A    between atoms: O5_18  and  C14_19 
REMARK    9  A    between atoms: C14_19  and  C15_21 
REMARK   10  A    between atoms: C20_28  and  O7_29 
REMARK   11  A    between atoms: O7_29  and  C21_30 
REMARK   12  A    between atoms: C21_30  and  C22_32 
ROOT
HETATM    1  C3  UNL     1      -3.167   5.684  13.553  1.00  0.00     0.169 C 
HETATM    2  C4  UNL     1      -3.137   7.222  13.820  1.00  0.00     0.178 C 
HETATM    3  C12 UNL     1      -1.766   7.940  13.506  1.00  0.00     0.069 C 
HETATM    4  C20 UNL     1      -1.573   9.178  14.439  1.00  0.00     0.148 C 
HETATM    5  C25 UNL     1      -0.281   9.954  14.137  1.00  0.00     0.034 C 
HETATM    6  C26 UNL     1       0.897   9.071  13.730  1.00  0.00     0.010 C 
HETATM    7  C27 UNL     1       0.781   7.627  14.234  1.00  0.00     0.017 C 
HETATM    8  C28 UNL     1       1.036   7.580  15.750  1.00  0.00     0.013 C 
HETATM    9  C29 UNL     1      -0.543   6.952  13.752  1.00  0.00     0.080 C 
HETATM   10  C30 UNL     1      -0.950   5.757  14.628  1.00  0.00     0.050 C 
HETATM   11  C31 UNL     1      -1.787   4.979  13.625  1.00  0.00     0.054 C 
HETATM   12  C32 UNL     1      -0.847   5.028  12.401  1.00  0.00     0.061 C 
HETATM   13  C33 UNL     1       0.306   4.005  12.532  1.00  0.00     0.046 C 
HETATM   14  C34 UNL     1      -1.459   4.803  11.019  1.00  0.00     0.046 C 
HETATM   15  O9  UNL     1      -0.248   6.340  12.458  1.00  0.00    -0.368 OA
ENDROOT
BRANCH   3  16
HETATM   16  C13 UNL     1      -1.842   8.415  12.012  1.00  0.00     0.197 C 
BRANCH  16  17
HETATM   17  O5  UNL     1      -0.555   8.310  11.377  1.00  0.00    -0.316 OA
BRANCH  17  18
HETATM   18  C14 UNL     1      -0.497   8.668  10.074  1.00  0.00     0.294 C 
HETATM   19  O6  UNL     1      -1.246   9.442   9.503  1.00  0.00    -0.259 OA
BRANCH  18  20
HETATM   20  C15 UNL     1       0.617   7.956   9.413  1.00  0.00     0.054 A 
HETATM   21  C16 UNL     1       0.953   8.126   8.067  1.00  0.00     0.020 A 
HETATM   22  C17 UNL     1       2.029   7.417   7.535  1.00  0.00     0.018 A 
HETATM   23  C18 UNL     1       2.730   6.560   8.369  1.00  0.00     0.087 A 
HETATM   24  N1  UNL     1       2.426   6.365   9.672  1.00  0.00    -0.374 N 
HETATM   25  C19 UNL     1       1.372   7.066  10.164  1.00  0.00     0.105 A 
ATOM     26  H1  UNL     1       2.961   5.723  10.257  1.00  0.00     0.164 HD
ENDBRANCH  18  20
ENDBRANCH  17  18
ENDBRANCH  16  17
ENDBRANCH   3  16
BRANCH   2  27
HETATM   27  O3  UNL     1      -3.465   7.422  15.228  1.00  0.00    -0.308 OA
BRANCH  27  28
HETATM   28  C5  UNL     1      -4.300   6.508  15.786  1.00  0.00     0.293 C 
HETATM   29  O4  UNL     1      -3.961   5.444  16.281  1.00  0.00    -0.259 OA
BRANCH  28  30
HETATM   30  C6  UNL     1      -5.712   6.963  15.708  1.00  0.00     0.039 A 
HETATM   31  C7  UNL     1      -6.778   6.202  16.206  1.00  0.00     0.017 A 
HETATM   32  C8  UNL     1      -8.084   6.694  16.132  1.00  0.00     0.001 A 
HETATM   33  C9  UNL     1      -8.332   7.941  15.560  1.00  0.00     0.000 A 
HETATM   34  C10 UNL     1      -7.276   8.703  15.062  1.00  0.00     0.001 A 
HETATM   35  C11 UNL     1      -5.970   8.217  15.136  1.00  0.00     0.017 A 
ENDBRANCH  28  30
ENDBRANCH  27  28
ENDBRANCH   2  27
BRANCH   4  36
HETATM   36  O7  UNL     1      -2.694  10.082  14.355  1.00  0.00    -0.315 OA
BRANCH  36  37
HETATM   37  C21 UNL     1      -2.462  11.379  14.707  1.00  0.00     0.262 C 
HETATM   38  O8  UNL     1      -1.802  12.176  14.055  1.00  0.00    -0.265 OA
BRANCH  37  39
HETATM   39  C22 UNL     1      -3.147  11.683  16.025  1.00  0.00     0.077 C 
HETATM   40  C23 UNL     1      -2.238  12.554  16.885  1.00  0.00     0.020 C 
HETATM   41  C24 UNL     1      -3.519  10.394  16.751  1.00  0.00     0.020 C 
ENDBRANCH  37  39
ENDBRANCH  36  37
ENDBRANCH   4  36
BRANCH   1  42
HETATM   42  O2  UNL     1      -3.883   5.438  12.333  1.00  0.00    -0.313 OA
BRANCH  42  43
HETATM   43  C2  UNL     1      -4.717   4.361  12.332  1.00  0.00     0.255 C 
HETATM   44  C1  UNL     1      -6.043   4.741  12.916  1.00  0.00     0.126 C 
HETATM   45  O1  UNL     1      -4.444   3.251  11.897  1.00  0.00    -0.266 OA
ENDBRANCH  42  43
ENDBRANCH   1  42
TORSDOF 12
ENDMDL
MODEL 7
REMARK minimizedAffinity -5.60388374
REMARK CNNscore 0.235091075
REMARK CNNaffinity 5.47465706
REMARK  12 active torsions:
REMARK  status: ('A' for Active; 'I' for Inactive)
REMARK    1  A    between atoms: C2_2  and  O2_4 
REMARK    2  A    between atoms: O2_4  and  C3_5 
REMARK    3  A    between atoms: C4_6  and  O3_7 
REMARK    4  A    between atoms: O3_7  and  C5_8 
REMARK    5  A    between atoms: C5_8  and  C6_10 
REMARK    6  A    between atoms: C12_16  and  C13_17 
REMARK    7  A    between atoms: C13_17  and  O5_18 
REMARK    8  A    between atoms: O5_18  and  C14_19 
REMARK    9  A    between atoms: C14_19  and  C15_21 
REMARK   10  A    between atoms: C20_28  and  O7_29 
REMARK   11  A    between atoms: O7_29  and  C21_30 
REMARK   12  A    between atoms: C21_30  and  C22_32 
ROOT
HETATM    1  C3  UNL     1       2.989  10.781  20.658  1.00  0.00     0.169 C 
HETATM    2  C4  UNL     1       3.473  12.213  21.049  1.00  0.00     0.178 C 
HETATM    3  C12 UNL     1       2.915  13.388  20.154  1.00  0.00     0.069 C 
HETATM    4  C20 UNL     1       3.940  14.564  20.096  1.00  0.00     0.148 C 
HETATM    5  C25 UNL     1       3.423  15.764  19.287  1.00  0.00     0.034 C 
HETATM    6  C26 UNL     1       2.579  15.381  18.073  1.00  0.00     0.010 C 
HETATM    7  C27 UNL     1       2.866  13.968  17.551  1.00  0.00     0.017 C 
HETATM    8  C28 UNL     1       4.230  13.938  16.840  1.00  0.00     0.013 C 
HETATM    9  C29 UNL     1       2.663  12.890  18.664  1.00  0.00     0.080 C 
HETATM   10  C30 UNL     1       3.420  11.586  18.368  1.00  0.00     0.050 C 
HETATM   11  C31 UNL     1       2.573  10.612  19.173  1.00  0.00     0.054 C 
HETATM   12  C32 UNL     1       1.164  11.054  18.726  1.00  0.00     0.061 C 
HETATM   13  C33 UNL     1       0.816  10.505  17.322  1.00  0.00     0.046 C 
HETATM   14  C34 UNL     1      -0.019  10.696  19.626  1.00  0.00     0.046 C 
HETATM   15  O9  UNL     1       1.259  12.489  18.600  1.00  0.00    -0.368 OA
ENDROOT
BRANCH   3  16
HETATM   16  C13 UNL     1       1.590  13.879  20.838  1.00  0.00     0.197 C 
BRANCH  16  17
HETATM   17  O5  UNL     1       0.613  14.253  19.849  1.00  0.00    -0.316 OA
BRANCH  17  18
HETATM   18  C14 UNL     1      -0.245  15.240  20.194  1.00  0.00     0.294 C 
HETATM   19  O6  UNL     1       0.055  16.334  20.639  1.00  0.00    -0.259 OA
BRANCH  18  20
HETATM   20  C15 UNL     1      -1.634  14.790  19.971  1.00  0.00     0.054 A 
HETATM   21  C16 UNL     1      -1.980  13.752  19.100  1.00  0.00     0.020 A 
HETATM   22  C17 UNL     1      -3.320  13.391  18.963  1.00  0.00     0.018 A 
HETATM   23  C18 UNL     1      -4.267  14.083  19.701  1.00  0.00     0.087 A 
HETATM   24  N1  UNL     1      -3.968  15.097  20.544  1.00  0.00    -0.374 N 
HETATM   25  C19 UNL     1      -2.657  15.430  20.657  1.00  0.00     0.105 A 
ATOM     26  H1  UNL     1      -4.692  15.589  21.069  1.00  0.00     0.164 HD
ENDBRANCH  18  20
ENDBRANCH  17  18
ENDBRANCH  16  17
ENDBRANCH   3  16
BRANCH   2  27
HETATM   27  O3  UNL     1       4.931  12.212  20.973  1.00  0.00    -0.308 OA
BRANCH  27  28
HETATM   28  C5  UNL     1       5.593  11.999  22.139  1.00  0.00     0.293 C 
HETATM   29  O4  UNL     1       5.080  11.681  23.201  1.00  0.00    -0.259 OA
BRANCH  28  30
HETATM   30  C6  UNL     1       7.053  12.219  21.967  1.00  0.00     0.039 A 
HETATM   31  C7  UNL     1       7.629  12.524  20.727  1.00  0.00     0.017 A 
HETATM   32  C8  UNL     1       9.004  12.751  20.630  1.00  0.00     0.001 A 
HETATM   33  C9  UNL     1       9.809  12.672  21.766  1.00  0.00     0.000 A 
HETATM   34  C10 UNL     1       9.243  12.368  23.003  1.00  0.00     0.001 A 
HETATM   35  C11 UNL     1       7.869  12.143  23.105  1.00  0.00     0.017 A 
ENDBRANCH  28  30
ENDBRANCH  27  28
ENDBRANCH   2  27
BRANCH   4  36
HETATM   36  O7  UNL     1       4.305  15.012  21.418  1.00  0.00    -0.315 OA
BRANCH  36  37
HETATM   37  C21 UNL     1       5.569  15.501  21.572  1.00  0.00     0.262 C 
HETATM   38  O8  UNL     1       6.305  15.843  20.658  1.00  0.00    -0.265 OA
BRANCH  37  39
HETATM   39  C22 UNL     1       5.920  15.556  23.047  1.00  0.00     0.077 C 
HETATM   40  C23 UNL     1       5.086  16.634  23.730  1.00  0.00     0.020 C 
HETATM   41  C24 UNL     1       7.411  15.810  23.239  1.00  0.00     0.020 C 
ENDBRANCH  37  39
ENDBRANCH  36  37
ENDBRANCH   4  36
BRANCH   1  42
HETATM   42  O2  UNL     1       1.987  10.358  21.595  1.00  0.00    -0.313 OA
BRANCH  42  43
HETATM   43  C2  UNL     1       2.230   9.187  22.248  1.00  0.00     0.255 C 
HETATM   44  C1  UNL     1       2.905   9.464  23.557  1.00  0.00     0.126 C 
HETATM   45  O1  UNL     1       1.925   8.073  21.848  1.00  0.00    -0.266 OA
ENDBRANCH  42  43
ENDBRANCH   1  42
TORSDOF 12
ENDMDL
MODEL 8
REMARK minimizedAffinity -4.9749012
REMARK CNNscore 0.227803305
REMARK CNNaffinity 6.13730431
REMARK  12 active torsions:
REMARK  status: ('A' for Active; 'I' for Inactive)
REMARK    1  A    between atoms: C2_2  and  O2_4 
REMARK    2  A    between atoms: O2_4  and  C3_5 
REMARK    3  A    between atoms: C4_6  and  O3_7 
REMARK    4  A    between atoms: O3_7  and  C5_8 
REMARK    5  A    between atoms: C5_8  and  C6_10 
REMARK    6  A    between atoms: C12_16  and  C13_17 
REMARK    7  A    between atoms: C13_17  and  O5_18 
REMARK    8  A    between atoms: O5_18  and  C14_19 
REMARK    9  A    between atoms: C14_19  and  C15_21 
REMARK   10  A    between atoms: C20_28  and  O7_29 
REMARK   11  A    between atoms: O7_29  and  C21_30 
REMARK   12  A    between atoms: C21_30  and  C22_32 
ROOT
HETATM    1  C3  UNL     1      14.455  -7.289   6.064  1.00  0.00     0.169 C 
HETATM    2  C4  UNL     1      15.641  -6.782   5.185  1.00  0.00     0.178 C 
HETATM    3  C12 UNL     1      15.952  -7.646   3.900  1.00  0.00     0.069 C 
HETATM    4  C20 UNL     1      17.470  -7.562   3.541  1.00  0.00     0.148 C 
HETATM    5  C25 UNL     1      17.821  -8.335   2.260  1.00  0.00     0.034 C 
HETATM    6  C26 UNL     1      17.029  -9.627   2.074  1.00  0.00     0.010 C 
HETATM    7  C27 UNL     1      16.489 -10.208   3.387  1.00  0.00     0.017 C 
HETATM    8  C28 UNL     1      17.642 -10.819   4.202  1.00  0.00     0.013 C 
HETATM    9  C29 UNL     1      15.598  -9.176   4.150  1.00  0.00     0.080 C 
HETATM   10  C30 UNL     1      15.482  -9.491   5.650  1.00  0.00     0.050 C 
HETATM   11  C31 UNL     1      14.158  -8.807   5.953  1.00  0.00     0.054 C 
HETATM   12  C32 UNL     1      13.314  -9.328   4.770  1.00  0.00     0.061 C 
HETATM   13  C33 UNL     1      12.844 -10.783   5.007  1.00  0.00     0.046 C 
HETATM   14  C34 UNL     1      12.066  -8.538   4.377  1.00  0.00     0.046 C 
HETATM   15  O9  UNL     1      14.234  -9.365   3.658  1.00  0.00    -0.368 OA
ENDROOT
BRANCH   3  16
HETATM   16  C13 UNL     1      15.101  -7.032   2.732  1.00  0.00     0.197 C 
BRANCH  16  17
HETATM   17  O5  UNL     1      14.643  -5.711   3.074  1.00  0.00    -0.316 OA
BRANCH  17  18
HETATM   18  C14 UNL     1      14.578  -4.817   2.062  1.00  0.00     0.294 C 
HETATM   19  O6  UNL     1      14.922  -5.006   0.907  1.00  0.00    -0.259 OA
BRANCH  18  20
HETATM   20  C15 UNL     1      14.037  -3.537   2.564  1.00  0.00     0.054 A 
HETATM   21  C16 UNL     1      12.916  -3.445   3.394  1.00  0.00     0.020 A 
HETATM   22  C17 UNL     1      12.485  -2.191   3.827  1.00  0.00     0.018 A 
HETATM   23  C18 UNL     1      13.191  -1.073   3.411  1.00  0.00     0.087 A 
HETATM   24  N1  UNL     1      14.273  -1.126   2.602  1.00  0.00    -0.374 N 
HETATM   25  C19 UNL     1      14.669  -2.359   2.194  1.00  0.00     0.105 A 
ATOM     26  H1  UNL     1      14.767  -0.282   2.312  1.00  0.00     0.164 HD
ENDBRANCH  18  20
ENDBRANCH  17  18
ENDBRANCH  16  17
ENDBRANCH   3  16
BRANCH   2  27
HETATM   27  O3  UNL     1      16.828  -6.753   6.034  1.00  0.00    -0.308 OA
BRANCH  27  28
HETATM   28  C5  UNL     1      16.665  -6.228   7.276  1.00  0.00     0.293 C 
HETATM   29  O4  UNL     1      16.106  -5.173   7.535  1.00  0.00    -0.259 OA
BRANCH  28  30
HETATM   30  C6  UNL     1      17.276  -7.107   8.307  1.00  0.00     0.039 A 
HETATM   31  C7  UNL     1      17.407  -8.491   8.136  1.00  0.00     0.017 A 
HETATM   32  C8  UNL     1      18.018  -9.265   9.126  1.00  0.00     0.001 A 
HETATM   33  C9  UNL     1      18.496  -8.663  10.289  1.00  0.00     0.000 A 
HETATM   34  C10 UNL     1      18.369  -7.286  10.467  1.00  0.00     0.001 A 
HETATM   35  C11 UNL     1      17.761  -6.509   9.479  1.00  0.00     0.017 A 
ENDBRANCH  28  30
ENDBRANCH  27  28
ENDBRANCH   2  27
BRANCH   4  36
HETATM   36  O7  UNL     1      17.903  -6.193   3.395  1.00  0.00    -0.315 OA
BRANCH  36  37
HETATM   37  C21 UNL     1      19.012  -5.979   2.630  1.00  0.00     0.262 C 
HETATM   38  O8  UNL     1      20.155  -6.263   2.956  1.00  0.00    -0.265 OA
BRANCH  37  39
HETATM   39  C22 UNL     1      18.610  -5.340   1.315  1.00  0.00     0.077 C 
HETATM   40  C23 UNL     1      19.767  -5.435   0.326  1.00  0.00     0.020 C 
HETATM   41  C24 UNL     1      18.184  -3.891   1.525  1.00  0.00     0.020 C 
ENDBRANCH  37  39
ENDBRANCH  36  37
ENDBRANCH   4  36
BRANCH   1  42
HETATM   42  O2  UNL     1      13.312  -6.453   5.829  1.00  0.00    -0.313 OA
BRANCH  42  43
HETATM   43  C2  UNL     1      13.021  -5.545   6.803  1.00  0.00     0.255 C 
HETATM   44  C1  UNL     1      12.604  -6.256   8.054  1.00  0.00     0.126 C 
HETATM   45  O1  UNL     1      13.108  -4.331   6.692  1.00  0.00    -0.266 OA
ENDBRANCH  42  43
ENDBRANCH   1  42
TORSDOF 12
ENDMDL
MODEL 9
REMARK minimizedAffinity -6.13644075
REMARK CNNscore 0.194446594
REMARK CNNaffinity 5.08394241
REMARK  12 active torsions:
REMARK  status: ('A' for Active; 'I' for Inactive)
REMARK    1  A    between atoms: C2_2  and  O2_4 
REMARK    2  A    between atoms: O2_4  and  C3_5 
REMARK    3  A    between atoms: C4_6  and  O3_7 
REMARK    4  A    between atoms: O3_7  and  C5_8 
REMARK    5  A    between atoms: C5_8  and  C6_10 
REMARK    6  A    between atoms: C12_16  and  C13_17 
REMARK    7  A    between atoms: C13_17  and  O5_18 
REMARK    8  A    between atoms: O5_18  and  C14_19 
REMARK    9  A    between atoms: C14_19  and  C15_21 
REMARK   10  A    between atoms: C20_28  and  O7_29 
REMARK   11  A    between atoms: O7_29  and  C21_30 
REMARK   12  A    between atoms: C21_30  and  C22_32 
ROOT
HETATM    1  C3  UNL     1     -16.295  -1.212  15.570  1.00  0.00     0.169 C 
HETATM    2  C4  UNL     1     -15.434  -2.512  15.656  1.00  0.00     0.178 C 
HETATM    3  C12 UNL     1     -15.658  -3.554  14.490  1.00  0.00     0.069 C 
HETATM    4  C20 UNL     1     -15.396  -5.006  14.999  1.00  0.00     0.148 C 
HETATM    5  C25 UNL     1     -15.539  -6.060  13.890  1.00  0.00     0.034 C 
HETATM    6  C26 UNL     1     -16.644  -5.757  12.880  1.00  0.00     0.010 C 
HETATM    7  C27 UNL     1     -17.742  -4.840  13.432  1.00  0.00     0.017 C 
HETATM    8  C28 UNL     1     -18.618  -5.615  14.431  1.00  0.00     0.013 C 
HETATM    9  C29 UNL     1     -17.156  -3.490  13.957  1.00  0.00     0.080 C 
HETATM   10  C30 UNL     1     -18.085  -2.795  14.965  1.00  0.00     0.050 C 
HETATM   11  C31 UNL     1     -17.625  -1.356  14.786  1.00  0.00     0.054 C 
HETATM   12  C32 UNL     1     -17.608  -1.274  13.244  1.00  0.00     0.061 C 
HETATM   13  C33 UNL     1     -19.034  -1.099  12.670  1.00  0.00     0.046 C 
HETATM   14  C34 UNL     1     -16.753  -0.187  12.594  1.00  0.00     0.046 C 
HETATM   15  O9  UNL     1     -17.145  -2.574  12.818  1.00  0.00    -0.368 OA
ENDROOT
BRANCH   3  16
HETATM   16  C13 UNL     1     -14.623  -3.195  13.366  1.00  0.00     0.197 C 
BRANCH  16  17
HETATM   17  O5  UNL     1     -15.130  -3.559  12.069  1.00  0.00    -0.316 OA
BRANCH  17  18
HETATM   18  C14 UNL     1     -14.444  -3.090  11.003  1.00  0.00     0.294 C 
HETATM   19  O6  UNL     1     -13.638  -2.176  11.007  1.00  0.00    -0.259 OA
BRANCH  18  20
HETATM   20  C15 UNL     1     -14.831  -3.846   9.793  1.00  0.00     0.054 A 
HETATM   21  C16 UNL     1     -15.893  -4.756   9.757  1.00  0.00     0.020 A 
HETATM   22  C17 UNL     1     -16.189  -5.415   8.564  1.00  0.00     0.018 A 
HETATM   23  C18 UNL     1     -15.410  -5.143   7.450  1.00  0.00     0.087 A 
HETATM   24  N1  UNL     1     -14.372  -4.277   7.453  1.00  0.00    -0.374 N 
HETATM   25  C19 UNL     1     -14.104  -3.650   8.628  1.00  0.00     0.105 A 
ATOM     26  H1  UNL     1     -13.817  -4.103   6.615  1.00  0.00     0.164 HD
ENDBRANCH  18  20
ENDBRANCH  17  18
ENDBRANCH  16  17
ENDBRANCH   3  16
BRANCH   2  27
HETATM   27  O3  UNL     1     -15.746  -3.153  16.929  1.00  0.00    -0.308 OA
BRANCH  27  28
HETATM   28  C5  UNL     1     -16.517  -2.438  17.789  1.00  0.00     0.293 C 
HETATM   29  O4  UNL     1     -16.238  -1.344  18.253  1.00  0.00    -0.259 OA
BRANCH  28  30
HETATM   30  C6  UNL     1     -17.767  -3.173  18.116  1.00  0.00     0.039 A 
HETATM   31  C7  UNL     1     -18.957  -2.520  18.464  1.00  0.00     0.017 A 
HETATM   32  C8  UNL     1     -20.111  -3.261  18.732  1.00  0.00     0.001 A 
HETATM   33  C9  UNL     1     -20.082  -4.653  18.656  1.00  0.00     0.000 A 
HETATM   34  C10 UNL     1     -18.902  -5.310  18.310  1.00  0.00     0.001 A 
HETATM   35  C11 UNL     1     -17.748  -4.573  18.040  1.00  0.00     0.017 A 
ENDBRANCH  28  30
ENDBRANCH  27  28
ENDBRANCH   2  27
BRANCH   4  36
HETATM   36  O7  UNL     1     -14.088  -5.129  15.596  1.00  0.00    -0.315 OA
BRANCH  36  37
HETATM   37  C21 UNL     1     -13.849  -6.258  16.323  1.00  0.00     0.262 C 
HETATM   38  O8  UNL     1     -14.526  -6.641  17.266  1.00  0.00    -0.265 OA
BRANCH  37  39
HETATM   39  C22 UNL     1     -12.621  -6.965  15.783  1.00  0.00     0.077 C 
HETATM   40  C23 UNL     1     -11.659  -7.263  16.928  1.00  0.00     0.020 C 
HETATM   41  C24 UNL     1     -11.946  -6.127  14.702  1.00  0.00     0.020 C 
ENDBRANCH  37  39
ENDBRANCH  36  37
ENDBRANCH   4  36
BRANCH   1  42
HETATM   42  O2  UNL     1     -15.463  -0.134  15.113  1.00  0.00    -0.313 OA
BRANCH  42  43
HETATM   43  C2  UNL     1     -15.542   1.027  15.821  1.00  0.00     0.255 C 
HETATM   44  C1  UNL     1     -15.216   2.189  14.933  1.00  0.00     0.126 C 
HETATM   45  O1  UNL     1     -15.858   1.122  16.998  1.00  0.00    -0.266 OA
ENDBRANCH  42  43
ENDBRANCH   1  42
TORSDOF 12
ENDMDL
