MODEL 1
REMARK minimizedAffinity -9.10824776
REMARK CNNscore 0.419090331
REMARK CNNaffinity 6.08948517
REMARK  11 active torsions:
REMARK  status: ('A' for Active; 'I' for Inactive)
REMARK    1  A    between atoms: C3_3  and  O1_4 
REMARK    2  A    between atoms: N1_14  and  O2_16 
REMARK    3  A    between atoms: O2_16  and  C13_17 
REMARK    4  A    between atoms: C13_17  and  C14_18 
REMARK       I    between atoms: C14_18  and  N2_20 
REMARK    5  A    between atoms: N2_20  and  C15_21 
REMARK    6  A    between atoms: C15_21  and  C16_22 
REMARK    7  A    between atoms: C15_21  and  C17_25 
REMARK    8  A    between atoms: C16_22  and  O5_24 
REMARK    9  A    between atoms: C17_25  and  O6_26 
REMARK   10  A    between atoms: C17_25  and  C18_27 
REMARK   11  A    between atoms: C22_31  and  N3_32 
ROOT
HETATM    1  C1  UNL     1      -0.020  51.606 -24.799  1.00  0.00     0.015 C 
HETATM    2  C2  UNL     1      -1.211  51.459 -24.875  1.00  0.00    -0.078 C 
HETATM    3  C3  UNL     1      -2.670  51.293 -24.970  1.00  0.00     0.128 C 
HETATM    4  C4  UNL     1      -3.424  52.303 -24.097  1.00  0.00     0.052 C 
HETATM    5  C5  UNL     1      -4.755  51.633 -23.736  1.00  0.00     0.010 C 
HETATM    6  C6  UNL     1      -4.710  50.207 -24.322  1.00  0.00     0.002 C 
HETATM    7  C7  UNL     1      -5.498  49.138 -23.531  1.00  0.00    -0.004 C 
HETATM    8  C8  UNL     1      -6.962  49.565 -23.327  1.00  0.00     0.010 C 
HETATM    9  C9  UNL     1      -7.765  48.499 -22.593  1.00  0.00     0.035 C 
HETATM   10  C10 UNL     1      -7.117  48.145 -21.276  1.00  0.00    -0.069 C 
HETATM   11  C11 UNL     1      -7.829  48.232 -20.136  1.00  0.00     0.030 C 
HETATM   12  C12 UNL     1      -7.238  47.832 -18.830  1.00  0.00     0.032 C 
HETATM   13  N1  UNL     1      -7.716  48.098 -17.654  1.00  0.00    -0.271 N 
ATOM     14  H1  UNL     1      -7.282  47.800 -16.780  1.00  0.00     0.194 HD
HETATM   15  C24 UNL     1      -5.965  47.018 -18.891  1.00  0.00     0.060 C 
HETATM   16  C25 UNL     1      -5.029  47.637 -19.916  1.00  0.00     0.020 C 
HETATM   17  C26 UNL     1      -5.646  47.711 -21.346  1.00  0.00    -0.016 C 
HETATM   18  C27 UNL     1      -5.584  46.301 -21.978  1.00  0.00     0.020 C 
HETATM   19  C28 UNL     1      -4.831  48.774 -22.179  1.00  0.00     0.002 C 
HETATM   20  C29 UNL     1      -3.362  48.375 -22.416  1.00  0.00     0.007 C 
HETATM   21  C30 UNL     1      -2.578  49.479 -23.127  1.00  0.00     0.014 C 
HETATM   22  C31 UNL     1      -3.195  49.907 -24.484  1.00  0.00     0.003 C 
HETATM   23  C32 UNL     1      -2.964  48.802 -25.534  1.00  0.00     0.020 C 
ENDROOT
BRANCH   3  24
HETATM   24  O1  UNL     1      -3.062  51.516 -26.326  1.00  0.00    -0.377 OA
HETATM   25  H2  UNL     1      -2.676  52.367 -26.596  1.00  0.00     0.211 HD
ENDBRANCH   3  24
BRANCH  13  26
HETATM   26  O2  UNL     1      -8.904  48.846 -17.727  1.00  0.00    -0.271 OA
BRANCH  26  27
HETATM   27  C13 UNL     1      -9.899  48.219 -16.933  1.00  0.00     0.303 C 
BRANCH  27  28
HETATM   28  C14 UNL     1     -11.125  47.797 -17.740  1.00  0.00     0.244 C 
HETATM   29  O3  UNL     1     -11.260  47.961 -18.949  1.00  0.00    -0.271 OA
HETATM   30  N2  UNL     1     -12.107  47.205 -16.974  1.00  0.00    -0.342 N 
HETATM   31  H16 UNL     1     -11.955  47.015 -15.987  1.00  0.00     0.163 HD
BRANCH  30  32
HETATM   32  C15 UNL     1     -13.341  46.662 -17.563  1.00  0.00     0.216 C 
BRANCH  32  33
HETATM   33  C16 UNL     1     -14.166  46.004 -16.451  1.00  0.00     0.166 C 
HETATM   34  O4  UNL     1     -14.304  46.404 -15.306  1.00  0.00    -0.648 OA
BRANCH  33  35
HETATM   35  O5  UNL     1     -14.809  44.875 -16.842  1.00  0.00    -0.775 OA
HETATM   36  H18 UNL     1     -15.300  44.599 -16.039  1.00  0.00     0.167 HD
ENDBRANCH  33  35
ENDBRANCH  32  33
BRANCH  32  37
HETATM   37  C17 UNL     1     -14.168  47.754 -18.291  1.00  0.00     0.184 C 
BRANCH  37  38
HETATM   38  O6  UNL     1     -14.812  48.591 -17.311  1.00  0.00    -0.388 OA
HETATM   39  H20 UNL     1     -15.771  48.434 -17.371  1.00  0.00     0.210 HD
ENDBRANCH  37  38
BRANCH  37  40
HETATM   40  C18 UNL     1     -15.187  47.330 -19.343  1.00  0.00    -0.025 A 
HETATM   41  C19 UNL     1     -14.717  47.048 -20.643  1.00  0.00     0.010 A 
HETATM   42  C20 UNL     1     -15.585  46.656 -21.667  1.00  0.00     0.003 A 
HETATM   43  C21 UNL     1     -16.948  46.530 -21.415  1.00  0.00     0.036 A 
HETATM   44  C22 UNL     1     -17.431  46.790 -20.127  1.00  0.00     0.103 A 
HETATM   45  C23 UNL     1     -16.560  47.179 -19.095  1.00  0.00     0.045 A 
BRANCH  44  46
HETATM   46  N3  UNL     1     -18.867  46.652 -19.853  1.00  0.00    -0.116 N 
HETATM   47  O7  UNL     1     -19.399  47.493 -19.115  1.00  0.00    -0.532 OA
HETATM   48  O8  UNL     1     -19.465  45.700 -20.376  1.00  0.00    -0.532 OA
ENDBRANCH  44  46
ENDBRANCH  37  40
ENDBRANCH  32  37
ENDBRANCH  30  32
ENDBRANCH  27  28
ENDBRANCH  26  27
ENDBRANCH  13  26
TORSDOF 11
ENDMDL
MODEL 2
REMARK minimizedAffinity -10.1159372
REMARK CNNscore 0.385240614
REMARK CNNaffinity 7.64064932
REMARK  11 active torsions:
REMARK  status: ('A' for Active; 'I' for Inactive)
REMARK    1  A    between atoms: C3_3  and  O1_4 
REMARK    2  A    between atoms: N1_14  and  O2_16 
REMARK    3  A    between atoms: O2_16  and  C13_17 
REMARK    4  A    between atoms: C13_17  and  C14_18 
REMARK       I    between atoms: C14_18  and  N2_20 
REMARK    5  A    between atoms: N2_20  and  C15_21 
REMARK    6  A    between atoms: C15_21  and  C16_22 
REMARK    7  A    between atoms: C15_21  and  C17_25 
REMARK    8  A    between atoms: C16_22  and  O5_24 
REMARK    9  A    between atoms: C17_25  and  O6_26 
REMARK   10  A    between atoms: C17_25  and  C18_27 
REMARK   11  A    between atoms: C22_31  and  N3_32 
ROOT
HETATM    1  C1  UNL     1       2.162  51.694 -27.750  1.00  0.00     0.015 C 
HETATM    2  C2  UNL     1       1.344  52.190 -27.022  1.00  0.00    -0.078 C 
HETATM    3  C3  UNL     1       0.353  52.805 -26.124  1.00  0.00     0.128 C 
HETATM    4  C4  UNL     1       0.816  52.797 -24.662  1.00  0.00     0.052 C 
HETATM    5  C5  UNL     1      -0.463  52.786 -23.818  1.00  0.00     0.010 C 
HETATM    6  C6  UNL     1      -1.647  52.687 -24.803  1.00  0.00     0.002 C 
HETATM    7  C7  UNL     1      -2.892  51.942 -24.272  1.00  0.00    -0.004 C 
HETATM    8  C8  UNL     1      -3.378  52.547 -22.943  1.00  0.00     0.010 C 
HETATM    9  C9  UNL     1      -4.636  51.855 -22.433  1.00  0.00     0.035 C 
HETATM   10  C10 UNL     1      -4.420  50.367 -22.302  1.00  0.00    -0.069 C 
HETATM   11  C11 UNL     1      -4.653  49.759 -21.123  1.00  0.00     0.030 C 
HETATM   12  C12 UNL     1      -4.508  48.285 -20.978  1.00  0.00     0.032 C 
HETATM   13  N1  UNL     1      -4.458  47.621 -19.865  1.00  0.00    -0.271 N 
ATOM     14  H1  UNL     1      -4.363  46.607 -19.808  1.00  0.00     0.194 HD
HETATM   15  C24 UNL     1      -4.433  47.489 -22.261  1.00  0.00     0.060 C 
HETATM   16  C25 UNL     1      -3.488  48.188 -23.224  1.00  0.00     0.020 C 
HETATM   17  C26 UNL     1      -3.923  49.646 -23.564  1.00  0.00    -0.016 C 
HETATM   18  C27 UNL     1      -5.087  49.584 -24.578  1.00  0.00     0.020 C 
HETATM   19  C28 UNL     1      -2.670  50.413 -24.139  1.00  0.00     0.002 C 
HETATM   20  C29 UNL     1      -2.163  49.843 -25.478  1.00  0.00     0.007 C 
HETATM   21  C30 UNL     1      -0.883  50.539 -25.945  1.00  0.00     0.014 C 
HETATM   22  C31 UNL     1      -1.025  52.077 -26.088  1.00  0.00     0.003 C 
HETATM   23  C32 UNL     1      -1.885  52.408 -27.324  1.00  0.00     0.020 C 
ENDROOT
BRANCH   3  24
HETATM   24  O1  UNL     1       0.176  54.168 -26.514  1.00  0.00    -0.377 OA
HETATM   25  H2  UNL     1       1.062  54.566 -26.564  1.00  0.00     0.211 HD
ENDBRANCH   3  24
BRANCH  13  26
HETATM   26  O2  UNL     1      -4.550  48.466 -18.746  1.00  0.00    -0.271 OA
BRANCH  26  27
HETATM   27  C13 UNL     1      -4.190  47.739 -17.582  1.00  0.00     0.303 C 
BRANCH  27  28
HETATM   28  C14 UNL     1      -3.077  48.410 -16.781  1.00  0.00     0.244 C 
HETATM   29  O3  UNL     1      -2.189  47.815 -16.177  1.00  0.00    -0.271 OA
HETATM   30  N2  UNL     1      -3.156  49.787 -16.782  1.00  0.00    -0.342 N 
HETATM   31  H16 UNL     1      -3.855  50.270 -17.339  1.00  0.00     0.163 HD
BRANCH  30  32
HETATM   32  C15 UNL     1      -2.142  50.632 -16.130  1.00  0.00     0.216 C 
BRANCH  32  33
HETATM   33  C16 UNL     1      -2.179  50.365 -14.621  1.00  0.00     0.166 C 
HETATM   34  O4  UNL     1      -1.254  49.984 -13.921  1.00  0.00    -0.648 OA
BRANCH  33  35
HETATM   35  O5  UNL     1      -3.383  50.617 -14.050  1.00  0.00    -0.775 OA
HETATM   36  H18 UNL     1      -3.233  50.424 -13.099  1.00  0.00     0.167 HD
ENDBRANCH  33  35
ENDBRANCH  32  33
BRANCH  32  37
HETATM   37  C17 UNL     1      -0.721  50.380 -16.699  1.00  0.00     0.184 C 
BRANCH  37  38
HETATM   38  O6  UNL     1       0.244  51.074 -15.887  1.00  0.00    -0.388 OA
HETATM   39  H20 UNL     1       0.624  51.791 -16.425  1.00  0.00     0.210 HD
ENDBRANCH  37  38
BRANCH  37  40
HETATM   40  C18 UNL     1      -0.452  50.677 -18.171  1.00  0.00    -0.025 A 
HETATM   41  C19 UNL     1      -0.803  49.694 -19.119  1.00  0.00     0.010 A 
HETATM   42  C20 UNL     1      -0.588  49.885 -20.488  1.00  0.00     0.003 A 
HETATM   43  C21 UNL     1      -0.020  51.071 -20.944  1.00  0.00     0.036 A 
HETATM   44  C22 UNL     1       0.320  52.065 -20.020  1.00  0.00     0.103 A 
HETATM   45  C23 UNL     1       0.100  51.877 -18.644  1.00  0.00     0.045 A 
BRANCH  44  46
HETATM   46  N3  UNL     1       0.914  53.321 -20.496  1.00  0.00    -0.116 N 
HETATM   47  O7  UNL     1       0.365  54.382 -20.167  1.00  0.00    -0.532 OA
HETATM   48  O8  UNL     1       1.930  53.247 -21.203  1.00  0.00    -0.532 OA
ENDBRANCH  44  46
ENDBRANCH  37  40
ENDBRANCH  32  37
ENDBRANCH  30  32
ENDBRANCH  27  28
ENDBRANCH  26  27
ENDBRANCH  13  26
TORSDOF 11
ENDMDL
MODEL 3
REMARK minimizedAffinity -10.1721525
REMARK CNNscore 0.312759042
REMARK CNNaffinity 7.35018158
REMARK  11 active torsions:
REMARK  status: ('A' for Active; 'I' for Inactive)
REMARK    1  A    between atoms: C3_3  and  O1_4 
REMARK    2  A    between atoms: N1_14  and  O2_16 
REMARK    3  A    between atoms: O2_16  and  C13_17 
REMARK    4  A    between atoms: C13_17  and  C14_18 
REMARK       I    between atoms: C14_18  and  N2_20 
REMARK    5  A    between atoms: N2_20  and  C15_21 
REMARK    6  A    between atoms: C15_21  and  C16_22 
REMARK    7  A    between atoms: C15_21  and  C17_25 
REMARK    8  A    between atoms: C16_22  and  O5_24 
REMARK    9  A    between atoms: C17_25  and  O6_26 
REMARK   10  A    between atoms: C17_25  and  C18_27 
REMARK   11  A    between atoms: C22_31  and  N3_32 
ROOT
HETATM    1  C1  UNL     1       1.516  51.815 -28.340  1.00  0.00     0.015 C 
HETATM    2  C2  UNL     1       0.850  52.266 -27.446  1.00  0.00    -0.078 C 
HETATM    3  C3  UNL     1       0.046  52.825 -26.348  1.00  0.00     0.128 C 
HETATM    4  C4  UNL     1       0.795  52.797 -25.011  1.00  0.00     0.052 C 
HETATM    5  C5  UNL     1      -0.285  52.723 -23.927  1.00  0.00     0.010 C 
HETATM    6  C6  UNL     1      -1.641  52.609 -24.654  1.00  0.00     0.002 C 
HETATM    7  C7  UNL     1      -2.732  51.810 -23.906  1.00  0.00    -0.004 C 
HETATM    8  C8  UNL     1      -2.954  52.366 -22.489  1.00  0.00     0.010 C 
HETATM    9  C9  UNL     1      -4.063  51.621 -21.756  1.00  0.00     0.035 C 
HETATM   10  C10 UNL     1      -3.784  50.138 -21.717  1.00  0.00    -0.069 C 
HETATM   11  C11 UNL     1      -3.756  49.494 -20.535  1.00  0.00     0.030 C 
HETATM   12  C12 UNL     1      -3.544  48.022 -20.468  1.00  0.00     0.032 C 
HETATM   13  N1  UNL     1      -3.251  47.334 -19.408  1.00  0.00    -0.271 N 
ATOM     14  H1  UNL     1      -3.118  46.322 -19.403  1.00  0.00     0.194 HD
HETATM   15  C24 UNL     1      -3.709  47.260 -21.763  1.00  0.00     0.060 C 
HETATM   16  C25 UNL     1      -2.998  48.014 -22.875  1.00  0.00     0.020 C 
HETATM   17  C26 UNL     1      -3.534  49.465 -23.075  1.00  0.00    -0.016 C 
HETATM   18  C27 UNL     1      -4.877  49.389 -23.835  1.00  0.00     0.020 C 
HETATM   19  C28 UNL     1      -2.445  50.287 -23.868  1.00  0.00     0.002 C 
HETATM   20  C29 UNL     1      -2.204  49.767 -25.298  1.00  0.00     0.007 C 
HETATM   21  C30 UNL     1      -1.066  50.516 -25.993  1.00  0.00     0.014 C 
HETATM   22  C31 UNL     1      -1.276  52.051 -26.057  1.00  0.00     0.003 C 
HETATM   23  C32 UNL     1      -2.378  52.384 -27.083  1.00  0.00     0.020 C 
ENDROOT
BRANCH   3  24
HETATM   24  O1  UNL     1      -0.244  54.191 -26.652  1.00  0.00    -0.377 OA
HETATM   25  H2  UNL     1       0.602  54.619 -26.869  1.00  0.00     0.211 HD
ENDBRANCH   3  24
BRANCH  13  26
HETATM   26  O2  UNL     1      -3.137  48.147 -18.268  1.00  0.00    -0.271 OA
BRANCH  26  27
HETATM   27  C13 UNL     1      -1.765  48.321 -17.954  1.00  0.00     0.303 C 
BRANCH  27  28
HETATM   28  C14 UNL     1      -1.512  48.474 -16.456  1.00  0.00     0.244 C 
HETATM   29  O3  UNL     1      -2.388  48.613 -15.607  1.00  0.00    -0.271 OA
HETATM   30  N2  UNL     1      -0.174  48.456 -16.122  1.00  0.00    -0.342 N 
HETATM   31  H16 UNL     1       0.537  48.275 -16.825  1.00  0.00     0.163 HD
BRANCH  30  32
HETATM   32  C15 UNL     1       0.287  48.519 -14.726  1.00  0.00     0.216 C 
BRANCH  32  33
HETATM   33  C16 UNL     1       1.542  47.650 -14.584  1.00  0.00     0.166 C 
HETATM   34  O4  UNL     1       2.598  47.967 -14.060  1.00  0.00    -0.648 OA
BRANCH  33  35
HETATM   35  O5  UNL     1       1.400  46.399 -15.089  1.00  0.00    -0.775 OA
HETATM   36  H18 UNL     1       2.265  45.974 -14.900  1.00  0.00     0.167 HD
ENDBRANCH  33  35
ENDBRANCH  32  33
BRANCH  32  37
HETATM   37  C17 UNL     1       0.572  49.976 -14.273  1.00  0.00     0.184 C 
BRANCH  37  38
HETATM   38  O6  UNL     1      -0.650  50.570 -13.797  1.00  0.00    -0.388 OA
HETATM   39  H20 UNL     1      -0.903  51.271 -14.424  1.00  0.00     0.210 HD
ENDBRANCH  37  38
BRANCH  37  40
HETATM   40  C18 UNL     1       1.255  50.931 -15.246  1.00  0.00    -0.025 A 
HETATM   41  C19 UNL     1       2.552  51.386 -14.927  1.00  0.00     0.010 A 
HETATM   42  C20 UNL     1       3.247  52.265 -15.763  1.00  0.00     0.003 A 
HETATM   43  C21 UNL     1       2.663  52.709 -16.945  1.00  0.00     0.036 A 
HETATM   44  C22 UNL     1       1.384  52.257 -17.288  1.00  0.00     0.103 A 
HETATM   45  C23 UNL     1       0.685  51.369 -16.452  1.00  0.00     0.045 A 
BRANCH  44  46
HETATM   46  N3  UNL     1       0.766  52.717 -18.538  1.00  0.00    -0.116 N 
HETATM   47  O7  UNL     1       1.497  53.252 -19.383  1.00  0.00    -0.532 OA
HETATM   48  O8  UNL     1      -0.455  52.545 -18.675  1.00  0.00    -0.532 OA
ENDBRANCH  44  46
ENDBRANCH  37  40
ENDBRANCH  32  37
ENDBRANCH  30  32
ENDBRANCH  27  28
ENDBRANCH  26  27
ENDBRANCH  13  26
TORSDOF 11
ENDMDL
MODEL 4
REMARK minimizedAffinity -10.8637142
REMARK CNNscore 0.236559004
REMARK CNNaffinity 7.09508133
REMARK  11 active torsions:
REMARK  status: ('A' for Active; 'I' for Inactive)
REMARK    1  A    between atoms: C3_3  and  O1_4 
REMARK    2  A    between atoms: N1_14  and  O2_16 
REMARK    3  A    between atoms: O2_16  and  C13_17 
REMARK    4  A    between atoms: C13_17  and  C14_18 
REMARK       I    between atoms: C14_18  and  N2_20 
REMARK    5  A    between atoms: N2_20  and  C15_21 
REMARK    6  A    between atoms: C15_21  and  C16_22 
REMARK    7  A    between atoms: C15_21  and  C17_25 
REMARK    8  A    between atoms: C16_22  and  O5_24 
REMARK    9  A    between atoms: C17_25  and  O6_26 
REMARK   10  A    between atoms: C17_25  and  C18_27 
REMARK   11  A    between atoms: C22_31  and  N3_32 
ROOT
HETATM    1  C1  UNL     1       0.892  51.739 -28.531  1.00  0.00     0.015 C 
HETATM    2  C2  UNL     1      -0.057  52.086 -27.879  1.00  0.00    -0.078 C 
HETATM    3  C3  UNL     1      -1.212  52.522 -27.078  1.00  0.00     0.128 C 
HETATM    4  C4  UNL     1      -0.786  53.163 -25.752  1.00  0.00     0.052 C 
HETATM    5  C5  UNL     1      -1.949  52.929 -24.781  1.00  0.00     0.010 C 
HETATM    6  C6  UNL     1      -2.990  52.071 -25.530  1.00  0.00     0.002 C 
HETATM    7  C7  UNL     1      -3.822  51.115 -24.647  1.00  0.00    -0.004 C 
HETATM    8  C8  UNL     1      -4.512  51.876 -23.501  1.00  0.00     0.010 C 
HETATM    9  C9  UNL     1      -5.379  50.956 -22.651  1.00  0.00     0.035 C 
HETATM   10  C10 UNL     1      -4.574  49.794 -22.120  1.00  0.00    -0.069 C 
HETATM   11  C11 UNL     1      -4.538  49.555 -20.795  1.00  0.00     0.030 C 
HETATM   12  C12 UNL     1      -3.805  48.382 -20.246  1.00  0.00     0.032 C 
HETATM   13  N1  UNL     1      -3.488  48.184 -19.004  1.00  0.00    -0.271 N 
ATOM     14  H1  UNL     1      -2.987  47.361 -18.667  1.00  0.00     0.194 HD
HETATM   15  C24 UNL     1      -3.412  47.312 -21.239  1.00  0.00     0.060 C 
HETATM   16  C25 UNL     1      -2.835  47.974 -22.479  1.00  0.00     0.020 C 
HETATM   17  C26 UNL     1      -3.827  48.958 -23.170  1.00  0.00    -0.016 C 
HETATM   18  C27 UNL     1      -4.865  48.130 -23.961  1.00  0.00     0.020 C 
HETATM   19  C28 UNL     1      -2.996  49.921 -24.103  1.00  0.00     0.002 C 
HETATM   20  C29 UNL     1      -2.301  49.196 -25.271  1.00  0.00     0.007 C 
HETATM   21  C30 UNL     1      -1.417  50.142 -26.085  1.00  0.00     0.014 C 
HETATM   22  C31 UNL     1      -2.174  51.372 -26.651  1.00  0.00     0.003 C 
HETATM   23  C32 UNL     1      -3.095  50.931 -27.807  1.00  0.00     0.020 C 
ENDROOT
BRANCH   3  24
HETATM   24  O1  UNL     1      -1.930  53.509 -27.823  1.00  0.00    -0.377 OA
HETATM   25  H2  UNL     1      -1.283  54.179 -28.103  1.00  0.00     0.211 HD
ENDBRANCH   3  24
BRANCH  13  26
HETATM   26  O2  UNL     1      -3.916  49.237 -18.179  1.00  0.00    -0.271 OA
BRANCH  26  27
HETATM   27  C13 UNL     1      -3.231  49.166 -16.939  1.00  0.00     0.303 C 
BRANCH  27  28
HETATM   28  C14 UNL     1      -2.554  50.480 -16.556  1.00  0.00     0.244 C 
HETATM   29  O3  UNL     1      -3.123  51.440 -16.045  1.00  0.00    -0.271 OA
HETATM   30  N2  UNL     1      -1.207  50.508 -16.851  1.00  0.00    -0.342 N 
HETATM   31  H16 UNL     1      -0.735  49.684 -17.213  1.00  0.00     0.163 HD
BRANCH  30  32
HETATM   32  C15 UNL     1      -0.351  51.653 -16.501  1.00  0.00     0.216 C 
BRANCH  32  33
HETATM   33  C16 UNL     1       0.208  51.434 -15.090  1.00  0.00     0.166 C 
HETATM   34  O4  UNL     1       0.418  50.363 -14.543  1.00  0.00    -0.648 OA
BRANCH  33  35
HETATM   35  O5  UNL     1       0.504  52.584 -14.435  1.00  0.00    -0.775 OA
HETATM   36  H18 UNL     1       0.865  52.274 -13.577  1.00  0.00     0.167 HD
ENDBRANCH  33  35
ENDBRANCH  32  33
BRANCH  32  37
HETATM   37  C17 UNL     1       0.799  51.853 -17.524  1.00  0.00     0.184 C 
BRANCH  37  38
HETATM   38  O6  UNL     1       1.613  52.966 -17.108  1.00  0.00    -0.388 OA
HETATM   39  H20 UNL     1       1.490  53.682 -17.756  1.00  0.00     0.210 HD
ENDBRANCH  37  38
BRANCH  37  40
HETATM   40  C18 UNL     1       0.454  52.002 -19.002  1.00  0.00    -0.025 A 
HETATM   41  C19 UNL     1      -0.524  51.141 -19.543  1.00  0.00     0.010 A 
HETATM   42  C20 UNL     1      -0.897  51.209 -20.889  1.00  0.00     0.003 A 
HETATM   43  C21 UNL     1      -0.303  52.147 -21.729  1.00  0.00     0.036 A 
HETATM   44  C22 UNL     1       0.657  53.020 -21.207  1.00  0.00     0.103 A 
HETATM   45  C23 UNL     1       1.030  52.957 -19.853  1.00  0.00     0.045 A 
BRANCH  44  46
HETATM   46  N3  UNL     1       1.282  54.016 -22.088  1.00  0.00    -0.116 N 
HETATM   47  O7  UNL     1       1.094  53.909 -23.308  1.00  0.00    -0.532 OA
HETATM   48  O8  UNL     1       1.965  54.906 -21.559  1.00  0.00    -0.532 OA
ENDBRANCH  44  46
ENDBRANCH  37  40
ENDBRANCH  32  37
ENDBRANCH  30  32
ENDBRANCH  27  28
ENDBRANCH  26  27
ENDBRANCH  13  26
TORSDOF 11
ENDMDL
MODEL 5
REMARK minimizedAffinity -8.55454254
REMARK CNNscore 0.194097281
REMARK CNNaffinity 5.75519371
REMARK  11 active torsions:
REMARK  status: ('A' for Active; 'I' for Inactive)
REMARK    1  A    between atoms: C3_3  and  O1_4 
REMARK    2  A    between atoms: N1_14  and  O2_16 
REMARK    3  A    between atoms: O2_16  and  C13_17 
REMARK    4  A    between atoms: C13_17  and  C14_18 
REMARK       I    between atoms: C14_18  and  N2_20 
REMARK    5  A    between atoms: N2_20  and  C15_21 
REMARK    6  A    between atoms: C15_21  and  C16_22 
REMARK    7  A    between atoms: C15_21  and  C17_25 
REMARK    8  A    between atoms: C16_22  and  O5_24 
REMARK    9  A    between atoms: C17_25  and  O6_26 
REMARK   10  A    between atoms: C17_25  and  C18_27 
REMARK   11  A    between atoms: C22_31  and  N3_32 
ROOT
HETATM    1  C1  UNL     1      -2.015  51.547 -20.790  1.00  0.00     0.015 C 
HETATM    2  C2  UNL     1      -2.626  51.119 -21.733  1.00  0.00    -0.078 C 
HETATM    3  C3  UNL     1      -3.374  50.607 -22.892  1.00  0.00     0.128 C 
HETATM    4  C4  UNL     1      -4.628  51.440 -23.183  1.00  0.00     0.052 C 
HETATM    5  C5  UNL     1      -5.615  50.486 -23.866  1.00  0.00     0.010 C 
HETATM    6  C6  UNL     1      -4.957  49.091 -23.872  1.00  0.00     0.002 C 
HETATM    7  C7  UNL     1      -5.932  47.895 -23.793  1.00  0.00    -0.004 C 
HETATM    8  C8  UNL     1      -6.991  47.969 -24.907  1.00  0.00     0.010 C 
HETATM    9  C9  UNL     1      -7.930  46.769 -24.875  1.00  0.00     0.035 C 
HETATM   10  C10 UNL     1      -8.580  46.627 -23.520  1.00  0.00    -0.069 C 
HETATM   11  C11 UNL     1      -9.923  46.584 -23.424  1.00  0.00     0.030 C 
HETATM   12  C12 UNL     1     -10.592  46.384 -22.110  1.00  0.00     0.032 C 
HETATM   13  N1  UNL     1     -11.849  46.571 -21.849  1.00  0.00    -0.271 N 
ATOM     14  H1  UNL     1     -12.271  46.417 -20.932  1.00  0.00     0.194 HD
HETATM   15  C24 UNL     1      -9.717  45.894 -20.979  1.00  0.00     0.060 C 
HETATM   16  C25 UNL     1      -8.415  46.680 -20.983  1.00  0.00     0.020 C 
HETATM   17  C26 UNL     1      -7.624  46.554 -22.320  1.00  0.00    -0.016 C 
HETATM   18  C27 UNL     1      -6.921  45.177 -22.343  1.00  0.00     0.020 C 
HETATM   19  C28 UNL     1      -6.598  47.750 -22.401  1.00  0.00     0.002 C 
HETATM   20  C29 UNL     1      -5.513  47.703 -21.308  1.00  0.00     0.007 C 
HETATM   21  C30 UNL     1      -4.608  48.935 -21.350  1.00  0.00     0.014 C 
HETATM   22  C31 UNL     1      -3.916  49.155 -22.721  1.00  0.00     0.003 C 
HETATM   23  C32 UNL     1      -2.810  48.099 -22.922  1.00  0.00     0.020 C 
ENDROOT
BRANCH   3  24
HETATM   24  O1  UNL     1      -2.530  50.681 -24.042  1.00  0.00    -0.377 OA
HETATM   25  H2  UNL     1      -2.183  51.589 -24.082  1.00  0.00     0.211 HD
ENDBRANCH   3  24
BRANCH  13  26
HETATM   26  O2  UNL     1     -12.560  47.011 -22.978  1.00  0.00    -0.271 OA
BRANCH  26  27
HETATM   27  C13 UNL     1     -13.922  46.638 -22.846  1.00  0.00     0.303 C 
BRANCH  27  28
HETATM   28  C14 UNL     1     -14.719  46.834 -24.133  1.00  0.00     0.244 C 
HETATM   29  O3  UNL     1     -14.296  47.389 -25.144  1.00  0.00    -0.271 OA
HETATM   30  N2  UNL     1     -16.002  46.331 -24.065  1.00  0.00    -0.342 N 
HETATM   31  H16 UNL     1     -16.318  45.817 -23.248  1.00  0.00     0.163 HD
BRANCH  30  32
HETATM   32  C15 UNL     1     -16.916  46.354 -25.218  1.00  0.00     0.216 C 
BRANCH  32  33
HETATM   33  C16 UNL     1     -16.636  45.124 -26.090  1.00  0.00     0.166 C 
HETATM   34  O4  UNL     1     -16.050  44.107 -25.755  1.00  0.00    -0.648 OA
BRANCH  33  35
HETATM   35  O5  UNL     1     -17.134  45.221 -27.348  1.00  0.00    -0.775 OA
HETATM   36  H18 UNL     1     -16.895  44.361 -27.757  1.00  0.00     0.167 HD
ENDBRANCH  33  35
ENDBRANCH  32  33
BRANCH  32  37
HETATM   37  C17 UNL     1     -18.404  46.391 -24.780  1.00  0.00     0.184 C 
BRANCH  37  38
HETATM   38  O6  UNL     1     -18.881  47.749 -24.838  1.00  0.00    -0.388 OA
HETATM   39  H20 UNL     1     -19.052  48.043 -23.926  1.00  0.00     0.210 HD
ENDBRANCH  37  38
BRANCH  37  40
HETATM   40  C18 UNL     1     -18.795  45.774 -23.441  1.00  0.00    -0.025 A 
HETATM   41  C19 UNL     1     -19.235  44.434 -23.433  1.00  0.00     0.010 A 
HETATM   42  C20 UNL     1     -19.614  43.794 -22.249  1.00  0.00     0.003 A 
HETATM   43  C21 UNL     1     -19.558  44.479 -21.039  1.00  0.00     0.036 A 
HETATM   44  C22 UNL     1     -19.109  45.804 -21.024  1.00  0.00     0.103 A 
HETATM   45  C23 UNL     1     -18.722  46.448 -22.212  1.00  0.00     0.045 A 
BRANCH  44  46
HETATM   46  N3  UNL     1     -19.042  46.529 -19.748  1.00  0.00    -0.116 N 
HETATM   47  O7  UNL     1     -18.052  47.245 -19.541  1.00  0.00    -0.532 OA
HETATM   48  O8  UNL     1     -19.980  46.382 -18.951  1.00  0.00    -0.532 OA
ENDBRANCH  44  46
ENDBRANCH  37  40
ENDBRANCH  32  37
ENDBRANCH  30  32
ENDBRANCH  27  28
ENDBRANCH  26  27
ENDBRANCH  13  26
TORSDOF 11
ENDMDL
MODEL 6
REMARK minimizedAffinity -8.76849842
REMARK CNNscore 0.182999283
REMARK CNNaffinity 5.93884039
REMARK  11 active torsions:
REMARK  status: ('A' for Active; 'I' for Inactive)
REMARK    1  A    between atoms: C3_3  and  O1_4 
REMARK    2  A    between atoms: N1_14  and  O2_16 
REMARK    3  A    between atoms: O2_16  and  C13_17 
REMARK    4  A    between atoms: C13_17  and  C14_18 
REMARK       I    between atoms: C14_18  and  N2_20 
REMARK    5  A    between atoms: N2_20  and  C15_21 
REMARK    6  A    between atoms: C15_21  and  C16_22 
REMARK    7  A    between atoms: C15_21  and  C17_25 
REMARK    8  A    between atoms: C16_22  and  O5_24 
REMARK    9  A    between atoms: C17_25  and  O6_26 
REMARK   10  A    between atoms: C17_25  and  C18_27 
REMARK   11  A    between atoms: C22_31  and  N3_32 
ROOT
HETATM    1  C1  UNL     1       0.567  55.731 -25.171  1.00  0.00     0.015 C 
HETATM    2  C2  UNL     1       0.355  54.587 -25.472  1.00  0.00    -0.078 C 
HETATM    3  C3  UNL     1       0.097  53.190 -25.855  1.00  0.00     0.128 C 
HETATM    4  C4  UNL     1      -0.858  53.084 -27.049  1.00  0.00     0.052 C 
HETATM    5  C5  UNL     1      -1.561  51.730 -26.905  1.00  0.00     0.010 C 
HETATM    6  C6  UNL     1      -1.076  51.115 -25.577  1.00  0.00     0.002 C 
HETATM    7  C7  UNL     1      -2.097  50.208 -24.851  1.00  0.00    -0.004 C 
HETATM    8  C8  UNL     1      -2.607  49.092 -25.780  1.00  0.00     0.010 C 
HETATM    9  C9  UNL     1      -3.575  48.159 -25.064  1.00  0.00     0.035 C 
HETATM   10  C10 UNL     1      -4.726  48.931 -24.465  1.00  0.00    -0.069 C 
HETATM   11  C11 UNL     1      -5.992  48.595 -24.778  1.00  0.00     0.030 C 
HETATM   12  C12 UNL     1      -7.148  49.297 -24.157  1.00  0.00     0.032 C 
HETATM   13  N1  UNL     1      -8.383  49.244 -24.550  1.00  0.00    -0.271 N 
ATOM     14  H1  UNL     1      -9.150  49.737 -24.093  1.00  0.00     0.194 HD
HETATM   15  C24 UNL     1      -6.847  50.135 -22.935  1.00  0.00     0.060 C 
HETATM   16  C25 UNL     1      -5.594  50.955 -23.193  1.00  0.00     0.020 C 
HETATM   17  C26 UNL     1      -4.345  50.084 -23.523  1.00  0.00    -0.016 C 
HETATM   18  C27 UNL     1      -3.810  49.478 -22.206  1.00  0.00     0.020 C 
HETATM   19  C28 UNL     1      -3.277  51.002 -24.235  1.00  0.00     0.002 C 
HETATM   20  C29 UNL     1      -2.733  52.125 -23.331  1.00  0.00     0.007 C 
HETATM   21  C30 UNL     1      -1.788  53.059 -24.088  1.00  0.00     0.014 C 
HETATM   22  C31 UNL     1      -0.587  52.332 -24.747  1.00  0.00     0.003 C 
HETATM   23  C32 UNL     1       0.414  51.889 -23.660  1.00  0.00     0.020 C 
ENDROOT
BRANCH   3  24
HETATM   24  O1  UNL     1       1.337  52.592 -26.240  1.00  0.00    -0.377 OA
HETATM   25  H2  UNL     1       1.745  53.182 -26.897  1.00  0.00     0.211 HD
ENDBRANCH   3  24
BRANCH  13  26
HETATM   26  O2  UNL     1      -8.539  48.426 -25.683  1.00  0.00    -0.271 OA
BRANCH  26  27
HETATM   27  C13 UNL     1      -8.824  47.101 -25.266  1.00  0.00     0.303 C 
BRANCH  27  28
HETATM   28  C14 UNL     1     -10.122  46.557 -25.857  1.00  0.00     0.244 C 
HETATM   29  O3  UNL     1     -10.343  46.418 -27.057  1.00  0.00    -0.271 OA
HETATM   30  N2  UNL     1     -11.065  46.233 -24.904  1.00  0.00    -0.342 N 
HETATM   31  H16 UNL     1     -10.846  46.290 -23.914  1.00  0.00     0.163 HD
BRANCH  30  32
HETATM   32  C15 UNL     1     -12.359  45.627 -25.255  1.00  0.00     0.216 C 
BRANCH  32  33
HETATM   33  C16 UNL     1     -12.368  44.173 -24.769  1.00  0.00     0.166 C 
HETATM   34  O4  UNL     1     -11.397  43.453 -24.593  1.00  0.00    -0.648 OA
BRANCH  33  35
HETATM   35  O5  UNL     1     -13.608  43.695 -24.498  1.00  0.00    -0.775 OA
HETATM   36  H18 UNL     1     -13.439  42.781 -24.181  1.00  0.00     0.167 HD
ENDBRANCH  33  35
ENDBRANCH  32  33
BRANCH  32  37
HETATM   37  C17 UNL     1     -13.552  46.416 -24.655  1.00  0.00     0.184 C 
BRANCH  37  38
HETATM   38  O6  UNL     1     -13.560  46.246 -23.225  1.00  0.00    -0.388 OA
HETATM   39  H20 UNL     1     -14.348  45.722 -22.992  1.00  0.00     0.210 HD
ENDBRANCH  37  38
BRANCH  37  40
HETATM   40  C18 UNL     1     -14.954  46.166 -25.202  1.00  0.00    -0.025 A 
HETATM   41  C19 UNL     1     -15.070  45.554 -26.468  1.00  0.00     0.010 A 
HETATM   42  C20 UNL     1     -16.317  45.292 -27.044  1.00  0.00     0.003 A 
HETATM   43  C21 UNL     1     -17.483  45.631 -26.364  1.00  0.00     0.036 A 
HETATM   44  C22 UNL     1     -17.388  46.224 -25.100  1.00  0.00     0.103 A 
HETATM   45  C23 UNL     1     -16.136  46.485 -24.517  1.00  0.00     0.045 A 
BRANCH  44  46
HETATM   46  N3  UNL     1     -18.616  46.579 -24.375  1.00  0.00    -0.116 N 
HETATM   47  O7  UNL     1     -18.957  45.857 -23.428  1.00  0.00    -0.532 OA
HETATM   48  O8  UNL     1     -19.240  47.580 -24.755  1.00  0.00    -0.532 OA
ENDBRANCH  44  46
ENDBRANCH  37  40
ENDBRANCH  32  37
ENDBRANCH  30  32
ENDBRANCH  27  28
ENDBRANCH  26  27
ENDBRANCH  13  26
TORSDOF 11
ENDMDL
MODEL 7
REMARK minimizedAffinity -9.08109474
REMARK CNNscore 0.170089766
REMARK CNNaffinity 5.96218729
REMARK  11 active torsions:
REMARK  status: ('A' for Active; 'I' for Inactive)
REMARK    1  A    between atoms: C3_3  and  O1_4 
REMARK    2  A    between atoms: N1_14  and  O2_16 
REMARK    3  A    between atoms: O2_16  and  C13_17 
REMARK    4  A    between atoms: C13_17  and  C14_18 
REMARK       I    between atoms: C14_18  and  N2_20 
REMARK    5  A    between atoms: N2_20  and  C15_21 
REMARK    6  A    between atoms: C15_21  and  C16_22 
REMARK    7  A    between atoms: C15_21  and  C17_25 
REMARK    8  A    between atoms: C16_22  and  O5_24 
REMARK    9  A    between atoms: C17_25  and  O6_26 
REMARK   10  A    between atoms: C17_25  and  C18_27 
REMARK   11  A    between atoms: C22_31  and  N3_32 
ROOT
HETATM    1  C1  UNL     1     -16.082  47.308 -24.398  1.00  0.00     0.015 C 
HETATM    2  C2  UNL     1     -15.176  46.550 -24.622  1.00  0.00    -0.078 C 
HETATM    3  C3  UNL     1     -14.065  45.621 -24.883  1.00  0.00     0.128 C 
HETATM    4  C4  UNL     1     -12.854  45.903 -23.986  1.00  0.00     0.052 C 
HETATM    5  C5  UNL     1     -11.631  45.412 -24.769  1.00  0.00     0.010 C 
HETATM    6  C6  UNL     1     -12.141  44.944 -26.147  1.00  0.00     0.002 C 
HETATM    7  C7  UNL     1     -11.145  45.115 -27.317  1.00  0.00    -0.004 C 
HETATM    8  C8  UNL     1      -9.801  44.433 -27.007  1.00  0.00     0.010 C 
HETATM    9  C9  UNL     1      -8.826  44.548 -28.172  1.00  0.00     0.035 C 
HETATM   10  C10 UNL     1      -8.622  45.991 -28.566  1.00  0.00    -0.069 C 
HETATM   11  C11 UNL     1      -7.377  46.503 -28.602  1.00  0.00     0.030 C 
HETATM   12  C12 UNL     1      -7.137  47.904 -29.045  1.00  0.00     0.032 C 
HETATM   13  N1  UNL     1      -6.043  48.584 -28.890  1.00  0.00    -0.271 N 
ATOM     14  H1  UNL     1      -5.917  49.543 -29.213  1.00  0.00     0.194 HD
HETATM   15  C24 UNL     1      -8.279  48.586 -29.763  1.00  0.00     0.060 C 
HETATM   16  C25 UNL     1      -9.572  48.306 -29.015  1.00  0.00     0.020 C 
HETATM   17  C26 UNL     1      -9.895  46.786 -28.891  1.00  0.00    -0.016 C 
HETATM   18  C27 UNL     1     -10.443  46.291 -30.249  1.00  0.00     0.020 C 
HETATM   19  C28 UNL     1     -10.937  46.597 -27.721  1.00  0.00     0.002 C 
HETATM   20  C29 UNL     1     -12.301  47.256 -28.002  1.00  0.00     0.007 C 
HETATM   21  C30 UNL     1     -13.243  47.149 -26.802  1.00  0.00     0.014 C 
HETATM   22  C31 UNL     1     -13.489  45.692 -26.330  1.00  0.00     0.003 C 
HETATM   23  C32 UNL     1     -14.389  44.959 -27.346  1.00  0.00     0.020 C 
ENDROOT
BRANCH   3  24
HETATM   24  O1  UNL     1     -14.512  44.293 -24.599  1.00  0.00    -0.377 OA
HETATM   25  H2  UNL     1     -14.901  44.309 -23.708  1.00  0.00     0.211 HD
ENDBRANCH   3  24
BRANCH  13  26
HETATM   26  O2  UNL     1      -5.054  47.842 -28.223  1.00  0.00    -0.271 OA
BRANCH  26  27
HETATM   27  C13 UNL     1      -4.999  48.252 -26.866  1.00  0.00     0.303 C 
BRANCH  27  28
HETATM   28  C14 UNL     1      -3.655  48.869 -26.485  1.00  0.00     0.244 C 
HETATM   29  O3  UNL     1      -2.600  48.249 -26.389  1.00  0.00    -0.271 OA
HETATM   30  N2  UNL     1      -3.725  50.224 -26.239  1.00  0.00    -0.342 N 
HETATM   31  H16 UNL     1      -4.590  50.737 -26.386  1.00  0.00     0.163 HD
BRANCH  30  32
HETATM   32  C15 UNL     1      -2.533  51.027 -25.924  1.00  0.00     0.216 C 
BRANCH  32  33
HETATM   33  C16 UNL     1      -2.263  51.982 -27.092  1.00  0.00     0.166 C 
HETATM   34  O4  UNL     1      -2.401  53.195 -27.094  1.00  0.00    -0.648 OA
BRANCH  33  35
HETATM   35  O5  UNL     1      -1.800  51.364 -28.208  1.00  0.00    -0.775 OA
HETATM   36  H18 UNL     1      -1.658  52.103 -28.838  1.00  0.00     0.167 HD
ENDBRANCH  33  35
ENDBRANCH  32  33
BRANCH  32  37
HETATM   37  C17 UNL     1      -2.695  51.813 -24.596  1.00  0.00     0.184 C 
BRANCH  37  38
HETATM   38  O6  UNL     1      -2.129  53.128 -24.752  1.00  0.00    -0.388 OA
HETATM   39  H20 UNL     1      -1.339  53.180 -24.186  1.00  0.00     0.210 HD
ENDBRANCH  37  38
BRANCH  37  40
HETATM   40  C18 UNL     1      -2.181  51.191 -23.302  1.00  0.00    -0.025 A 
HETATM   41  C19 UNL     1      -2.159  49.783 -23.208  1.00  0.00     0.010 A 
HETATM   42  C20 UNL     1      -1.705  49.132 -22.057  1.00  0.00     0.003 A 
HETATM   43  C21 UNL     1      -1.256  49.875 -20.969  1.00  0.00     0.036 A 
HETATM   44  C22 UNL     1      -1.255  51.272 -21.049  1.00  0.00     0.103 A 
HETATM   45  C23 UNL     1      -1.706  51.928 -22.207  1.00  0.00     0.045 A 
BRANCH  44  46
HETATM   46  N3  UNL     1      -0.775  52.060 -19.906  1.00  0.00    -0.116 N 
HETATM   47  O7  UNL     1      -1.492  52.111 -18.896  1.00  0.00    -0.532 OA
HETATM   48  O8  UNL     1       0.319  52.632 -20.019  1.00  0.00    -0.532 OA
ENDBRANCH  44  46
ENDBRANCH  37  40
ENDBRANCH  32  37
ENDBRANCH  30  32
ENDBRANCH  27  28
ENDBRANCH  26  27
ENDBRANCH  13  26
TORSDOF 11
ENDMDL
MODEL 8
REMARK minimizedAffinity -8.41657829
REMARK CNNscore 0.164734662
REMARK CNNaffinity 6.0644412
REMARK  11 active torsions:
REMARK  status: ('A' for Active; 'I' for Inactive)
REMARK    1  A    between atoms: C3_3  and  O1_4 
REMARK    2  A    between atoms: N1_14  and  O2_16 
REMARK    3  A    between atoms: O2_16  and  C13_17 
REMARK    4  A    between atoms: C13_17  and  C14_18 
REMARK       I    between atoms: C14_18  and  N2_20 
REMARK    5  A    between atoms: N2_20  and  C15_21 
REMARK    6  A    between atoms: C15_21  and  C16_22 
REMARK    7  A    between atoms: C15_21  and  C17_25 
REMARK    8  A    between atoms: C16_22  and  O5_24 
REMARK    9  A    between atoms: C17_25  and  O6_26 
REMARK   10  A    between atoms: C17_25  and  C18_27 
REMARK   11  A    between atoms: C22_31  and  N3_32 
ROOT
HETATM    1  C1  UNL     1      -0.039  51.525 -19.767  1.00  0.00     0.015 C 
HETATM    2  C2  UNL     1      -0.622  50.474 -19.783  1.00  0.00    -0.078 C 
HETATM    3  C3  UNL     1      -1.325  49.181 -19.807  1.00  0.00     0.128 C 
HETATM    4  C4  UNL     1      -1.006  48.373 -21.070  1.00  0.00     0.052 C 
HETATM    5  C5  UNL     1      -2.227  47.480 -21.316  1.00  0.00     0.010 C 
HETATM    6  C6  UNL     1      -3.276  47.855 -20.249  1.00  0.00     0.002 C 
HETATM    7  C7  UNL     1      -4.751  47.696 -20.682  1.00  0.00    -0.004 C 
HETATM    8  C8  UNL     1      -5.028  46.273 -21.198  1.00  0.00     0.010 C 
HETATM    9  C9  UNL     1      -6.491  46.086 -21.582  1.00  0.00     0.035 C 
HETATM   10  C10 UNL     1      -6.922  47.121 -22.592  1.00  0.00    -0.069 C 
HETATM   11  C11 UNL     1      -7.465  46.729 -23.760  1.00  0.00     0.030 C 
HETATM   12  C12 UNL     1      -7.957  47.726 -24.751  1.00  0.00     0.032 C 
HETATM   13  N1  UNL     1      -8.261  47.494 -25.990  1.00  0.00    -0.271 N 
ATOM     14  H1  UNL     1      -8.600  48.207 -26.637  1.00  0.00     0.194 HD
HETATM   15  C24 UNL     1      -8.134  49.140 -24.248  1.00  0.00     0.060 C 
HETATM   16  C25 UNL     1      -6.922  49.527 -23.417  1.00  0.00     0.020 C 
HETATM   17  C26 UNL     1      -6.688  48.586 -22.196  1.00  0.00    -0.016 C 
HETATM   18  C27 UNL     1      -7.702  48.959 -21.091  1.00  0.00     0.020 C 
HETATM   19  C28 UNL     1      -5.194  48.761 -21.719  1.00  0.00     0.002 C 
HETATM   20  C29 UNL     1      -4.881  50.171 -21.181  1.00  0.00     0.007 C 
HETATM   21  C30 UNL     1      -3.401  50.334 -20.835  1.00  0.00     0.014 C 
HETATM   22  C31 UNL     1      -2.880  49.291 -19.811  1.00  0.00     0.003 C 
HETATM   23  C32 UNL     1      -3.440  49.612 -18.410  1.00  0.00     0.020 C 
ENDROOT
BRANCH   3  24
HETATM   24  O1  UNL     1      -0.893  48.412 -18.682  1.00  0.00    -0.377 OA
HETATM   25  H2  UNL     1       0.080  48.409 -18.698  1.00  0.00     0.211 HD
ENDBRANCH   3  24
BRANCH  13  26
HETATM   26  O2  UNL     1      -8.068  46.146 -26.336  1.00  0.00    -0.271 OA
BRANCH  26  27
HETATM   27  C13 UNL     1      -9.304  45.457 -26.233  1.00  0.00     0.303 C 
BRANCH  27  28
HETATM   28  C14 UNL     1     -10.281  45.818 -27.349  1.00  0.00     0.244 C 
HETATM   29  O3  UNL     1     -10.265  45.337 -28.479  1.00  0.00    -0.271 OA
HETATM   30  N2  UNL     1     -11.209  46.768 -26.978  1.00  0.00    -0.342 N 
HETATM   31  H16 UNL     1     -11.253  47.109 -26.022  1.00  0.00     0.163 HD
BRANCH  30  32
HETATM   32  C15 UNL     1     -12.286  47.207 -27.881  1.00  0.00     0.216 C 
BRANCH  32  33
HETATM   33  C16 UNL     1     -11.657  47.720 -29.181  1.00  0.00     0.166 C 
HETATM   34  O4  UNL     1     -12.080  47.555 -30.315  1.00  0.00    -0.648 OA
BRANCH  33  35
HETATM   35  O5  UNL     1     -10.527  48.447 -28.993  1.00  0.00    -0.775 OA
HETATM   36  H18 UNL     1     -10.270  48.715 -29.902  1.00  0.00     0.167 HD
ENDBRANCH  33  35
ENDBRANCH  32  33
BRANCH  32  37
HETATM   37  C17 UNL     1     -13.302  46.071 -28.170  1.00  0.00     0.184 C 
BRANCH  37  38
HETATM   38  O6  UNL     1     -13.705  46.138 -29.551  1.00  0.00    -0.388 OA
HETATM   39  H20 UNL     1     -14.644  46.397 -29.574  1.00  0.00     0.210 HD
ENDBRANCH  37  38
BRANCH  37  40
HETATM   40  C18 UNL     1     -14.538  45.943 -27.287  1.00  0.00    -0.025 A 
HETATM   41  C19 UNL     1     -15.630  45.199 -27.781  1.00  0.00     0.010 A 
HETATM   42  C20 UNL     1     -16.803  45.035 -27.037  1.00  0.00     0.003 A 
HETATM   43  C21 UNL     1     -16.911  45.609 -25.773  1.00  0.00     0.036 A 
HETATM   44  C22 UNL     1     -15.832  46.338 -25.259  1.00  0.00     0.103 A 
HETATM   45  C23 UNL     1     -14.651  46.499 -26.003  1.00  0.00     0.045 A 
BRANCH  44  46
HETATM   46  N3  UNL     1     -15.939  46.940 -23.924  1.00  0.00    -0.116 N 
HETATM   47  O7  UNL     1     -16.834  46.528 -23.173  1.00  0.00    -0.532 OA
HETATM   48  O8  UNL     1     -15.126  47.827 -23.626  1.00  0.00    -0.532 OA
ENDBRANCH  44  46
ENDBRANCH  37  40
ENDBRANCH  32  37
ENDBRANCH  30  32
ENDBRANCH  27  28
ENDBRANCH  26  27
ENDBRANCH  13  26
TORSDOF 11
ENDMDL
MODEL 9
REMARK minimizedAffinity -8.26930714
REMARK CNNscore 0.160935342
REMARK CNNaffinity 6.3032937
REMARK  11 active torsions:
REMARK  status: ('A' for Active; 'I' for Inactive)
REMARK    1  A    between atoms: C3_3  and  O1_4 
REMARK    2  A    between atoms: N1_14  and  O2_16 
REMARK    3  A    between atoms: O2_16  and  C13_17 
REMARK    4  A    between atoms: C13_17  and  C14_18 
REMARK       I    between atoms: C14_18  and  N2_20 
REMARK    5  A    between atoms: N2_20  and  C15_21 
REMARK    6  A    between atoms: C15_21  and  C16_22 
REMARK    7  A    between atoms: C15_21  and  C17_25 
REMARK    8  A    between atoms: C16_22  and  O5_24 
REMARK    9  A    between atoms: C17_25  and  O6_26 
REMARK   10  A    between atoms: C17_25  and  C18_27 
REMARK   11  A    between atoms: C22_31  and  N3_32 
ROOT
HETATM    1  C1  UNL     1      -3.137  48.469 -26.999  1.00  0.00     0.015 C 
HETATM    2  C2  UNL     1      -3.164  49.211 -26.053  1.00  0.00    -0.078 C 
HETATM    3  C3  UNL     1      -3.185  50.125 -24.900  1.00  0.00     0.128 C 
HETATM    4  C4  UNL     1      -1.793  50.307 -24.282  1.00  0.00     0.052 C 
HETATM    5  C5  UNL     1      -2.032  50.650 -22.807  1.00  0.00     0.010 C 
HETATM    6  C6  UNL     1      -3.553  50.563 -22.569  1.00  0.00     0.002 C 
HETATM    7  C7  UNL     1      -3.980  50.130 -21.148  1.00  0.00    -0.004 C 
HETATM    8  C8  UNL     1      -3.342  51.033 -20.078  1.00  0.00     0.010 C 
HETATM    9  C9  UNL     1      -3.794  50.651 -18.673  1.00  0.00     0.035 C 
HETATM   10  C10 UNL     1      -3.511  49.195 -18.392  1.00  0.00    -0.069 C 
HETATM   11  C11 UNL     1      -2.781  48.853 -17.313  1.00  0.00     0.030 C 
HETATM   12  C12 UNL     1      -2.536  47.424 -16.974  1.00  0.00     0.032 C 
HETATM   13  N1  UNL     1      -1.662  46.972 -16.129  1.00  0.00    -0.271 N 
ATOM     14  H1  UNL     1      -1.528  45.982 -15.920  1.00  0.00     0.194 HD
HETATM   15  C24 UNL     1      -3.411  46.409 -17.673  1.00  0.00     0.060 C 
HETATM   16  C25 UNL     1      -3.504  46.767 -19.147  1.00  0.00     0.020 C 
HETATM   17  C26 UNL     1      -4.088  48.190 -19.399  1.00  0.00    -0.016 C 
HETATM   18  C27 UNL     1      -5.620  48.131 -19.203  1.00  0.00     0.020 C 
HETATM   19  C28 UNL     1      -3.690  48.634 -20.860  1.00  0.00     0.002 C 
HETATM   20  C29 UNL     1      -4.321  47.761 -21.961  1.00  0.00     0.007 C 
HETATM   21  C30 UNL     1      -3.823  48.151 -23.353  1.00  0.00     0.014 C 
HETATM   22  C31 UNL     1      -4.067  49.641 -23.709  1.00  0.00     0.003 C 
HETATM   23  C32 UNL     1      -5.568  49.877 -23.970  1.00  0.00     0.020 C 
ENDROOT
BRANCH   3  24
HETATM   24  O1  UNL     1      -3.629  51.407 -25.349  1.00  0.00    -0.377 OA
HETATM   25  H2  UNL     1      -3.081  51.645 -26.116  1.00  0.00     0.211 HD
ENDBRANCH   3  24
BRANCH  13  26
HETATM   26  O2  UNL     1      -0.920  48.008 -15.535  1.00  0.00    -0.271 OA
BRANCH  26  27
HETATM   27  C13 UNL     1      -1.430  48.261 -14.236  1.00  0.00     0.303 C 
BRANCH  27  28
HETATM   28  C14 UNL     1      -0.353  48.715 -13.253  1.00  0.00     0.244 C 
HETATM   29  O3  UNL     1      -0.512  48.828 -12.040  1.00  0.00    -0.271 OA
HETATM   30  N2  UNL     1       0.851  49.009 -13.857  1.00  0.00    -0.342 N 
HETATM   31  H16 UNL     1       0.989  48.849 -14.851  1.00  0.00     0.163 HD
BRANCH  30  32
HETATM   32  C15 UNL     1       2.042  49.398 -13.085  1.00  0.00     0.216 C 
BRANCH  32  33
HETATM   33  C16 UNL     1       3.232  48.559 -13.563  1.00  0.00     0.166 C 
HETATM   34  O4  UNL     1       3.188  47.455 -14.084  1.00  0.00    -0.648 OA
BRANCH  33  35
HETATM   35  O5  UNL     1       4.433  49.162 -13.386  1.00  0.00    -0.775 OA
HETATM   36  H18 UNL     1       5.073  48.517 -13.758  1.00  0.00     0.167 HD
ENDBRANCH  33  35
ENDBRANCH  32  33
BRANCH  32  37
HETATM   37  C17 UNL     1       2.349  50.914 -13.215  1.00  0.00     0.184 C 
BRANCH  37  38
HETATM   38  O6  UNL     1       1.406  51.658 -12.421  1.00  0.00    -0.388 OA
HETATM   39  H20 UNL     1       0.836  52.160 -13.030  1.00  0.00     0.210 HD
ENDBRANCH  37  38
BRANCH  37  40
HETATM   40  C18 UNL     1       2.439  51.532 -14.606  1.00  0.00    -0.025 A 
HETATM   41  C19 UNL     1       3.655  52.143 -14.981  1.00  0.00     0.010 A 
HETATM   42  C20 UNL     1       3.820  52.736 -16.237  1.00  0.00     0.003 A 
HETATM   43  C21 UNL     1       2.773  52.728 -17.153  1.00  0.00     0.036 A 
HETATM   44  C22 UNL     1       1.566  52.114 -16.806  1.00  0.00     0.103 A 
HETATM   45  C23 UNL     1       1.398  51.512 -15.546  1.00  0.00     0.045 A 
BRANCH  44  46
HETATM   46  N3  UNL     1       0.459  52.097 -17.772  1.00  0.00    -0.116 N 
HETATM   47  O7  UNL     1      -0.593  51.534 -17.438  1.00  0.00    -0.532 OA
HETATM   48  O8  UNL     1       0.643  52.647 -18.868  1.00  0.00    -0.532 OA
ENDBRANCH  44  46
ENDBRANCH  37  40
ENDBRANCH  32  37
ENDBRANCH  30  32
ENDBRANCH  27  28
ENDBRANCH  26  27
ENDBRANCH  13  26
TORSDOF 11
ENDMDL
