MODEL 1
REMARK minimizedAffinity -6.80230141
REMARK CNNscore 0.655561686
REMARK CNNaffinity 6.50931358
REMARK  7 active torsions:
REMARK  status: ('A' for Active; 'I' for Inactive)
REMARK    1  A    between atoms: C7_7  and  O1_8 
REMARK    2  A    between atoms: C19_21  and  O3_22 
REMARK    3  A    between atoms: C20_23  and  C22_25 
REMARK    4  A    between atoms: C22_25  and  O4_26 
REMARK    5  A    between atoms: C22_25  and  C23_27 
REMARK    6  A    between atoms: C23_27  and  O5_28 
REMARK    7  A    between atoms: C32_37  and  O6_38 
ROOT
HETATM    1  C1  UNL     1     -11.949  -5.272  14.553  1.00  0.00     0.015 C 
HETATM    2  C2  UNL     1     -13.417  -5.657  14.865  1.00  0.00    -0.043 C 
HETATM    3  C3  UNL     1     -13.380  -6.517  16.190  1.00  0.00     0.010 C 
HETATM    4  C4  UNL     1     -14.682  -7.193  16.709  1.00  0.00     0.012 C 
HETATM    5  C5  UNL     1     -15.872  -6.758  15.978  1.00  0.00     0.082 C 
HETATM    6  C6  UNL     1     -16.540  -6.215  15.140  1.00  0.00    -0.151 C 
HETATM    7  C7  UNL     1     -17.016  -5.372  14.033  1.00  0.00     0.196 C 
HETATM    8  C8  UNL     1     -15.834  -4.729  13.164  1.00  0.00     0.037 C 
HETATM    9  C9  UNL     1     -14.952  -3.692  13.962  1.00  0.00     0.031 C 
HETATM   10  C10 UNL     1     -14.181  -4.334  15.136  1.00  0.00     0.019 C 
HETATM   11  C11 UNL     1     -15.662  -2.360  14.353  1.00  0.00    -0.062 C 
HETATM   12  C12 UNL     1     -15.547  -1.817  15.584  1.00  0.00     0.054 C 
HETATM   13  C13 UNL     1     -16.068  -0.472  15.951  1.00  0.00     0.155 C 
HETATM   14  O2  UNL     1     -16.011  -0.129  17.130  1.00  0.00    -0.293 OA
HETATM   15  C14 UNL     1     -16.585   0.422  14.817  1.00  0.00     0.077 C 
HETATM   16  C15 UNL     1     -17.214   1.811  15.267  1.00  0.00    -0.028 C 
HETATM   17  C16 UNL     1     -18.252   1.621  16.423  1.00  0.00     0.016 C 
HETATM   18  C17 UNL     1     -16.041   2.692  15.831  1.00  0.00     0.013 C 
HETATM   19  C18 UNL     1     -15.311   3.486  14.760  1.00  0.00     0.033 C 
HETATM   20  C19 UNL     1     -16.212   4.522  14.090  1.00  0.00     0.129 C 
HETATM   21  C20 UNL     1     -17.724   4.144  14.010  1.00  0.00     0.014 C 
HETATM   22  C21 UNL     1     -18.531   4.722  15.213  1.00  0.00     0.021 C 
HETATM   23  C24 UNL     1     -17.914   2.548  14.031  1.00  0.00     0.008 C 
HETATM   24  C25 UNL     1     -17.574   1.845  12.701  1.00  0.00     0.007 C 
HETATM   25  C26 UNL     1     -18.036   0.391  12.711  1.00  0.00     0.011 C 
HETATM   26  C27 UNL     1     -17.417  -0.471  13.838  1.00  0.00    -0.021 C 
HETATM   27  C28 UNL     1     -18.621  -1.100  14.602  1.00  0.00     0.017 C 
HETATM   28  C29 UNL     1     -16.433  -1.625  13.235  1.00  0.00    -0.010 C 
HETATM   29  C30 UNL     1     -15.346  -0.996  12.305  1.00  0.00     0.021 C 
HETATM   30  C31 UNL     1     -17.250  -2.634  12.391  1.00  0.00     0.047 C 
HETATM   31  C32 UNL     1     -16.502  -3.907  11.989  1.00  0.00     0.132 C 
HETATM   32  C33 UNL     1     -14.834  -5.872  12.579  1.00  0.00    -0.026 C 
HETATM   33  C34 UNL     1     -15.557  -7.031  11.834  1.00  0.00     0.010 C 
HETATM   34  C35 UNL     1     -14.479  -7.733  11.006  1.00  0.00     0.001 C 
HETATM   35  C36 UNL     1     -13.435  -6.668  10.692  1.00  0.00     0.001 C 
HETATM   36  C37 UNL     1     -13.886  -5.402  11.432  1.00  0.00     0.010 C 
HETATM   37  C38 UNL     1     -13.940  -6.531  13.692  1.00  0.00     0.019 C 
ENDROOT
BRANCH  21  38
HETATM   38  C22 UNL     1     -18.365   4.792  12.713  1.00  0.00     0.152 C 
BRANCH  38  39
HETATM   39  O4  UNL     1     -17.600   5.925  12.264  1.00  0.00    -0.393 OA
HETATM   40  H28 UNL     1     -18.098   6.716  12.564  1.00  0.00     0.210 HD
ENDBRANCH  38  39
BRANCH  38  41
HETATM   41  C23 UNL     1     -19.814   5.305  12.818  1.00  0.00     0.196 C 
BRANCH  41  42
HETATM   42  O5  UNL     1     -20.701   4.301  12.321  1.00  0.00    -0.398 OA
HETATM   43  H31 UNL     1     -21.001   4.596  11.430  1.00  0.00     0.209 HD
ENDBRANCH  41  42
ENDBRANCH  38  41
ENDBRANCH  21  38
BRANCH  20  44
HETATM   44  O3  UNL     1     -16.043   5.791  14.743  1.00  0.00    -0.395 OA
HETATM   45  H23 UNL     1     -15.954   5.623  15.698  1.00  0.00     0.210 HD
ENDBRANCH  20  44
BRANCH  31  46
HETATM   46  O6  UNL     1     -17.410  -4.717  11.237  1.00  0.00    -0.395 OA
HETATM   47  H46 UNL     1     -17.758  -4.175  10.507  1.00  0.00     0.210 HD
ENDBRANCH  31  46
BRANCH   7  48
HETATM   48  O1  UNL     1     -17.864  -4.380  14.608  1.00  0.00    -0.383 OA
HETATM   49  H9  UNL     1     -18.088  -4.662  15.508  1.00  0.00     0.211 HD
ENDBRANCH   7  48
TORSDOF 7
ENDMDL
MODEL 2
REMARK minimizedAffinity -8.49212646
REMARK CNNscore 0.530226588
REMARK CNNaffinity 6.55873346
REMARK  7 active torsions:
REMARK  status: ('A' for Active; 'I' for Inactive)
REMARK    1  A    between atoms: C7_7  and  O1_8 
REMARK    2  A    between atoms: C19_21  and  O3_22 
REMARK    3  A    between atoms: C20_23  and  C22_25 
REMARK    4  A    between atoms: C22_25  and  O4_26 
REMARK    5  A    between atoms: C22_25  and  C23_27 
REMARK    6  A    between atoms: C23_27  and  O5_28 
REMARK    7  A    between atoms: C32_37  and  O6_38 
ROOT
HETATM    1  C1  UNL     1     -16.272   6.878  12.195  1.00  0.00     0.015 C 
HETATM    2  C2  UNL     1     -17.556   6.356  12.888  1.00  0.00    -0.043 C 
HETATM    3  C3  UNL     1     -18.774   6.941  12.068  1.00  0.00     0.010 C 
HETATM    4  C4  UNL     1     -20.226   6.728  12.585  1.00  0.00     0.012 C 
HETATM    5  C5  UNL     1     -20.293   5.796  13.710  1.00  0.00     0.082 C 
HETATM    6  C6  UNL     1     -19.918   5.072  14.594  1.00  0.00    -0.151 C 
HETATM    7  C7  UNL     1     -19.114   4.236  15.497  1.00  0.00     0.196 C 
HETATM    8  C8  UNL     1     -17.535   4.449  15.330  1.00  0.00     0.037 C 
HETATM    9  C9  UNL     1     -16.977   3.986  13.929  1.00  0.00     0.031 C 
HETATM   10  C10 UNL     1     -17.544   4.810  12.752  1.00  0.00     0.019 C 
HETATM   11  C11 UNL     1     -17.002   2.450  13.666  1.00  0.00    -0.062 C 
HETATM   12  C12 UNL     1     -17.425   1.926  12.495  1.00  0.00     0.054 C 
HETATM   13  C13 UNL     1     -17.313   0.484  12.140  1.00  0.00     0.155 C 
HETATM   14  O2  UNL     1     -17.838   0.101  11.098  1.00  0.00    -0.293 OA
HETATM   15  C14 UNL     1     -16.491  -0.414  13.074  1.00  0.00     0.077 C 
HETATM   16  C15 UNL     1     -16.474  -1.959  12.704  1.00  0.00    -0.028 C 
HETATM   17  C16 UNL     1     -17.919  -2.501  12.443  1.00  0.00     0.016 C 
HETATM   18  C17 UNL     1     -15.669  -2.108  11.362  1.00  0.00     0.013 C 
HETATM   19  C18 UNL     1     -14.170  -2.245  11.567  1.00  0.00     0.033 C 
HETATM   20  C19 UNL     1     -13.801  -3.523  12.319  1.00  0.00     0.129 C 
HETATM   21  C20 UNL     1     -14.866  -4.032  13.340  1.00  0.00     0.014 C 
HETATM   22  C21 UNL     1     -15.821  -5.088  12.703  1.00  0.00     0.021 C 
HETATM   23  C24 UNL     1     -15.779  -2.817  13.863  1.00  0.00     0.008 C 
HETATM   24  C25 UNL     1     -15.093  -1.899  14.896  1.00  0.00     0.007 C 
HETATM   25  C26 UNL     1     -16.096  -0.950  15.544  1.00  0.00     0.011 C 
HETATM   26  C27 UNL     1     -16.836  -0.021  14.549  1.00  0.00    -0.021 C 
HETATM   27  C28 UNL     1     -18.356  -0.247  14.807  1.00  0.00     0.017 C 
HETATM   28  C29 UNL     1     -16.424   1.541  14.773  1.00  0.00    -0.010 C 
HETATM   29  C30 UNL     1     -14.873   1.721  14.711  1.00  0.00     0.021 C 
HETATM   30  C31 UNL     1     -16.900   2.023  16.166  1.00  0.00     0.047 C 
HETATM   31  C32 UNL     1     -16.816   3.533  16.400  1.00  0.00     0.132 C 
HETATM   32  C33 UNL     1     -17.120   6.011  15.528  1.00  0.00    -0.026 C 
HETATM   33  C34 UNL     1     -17.672   6.657  16.832  1.00  0.00     0.010 C 
HETATM   34  C35 UNL     1     -16.843   7.923  17.056  1.00  0.00     0.001 C 
HETATM   35  C36 UNL     1     -15.485   7.649  16.420  1.00  0.00     0.001 C 
HETATM   36  C37 UNL     1     -15.598   6.270  15.757  1.00  0.00     0.010 C 
HETATM   37  C38 UNL     1     -17.582   6.923  14.334  1.00  0.00     0.019 C 
ENDROOT
BRANCH  21  38
HETATM   38  C22 UNL     1     -14.141  -4.775  14.537  1.00  0.00     0.152 C 
BRANCH  38  39
HETATM   39  O4  UNL     1     -14.847  -4.582  15.776  1.00  0.00    -0.393 OA
HETATM   40  H28 UNL     1     -14.343  -3.897  16.265  1.00  0.00     0.210 HD
ENDBRANCH  38  39
BRANCH  38  41
HETATM   41  C23 UNL     1     -12.684  -4.375  14.843  1.00  0.00     0.196 C 
BRANCH  41  42
HETATM   42  O5  UNL     1     -12.261  -5.036  16.038  1.00  0.00    -0.398 OA
HETATM   43  H31 UNL     1     -12.259  -4.361  16.755  1.00  0.00     0.209 HD
ENDBRANCH  41  42
ENDBRANCH  38  41
ENDBRANCH  21  38
BRANCH  20  44
HETATM   44  O3  UNL     1     -13.478  -4.554  11.371  1.00  0.00    -0.395 OA
HETATM   45  H23 UNL     1     -14.096  -4.473  10.623  1.00  0.00     0.210 HD
ENDBRANCH  20  44
BRANCH  31  46
HETATM   46  O6  UNL     1     -17.307   3.789  17.719  1.00  0.00    -0.395 OA
HETATM   47  H46 UNL     1     -16.804   3.230  18.338  1.00  0.00     0.210 HD
ENDBRANCH  31  46
BRANCH   7  48
HETATM   48  O1  UNL     1     -19.504   2.885  15.261  1.00  0.00    -0.383 OA
HETATM   49  H9  UNL     1     -20.335   2.895  14.764  1.00  0.00     0.211 HD
ENDBRANCH   7  48
TORSDOF 7
ENDMDL
MODEL 3
REMARK minimizedAffinity -8.00400448
REMARK CNNscore 0.480081081
REMARK CNNaffinity 6.51179361
REMARK  7 active torsions:
REMARK  status: ('A' for Active; 'I' for Inactive)
REMARK    1  A    between atoms: C7_7  and  O1_8 
REMARK    2  A    between atoms: C19_21  and  O3_22 
REMARK    3  A    between atoms: C20_23  and  C22_25 
REMARK    4  A    between atoms: C22_25  and  O4_26 
REMARK    5  A    between atoms: C22_25  and  C23_27 
REMARK    6  A    between atoms: C23_27  and  O5_28 
REMARK    7  A    between atoms: C32_37  and  O6_38 
ROOT
HETATM    1  C1  UNL     1     -20.108  -2.750  14.727  1.00  0.00     0.015 C 
HETATM    2  C2  UNL     1     -18.875  -1.933  15.190  1.00  0.00    -0.043 C 
HETATM    3  C3  UNL     1     -19.286  -1.236  16.548  1.00  0.00     0.010 C 
HETATM    4  C4  UNL     1     -18.321  -0.215  17.215  1.00  0.00     0.012 C 
HETATM    5  C5  UNL     1     -17.006  -0.182  16.574  1.00  0.00     0.082 C 
HETATM    6  C6  UNL     1     -16.139  -0.412  15.774  1.00  0.00    -0.151 C 
HETATM    7  C7  UNL     1     -15.336  -0.966  14.674  1.00  0.00     0.196 C 
HETATM    8  C8  UNL     1     -16.175  -1.890  13.671  1.00  0.00     0.037 C 
HETATM    9  C9  UNL     1     -16.717  -3.216  14.333  1.00  0.00     0.031 C 
HETATM   10  C10 UNL     1     -17.736  -2.952  15.463  1.00  0.00     0.019 C 
HETATM   11  C11 UNL     1     -15.635  -4.270  14.720  1.00  0.00    -0.062 C 
HETATM   12  C12 UNL     1     -15.649  -4.914  15.907  1.00  0.00     0.054 C 
HETATM   13  C13 UNL     1     -14.739  -6.039  16.253  1.00  0.00     0.155 C 
HETATM   14  O2  UNL     1     -14.761  -6.471  17.404  1.00  0.00    -0.293 OA
HETATM   15  C14 UNL     1     -13.878  -6.626  15.128  1.00  0.00     0.077 C 
HETATM   16  C15 UNL     1     -12.858  -7.765  15.564  1.00  0.00    -0.028 C 
HETATM   17  C16 UNL     1     -12.024  -7.336  16.817  1.00  0.00     0.016 C 
HETATM   18  C17 UNL     1     -13.709  -9.020  15.974  1.00  0.00     0.013 C 
HETATM   19  C18 UNL     1     -14.059  -9.924  14.804  1.00  0.00     0.033 C 
HETATM   20  C19 UNL     1     -12.822 -10.555  14.167  1.00  0.00     0.129 C 
HETATM   21  C20 UNL     1     -11.518  -9.701  14.243  1.00  0.00     0.014 C 
HETATM   22  C21 UNL     1     -10.651 -10.075  15.484  1.00  0.00     0.021 C 
HETATM   23  C24 UNL     1     -11.869  -8.137  14.361  1.00  0.00     0.008 C 
HETATM   24  C25 UNL     1     -12.330  -7.483  13.042  1.00  0.00     0.007 C 
HETATM   25  C26 UNL     1     -12.377  -5.963  13.165  1.00  0.00     0.011 C 
HETATM   26  C27 UNL     1     -13.323  -5.438  14.274  1.00  0.00    -0.021 C 
HETATM   27  C28 UNL     1     -12.451  -4.512  15.174  1.00  0.00     0.017 C 
HETATM   28  C29 UNL     1     -14.589  -4.626  13.642  1.00  0.00    -0.010 C 
HETATM   29  C30 UNL     1     -15.339  -5.501  12.587  1.00  0.00     0.021 C 
HETATM   30  C31 UNL     1     -14.096  -3.344  12.927  1.00  0.00     0.047 C 
HETATM   31  C32 UNL     1     -15.193  -2.357  12.522  1.00  0.00     0.132 C 
HETATM   32  C33 UNL     1     -17.454  -1.094  13.055  1.00  0.00    -0.026 C 
HETATM   33  C34 UNL     1     -17.105   0.291  12.437  1.00  0.00     0.010 C 
HETATM   34  C35 UNL     1     -18.295   0.665  11.551  1.00  0.00     0.001 C 
HETATM   35  C36 UNL     1     -18.904  -0.655  11.091  1.00  0.00     0.001 C 
HETATM   36  C37 UNL     1     -18.111  -1.758  11.805  1.00  0.00     0.010 C 
HETATM   37  C38 UNL     1     -18.590  -0.849  14.114  1.00  0.00     0.019 C 
ENDROOT
BRANCH  21  38
HETATM   38  C22 UNL     1     -10.611 -10.003  12.979  1.00  0.00     0.152 C 
BRANCH  38  39
HETATM   39  O4  UNL     1     -10.677 -11.392  12.609  1.00  0.00    -0.393 OA
HETATM   40  H28 UNL     1      -9.850 -11.797  12.950  1.00  0.00     0.210 HD
ENDBRANCH  38  39
BRANCH  38  41
HETATM   41  C23 UNL     1      -9.106  -9.693  13.095  1.00  0.00     0.196 C 
BRANCH  41  42
HETATM   42  O5  UNL     1      -8.853  -8.398  12.547  1.00  0.00    -0.398 OA
HETATM   43  H31 UNL     1      -8.431  -8.534  11.667  1.00  0.00     0.209 HD
ENDBRANCH  41  42
ENDBRANCH  38  41
ENDBRANCH  21  38
BRANCH  20  44
HETATM   44  O3  UNL     1     -12.607 -11.856  14.738  1.00  0.00    -0.395 OA
HETATM   45  H23 UNL     1     -12.811 -11.800  15.689  1.00  0.00     0.210 HD
ENDBRANCH  20  44
BRANCH  31  46
HETATM   46  O6  UNL     1     -14.555  -1.240  11.896  1.00  0.00    -0.395 OA
HETATM   47  H46 UNL     1     -13.997  -1.582  11.175  1.00  0.00     0.210 HD
ENDBRANCH  31  46
BRANCH   7  48
HETATM   48  O1  UNL     1     -14.249  -1.669  15.274  1.00  0.00    -0.383 OA
HETATM   49  H9  UNL     1     -14.194  -1.399  16.204  1.00  0.00     0.211 HD
ENDBRANCH   7  48
TORSDOF 7
ENDMDL
MODEL 4
REMARK minimizedAffinity -6.72367477
REMARK CNNscore 0.475983262
REMARK CNNaffinity 6.64644194
REMARK  7 active torsions:
REMARK  status: ('A' for Active; 'I' for Inactive)
REMARK    1  A    between atoms: C7_7  and  O1_8 
REMARK    2  A    between atoms: C19_21  and  O3_22 
REMARK    3  A    between atoms: C20_23  and  C22_25 
REMARK    4  A    between atoms: C22_25  and  O4_26 
REMARK    5  A    between atoms: C22_25  and  C23_27 
REMARK    6  A    between atoms: C23_27  and  O5_28 
REMARK    7  A    between atoms: C32_37  and  O6_38 
ROOT
HETATM    1  C1  UNL     1      10.570  -5.516   6.098  1.00  0.00     0.015 C 
HETATM    2  C2  UNL     1      12.027  -5.785   6.552  1.00  0.00    -0.043 C 
HETATM    3  C3  UNL     1      12.027  -5.689   8.130  1.00  0.00     0.010 C 
HETATM    4  C4  UNL     1      13.372  -5.765   8.908  1.00  0.00     0.012 C 
HETATM    5  C5  UNL     1      14.498  -6.137   8.052  1.00  0.00     0.082 C 
HETATM    6  C6  UNL     1      15.113  -6.390   7.051  1.00  0.00    -0.151 C 
HETATM    7  C7  UNL     1      15.505  -6.707   5.670  1.00  0.00     0.196 C 
HETATM    8  C8  UNL     1      14.334  -6.475   4.602  1.00  0.00     0.037 C 
HETATM    9  C9  UNL     1      13.105  -7.446   4.787  1.00  0.00     0.031 C 
HETATM   10  C10 UNL     1      12.369  -7.239   6.129  1.00  0.00     0.019 C 
HETATM   11  C11 UNL     1      13.375  -8.947   4.465  1.00  0.00    -0.062 C 
HETATM   12  C12 UNL     1      12.944  -9.945   5.266  1.00  0.00     0.054 C 
HETATM   13  C13 UNL     1      13.035 -11.390   4.918  1.00  0.00     0.155 C 
HETATM   14  O2  UNL     1      12.720 -12.214   5.774  1.00  0.00    -0.293 OA
HETATM   15  C14 UNL     1      13.456 -11.749   3.488  1.00  0.00     0.077 C 
HETATM   16  C15 UNL     1      13.626 -13.300   3.189  1.00  0.00    -0.028 C 
HETATM   17  C16 UNL     1      14.499 -14.001   4.282  1.00  0.00     0.016 C 
HETATM   18  C17 UNL     1      12.194 -13.945   3.249  1.00  0.00     0.013 C 
HETATM   19  C18 UNL     1      11.443 -13.877   1.929  1.00  0.00     0.033 C 
HETATM   20  C19 UNL     1      12.127 -14.688   0.830  1.00  0.00     0.129 C 
HETATM   21  C20 UNL     1      13.680 -14.791   0.939  1.00  0.00     0.014 C 
HETATM   22  C21 UNL     1      14.124 -16.082   1.695  1.00  0.00     0.021 C 
HETATM   23  C24 UNL     1      14.278 -13.537   1.746  1.00  0.00     0.008 C 
HETATM   24  C25 UNL     1      14.330 -12.222   0.940  1.00  0.00     0.007 C 
HETATM   25  C26 UNL     1      15.152 -11.161   1.665  1.00  0.00     0.011 C 
HETATM   26  C27 UNL     1      14.626 -10.795   3.075  1.00  0.00    -0.021 C 
HETATM   27  C28 UNL     1      15.831 -10.996   4.043  1.00  0.00     0.017 C 
HETATM   28  C29 UNL     1      14.078  -9.259   3.126  1.00  0.00    -0.010 C 
HETATM   29  C30 UNL     1      13.010  -9.014   2.012  1.00  0.00     0.021 C 
HETATM   30  C31 UNL     1      15.244  -8.269   2.887  1.00  0.00     0.047 C 
HETATM   31  C32 UNL     1      14.923  -6.799   3.172  1.00  0.00     0.132 C 
HETATM   32  C33 UNL     1      13.765  -4.951   4.665  1.00  0.00    -0.026 C 
HETATM   33  C34 UNL     1      14.867  -3.855   4.586  1.00  0.00     0.010 C 
HETATM   34  C35 UNL     1      14.142  -2.558   4.220  1.00  0.00     0.001 C 
HETATM   35  C36 UNL     1      12.911  -2.979   3.426  1.00  0.00     0.001 C 
HETATM   36  C37 UNL     1      12.902  -4.513   3.440  1.00  0.00     0.010 C 
HETATM   37  C38 UNL     1      12.925  -4.664   5.963  1.00  0.00     0.019 C 
ENDROOT
BRANCH  21  38
HETATM   38  C22 UNL     1      14.308 -14.906  -0.512  1.00  0.00     0.152 C 
BRANCH  38  39
HETATM   39  O4  UNL     1      15.681 -14.474  -0.522  1.00  0.00    -0.393 OA
HETATM   40  H28 UNL     1      15.671 -13.570  -0.902  1.00  0.00     0.210 HD
ENDBRANCH  38  39
BRANCH  38  41
HETATM   41  C23 UNL     1      13.631 -14.108  -1.643  1.00  0.00     0.196 C 
BRANCH  41  42
HETATM   42  O5  UNL     1      12.968 -15.018  -2.523  1.00  0.00    -0.398 OA
HETATM   43  H31 UNL     1      13.519 -15.087  -3.336  1.00  0.00     0.209 HD
ENDBRANCH  41  42
ENDBRANCH  38  41
ENDBRANCH  21  38
BRANCH  20  44
HETATM   44  O3  UNL     1      11.537 -15.998   0.770  1.00  0.00    -0.395 OA
HETATM   45  H23 UNL     1      11.359 -16.284   1.684  1.00  0.00     0.210 HD
ENDBRANCH  20  44
BRANCH  31  46
HETATM   46  O6  UNL     1      16.111  -6.045   2.913  1.00  0.00    -0.395 OA
HETATM   47  H46 UNL     1      16.406  -6.254   2.010  1.00  0.00     0.210 HD
ENDBRANCH  31  46
BRANCH   7  48
HETATM   48  O1  UNL     1      15.970  -8.056   5.675  1.00  0.00    -0.383 OA
HETATM   49  H9  UNL     1      16.128  -8.315   6.595  1.00  0.00     0.211 HD
ENDBRANCH   7  48
TORSDOF 7
ENDMDL
MODEL 5
REMARK minimizedAffinity -9.01582623
REMARK CNNscore 0.44033584
REMARK CNNaffinity 7.00858688
REMARK  7 active torsions:
REMARK  status: ('A' for Active; 'I' for Inactive)
REMARK    1  A    between atoms: C7_7  and  O1_8 
REMARK    2  A    between atoms: C19_21  and  O3_22 
REMARK    3  A    between atoms: C20_23  and  C22_25 
REMARK    4  A    between atoms: C22_25  and  O4_26 
REMARK    5  A    between atoms: C22_25  and  C23_27 
REMARK    6  A    between atoms: C23_27  and  O5_28 
REMARK    7  A    between atoms: C32_37  and  O6_38 
ROOT
HETATM    1  C1  UNL     1      -1.436   8.839  10.876  1.00  0.00     0.015 C 
HETATM    2  C2  UNL     1      -0.580   8.286  12.044  1.00  0.00    -0.043 C 
HETATM    3  C3  UNL     1       0.901   8.182  11.502  1.00  0.00     0.010 C 
HETATM    4  C4  UNL     1       2.001   7.520  12.381  1.00  0.00     0.012 C 
HETATM    5  C5  UNL     1       1.544   7.249  13.744  1.00  0.00     0.082 C 
HETATM    6  C6  UNL     1       0.797   7.151  14.681  1.00  0.00    -0.151 C 
HETATM    7  C7  UNL     1      -0.357   7.231  15.589  1.00  0.00     0.196 C 
HETATM    8  C8  UNL     1      -1.714   7.672  14.861  1.00  0.00     0.037 C 
HETATM    9  C9  UNL     1      -1.683   9.145  14.299  1.00  0.00     0.031 C 
HETATM   10  C10 UNL     1      -0.635   9.341  13.181  1.00  0.00     0.019 C 
HETATM   11  C11 UNL     1      -1.652  10.277  15.369  1.00  0.00    -0.062 C 
HETATM   12  C12 UNL     1      -0.825  11.340  15.271  1.00  0.00     0.054 C 
HETATM   13  C13 UNL     1      -0.875  12.520  16.177  1.00  0.00     0.155 C 
HETATM   14  O2  UNL     1       0.003  13.373  16.068  1.00  0.00    -0.293 OA
HETATM   15  C14 UNL     1      -2.061  12.621  17.145  1.00  0.00     0.077 C 
HETATM   16  C15 UNL     1      -2.025  13.849  18.153  1.00  0.00    -0.028 C 
HETATM   17  C16 UNL     1      -0.636  13.963  18.866  1.00  0.00     0.016 C 
HETATM   18  C17 UNL     1      -2.223  15.155  17.301  1.00  0.00     0.013 C 
HETATM   19  C18 UNL     1      -3.681  15.516  17.075  1.00  0.00     0.033 C 
HETATM   20  C19 UNL     1      -4.405  15.855  18.377  1.00  0.00     0.129 C 
HETATM   21  C20 UNL     1      -3.882  15.115  19.648  1.00  0.00     0.014 C 
HETATM   22  C21 UNL     1      -2.820  15.961  20.416  1.00  0.00     0.021 C 
HETATM   23  C24 UNL     1      -3.184  13.723  19.249  1.00  0.00     0.008 C 
HETATM   24  C25 UNL     1      -4.171  12.593  18.885  1.00  0.00     0.007 C 
HETATM   25  C26 UNL     1      -3.459  11.248  18.789  1.00  0.00     0.011 C 
HETATM   26  C27 UNL     1      -2.321  11.197  17.740  1.00  0.00    -0.021 C 
HETATM   27  C28 UNL     1      -1.054  10.714  18.510  1.00  0.00     0.017 C 
HETATM   28  C29 UNL     1      -2.687  10.187  16.512  1.00  0.00    -0.010 C 
HETATM   29  C30 UNL     1      -4.063  10.562  15.876  1.00  0.00     0.021 C 
HETATM   30  C31 UNL     1      -2.788   8.732  17.032  1.00  0.00     0.047 C 
HETATM   31  C32 UNL     1      -2.863   7.653  15.948  1.00  0.00     0.132 C 
HETATM   32  C33 UNL     1      -2.073   6.682  13.619  1.00  0.00    -0.026 C 
HETATM   33  C34 UNL     1      -2.058   5.170  13.984  1.00  0.00     0.010 C 
HETATM   34  C35 UNL     1      -2.823   4.462  12.865  1.00  0.00     0.001 C 
HETATM   35  C36 UNL     1      -3.820   5.484  12.331  1.00  0.00     0.001 C 
HETATM   36  C37 UNL     1      -3.537   6.787  13.087  1.00  0.00     0.010 C 
HETATM   37  C38 UNL     1      -1.108   6.867  12.391  1.00  0.00     0.019 C 
ENDROOT
BRANCH  21  38
HETATM   38  C22 UNL     1      -5.077  14.899  20.666  1.00  0.00     0.152 C 
BRANCH  38  39
HETATM   39  O4  UNL     1      -4.685  15.236  22.010  1.00  0.00    -0.393 OA
HETATM   40  H28 UNL     1      -4.517  14.380  22.459  1.00  0.00     0.210 HD
ENDBRANCH  38  39
BRANCH  38  41
HETATM   41  C23 UNL     1      -5.675  13.482  20.770  1.00  0.00     0.196 C 
BRANCH  41  42
HETATM   42  O5  UNL     1      -5.616  13.050  22.130  1.00  0.00    -0.398 OA
HETATM   43  H31 UNL     1      -4.881  12.397  22.194  1.00  0.00     0.209 HD
ENDBRANCH  41  42
ENDBRANCH  38  41
ENDBRANCH  21  38
BRANCH  20  44
HETATM   44  O3  UNL     1      -4.381  17.278  18.576  1.00  0.00    -0.395 OA
HETATM   45  H23 UNL     1      -3.508  17.602  18.290  1.00  0.00     0.210 HD
ENDBRANCH  20  44
BRANCH  31  46
HETATM   46  O6  UNL     1      -2.935   6.387  16.609  1.00  0.00    -0.395 OA
HETATM   47  H46 UNL     1      -3.680   6.420  17.235  1.00  0.00     0.210 HD
ENDBRANCH  31  46
BRANCH   7  48
HETATM   48  O1  UNL     1       0.008   8.126  16.637  1.00  0.00    -0.383 OA
HETATM   49  H9  UNL     1       0.969   8.248  16.607  1.00  0.00     0.211 HD
ENDBRANCH   7  48
TORSDOF 7
ENDMDL
MODEL 6
REMARK minimizedAffinity -7.73858929
REMARK CNNscore 0.431306988
REMARK CNNaffinity 6.30057716
REMARK  7 active torsions:
REMARK  status: ('A' for Active; 'I' for Inactive)
REMARK    1  A    between atoms: C7_7  and  O1_8 
REMARK    2  A    between atoms: C19_21  and  O3_22 
REMARK    3  A    between atoms: C20_23  and  C22_25 
REMARK    4  A    between atoms: C22_25  and  O4_26 
REMARK    5  A    between atoms: C22_25  and  C23_27 
REMARK    6  A    between atoms: C23_27  and  O5_28 
REMARK    7  A    between atoms: C32_37  and  O6_38 
ROOT
HETATM    1  C1  UNL     1     -17.325  -6.390  10.371  1.00  0.00     0.015 C 
HETATM    2  C2  UNL     1     -16.178  -5.380  10.114  1.00  0.00    -0.043 C 
HETATM    3  C3  UNL     1     -15.901  -5.408   8.558  1.00  0.00     0.010 C 
HETATM    4  C4  UNL     1     -14.700  -4.610   7.973  1.00  0.00     0.012 C 
HETATM    5  C5  UNL     1     -14.073  -3.732   8.960  1.00  0.00     0.082 C 
HETATM    6  C6  UNL     1     -13.834  -3.227  10.025  1.00  0.00    -0.151 C 
HETATM    7  C7  UNL     1     -13.870  -2.799  11.431  1.00  0.00     0.196 C 
HETATM    8  C8  UNL     1     -14.884  -3.648  12.333  1.00  0.00     0.037 C 
HETATM    9  C9  UNL     1     -16.398  -3.461  11.932  1.00  0.00     0.031 C 
HETATM   10  C10 UNL     1     -16.714  -3.979  10.512  1.00  0.00     0.019 C 
HETATM   11  C11 UNL     1     -17.005  -2.054  12.219  1.00  0.00    -0.062 C 
HETATM   12  C12 UNL     1     -17.774  -1.405  11.319  1.00  0.00     0.054 C 
HETATM   13  C13 UNL     1     -18.505  -0.141  11.608  1.00  0.00     0.155 C 
HETATM   14  O2  UNL     1     -19.079   0.424  10.679  1.00  0.00    -0.293 OA
HETATM   15  C14 UNL     1     -18.546   0.337  13.065  1.00  0.00     0.077 C 
HETATM   16  C15 UNL     1     -19.260   1.735  13.312  1.00  0.00    -0.028 C 
HETATM   17  C16 UNL     1     -18.737   2.827  12.320  1.00  0.00     0.016 C 
HETATM   18  C17 UNL     1     -20.791   1.533  13.022  1.00  0.00     0.013 C 
HETATM   19  C18 UNL     1     -21.576   1.036  14.224  1.00  0.00     0.033 C 
HETATM   20  C19 UNL     1     -21.585   2.047  15.370  1.00  0.00     0.129 C 
HETATM   21  C20 UNL     1     -20.320   2.955  15.474  1.00  0.00     0.014 C 
HETATM   22  C21 UNL     1     -20.515   4.311  14.729  1.00  0.00     0.021 C 
HETATM   23  C24 UNL     1     -19.044   2.230  14.819  1.00  0.00     0.008 C 
HETATM   24  C25 UNL     1     -18.427   1.112  15.685  1.00  0.00     0.007 C 
HETATM   25  C26 UNL     1     -17.077   0.666  15.133  1.00  0.00     0.011 C 
HETATM   26  C27 UNL     1     -17.123   0.127  13.682  1.00  0.00    -0.021 C 
HETATM   27  C28 UNL     1     -16.079   0.963  12.884  1.00  0.00     0.017 C 
HETATM   28  C29 UNL     1     -16.771  -1.465  13.627  1.00  0.00    -0.010 C 
HETATM   29  C30 UNL     1     -17.699  -2.273  14.590  1.00  0.00     0.021 C 
HETATM   30  C31 UNL     1     -15.307  -1.703  14.073  1.00  0.00     0.047 C 
HETATM   31  C32 UNL     1     -14.765  -3.111  13.816  1.00  0.00     0.132 C 
HETATM   32  C33 UNL     1     -14.553  -5.241  12.263  1.00  0.00    -0.026 C 
HETATM   33  C34 UNL     1     -13.066  -5.596  12.547  1.00  0.00     0.010 C 
HETATM   34  C35 UNL     1     -13.046  -7.092  12.869  1.00  0.00     0.001 C 
HETATM   35  C36 UNL     1     -14.414  -7.408  13.462  1.00  0.00     0.001 C 
HETATM   36  C37 UNL     1     -15.224  -6.108  13.375  1.00  0.00     0.010 C 
HETATM   37  C38 UNL     1     -14.921  -5.882  10.875  1.00  0.00     0.019 C 
ENDROOT
BRANCH  21  38
HETATM   38  C22 UNL     1     -20.062   3.333  16.992  1.00  0.00     0.152 C 
BRANCH  38  39
HETATM   39  O4  UNL     1     -18.690   3.709  17.210  1.00  0.00    -0.393 OA
HETATM   40  H28 UNL     1     -18.263   2.928  17.623  1.00  0.00     0.210 HD
ENDBRANCH  38  39
BRANCH  38  41
HETATM   41  C23 UNL     1     -20.351   2.252  18.052  1.00  0.00     0.196 C 
BRANCH  41  42
HETATM   42  O5  UNL     1     -20.299   2.847  19.350  1.00  0.00    -0.398 OA
HETATM   43  H31 UNL     1     -19.448   2.568  19.761  1.00  0.00     0.209 HD
ENDBRANCH  41  42
ENDBRANCH  38  41
ENDBRANCH  21  38
BRANCH  20  44
HETATM   44  O3  UNL     1     -22.775   2.849  15.284  1.00  0.00    -0.395 OA
HETATM   45  H23 UNL     1     -22.943   3.030  14.342  1.00  0.00     0.210 HD
ENDBRANCH  20  44
BRANCH  31  46
HETATM   46  O6  UNL     1     -13.409  -3.137  14.273  1.00  0.00    -0.395 OA
HETATM   47  H46 UNL     1     -13.401  -2.836  15.198  1.00  0.00     0.210 HD
ENDBRANCH  31  46
BRANCH   7  48
HETATM   48  O1  UNL     1     -14.186  -1.408  11.427  1.00  0.00    -0.383 OA
HETATM   49  H9  UNL     1     -14.056  -1.073  10.527  1.00  0.00     0.211 HD
ENDBRANCH   7  48
TORSDOF 7
ENDMDL
MODEL 7
REMARK minimizedAffinity -7.63565159
REMARK CNNscore 0.399934828
REMARK CNNaffinity 6.34601736
REMARK  7 active torsions:
REMARK  status: ('A' for Active; 'I' for Inactive)
REMARK    1  A    between atoms: C7_7  and  O1_8 
REMARK    2  A    between atoms: C19_21  and  O3_22 
REMARK    3  A    between atoms: C20_23  and  C22_25 
REMARK    4  A    between atoms: C22_25  and  O4_26 
REMARK    5  A    between atoms: C22_25  and  C23_27 
REMARK    6  A    between atoms: C23_27  and  O5_28 
REMARK    7  A    between atoms: C32_37  and  O6_38 
ROOT
HETATM    1  C1  UNL     1     -10.435  11.477  20.779  1.00  0.00     0.015 C 
HETATM    2  C2  UNL     1     -11.955  11.650  21.030  1.00  0.00    -0.043 C 
HETATM    3  C3  UNL     1     -12.589  12.081  19.648  1.00  0.00     0.010 C 
HETATM    4  C4  UNL     1     -14.090  12.481  19.579  1.00  0.00     0.012 C 
HETATM    5  C5  UNL     1     -14.806  12.198  20.822  1.00  0.00     0.082 C 
HETATM    6  C6  UNL     1     -14.989  11.881  21.967  1.00  0.00    -0.151 C 
HETATM    7  C7  UNL     1     -14.839  11.371  23.338  1.00  0.00     0.196 C 
HETATM    8  C8  UNL     1     -13.318  11.096  23.757  1.00  0.00     0.037 C 
HETATM    9  C9  UNL     1     -12.634   9.935  22.937  1.00  0.00     0.031 C 
HETATM   10  C10 UNL     1     -12.505  10.255  21.431  1.00  0.00     0.019 C 
HETATM   11  C11 UNL     1     -13.179   8.501  23.212  1.00  0.00    -0.062 C 
HETATM   12  C12 UNL     1     -13.446   7.628  22.216  1.00  0.00     0.054 C 
HETATM   13  C13 UNL     1     -13.810   6.202  22.436  1.00  0.00     0.155 C 
HETATM   14  O2  UNL     1     -14.147   5.532  21.462  1.00  0.00    -0.293 OA
HETATM   15  C14 UNL     1     -13.678   5.648  23.860  1.00  0.00     0.077 C 
HETATM   16  C15 UNL     1     -14.162   4.148  24.063  1.00  0.00    -0.028 C 
HETATM   17  C16 UNL     1     -15.580   3.916  23.442  1.00  0.00     0.016 C 
HETATM   18  C17 UNL     1     -13.154   3.224  23.289  1.00  0.00     0.013 C 
HETATM   19  C18 UNL     1     -11.936   2.834  24.110  1.00  0.00     0.033 C 
HETATM   20  C19 UNL     1     -12.303   1.981  25.324  1.00  0.00     0.129 C 
HETATM   21  C20 UNL     1     -13.710   2.259  25.938  1.00  0.00     0.014 C 
HETATM   22  C21 UNL     1     -14.794   1.297  25.362  1.00  0.00     0.021 C 
HETATM   23  C24 UNL     1     -14.186   3.760  25.616  1.00  0.00     0.008 C 
HETATM   24  C25 UNL     1     -13.498   4.847  26.469  1.00  0.00     0.007 C 
HETATM   25  C26 UNL     1     -14.188   6.197  26.306  1.00  0.00     0.011 C 
HETATM   26  C27 UNL     1     -14.221   6.730  24.852  1.00  0.00    -0.021 C 
HETATM   27  C28 UNL     1     -15.719   7.020  24.539  1.00  0.00     0.017 C 
HETATM   28  C29 UNL     1     -13.312   8.075  24.690  1.00  0.00    -0.010 C 
HETATM   29  C30 UNL     1     -11.856   7.826  25.198  1.00  0.00     0.021 C 
HETATM   30  C31 UNL     1     -13.915   9.229  25.530  1.00  0.00     0.047 C 
HETATM   31  C32 UNL     1     -13.319  10.613  25.262  1.00  0.00     0.132 C 
HETATM   32  C33 UNL     1     -12.400  12.429  23.574  1.00  0.00    -0.026 C 
HETATM   33  C34 UNL     1     -12.983  13.702  24.252  1.00  0.00     0.010 C 
HETATM   34  C35 UNL     1     -11.820  14.691  24.356  1.00  0.00     0.001 C 
HETATM   35  C36 UNL     1     -10.557  13.841  24.447  1.00  0.00     0.001 C 
HETATM   36  C37 UNL     1     -11.015  12.385  24.293  1.00  0.00     0.010 C 
HETATM   37  C38 UNL     1     -12.140  12.791  22.066  1.00  0.00     0.019 C 
ENDROOT
BRANCH  21  38
HETATM   38  C22 UNL     1     -13.673   1.979  27.498  1.00  0.00     0.152 C 
BRANCH  38  39
HETATM   39  O4  UNL     1     -14.739   2.668  28.177  1.00  0.00    -0.393 OA
HETATM   40  H28 UNL     1     -14.324   3.454  28.592  1.00  0.00     0.210 HD
ENDBRANCH  38  39
BRANCH  38  41
HETATM   41  C23 UNL     1     -12.393   2.377  28.260  1.00  0.00     0.196 C 
BRANCH  41  42
HETATM   42  O5  UNL     1     -12.570   2.088  29.648  1.00  0.00    -0.398 OA
HETATM   43  H31 UNL     1     -12.723   2.948  30.104  1.00  0.00     0.209 HD
ENDBRANCH  41  42
ENDBRANCH  38  41
ENDBRANCH  21  38
BRANCH  20  44
HETATM   44  O3  UNL     1     -12.165   0.592  24.985  1.00  0.00    -0.395 OA
HETATM   45  H23 UNL     1     -12.482   0.476  24.071  1.00  0.00     0.210 HD
ENDBRANCH  20  44
BRANCH  31  46
HETATM   46  O6  UNL     1     -14.002  11.543  26.108  1.00  0.00    -0.395 OA
HETATM   47  H46 UNL     1     -13.937  11.217  27.023  1.00  0.00     0.210 HD
ENDBRANCH  31  46
BRANCH   7  48
HETATM   48  O1  UNL     1     -15.643  10.196  23.428  1.00  0.00    -0.383 OA
HETATM   49  H9  UNL     1     -16.243  10.185  22.667  1.00  0.00     0.211 HD
ENDBRANCH   7  48
TORSDOF 7
ENDMDL
MODEL 8
REMARK minimizedAffinity -6.71873093
REMARK CNNscore 0.393528521
REMARK CNNaffinity 6.13092422
REMARK  7 active torsions:
REMARK  status: ('A' for Active; 'I' for Inactive)
REMARK    1  A    between atoms: C7_7  and  O1_8 
REMARK    2  A    between atoms: C19_21  and  O3_22 
REMARK    3  A    between atoms: C20_23  and  C22_25 
REMARK    4  A    between atoms: C22_25  and  O4_26 
REMARK    5  A    between atoms: C22_25  and  C23_27 
REMARK    6  A    between atoms: C23_27  and  O5_28 
REMARK    7  A    between atoms: C32_37  and  O6_38 
ROOT
HETATM    1  C1  UNL     1     -23.305   5.477  10.710  1.00  0.00     0.015 C 
HETATM    2  C2  UNL     1     -22.780   4.492   9.635  1.00  0.00    -0.043 C 
HETATM    3  C3  UNL     1     -22.280   5.378   8.426  1.00  0.00     0.010 C 
HETATM    4  C4  UNL     1     -21.821   4.695   7.105  1.00  0.00     0.012 C 
HETATM    5  C5  UNL     1     -21.714   3.242   7.231  1.00  0.00     0.082 C 
HETATM    6  C6  UNL     1     -21.808   2.145   7.715  1.00  0.00    -0.151 C 
HETATM    7  C7  UNL     1     -22.002   1.012   8.631  1.00  0.00     0.196 C 
HETATM    8  C8  UNL     1     -22.701   1.418  10.013  1.00  0.00     0.037 C 
HETATM    9  C9  UNL     1     -21.824   2.373  10.912  1.00  0.00     0.031 C 
HETATM   10  C10 UNL     1     -21.569   3.749  10.259  1.00  0.00     0.019 C 
HETATM   11  C11 UNL     1     -20.536   1.736  11.518  1.00  0.00    -0.062 C 
HETATM   12  C12 UNL     1     -19.346   2.374  11.511  1.00  0.00     0.054 C 
HETATM   13  C13 UNL     1     -18.133   1.879  12.218  1.00  0.00     0.155 C 
HETATM   14  O2  UNL     1     -17.075   2.478  12.045  1.00  0.00    -0.293 OA
HETATM   15  C14 UNL     1     -18.304   0.687  13.169  1.00  0.00     0.077 C 
HETATM   16  C15 UNL     1     -16.968   0.138  13.832  1.00  0.00    -0.028 C 
HETATM   17  C16 UNL     1     -15.848  -0.084  12.762  1.00  0.00     0.016 C 
HETATM   18  C17 UNL     1     -16.455   1.242  14.827  1.00  0.00     0.013 C 
HETATM   19  C18 UNL     1     -17.065   1.138  16.214  1.00  0.00     0.033 C 
HETATM   20  C19 UNL     1     -16.676  -0.157  16.925  1.00  0.00     0.129 C 
HETATM   21  C20 UNL     1     -16.426  -1.384  15.994  1.00  0.00     0.014 C 
HETATM   22  C21 UNL     1     -14.918  -1.534  15.625  1.00  0.00     0.021 C 
HETATM   23  C24 UNL     1     -17.241  -1.230  14.618  1.00  0.00     0.008 C 
HETATM   24  C25 UNL     1     -18.754  -1.510  14.735  1.00  0.00     0.007 C 
HETATM   25  C26 UNL     1     -19.404  -1.614  13.359  1.00  0.00     0.011 C 
HETATM   26  C27 UNL     1     -19.255  -0.348  12.480  1.00  0.00    -0.021 C 
HETATM   27  C28 UNL     1     -18.619  -0.831  11.142  1.00  0.00     0.017 C 
HETATM   28  C29 UNL     1     -20.696   0.372  12.223  1.00  0.00    -0.010 C 
HETATM   29  C30 UNL     1     -21.417   0.670  13.577  1.00  0.00     0.021 C 
HETATM   30  C31 UNL     1     -21.615  -0.558  11.394  1.00  0.00     0.047 C 
HETATM   31  C32 UNL     1     -22.892   0.094  10.856  1.00  0.00     0.132 C 
HETATM   32  C33 UNL     1     -24.129   2.159   9.763  1.00  0.00    -0.026 C 
HETATM   33  C34 UNL     1     -25.091   1.387   8.815  1.00  0.00     0.010 C 
HETATM   34  C35 UNL     1     -26.480   1.982   9.052  1.00  0.00     0.001 C 
HETATM   35  C36 UNL     1     -26.478   2.485  10.491  1.00  0.00     0.001 C 
HETATM   36  C37 UNL     1     -25.055   2.258  11.016  1.00  0.00     0.010 C 
HETATM   37  C38 UNL     1     -23.972   3.609   9.175  1.00  0.00     0.019 C 
ENDROOT
BRANCH  21  38
HETATM   38  C22 UNL     1     -16.815  -2.717  16.758  1.00  0.00     0.152 C 
BRANCH  38  39
HETATM   39  O4  UNL     1     -17.746  -3.504  15.993  1.00  0.00    -0.393 OA
HETATM   40  H28 UNL     1     -18.625  -3.345  16.401  1.00  0.00     0.210 HD
ENDBRANCH  38  39
BRANCH  38  41
HETATM   41  C23 UNL     1     -17.463  -2.575  18.149  1.00  0.00     0.196 C 
BRANCH  41  42
HETATM   42  O5  UNL     1     -16.433  -2.440  19.131  1.00  0.00    -0.398 OA
HETATM   43  H31 UNL     1     -16.369  -3.303  19.602  1.00  0.00     0.209 HD
ENDBRANCH  41  42
ENDBRANCH  38  41
ENDBRANCH  21  38
BRANCH  20  44
HETATM   44  O3  UNL     1     -15.530   0.086  17.758  1.00  0.00    -0.395 OA
HETATM   45  H23 UNL     1     -14.937   0.691  17.278  1.00  0.00     0.210 HD
ENDBRANCH  20  44
BRANCH  31  46
HETATM   46  O6  UNL     1     -23.599  -0.902  10.111  1.00  0.00    -0.395 OA
HETATM   47  H46 UNL     1     -23.722  -1.675  10.689  1.00  0.00     0.210 HD
ENDBRANCH  31  46
BRANCH   7  48
HETATM   48  O1  UNL     1     -20.719   0.421   8.829  1.00  0.00    -0.383 OA
HETATM   49  H9  UNL     1     -20.124   0.759   8.142  1.00  0.00     0.211 HD
ENDBRANCH   7  48
TORSDOF 7
ENDMDL
MODEL 9
REMARK minimizedAffinity -7.22433901
REMARK CNNscore 0.383907288
REMARK CNNaffinity 6.55870628
REMARK  7 active torsions:
REMARK  status: ('A' for Active; 'I' for Inactive)
REMARK    1  A    between atoms: C7_7  and  O1_8 
REMARK    2  A    between atoms: C19_21  and  O3_22 
REMARK    3  A    between atoms: C20_23  and  C22_25 
REMARK    4  A    between atoms: C22_25  and  O4_26 
REMARK    5  A    between atoms: C22_25  and  C23_27 
REMARK    6  A    between atoms: C23_27  and  O5_28 
REMARK    7  A    between atoms: C32_37  and  O6_38 
ROOT
HETATM    1  C1  UNL     1      -2.172  15.976   0.932  1.00  0.00     0.015 C 
HETATM    2  C2  UNL     1      -1.055  15.077   1.522  1.00  0.00    -0.043 C 
HETATM    3  C3  UNL     1      -1.760  13.745   1.997  1.00  0.00     0.010 C 
HETATM    4  C4  UNL     1      -0.944  12.674   2.776  1.00  0.00     0.012 C 
HETATM    5  C5  UNL     1       0.490  12.962   2.793  1.00  0.00     0.082 C 
HETATM    6  C6  UNL     1       1.518  13.562   2.627  1.00  0.00    -0.151 C 
HETATM    7  C7  UNL     1       2.544  14.527   2.205  1.00  0.00     0.196 C 
HETATM    8  C8  UNL     1       1.940  15.867   1.569  1.00  0.00     0.037 C 
HETATM    9  C9  UNL     1       1.179  15.636   0.207  1.00  0.00     0.031 C 
HETATM   10  C10 UNL     1      -0.078  14.753   0.361  1.00  0.00     0.019 C 
HETATM   11  C11 UNL     1       2.070  15.224  -1.004  1.00  0.00    -0.062 C 
HETATM   12  C12 UNL     1       1.722  14.230  -1.850  1.00  0.00     0.054 C 
HETATM   13  C13 UNL     1       2.455  13.912  -3.106  1.00  0.00     0.155 C 
HETATM   14  O2  UNL     1       2.119  12.912  -3.736  1.00  0.00    -0.293 OA
HETATM   15  C14 UNL     1       3.541  14.894  -3.561  1.00  0.00     0.077 C 
HETATM   16  C15 UNL     1       4.356  14.467  -4.857  1.00  0.00    -0.028 C 
HETATM   17  C16 UNL     1       4.866  12.991  -4.751  1.00  0.00     0.016 C 
HETATM   18  C17 UNL     1       3.364  14.535  -6.074  1.00  0.00     0.013 C 
HETATM   19  C18 UNL     1       3.276  15.913  -6.708  1.00  0.00     0.033 C 
HETATM   20  C19 UNL     1       4.599  16.350  -7.334  1.00  0.00     0.129 C 
HETATM   21  C20 UNL     1       5.884  15.794  -6.644  1.00  0.00     0.014 C 
HETATM   22  C21 UNL     1       6.387  14.484  -7.325  1.00  0.00     0.021 C 
HETATM   23  C24 UNL     1       5.597  15.449  -5.101  1.00  0.00     0.008 C 
HETATM   24  C25 UNL     1       5.520  16.680  -4.173  1.00  0.00     0.007 C 
HETATM   25  C26 UNL     1       5.523  16.266  -2.705  1.00  0.00     0.011 C 
HETATM   26  C27 UNL     1       4.356  15.333  -2.299  1.00  0.00    -0.021 C 
HETATM   27  C28 UNL     1       5.019  14.082  -1.646  1.00  0.00     0.017 C 
HETATM   28  C29 UNL     1       3.336  16.070  -1.261  1.00  0.00    -0.010 C 
HETATM   29  C30 UNL     1       2.833  17.428  -1.848  1.00  0.00     0.021 C 
HETATM   30  C31 UNL     1       4.061  16.373   0.074  1.00  0.00     0.047 C 
HETATM   31  C32 UNL     1       3.155  16.819   1.224  1.00  0.00     0.132 C 
HETATM   32  C33 UNL     1       0.902  16.596   2.590  1.00  0.00    -0.026 C 
HETATM   33  C34 UNL     1       1.468  16.820   4.022  1.00  0.00     0.010 C 
HETATM   34  C35 UNL     1       0.564  17.870   4.670  1.00  0.00     0.001 C 
HETATM   35  C36 UNL     1       0.023  18.718   3.525  1.00  0.00     0.001 C 
HETATM   36  C37 UNL     1       0.550  18.075   2.236  1.00  0.00     0.010 C 
HETATM   37  C38 UNL     1      -0.451  15.812   2.750  1.00  0.00     0.019 C 
ENDROOT
BRANCH  21  38
HETATM   38  C22 UNL     1       7.065  16.840  -6.800  1.00  0.00     0.152 C 
BRANCH  38  39
HETATM   39  O4  UNL     1       6.565  18.142  -7.152  1.00  0.00    -0.393 OA
HETATM   40  H28 UNL     1       6.728  18.237  -8.115  1.00  0.00     0.210 HD
ENDBRANCH  38  39
BRANCH  38  41
HETATM   41  C23 UNL     1       8.151  16.532  -7.849  1.00  0.00     0.196 C 
BRANCH  41  42
HETATM   42  O5  UNL     1       9.435  16.609  -7.227  1.00  0.00    -0.398 OA
HETATM   43  H31 UNL     1       9.846  17.456  -7.518  1.00  0.00     0.209 HD
ENDBRANCH  41  42
ENDBRANCH  38  41
ENDBRANCH  21  38
BRANCH  20  44
HETATM   44  O3  UNL     1       4.594  16.019  -8.733  1.00  0.00    -0.395 OA
HETATM   45  H23 UNL     1       4.158  15.154  -8.831  1.00  0.00     0.210 HD
ENDBRANCH  20  44
BRANCH  31  46
HETATM   46  O6  UNL     1       3.989  17.035   2.366  1.00  0.00    -0.395 OA
HETATM   47  H46 UNL     1       4.693  17.656   2.107  1.00  0.00     0.210 HD
ENDBRANCH  31  46
BRANCH   7  48
HETATM   48  O1  UNL     1       3.405  13.840   1.298  1.00  0.00    -0.383 OA
HETATM   49  H9  UNL     1       3.236  12.890   1.386  1.00  0.00     0.211 HD
ENDBRANCH   7  48
TORSDOF 7
ENDMDL
