MODEL 1
REMARK minimizedAffinity -8.65658474
REMARK  5 active torsions:
REMARK  status: ('A' for Active; 'I' for Inactive)
REMARK    1  A    between atoms: C2_2  and  C4_4 
REMARK    2  A    between atoms: C7_7  and  C8_8 
REMARK    3  A    between atoms: C8_8  and  O2_10 
REMARK    4  A    between atoms: C11_13  and  C12_14 
REMARK    5  A    between atoms: C12_14  and  O4_16 
ROOT
HETATM    1  C4  UNL     1      -1.956   4.514  12.628  1.00  0.00     0.019 C 
HETATM    2  C5  UNL     1      -3.490   4.441  12.840  1.00  0.00     0.011 C 
HETATM    3  C6  UNL     1      -3.977   5.888  13.008  1.00  0.00     0.021 C 
HETATM    4  C7  UNL     1      -2.739   6.637  13.513  1.00  0.00     0.050 C 
HETATM    5  C9  UNL     1      -2.767   8.150  13.297  1.00  0.00     0.022 C 
HETATM    6  C10 UNL     1      -1.389   8.782  13.588  1.00  0.00     0.023 C 
HETATM    7  C11 UNL     1      -0.128   8.095  12.930  1.00  0.00     0.057 C 
HETATM    8  C13 UNL     1      -0.238   6.534  12.961  1.00  0.00     0.011 C 
HETATM    9  C14 UNL     1       0.863   5.890  12.113  1.00  0.00     0.007 C 
HETATM   10  C15 UNL     1       2.229   6.579  12.203  1.00  0.00     0.006 C 
HETATM   11  C16 UNL     1       2.443   7.451  13.460  1.00  0.00     0.003 C 
HETATM   12  C17 UNL     1       3.955   8.010  13.607  1.00  0.00    -0.035 C 
HETATM   13  C18 UNL     1       4.355   7.913  15.108  1.00  0.00     0.016 C 
HETATM   14  C19 UNL     1       4.972   7.128  12.820  1.00  0.00     0.017 C 
HETATM   15  C20 UNL     1       6.405   7.638  12.835  1.00  0.00     0.080 C 
HETATM   16  C21 UNL     1       6.479   9.055  12.328  1.00  0.00     0.135 C 
HETATM   17  O5  UNL     1       7.381   9.375  11.550  1.00  0.00    -0.297 OA
HETATM   18  C22 UNL     1       5.493  10.084  12.909  1.00  0.00     0.017 C 
HETATM   19  C23 UNL     1       6.080  10.611  14.228  1.00  0.00     0.023 C 
HETATM   20  C24 UNL     1       5.450  11.280  11.919  1.00  0.00     0.023 C 
HETATM   21  C25 UNL     1       4.054   9.460  13.027  1.00  0.00     0.009 C 
HETATM   22  C26 UNL     1       3.050  10.390  13.728  1.00  0.00     0.007 C 
HETATM   23  C27 UNL     1       1.626   9.984  13.389  1.00  0.00     0.011 C 
HETATM   24  C28 UNL     1       1.254   8.509  13.715  1.00  0.00    -0.022 C 
HETATM   25  C29 UNL     1       1.009   8.485  15.264  1.00  0.00     0.017 C 
HETATM   26  C30 UNL     1      -1.652   6.031  12.597  1.00  0.00     0.018 C 
ENDROOT
BRANCH   4  27
HETATM   27  C8  UNL     1      -2.592   6.330  15.012  1.00  0.00     0.149 C 
HETATM   28  O1  UNL     1      -3.410   6.517  15.894  1.00  0.00    -0.649 OA
BRANCH  27  29
HETATM   29  O2  UNL     1      -1.385   5.819  15.329  1.00  0.00    -0.776 OA
HETATM   30  H11 UNL     1      -1.425   5.699  16.300  1.00  0.00     0.167 HD
ENDBRANCH  27  29
ENDBRANCH   4  27
BRANCH   1  31
HETATM   31  C2  UNL     1      -1.507   3.707  11.421  1.00  0.00    -0.088 C 
HETATM   32  C1  UNL     1      -0.323   3.067  11.420  1.00  0.00     0.014 C 
HETATM   33  C3  UNL     1      -2.422   3.613  10.227  1.00  0.00     0.043 C 
ENDBRANCH   1  31
BRANCH   7  34
HETATM   34  C12 UNL     1      -0.085   8.555  11.437  1.00  0.00     0.149 C 
HETATM   35  O3  UNL     1       0.812   8.390  10.625  1.00  0.00    -0.649 OA
BRANCH  34  36
HETATM   36  O4  UNL     1      -1.198   9.172  11.000  1.00  0.00    -0.776 OA
HETATM   37  H16 UNL     1      -0.994   9.371  10.061  1.00  0.00     0.167 HD
ENDBRANCH  34  36
ENDBRANCH   7  34
TORSDOF 5
ENDMDL
MODEL 2
REMARK minimizedAffinity -8.20302773
REMARK  5 active torsions:
REMARK  status: ('A' for Active; 'I' for Inactive)
REMARK    1  A    between atoms: C2_2  and  C4_4 
REMARK    2  A    between atoms: C7_7  and  C8_8 
REMARK    3  A    between atoms: C8_8  and  O2_10 
REMARK    4  A    between atoms: C11_13  and  C12_14 
REMARK    5  A    between atoms: C12_14  and  O4_16 
ROOT
HETATM    1  C4  UNL     1      -3.619   4.792  13.082  1.00  0.00     0.019 C 
HETATM    2  C5  UNL     1      -5.161   4.631  13.116  1.00  0.00     0.011 C 
HETATM    3  C6  UNL     1      -5.742   6.039  13.315  1.00  0.00     0.021 C 
HETATM    4  C7  UNL     1      -4.609   6.812  13.999  1.00  0.00     0.050 C 
HETATM    5  C9  UNL     1      -4.696   8.333  13.872  1.00  0.00     0.022 C 
HETATM    6  C10 UNL     1      -3.395   9.010  14.353  1.00  0.00     0.023 C 
HETATM    7  C11 UNL     1      -2.034   8.428  13.800  1.00  0.00     0.057 C 
HETATM    8  C13 UNL     1      -2.061   6.866  13.725  1.00  0.00     0.011 C 
HETATM    9  C14 UNL     1      -0.841   6.332  12.969  1.00  0.00     0.007 C 
HETATM   10  C15 UNL     1       0.467   7.077  13.253  1.00  0.00     0.006 C 
HETATM   11  C16 UNL     1       0.495   7.875  14.576  1.00  0.00     0.003 C 
HETATM   12  C17 UNL     1       1.949   8.494  14.925  1.00  0.00    -0.035 C 
HETATM   13  C18 UNL     1       2.189   8.319  16.453  1.00  0.00     0.016 C 
HETATM   14  C19 UNL     1       3.093   7.716  14.205  1.00  0.00     0.017 C 
HETATM   15  C20 UNL     1       4.486   8.292  14.411  1.00  0.00     0.080 C 
HETATM   16  C21 UNL     1       4.536   9.741  14.001  1.00  0.00     0.135 C 
HETATM   17  O5  UNL     1       5.499  10.154  13.350  1.00  0.00    -0.297 OA
HETATM   18  C22 UNL     1       3.439  10.681  14.528  1.00  0.00     0.017 C 
HETATM   19  C23 UNL     1       3.848  11.148  15.934  1.00  0.00     0.023 C 
HETATM   20  C24 UNL     1       3.438  11.936  13.613  1.00  0.00     0.023 C 
HETATM   21  C25 UNL     1       2.032   9.983  14.447  1.00  0.00     0.009 C 
HETATM   22  C26 UNL     1       0.908  10.816  15.085  1.00  0.00     0.007 C 
HETATM   23  C27 UNL     1      -0.447  10.365  14.565  1.00  0.00     0.011 C 
HETATM   24  C28 UNL     1      -0.770   8.855  14.759  1.00  0.00    -0.022 C 
HETATM   25  C29 UNL     1      -1.181   8.719  16.267  1.00  0.00     0.017 C 
HETATM   26  C30 UNL     1      -3.397   6.321  13.176  1.00  0.00     0.018 C 
ENDROOT
BRANCH   4  27
HETATM   27  C8  UNL     1      -4.610   6.416  15.484  1.00  0.00     0.149 C 
HETATM   28  O1  UNL     1      -3.675   6.001  16.145  1.00  0.00    -0.649 OA
BRANCH  27  29
HETATM   29  O2  UNL     1      -5.823   6.540  16.060  1.00  0.00    -0.776 OA
HETATM   30  H11 UNL     1      -5.681   6.235  16.980  1.00  0.00     0.167 HD
ENDBRANCH  27  29
ENDBRANCH   4  27
BRANCH   1  31
HETATM   31  C2  UNL     1      -2.998   4.088  11.887  1.00  0.00    -0.088 C 
HETATM   32  C1  UNL     1      -3.678   3.961  10.732  1.00  0.00     0.014 C 
HETATM   33  C3  UNL     1      -1.595   3.553  12.004  1.00  0.00     0.043 C 
ENDBRANCH   1  31
BRANCH   7  34
HETATM   34  C12 UNL     1      -1.854   8.986  12.352  1.00  0.00     0.149 C 
HETATM   35  O3  UNL     1      -2.668   8.996  11.442  1.00  0.00    -0.649 OA
BRANCH  34  36
HETATM   36  O4  UNL     1      -0.660   9.558  12.108  1.00  0.00    -0.776 OA
HETATM   37  H16 UNL     1      -0.736   9.853  11.174  1.00  0.00     0.167 HD
ENDBRANCH  34  36
ENDBRANCH   7  34
TORSDOF 5
ENDMDL
MODEL 3
REMARK minimizedAffinity -8.15309334
REMARK  5 active torsions:
REMARK  status: ('A' for Active; 'I' for Inactive)
REMARK    1  A    between atoms: C2_2  and  C4_4 
REMARK    2  A    between atoms: C7_7  and  C8_8 
REMARK    3  A    between atoms: C8_8  and  O2_10 
REMARK    4  A    between atoms: C11_13  and  C12_14 
REMARK    5  A    between atoms: C12_14  and  O4_16 
ROOT
HETATM    1  C4  UNL     1       6.585  11.182  16.809  1.00  0.00     0.019 C 
HETATM    2  C5  UNL     1       7.948  11.332  17.534  1.00  0.00     0.011 C 
HETATM    3  C6  UNL     1       9.025  10.881  16.536  1.00  0.00     0.021 C 
HETATM    4  C7  UNL     1       8.276   9.939  15.587  1.00  0.00     0.050 C 
HETATM    5  C9  UNL     1       8.941   9.733  14.225  1.00  0.00     0.022 C 
HETATM    6  C10 UNL     1       7.999   8.992  13.251  1.00  0.00     0.023 C 
HETATM    7  C11 UNL     1       6.519   9.529  13.133  1.00  0.00     0.057 C 
HETATM    8  C13 UNL     1       5.944   9.951  14.526  1.00  0.00     0.011 C 
HETATM    9  C14 UNL     1       4.610  10.688  14.368  1.00  0.00     0.007 C 
HETATM   10  C15 UNL     1       3.689  10.123  13.282  1.00  0.00     0.006 C 
HETATM   11  C16 UNL     1       3.972   8.659  12.875  1.00  0.00     0.003 C 
HETATM   12  C17 UNL     1       2.868   8.046  11.864  1.00  0.00    -0.035 C 
HETATM   13  C18 UNL     1       2.583   6.579  12.301  1.00  0.00     0.016 C 
HETATM   14  C19 UNL     1       1.511   8.808  11.963  1.00  0.00     0.017 C 
HETATM   15  C20 UNL     1       0.447   8.349  10.978  1.00  0.00     0.080 C 
HETATM   16  C21 UNL     1       0.955   8.421   9.562  1.00  0.00     0.135 C 
HETATM   17  O5  UNL     1       0.223   8.870   8.676  1.00  0.00    -0.297 OA
HETATM   18  C22 UNL     1       2.330   7.805   9.254  1.00  0.00     0.017 C 
HETATM   19  C23 UNL     1       2.135   6.298   9.022  1.00  0.00     0.023 C 
HETATM   20  C24 UNL     1       2.811   8.414   7.909  1.00  0.00     0.023 C 
HETATM   21  C25 UNL     1       3.362   8.172  10.384  1.00  0.00     0.009 C 
HETATM   22  C26 UNL     1       4.721   7.474  10.209  1.00  0.00     0.007 C 
HETATM   23  C27 UNL     1       5.798   8.207  10.991  1.00  0.00     0.011 C 
HETATM   24  C28 UNL     1       5.517   8.384  12.511  1.00  0.00    -0.022 C 
HETATM   25  C29 UNL     1       5.848   6.990  13.150  1.00  0.00     0.017 C 
HETATM   26  C30 UNL     1       6.967  10.731  15.379  1.00  0.00     0.018 C 
ENDROOT
BRANCH   4  27
HETATM   27  C8  UNL     1       8.129   8.586  16.301  1.00  0.00     0.149 C 
HETATM   28  O1  UNL     1       9.000   7.930  16.843  1.00  0.00    -0.649 OA
BRANCH  27  29
HETATM   29  O2  UNL     1       6.867   8.109  16.269  1.00  0.00    -0.776 OA
HETATM   30  H11 UNL     1       6.928   7.247  16.730  1.00  0.00     0.167 HD
ENDBRANCH  27  29
ENDBRANCH   4  27
BRANCH   1  31
HETATM   31  C2  UNL     1       5.739  12.440  16.921  1.00  0.00    -0.088 C 
HETATM   32  C1  UNL     1       6.091  13.567  16.275  1.00  0.00     0.014 C 
HETATM   33  C3  UNL     1       4.482  12.401  17.750  1.00  0.00     0.043 C 
ENDBRANCH   1  31
BRANCH   7  34
HETATM   34  C12 UNL     1       6.563  10.794  12.216  1.00  0.00     0.149 C 
HETATM   35  O3  UNL     1       7.089  11.871  12.446  1.00  0.00    -0.649 OA
BRANCH  34  36
HETATM   36  O4  UNL     1       5.976  10.645  11.014  1.00  0.00    -0.776 OA
HETATM   37  H16 UNL     1       6.111  11.518  10.586  1.00  0.00     0.167 HD
ENDBRANCH  34  36
ENDBRANCH   7  34
TORSDOF 5
ENDMDL
MODEL 4
REMARK minimizedAffinity -8.08703804
REMARK  5 active torsions:
REMARK  status: ('A' for Active; 'I' for Inactive)
REMARK    1  A    between atoms: C2_2  and  C4_4 
REMARK    2  A    between atoms: C7_7  and  C8_8 
REMARK    3  A    between atoms: C8_8  and  O2_10 
REMARK    4  A    between atoms: C11_13  and  C12_14 
REMARK    5  A    between atoms: C12_14  and  O4_16 
ROOT
HETATM    1  C4  UNL     1      -1.902   5.595  14.004  1.00  0.00     0.019 C 
HETATM    2  C5  UNL     1      -3.060   4.807  13.338  1.00  0.00     0.011 C 
HETATM    3  C6  UNL     1      -4.182   5.822  13.071  1.00  0.00     0.021 C 
HETATM    4  C7  UNL     1      -3.930   6.928  14.102  1.00  0.00     0.050 C 
HETATM    5  C9  UNL     1      -4.559   8.280  13.764  1.00  0.00     0.022 C 
HETATM    6  C10 UNL     1      -4.041   9.388  14.707  1.00  0.00     0.023 C 
HETATM    7  C11 UNL     1      -2.480   9.478  14.923  1.00  0.00     0.057 C 
HETATM    8  C13 UNL     1      -1.829   8.059  15.036  1.00  0.00     0.011 C 
HETATM    9  C14 UNL     1      -0.301   8.153  15.004  1.00  0.00     0.007 C 
HETATM   10  C15 UNL     1       0.286   9.344  15.768  1.00  0.00     0.006 C 
HETATM   11  C16 UNL     1      -0.639   9.955  16.844  1.00  0.00     0.003 C 
HETATM   12  C17 UNL     1       0.084  11.086  17.748  1.00  0.00    -0.035 C 
HETATM   13  C18 UNL     1      -0.376  10.885  19.222  1.00  0.00     0.016 C 
HETATM   14  C19 UNL     1       1.634  10.923  17.742  1.00  0.00     0.017 C 
HETATM   15  C20 UNL     1       2.393  12.003  18.498  1.00  0.00     0.080 C 
HETATM   16  C21 UNL     1       2.036  13.373  17.984  1.00  0.00     0.135 C 
HETATM   17  O5  UNL     1       2.927  14.207  17.808  1.00  0.00    -0.297 OA
HETATM   18  C22 UNL     1       0.546  13.720  17.823  1.00  0.00     0.017 C 
HETATM   19  C23 UNL     1       0.015  14.182  19.189  1.00  0.00     0.023 C 
HETATM   20  C24 UNL     1       0.464  14.940  16.866  1.00  0.00     0.023 C 
HETATM   21  C25 UNL     1      -0.233  12.511  17.185  1.00  0.00     0.009 C 
HETATM   22  C26 UNL     1      -1.753  12.740  17.122  1.00  0.00     0.007 C 
HETATM   23  C27 UNL     1      -2.385  11.818  16.093  1.00  0.00     0.011 C 
HETATM   24  C28 UNL     1      -2.114  10.300  16.298  1.00  0.00    -0.022 C 
HETATM   25  C29 UNL     1      -3.089   9.865  17.448  1.00  0.00     0.017 C 
HETATM   26  C30 UNL     1      -2.395   7.062  14.002  1.00  0.00     0.018 C 
ENDROOT
BRANCH   4  27
HETATM   27  C8  UNL     1      -4.468   6.431  15.453  1.00  0.00     0.149 C 
HETATM   28  O1  UNL     1      -5.617   6.146  15.739  1.00  0.00    -0.649 OA
BRANCH  27  29
HETATM   29  O2  UNL     1      -3.511   6.344  16.400  1.00  0.00    -0.776 OA
HETATM   30  H11 UNL     1      -3.994   6.044  17.198  1.00  0.00     0.167 HD
ENDBRANCH  27  29
ENDBRANCH   4  27
BRANCH   1  31
HETATM   31  C2  UNL     1      -0.567   5.327  13.328  1.00  0.00    -0.088 C 
HETATM   32  C1  UNL     1       0.587   5.449  14.010  1.00  0.00     0.014 C 
HETATM   33  C3  UNL     1      -0.555   4.897  11.884  1.00  0.00     0.043 C 
ENDBRANCH   1  31
BRANCH   7  34
HETATM   34  C12 UNL     1      -1.884  10.192  13.667  1.00  0.00     0.149 C 
HETATM   35  O3  UNL     1      -1.715   9.731  12.549  1.00  0.00    -0.649 OA
BRANCH  34  36
HETATM   36  O4  UNL     1      -1.560  11.485  13.850  1.00  0.00    -0.776 OA
HETATM   37  H16 UNL     1      -1.223  11.761  12.970  1.00  0.00     0.167 HD
ENDBRANCH  34  36
ENDBRANCH   7  34
TORSDOF 5
ENDMDL
MODEL 5
REMARK minimizedAffinity -7.96761894
REMARK  5 active torsions:
REMARK  status: ('A' for Active; 'I' for Inactive)
REMARK    1  A    between atoms: C2_2  and  C4_4 
REMARK    2  A    between atoms: C7_7  and  C8_8 
REMARK    3  A    between atoms: C8_8  and  O2_10 
REMARK    4  A    between atoms: C11_13  and  C12_14 
REMARK    5  A    between atoms: C12_14  and  O4_16 
ROOT
HETATM    1  C4  UNL     1       2.673   5.568  10.928  1.00  0.00     0.019 C 
HETATM    2  C5  UNL     1       1.133   5.565  10.745  1.00  0.00     0.011 C 
HETATM    3  C6  UNL     1       0.642   6.959  11.163  1.00  0.00     0.021 C 
HETATM    4  C7  UNL     1       1.727   7.460  12.122  1.00  0.00     0.050 C 
HETATM    5  C9  UNL     1       1.776   8.978  12.305  1.00  0.00     0.022 C 
HETATM    6  C10 UNL     1       3.048   9.407  13.068  1.00  0.00     0.023 C 
HETATM    7  C11 UNL     1       4.422   8.808  12.571  1.00  0.00     0.057 C 
HETATM    8  C13 UNL     1       4.285   7.302  12.169  1.00  0.00     0.011 C 
HETATM    9  C14 UNL     1       5.552   6.803  11.468  1.00  0.00     0.007 C 
HETATM   10  C15 UNL     1       6.863   7.338  12.054  1.00  0.00     0.006 C 
HETATM   11  C16 UNL     1       6.771   7.853  13.508  1.00  0.00     0.003 C 
HETATM   12  C17 UNL     1       8.207   8.237  14.147  1.00  0.00    -0.035 C 
HETATM   13  C18 UNL     1       8.221   7.741  15.622  1.00  0.00     0.016 C 
HETATM   14  C19 UNL     1       9.375   7.501  13.422  1.00  0.00     0.017 C 
HETATM   15  C20 UNL     1      10.767   7.877  13.907  1.00  0.00     0.080 C 
HETATM   16  C21 UNL     1      10.985   9.365  13.817  1.00  0.00     0.135 C 
HETATM   17  O5  UNL     1      12.057   9.796  13.384  1.00  0.00    -0.297 OA
HETATM   18  C22 UNL     1       9.902  10.292  14.394  1.00  0.00     0.017 C 
HETATM   19  C23 UNL     1      10.150  10.428  15.905  1.00  0.00     0.023 C 
HETATM   20  C24 UNL     1      10.124  11.696  13.767  1.00  0.00     0.023 C 
HETATM   21  C25 UNL     1       8.470   9.773  14.003  1.00  0.00     0.009 C 
HETATM   22  C26 UNL     1       7.337  10.577  14.664  1.00  0.00     0.007 C 
HETATM   23  C27 UNL     1       6.035  10.380  13.905  1.00  0.00     0.011 C 
HETATM   24  C28 UNL     1       5.573   8.904  13.740  1.00  0.00    -0.022 C 
HETATM   25  C29 UNL     1       4.950   8.517  15.126  1.00  0.00     0.017 C 
HETATM   26  C30 UNL     1       2.998   7.017  11.364  1.00  0.00     0.018 C 
ENDROOT
BRANCH   4  27
HETATM   27  C8  UNL     1       1.492   6.782  13.481  1.00  0.00     0.149 C 
HETATM   28  O1  UNL     1       0.494   6.194  13.858  1.00  0.00    -0.649 OA
BRANCH  27  29
HETATM   29  O2  UNL     1       2.541   6.907  14.320  1.00  0.00    -0.776 OA
HETATM   30  H11 UNL     1       2.245   6.458  15.138  1.00  0.00     0.167 HD
ENDBRANCH  27  29
ENDBRANCH   4  27
BRANCH   1  31
HETATM   31  C2  UNL     1       3.396   5.052   9.694  1.00  0.00    -0.088 C 
HETATM   32  C1  UNL     1       4.188   3.967   9.762  1.00  0.00     0.014 C 
HETATM   33  C3  UNL     1       3.192   5.764   8.381  1.00  0.00     0.043 C 
ENDBRANCH   1  31
BRANCH   7  34
HETATM   34  C12 UNL     1       4.842   9.618  11.302  1.00  0.00     0.149 C 
HETATM   35  O3  UNL     1       5.501  10.645  11.249  1.00  0.00    -0.649 OA
BRANCH  34  36
HETATM   36  O4  UNL     1       4.454   9.080  10.131  1.00  0.00    -0.776 OA
HETATM   37  H16 UNL     1       4.811   9.707   9.464  1.00  0.00     0.167 HD
ENDBRANCH  34  36
ENDBRANCH   7  34
TORSDOF 5
ENDMDL
MODEL 6
REMARK minimizedAffinity -7.81822586
REMARK  5 active torsions:
REMARK  status: ('A' for Active; 'I' for Inactive)
REMARK    1  A    between atoms: C2_2  and  C4_4 
REMARK    2  A    between atoms: C7_7  and  C8_8 
REMARK    3  A    between atoms: C8_8  and  O2_10 
REMARK    4  A    between atoms: C11_13  and  C12_14 
REMARK    5  A    between atoms: C12_14  and  O4_16 
ROOT
HETATM    1  C4  UNL     1       4.078  10.292  22.384  1.00  0.00     0.019 C 
HETATM    2  C5  UNL     1       5.393  10.663  23.117  1.00  0.00     0.011 C 
HETATM    3  C6  UNL     1       5.701  12.123  22.750  1.00  0.00     0.021 C 
HETATM    4  C7  UNL     1       4.986  12.324  21.410  1.00  0.00     0.050 C 
HETATM    5  C9  UNL     1       4.691  13.780  21.047  1.00  0.00     0.022 C 
HETATM    6  C10 UNL     1       3.748  13.872  19.828  1.00  0.00     0.023 C 
HETATM    7  C11 UNL     1       2.449  12.974  19.853  1.00  0.00     0.057 C 
HETATM    8  C13 UNL     1       2.738  11.556  20.448  1.00  0.00     0.011 C 
HETATM    9  C14 UNL     1       1.435  10.788  20.689  1.00  0.00     0.007 C 
HETATM   10  C15 UNL     1       0.368  10.978  19.607  1.00  0.00     0.006 C 
HETATM   11  C16 UNL     1       0.898  11.461  18.238  1.00  0.00     0.003 C 
HETATM   12  C17 UNL     1      -0.230  11.473  17.078  1.00  0.00    -0.035 C 
HETATM   13  C18 UNL     1       0.427  10.949  15.768  1.00  0.00     0.016 C 
HETATM   14  C19 UNL     1      -1.402  10.497  17.405  1.00  0.00     0.017 C 
HETATM   15  C20 UNL     1      -2.548  10.517  16.405  1.00  0.00     0.080 C 
HETATM   16  C21 UNL     1      -3.094  11.911  16.236  1.00  0.00     0.135 C 
HETATM   17  O5  UNL     1      -4.314  12.084  16.194  1.00  0.00    -0.297 OA
HETATM   18  C22 UNL     1      -2.095  13.055  15.992  1.00  0.00     0.017 C 
HETATM   19  C23 UNL     1      -1.768  13.088  14.491  1.00  0.00     0.023 C 
HETATM   20  C24 UNL     1      -2.831  14.380  16.328  1.00  0.00     0.023 C 
HETATM   21  C25 UNL     1      -0.846  12.905  16.937  1.00  0.00     0.009 C 
HETATM   22  C26 UNL     1       0.256  13.938  16.649  1.00  0.00     0.007 C 
HETATM   23  C27 UNL     1       1.177  14.079  17.849  1.00  0.00     0.011 C 
HETATM   24  C28 UNL     1       1.842  12.762  18.342  1.00  0.00    -0.022 C 
HETATM   25  C29 UNL     1       3.015  12.498  17.334  1.00  0.00     0.017 C 
HETATM   26  C30 UNL     1       3.647  11.609  21.695  1.00  0.00     0.018 C 
ENDROOT
BRANCH   4  27
HETATM   27  C8  UNL     1       5.861  11.686  20.319  1.00  0.00     0.149 C 
HETATM   28  O1  UNL     1       5.551  10.810  19.532  1.00  0.00    -0.649 OA
BRANCH  27  29
HETATM   29  O2  UNL     1       7.117  12.178  20.298  1.00  0.00    -0.776 OA
HETATM   30  H11 UNL     1       7.558  11.672  19.585  1.00  0.00     0.167 HD
ENDBRANCH  27  29
ENDBRANCH   4  27
BRANCH   1  31
HETATM   31  C2  UNL     1       3.065   9.651  23.319  1.00  0.00    -0.088 C 
HETATM   32  C1  UNL     1       2.692  10.266  24.456  1.00  0.00     0.014 C 
HETATM   33  C3  UNL     1       2.464   8.322  22.941  1.00  0.00     0.043 C 
ENDBRANCH   1  31
BRANCH   7  34
HETATM   34  C12 UNL     1       1.414  13.693  20.778  1.00  0.00     0.149 C 
HETATM   35  O3  UNL     1       0.265  14.011  20.516  1.00  0.00    -0.649 OA
BRANCH  34  36
HETATM   36  O4  UNL     1       1.850  13.951  22.024  1.00  0.00    -0.776 OA
HETATM   37  H16 UNL     1       1.078  14.383  22.450  1.00  0.00     0.167 HD
ENDBRANCH  34  36
ENDBRANCH   7  34
TORSDOF 5
ENDMDL
MODEL 7
REMARK minimizedAffinity -7.64418697
REMARK  5 active torsions:
REMARK  status: ('A' for Active; 'I' for Inactive)
REMARK    1  A    between atoms: C2_2  and  C4_4 
REMARK    2  A    between atoms: C7_7  and  C8_8 
REMARK    3  A    between atoms: C8_8  and  O2_10 
REMARK    4  A    between atoms: C11_13  and  C12_14 
REMARK    5  A    between atoms: C12_14  and  O4_16 
ROOT
HETATM    1  C4  UNL     1       3.624   8.561  10.079  1.00  0.00     0.019 C 
HETATM    2  C5  UNL     1       5.175   8.574  10.121  1.00  0.00     0.011 C 
HETATM    3  C6  UNL     1       5.578   8.070  11.515  1.00  0.00     0.021 C 
HETATM    4  C7  UNL     1       4.359   8.389  12.388  1.00  0.00     0.050 C 
HETATM    5  C9  UNL     1       4.258   7.573  13.678  1.00  0.00     0.022 C 
HETATM    6  C10 UNL     1       2.883   7.766  14.354  1.00  0.00     0.023 C 
HETATM    7  C11 UNL     1       1.604   7.622  13.439  1.00  0.00     0.057 C 
HETATM    8  C13 UNL     1       1.824   8.270  12.032  1.00  0.00     0.011 C 
HETATM    9  C14 UNL     1       0.677   7.916  11.080  1.00  0.00     0.007 C 
HETATM   10  C15 UNL     1      -0.712   7.902  11.725  1.00  0.00     0.006 C 
HETATM   11  C16 UNL     1      -0.836   8.711  13.036  1.00  0.00     0.003 C 
HETATM   12  C17 UNL     1      -2.355   8.821  13.584  1.00  0.00    -0.035 C 
HETATM   13  C18 UNL     1      -2.569  10.270  14.110  1.00  0.00     0.016 C 
HETATM   14  C19 UNL     1      -3.395   8.607  12.442  1.00  0.00     0.017 C 
HETATM   15  C20 UNL     1      -4.848   8.607  12.893  1.00  0.00     0.080 C 
HETATM   16  C21 UNL     1      -5.078   7.582  13.973  1.00  0.00     0.135 C 
HETATM   17  O5  UNL     1      -6.085   6.871  13.930  1.00  0.00    -0.297 OA
HETATM   18  C22 UNL     1      -4.104   7.553  15.163  1.00  0.00     0.017 C 
HETATM   19  C23 UNL     1      -4.566   8.610  16.179  1.00  0.00     0.023 C 
HETATM   20  C24 UNL     1      -4.259   6.167  15.844  1.00  0.00     0.023 C 
HETATM   21  C25 UNL     1      -2.622   7.720  14.664  1.00  0.00     0.009 C 
HETATM   22  C26 UNL     1      -1.608   7.838  15.814  1.00  0.00     0.007 C 
HETATM   23  C27 UNL     1      -0.209   7.504  15.324  1.00  0.00     0.011 C 
HETATM   24  C28 UNL     1       0.298   8.349  14.121  1.00  0.00    -0.022 C 
HETATM   25  C29 UNL     1       0.725   9.725  14.742  1.00  0.00     0.017 C 
HETATM   26  C30 UNL     1       3.216   7.956  11.444  1.00  0.00     0.018 C 
ENDROOT
BRANCH   4  27
HETATM   27  C8  UNL     1       4.411   9.887  12.726  1.00  0.00     0.149 C 
HETATM   28  O1  UNL     1       3.492  10.686  12.716  1.00  0.00    -0.649 OA
BRANCH  27  29
HETATM   29  O2  UNL     1       5.652  10.313  13.040  1.00  0.00    -0.776 OA
HETATM   30  H11 UNL     1       5.540  11.272  13.204  1.00  0.00     0.167 HD
ENDBRANCH  27  29
ENDBRANCH   4  27
BRANCH   1  31
HETATM   31  C2  UNL     1       3.093   7.860   8.839  1.00  0.00    -0.088 C 
HETATM   32  C1  UNL     1       2.688   8.567   7.768  1.00  0.00     0.014 C 
HETATM   33  C3  UNL     1       3.049   6.354   8.817  1.00  0.00     0.043 C 
ENDBRANCH   1  31
BRANCH   7  34
HETATM   34  C12 UNL     1       1.354   6.092  13.240  1.00  0.00     0.149 C 
HETATM   35  O3  UNL     1       1.628   5.405  12.269  1.00  0.00    -0.649 OA
BRANCH  34  36
HETATM   36  O4  UNL     1       0.804   5.465  14.296  1.00  0.00    -0.776 OA
HETATM   37  H16 UNL     1       0.736   4.532  13.997  1.00  0.00     0.167 HD
ENDBRANCH  34  36
ENDBRANCH   7  34
TORSDOF 5
ENDMDL
MODEL 8
REMARK minimizedAffinity -7.48597431
REMARK  5 active torsions:
REMARK  status: ('A' for Active; 'I' for Inactive)
REMARK    1  A    between atoms: C2_2  and  C4_4 
REMARK    2  A    between atoms: C7_7  and  C8_8 
REMARK    3  A    between atoms: C8_8  and  O2_10 
REMARK    4  A    between atoms: C11_13  and  C12_14 
REMARK    5  A    between atoms: C12_14  and  O4_16 
ROOT
HETATM    1  C4  UNL     1       2.637   7.591  10.808  1.00  0.00     0.019 C 
HETATM    2  C5  UNL     1       3.854   6.951  10.091  1.00  0.00     0.011 C 
HETATM    3  C6  UNL     1       4.994   6.907  11.120  1.00  0.00     0.021 C 
HETATM    4  C7  UNL     1       4.644   8.029  12.104  1.00  0.00     0.050 C 
HETATM    5  C9  UNL     1       5.299   7.907  13.481  1.00  0.00     0.022 C 
HETATM    6  C10 UNL     1       4.693   8.917  14.479  1.00  0.00     0.023 C 
HETATM    7  C11 UNL     1       3.117   8.995  14.557  1.00  0.00     0.057 C 
HETATM    8  C13 UNL     1       2.462   8.885  13.140  1.00  0.00     0.011 C 
HETATM    9  C14 UNL     1       0.943   8.720  13.250  1.00  0.00     0.007 C 
HETATM   10  C15 UNL     1       0.285   9.556  14.352  1.00  0.00     0.006 C 
HETATM   11  C16 UNL     1       1.103  10.777  14.829  1.00  0.00     0.003 C 
HETATM   12  C17 UNL     1       0.297  11.732  15.856  1.00  0.00    -0.035 C 
HETATM   13  C18 UNL     1       0.616  13.210  15.486  1.00  0.00     0.016 C 
HETATM   14  C19 UNL     1      -1.247  11.563  15.708  1.00  0.00     0.017 C 
HETATM   15  C20 UNL     1      -2.075  12.362  16.702  1.00  0.00     0.080 C 
HETATM   16  C21 UNL     1      -1.674  12.043  18.119  1.00  0.00     0.135 C 
HETATM   17  O5  UNL     1      -2.547  11.879  18.975  1.00  0.00    -0.297 OA
HETATM   18  C22 UNL     1      -0.176  12.062  18.469  1.00  0.00     0.017 C 
HETATM   19  C23 UNL     1       0.222  13.515  18.769  1.00  0.00     0.023 C 
HETATM   20  C24 UNL     1      -0.008  11.261  19.789  1.00  0.00     0.023 C 
HETATM   21  C25 UNL     1       0.662  11.366  17.334  1.00  0.00     0.009 C 
HETATM   22  C26 UNL     1       2.180  11.472  17.555  1.00  0.00     0.007 C 
HETATM   23  C27 UNL     1       2.908  10.409  16.750  1.00  0.00     0.011 C 
HETATM   24  C28 UNL     1       2.623  10.414  15.221  1.00  0.00    -0.022 C 
HETATM   25  C29 UNL     1       3.486  11.593  14.651  1.00  0.00     0.017 C 
HETATM   26  C30 UNL     1       3.125   7.801  12.262  1.00  0.00     0.018 C 
ENDROOT
BRANCH   4  27
HETATM   27  C8  UNL     1       5.054   9.359  11.453  1.00  0.00     0.149 C 
HETATM   28  O1  UNL     1       5.333   9.562  10.285  1.00  0.00    -0.649 OA
BRANCH  27  29
HETATM   29  O2  UNL     1       5.118  10.379  12.334  1.00  0.00    -0.776 OA
HETATM   30  H11 UNL     1       5.409  11.142  11.793  1.00  0.00     0.167 HD
ENDBRANCH  27  29
ENDBRANCH   4  27
BRANCH   1  31
HETATM   31  C2  UNL     1       1.372   6.767  10.630  1.00  0.00    -0.088 C 
HETATM   32  C1  UNL     1       1.291   5.514  11.113  1.00  0.00     0.014 C 
HETATM   33  C3  UNL     1       0.195   7.385   9.920  1.00  0.00     0.043 C 
ENDBRANCH   1  31
BRANCH   7  34
HETATM   34  C12 UNL     1       2.641   7.778  15.414  1.00  0.00     0.149 C 
HETATM   35  O3  UNL     1       2.273   7.776  16.578  1.00  0.00    -0.649 OA
BRANCH  34  36
HETATM   36  O4  UNL     1       2.601   6.603  14.759  1.00  0.00    -0.776 OA
HETATM   37  H16 UNL     1       2.275   5.975  15.439  1.00  0.00     0.167 HD
ENDBRANCH  34  36
ENDBRANCH   7  34
TORSDOF 5
ENDMDL
MODEL 9
REMARK minimizedAffinity -7.36003256
REMARK  5 active torsions:
REMARK  status: ('A' for Active; 'I' for Inactive)
REMARK    1  A    between atoms: C2_2  and  C4_4 
REMARK    2  A    between atoms: C7_7  and  C8_8 
REMARK    3  A    between atoms: C8_8  and  O2_10 
REMARK    4  A    between atoms: C11_13  and  C12_14 
REMARK    5  A    between atoms: C12_14  and  O4_16 
ROOT
HETATM    1  C4  UNL     1      -3.834   7.064  13.035  1.00  0.00     0.019 C 
HETATM    2  C5  UNL     1      -2.998   5.916  12.411  1.00  0.00     0.011 C 
HETATM    3  C6  UNL     1      -1.606   5.990  13.057  1.00  0.00     0.021 C 
HETATM    4  C7  UNL     1      -1.481   7.452  13.498  1.00  0.00     0.050 C 
HETATM    5  C9  UNL     1      -0.446   7.710  14.593  1.00  0.00     0.022 C 
HETATM    6  C10 UNL     1      -0.572   9.142  15.155  1.00  0.00     0.023 C 
HETATM    7  C11 UNL     1      -2.019   9.633  15.556  1.00  0.00     0.057 C 
HETATM    8  C13 UNL     1      -3.097   9.154  14.529  1.00  0.00     0.011 C 
HETATM    9  C14 UNL     1      -4.511   9.427  15.050  1.00  0.00     0.007 C 
HETATM   10  C15 UNL     1      -4.676  10.758  15.791  1.00  0.00     0.006 C 
HETATM   11  C16 UNL     1      -3.602  11.823  15.477  1.00  0.00     0.003 C 
HETATM   12  C17 UNL     1      -3.914  13.268  16.136  1.00  0.00    -0.035 C 
HETATM   13  C18 UNL     1      -3.545  14.359  15.090  1.00  0.00     0.016 C 
HETATM   14  C19 UNL     1      -5.433  13.444  16.442  1.00  0.00     0.017 C 
HETATM   15  C20 UNL     1      -5.797  14.742  17.145  1.00  0.00     0.080 C 
HETATM   16  C21 UNL     1      -5.012  14.903  18.421  1.00  0.00     0.135 C 
HETATM   17  O5  UNL     1      -5.582  15.304  19.438  1.00  0.00    -0.297 OA
HETATM   18  C22 UNL     1      -3.490  14.683  18.367  1.00  0.00     0.017 C 
HETATM   19  C23 UNL     1      -2.837  15.991  17.894  1.00  0.00     0.023 C 
HETATM   20  C24 UNL     1      -3.015  14.437  19.824  1.00  0.00     0.023 C 
HETATM   21  C25 UNL     1      -3.149  13.420  17.493  1.00  0.00     0.009 C 
HETATM   22  C26 UNL     1      -1.639  13.222  17.284  1.00  0.00     0.007 C 
HETATM   23  C27 UNL     1      -1.342  11.786  16.884  1.00  0.00     0.011 C 
HETATM   24  C28 UNL     1      -2.095  11.273  15.623  1.00  0.00    -0.022 C 
HETATM   25  C29 UNL     1      -1.315  11.888  14.408  1.00  0.00     0.017 C 
HETATM   26  C30 UNL     1      -2.889   7.689  14.089  1.00  0.00     0.018 C 
ENDROOT
BRANCH   4  27
HETATM   27  C8  UNL     1      -1.135   8.283  12.252  1.00  0.00     0.149 C 
HETATM   28  O1  UNL     1      -1.701   9.279  11.840  1.00  0.00    -0.649 OA
BRANCH  27  29
HETATM   29  O2  UNL     1      -0.088   7.785  11.563  1.00  0.00    -0.776 OA
HETATM   30  H11 UNL     1       0.001   8.390  10.797  1.00  0.00     0.167 HD
ENDBRANCH  27  29
ENDBRANCH   4  27
BRANCH   1  31
HETATM   31  C2  UNL     1      -5.184   6.577  13.538  1.00  0.00    -0.088 C 
HETATM   32  C1  UNL     1      -6.166   7.450  13.829  1.00  0.00     0.014 C 
HETATM   33  C3  UNL     1      -5.416   5.095  13.683  1.00  0.00     0.043 C 
ENDBRANCH   1  31
BRANCH   7  34
HETATM   34  C12 UNL     1      -2.348   8.999  16.946  1.00  0.00     0.149 C 
HETATM   35  O3  UNL     1      -2.558   9.572  18.003  1.00  0.00    -0.649 OA
BRANCH  34  36
HETATM   36  O4  UNL     1      -2.447   7.658  16.949  1.00  0.00    -0.776 OA
HETATM   37  H16 UNL     1      -2.666   7.448  17.882  1.00  0.00     0.167 HD
ENDBRANCH  34  36
ENDBRANCH   7  34
TORSDOF 5
ENDMDL
