MODEL 1
REMARK minimizedAffinity -9.38754463
REMARK CNNscore 0.738006949
REMARK CNNaffinity 7.83521271
REMARK  14 active torsions:
REMARK  status: ('A' for Active; 'I' for Inactive)
REMARK    1  A    between atoms: C2_2  and  C3_3 
REMARK    2  A    between atoms: C3_3  and  C4_4 
REMARK    3  A    between atoms: C7_7  and  C9_9 
REMARK    4  A    between atoms: C10_11  and  C11_12 
REMARK    5  A    between atoms: C12_14  and  O3_15 
REMARK    6  A    between atoms: C12_14  and  C13_16 
REMARK    7  A    between atoms: C13_16  and  O4_17 
REMARK    8  A    between atoms: C26_31  and  O6_32 
REMARK    9  A    between atoms: C29_35  and  C30_36 
REMARK   10  A    between atoms: C30_36  and  C32_38 
REMARK   11  A    between atoms: C32_38  and  O7_39 
REMARK   12  A    between atoms: C32_38  and  C34_41 
REMARK   13  A    between atoms: C34_41  and  C36_43 
REMARK   14  A    between atoms: C36_43  and  O9_45 
ROOT
HETATM    1  C3  UNL     1      -2.904   6.785  13.512  1.00  0.00     0.090 C 
HETATM    2  C22 UNL     1      -1.991   6.380  14.676  1.00  0.00     0.046 C 
HETATM    3  C23 UNL     1      -0.607   6.469  14.080  1.00  0.00     0.072 C 
HETATM    4  C24 UNL     1      -0.739   7.578  13.031  1.00  0.00     0.168 C 
HETATM    5  C25 UNL     1      -0.092   8.894  13.475  1.00  0.00     0.100 C 
HETATM    6  C26 UNL     1       1.371   8.907  13.066  1.00  0.00     0.129 C 
HETATM    7  C27 UNL     1       1.535   8.735  11.534  1.00  0.00     0.040 C 
HETATM    8  C28 UNL     1       2.809   7.907  11.293  1.00  0.00     0.015 C 
HETATM    9  C29 UNL     1       0.262   8.102  10.918  1.00  0.00     0.137 C 
HETATM   10  O10 UNL     1      -0.156   7.072  11.827  1.00  0.00    -0.349 OA
HETATM   11  O11 UNL     1      -2.145   7.811  12.840  1.00  0.00    -0.341 OA
ENDROOT
BRANCH   1  12
HETATM   12  C2  UNL     1      -3.095   5.588  12.539  1.00  0.00     0.036 C 
HETATM   13  C1  UNL     1      -3.338   4.239  13.198  1.00  0.00     0.008 C 
ENDBRANCH   1  12
BRANCH   1  14
HETATM   14  C4  UNL     1      -4.274   7.332  13.998  1.00  0.00     0.157 C 
HETATM   15  C5  UNL     1      -4.258   8.263  15.200  1.00  0.00     0.038 C 
HETATM   16  C6  UNL     1      -5.720   8.291  15.594  1.00  0.00     0.043 C 
HETATM   17  C7  UNL     1      -6.223   6.882  15.218  1.00  0.00     0.084 C 
HETATM   18  C8  UNL     1      -6.404   6.062  16.499  1.00  0.00     0.049 C 
HETATM   19  O5  UNL     1      -5.161   6.282  14.439  1.00  0.00    -0.370 OA
BRANCH  17  20
HETATM   20  C9  UNL     1      -7.489   6.997  14.333  1.00  0.00     0.160 C 
HETATM   21  O1  UNL     1      -8.644   7.413  15.080  1.00  0.00    -0.375 OA
HETATM   22  C10 UNL     1      -9.740   7.356  14.147  1.00  0.00     0.152 C 
HETATM   23  C19 UNL     1      -9.457   6.125  13.280  1.00  0.00     0.041 C 
HETATM   24  C20 UNL     1      -7.968   5.817  13.475  1.00  0.00     0.016 C 
HETATM   25  C21 UNL     1      -7.799   4.419  14.052  1.00  0.00     0.012 C 
BRANCH  22  26
HETATM   26  C11 UNL     1     -11.107   7.319  14.864  1.00  0.00     0.158 C 
HETATM   27  O2  UNL     1     -12.164   6.888  13.997  1.00  0.00    -0.345 OA
HETATM   28  C12 UNL     1     -12.647   7.833  13.028  1.00  0.00     0.187 C 
HETATM   29  C14 UNL     1     -13.126   9.127  13.735  1.00  0.00     0.046 C 
HETATM   30  C15 UNL     1     -13.607  10.216  12.775  1.00  0.00     0.015 C 
HETATM   31  C16 UNL     1     -12.020   9.686  14.642  1.00  0.00     0.016 C 
HETATM   32  C17 UNL     1     -11.530   8.605  15.613  1.00  0.00     0.014 C 
HETATM   33  C18 UNL     1     -10.471   9.167  16.559  1.00  0.00     0.012 C 
BRANCH  28  34
HETATM   34  O3  UNL     1     -11.659   8.091  12.034  1.00  0.00    -0.363 OA
HETATM   35  H17 UNL     1     -11.294   8.976  12.181  1.00  0.00     0.213 HD
ENDBRANCH  28  34
BRANCH  28  36
HETATM   36  C13 UNL     1     -13.813   7.095  12.316  1.00  0.00     0.232 C 
BRANCH  36  37
HETATM   37  O4  UNL     1     -14.800   6.635  13.240  1.00  0.00    -0.396 OA
HETATM   38  H20 UNL     1     -14.297   6.140  13.918  1.00  0.00     0.209 HD
ENDBRANCH  36  37
ENDBRANCH  28  36
ENDBRANCH  22  26
ENDBRANCH  17  20
ENDBRANCH   1  14
BRANCH   6  39
HETATM   39  O6  UNL     1       1.979  10.138  13.462  1.00  0.00    -0.395 OA
HETATM   40  H44 UNL     1       1.910  10.207  14.430  1.00  0.00     0.210 HD
ENDBRANCH   6  39
BRANCH   9  41
HETATM   41  C30 UNL     1       0.358   7.502   9.475  1.00  0.00     0.041 C 
HETATM   42  C31 UNL     1      -0.119   8.560   8.458  1.00  0.00     0.015 C 
BRANCH  41  43
HETATM   43  C32 UNL     1       1.810   6.999   9.142  1.00  0.00     0.141 C 
BRANCH  43  44
HETATM   44  O7  UNL     1       2.721   7.959   9.692  1.00  0.00    -0.389 OA
HETATM   45  C33 UNL     1       3.549   8.613   8.742  1.00  0.00     0.202 C 
ENDBRANCH  43  44
BRANCH  43  46
HETATM   46  C34 UNL     1       2.110   5.575   9.700  1.00  0.00     0.109 C 
HETATM   47  C35 UNL     1       2.124   5.532  11.229  1.00  0.00     0.024 C 
BRANCH  46  48
HETATM   48  C36 UNL     1       3.368   4.923   9.159  1.00  0.00     0.145 C 
HETATM   49  O8  UNL     1       3.527   4.533   8.012  1.00  0.00    -0.650 OA
BRANCH  48  50
HETATM   50  O9  UNL     1       4.409   4.873  10.010  1.00  0.00    -0.776 OA
HETATM   51  H62 UNL     1       5.135   4.494   9.467  1.00  0.00     0.167 HD
ENDBRANCH  48  50
ENDBRANCH  46  48
ENDBRANCH  43  46
ENDBRANCH  41  43
ENDBRANCH   9  41
TORSDOF 14
ENDMDL
MODEL 2
REMARK minimizedAffinity -8.73137569
REMARK CNNscore 0.663398802
REMARK CNNaffinity 7.98689032
REMARK  14 active torsions:
REMARK  status: ('A' for Active; 'I' for Inactive)
REMARK    1  A    between atoms: C2_2  and  C3_3 
REMARK    2  A    between atoms: C3_3  and  C4_4 
REMARK    3  A    between atoms: C7_7  and  C9_9 
REMARK    4  A    between atoms: C10_11  and  C11_12 
REMARK    5  A    between atoms: C12_14  and  O3_15 
REMARK    6  A    between atoms: C12_14  and  C13_16 
REMARK    7  A    between atoms: C13_16  and  O4_17 
REMARK    8  A    between atoms: C26_31  and  O6_32 
REMARK    9  A    between atoms: C29_35  and  C30_36 
REMARK   10  A    between atoms: C30_36  and  C32_38 
REMARK   11  A    between atoms: C32_38  and  O7_39 
REMARK   12  A    between atoms: C32_38  and  C34_41 
REMARK   13  A    between atoms: C34_41  and  C36_43 
REMARK   14  A    between atoms: C36_43  and  O9_45 
ROOT
HETATM    1  C3  UNL     1      -3.022   7.077  14.537  1.00  0.00     0.090 C 
HETATM    2  C22 UNL     1      -2.588   5.760  15.193  1.00  0.00     0.046 C 
HETATM    3  C23 UNL     1      -3.754   4.839  14.931  1.00  0.00     0.072 C 
HETATM    4  C24 UNL     1      -4.324   5.349  13.604  1.00  0.00     0.168 C 
HETATM    5  C25 UNL     1      -3.980   4.438  12.421  1.00  0.00     0.100 C 
HETATM    6  C26 UNL     1      -5.046   3.365  12.276  1.00  0.00     0.129 C 
HETATM    7  C27 UNL     1      -6.452   3.984  12.068  1.00  0.00     0.040 C 
HETATM    8  C28 UNL     1      -7.469   3.080  12.784  1.00  0.00     0.015 C 
HETATM    9  C29 UNL     1      -6.478   5.454  12.559  1.00  0.00     0.137 C 
HETATM   10  O10 UNL     1      -5.736   5.480  13.788  1.00  0.00    -0.349 OA
HETATM   11  O11 UNL     1      -3.735   6.639  13.362  1.00  0.00    -0.341 OA
ENDROOT
BRANCH   1  12
HETATM   12  C2  UNL     1      -4.010   7.837  15.465  1.00  0.00     0.036 C 
HETATM   13  C1  UNL     1      -5.126   8.591  14.758  1.00  0.00     0.008 C 
ENDBRANCH   1  12
BRANCH   1  14
HETATM   14  C4  UNL     1      -1.813   7.973  14.155  1.00  0.00     0.157 C 
HETATM   15  C5  UNL     1      -2.110   9.426  13.818  1.00  0.00     0.038 C 
HETATM   16  C6  UNL     1      -0.815   9.867  13.168  1.00  0.00     0.043 C 
HETATM   17  C7  UNL     1      -0.307   8.589  12.469  1.00  0.00     0.084 C 
HETATM   18  C8  UNL     1      -0.535   8.724  10.961  1.00  0.00     0.049 C 
HETATM   19  O5  UNL     1      -1.143   7.515  12.962  1.00  0.00    -0.370 OA
BRANCH  17  20
HETATM   20  C9  UNL     1       1.160   8.312  12.885  1.00  0.00     0.160 C 
HETATM   21  O1  UNL     1       2.095   9.146  12.183  1.00  0.00    -0.375 OA
HETATM   22  C10 UNL     1       3.396   8.686  12.594  1.00  0.00     0.152 C 
HETATM   23  C19 UNL     1       3.256   7.166  12.719  1.00  0.00     0.041 C 
HETATM   24  C20 UNL     1       1.751   6.897  12.817  1.00  0.00     0.016 C 
HETATM   25  C21 UNL     1       1.306   6.009  11.664  1.00  0.00     0.012 C 
BRANCH  22  26
HETATM   26  C11 UNL     1       4.503   9.137  11.617  1.00  0.00     0.158 C 
HETATM   27  O2  UNL     1       5.406   8.073  11.289  1.00  0.00    -0.345 OA
HETATM   28  C12 UNL     1       6.374   7.700  12.283  1.00  0.00     0.187 C 
HETATM   29  C14 UNL     1       7.231   8.929  12.682  1.00  0.00     0.046 C 
HETATM   30  C15 UNL     1       8.255   8.639  13.781  1.00  0.00     0.015 C 
HETATM   31  C16 UNL     1       6.331  10.099  13.107  1.00  0.00     0.016 C 
HETATM   32  C17 UNL     1       5.302  10.403  12.012  1.00  0.00     0.014 C 
HETATM   33  C18 UNL     1       4.440  11.602  12.398  1.00  0.00     0.012 C 
BRANCH  28  34
HETATM   34  O3  UNL     1       5.739   7.093  13.406  1.00  0.00    -0.363 OA
HETATM   35  H17 UNL     1       5.753   7.717  14.147  1.00  0.00     0.213 HD
ENDBRANCH  28  34
BRANCH  28  36
HETATM   36  C13 UNL     1       7.224   6.595  11.601  1.00  0.00     0.232 C 
BRANCH  36  37
HETATM   37  O4  UNL     1       6.716   6.247  10.313  1.00  0.00    -0.396 OA
HETATM   38  H20 UNL     1       5.766   6.063  10.459  1.00  0.00     0.209 HD
ENDBRANCH  36  37
ENDBRANCH  28  36
ENDBRANCH  22  26
ENDBRANCH  17  20
ENDBRANCH   1  14
BRANCH   6  39
HETATM   39  O6  UNL     1      -4.742   2.519  11.166  1.00  0.00    -0.395 OA
HETATM   40  H44 UNL     1      -3.879   2.102  11.336  1.00  0.00     0.210 HD
ENDBRANCH   6  39
BRANCH   9  41
HETATM   41  C30 UNL     1      -7.870   6.132  12.789  1.00  0.00     0.041 C 
HETATM   42  C31 UNL     1      -8.909   5.474  11.856  1.00  0.00     0.015 C 
BRANCH  41  43
HETATM   43  C32 UNL     1      -8.321   6.058  14.293  1.00  0.00     0.141 C 
BRANCH  43  44
HETATM   44  O7  UNL     1      -7.133   5.894  15.078  1.00  0.00    -0.389 OA
HETATM   45  C33 UNL     1      -7.331   5.942  16.483  1.00  0.00     0.202 C 
ENDBRANCH  43  44
BRANCH  43  46
HETATM   46  C34 UNL     1      -9.117   7.314  14.758  1.00  0.00     0.109 C 
HETATM   47  C35 UNL     1      -9.163   7.451  16.281  1.00  0.00     0.024 C 
BRANCH  46  48
HETATM   48  C36 UNL     1     -10.519   7.434  14.191  1.00  0.00     0.145 C 
HETATM   49  O8  UNL     1     -10.973   8.418  13.626  1.00  0.00    -0.650 OA
BRANCH  48  50
HETATM   50  O9  UNL     1     -11.265   6.316  14.245  1.00  0.00    -0.776 OA
HETATM   51  H62 UNL     1     -12.091   6.566  13.774  1.00  0.00     0.167 HD
ENDBRANCH  48  50
ENDBRANCH  46  48
ENDBRANCH  43  46
ENDBRANCH  41  43
ENDBRANCH   9  41
TORSDOF 14
ENDMDL
MODEL 3
REMARK minimizedAffinity -8.34528828
REMARK CNNscore 0.636502981
REMARK CNNaffinity 7.41188288
REMARK  14 active torsions:
REMARK  status: ('A' for Active; 'I' for Inactive)
REMARK    1  A    between atoms: C2_2  and  C3_3 
REMARK    2  A    between atoms: C3_3  and  C4_4 
REMARK    3  A    between atoms: C7_7  and  C9_9 
REMARK    4  A    between atoms: C10_11  and  C11_12 
REMARK    5  A    between atoms: C12_14  and  O3_15 
REMARK    6  A    between atoms: C12_14  and  C13_16 
REMARK    7  A    between atoms: C13_16  and  O4_17 
REMARK    8  A    between atoms: C26_31  and  O6_32 
REMARK    9  A    between atoms: C29_35  and  C30_36 
REMARK   10  A    between atoms: C30_36  and  C32_38 
REMARK   11  A    between atoms: C32_38  and  O7_39 
REMARK   12  A    between atoms: C32_38  and  C34_41 
REMARK   13  A    between atoms: C34_41  and  C36_43 
REMARK   14  A    between atoms: C36_43  and  O9_45 
ROOT
HETATM    1  C3  UNL     1      -8.053   6.033  14.437  1.00  0.00     0.090 C 
HETATM    2  C22 UNL     1      -8.065   6.318  15.944  1.00  0.00     0.046 C 
HETATM    3  C23 UNL     1      -6.644   6.738  16.230  1.00  0.00     0.072 C 
HETATM    4  C24 UNL     1      -6.194   7.395  14.923  1.00  0.00     0.168 C 
HETATM    5  C25 UNL     1      -6.137   8.924  15.016  1.00  0.00     0.100 C 
HETATM    6  C26 UNL     1      -4.768   9.355  15.512  1.00  0.00     0.129 C 
HETATM    7  C27 UNL     1      -3.639   8.846  14.580  1.00  0.00     0.040 C 
HETATM    8  C28 UNL     1      -2.426   8.505  15.462  1.00  0.00     0.015 C 
HETATM    9  C29 UNL     1      -4.136   7.655  13.723  1.00  0.00     0.137 C 
HETATM   10  O10 UNL     1      -4.920   6.830  14.598  1.00  0.00    -0.349 OA
HETATM   11  O11 UNL     1      -7.162   7.043  13.919  1.00  0.00    -0.341 OA
ENDROOT
BRANCH   1  12
HETATM   12  C2  UNL     1      -7.437   4.634  14.160  1.00  0.00     0.036 C 
HETATM   13  C1  UNL     1      -8.161   3.793  13.119  1.00  0.00     0.008 C 
ENDBRANCH   1  12
BRANCH   1  14
HETATM   14  C4  UNL     1      -9.465   6.157  13.802  1.00  0.00     0.157 C 
HETATM   15  C5  UNL     1      -9.531   6.584  12.344  1.00  0.00     0.038 C 
HETATM   16  C6  UNL     1     -10.996   6.940  12.189  1.00  0.00     0.043 C 
HETATM   17  C7  UNL     1     -11.387   7.479  13.580  1.00  0.00     0.084 C 
HETATM   18  C8  UNL     1     -11.518   9.003  13.503  1.00  0.00     0.049 C 
HETATM   19  O5  UNL     1     -10.275   7.161  14.450  1.00  0.00    -0.370 OA
BRANCH  17  20
HETATM   20  C9  UNL     1     -12.649   6.741  14.092  1.00  0.00     0.160 C 
HETATM   21  O1  UNL     1     -13.700   6.709  13.113  1.00  0.00    -0.375 OA
HETATM   22  C10 UNL     1     -14.822   6.101  13.781  1.00  0.00     0.152 C 
HETATM   23  C19 UNL     1     -14.762   6.630  15.217  1.00  0.00     0.041 C 
HETATM   24  C20 UNL     1     -13.333   7.152  15.404  1.00  0.00     0.016 C 
HETATM   25  C21 UNL     1     -13.362   8.635  15.741  1.00  0.00     0.012 C 
BRANCH  22  26
HETATM   26  C11 UNL     1     -16.154   6.397  13.057  1.00  0.00     0.158 C 
HETATM   27  O2  UNL     1     -16.075   7.564  12.229  1.00  0.00    -0.345 OA
HETATM   28  C12 UNL     1     -16.096   8.842  12.886  1.00  0.00     0.187 C 
HETATM   29  C14 UNL     1     -17.374   8.975  13.754  1.00  0.00     0.046 C 
HETATM   30  C15 UNL     1     -17.456  10.285  14.540  1.00  0.00     0.015 C 
HETATM   31  C16 UNL     1     -17.499   7.784  14.717  1.00  0.00     0.016 C 
HETATM   32  C17 UNL     1     -17.422   6.463  13.941  1.00  0.00     0.014 C 
HETATM   33  C18 UNL     1     -17.603   5.273  14.881  1.00  0.00     0.012 C 
BRANCH  28  34
HETATM   34  O3  UNL     1     -14.904   9.044  13.641  1.00  0.00    -0.363 OA
HETATM   35  H17 UNL     1     -15.113   8.960  14.583  1.00  0.00     0.213 HD
ENDBRANCH  28  34
BRANCH  28  36
HETATM   36  C13 UNL     1     -16.071   9.874  11.728  1.00  0.00     0.232 C 
BRANCH  36  37
HETATM   37  O4  UNL     1     -16.243   9.254  10.453  1.00  0.00    -0.396 OA
HETATM   38  H20 UNL     1     -15.581   8.533  10.434  1.00  0.00     0.209 HD
ENDBRANCH  36  37
ENDBRANCH  28  36
ENDBRANCH  22  26
ENDBRANCH  17  20
ENDBRANCH   1  14
BRANCH   6  39
HETATM   39  O6  UNL     1      -4.701  10.780  15.588  1.00  0.00    -0.395 OA
HETATM   40  H44 UNL     1      -5.384  11.078  16.214  1.00  0.00     0.210 HD
ENDBRANCH   6  39
BRANCH   9  41
HETATM   41  C30 UNL     1      -3.067   6.764  13.005  1.00  0.00     0.041 C 
HETATM   42  C31 UNL     1      -1.784   7.595  12.788  1.00  0.00     0.015 C 
BRANCH  41  43
HETATM   43  C32 UNL     1      -2.766   5.444  13.805  1.00  0.00     0.141 C 
BRANCH  43  44
HETATM   44  O7  UNL     1      -3.184   4.350  12.978  1.00  0.00    -0.389 OA
HETATM   45  C33 UNL     1      -4.507   4.452  12.473  1.00  0.00     0.202 C 
ENDBRANCH  43  44
BRANCH  43  46
HETATM   46  C34 UNL     1      -1.266   5.292  14.198  1.00  0.00     0.109 C 
HETATM   47  C35 UNL     1      -0.757   6.463  15.041  1.00  0.00     0.024 C 
BRANCH  46  48
HETATM   48  C36 UNL     1      -0.318   5.045  13.040  1.00  0.00     0.145 C 
HETATM   49  O8  UNL     1       0.776   5.569  12.896  1.00  0.00    -0.650 OA
BRANCH  48  50
HETATM   50  O9  UNL     1      -0.700   4.093  12.170  1.00  0.00    -0.776 OA
HETATM   51  H62 UNL     1       0.060   4.028  11.549  1.00  0.00     0.167 HD
ENDBRANCH  48  50
ENDBRANCH  46  48
ENDBRANCH  43  46
ENDBRANCH  41  43
ENDBRANCH   9  41
TORSDOF 14
ENDMDL
MODEL 4
REMARK minimizedAffinity -8.80114174
REMARK CNNscore 0.564559698
REMARK CNNaffinity 7.95910215
REMARK  14 active torsions:
REMARK  status: ('A' for Active; 'I' for Inactive)
REMARK    1  A    between atoms: C2_2  and  C3_3 
REMARK    2  A    between atoms: C3_3  and  C4_4 
REMARK    3  A    between atoms: C7_7  and  C9_9 
REMARK    4  A    between atoms: C10_11  and  C11_12 
REMARK    5  A    between atoms: C12_14  and  O3_15 
REMARK    6  A    between atoms: C12_14  and  C13_16 
REMARK    7  A    between atoms: C13_16  and  O4_17 
REMARK    8  A    between atoms: C26_31  and  O6_32 
REMARK    9  A    between atoms: C29_35  and  C30_36 
REMARK   10  A    between atoms: C30_36  and  C32_38 
REMARK   11  A    between atoms: C32_38  and  O7_39 
REMARK   12  A    between atoms: C32_38  and  C34_41 
REMARK   13  A    between atoms: C34_41  and  C36_43 
REMARK   14  A    between atoms: C36_43  and  O9_45 
ROOT
HETATM    1  C3  UNL     1      -7.987   5.667  14.052  1.00  0.00     0.090 C 
HETATM    2  C22 UNL     1      -7.913   6.402  15.396  1.00  0.00     0.046 C 
HETATM    3  C23 UNL     1      -6.430   6.492  15.663  1.00  0.00     0.072 C 
HETATM    4  C24 UNL     1      -5.817   6.560  14.261  1.00  0.00     0.168 C 
HETATM    5  C25 UNL     1      -5.331   7.966  13.893  1.00  0.00     0.100 C 
HETATM    6  C26 UNL     1      -3.895   8.146  14.351  1.00  0.00     0.129 C 
HETATM    7  C27 UNL     1      -2.958   7.087  13.717  1.00  0.00     0.040 C 
HETATM    8  C28 UNL     1      -1.888   6.727  14.761  1.00  0.00     0.015 C 
HETATM    9  C29 UNL     1      -3.773   5.867  13.220  1.00  0.00     0.137 C 
HETATM   10  O10 UNL     1      -4.756   5.601  14.233  1.00  0.00    -0.349 OA
HETATM   11  O11 UNL     1      -6.848   6.184  13.332  1.00  0.00    -0.341 OA
ENDROOT
BRANCH   1  12
HETATM   12  C2  UNL     1      -7.791   4.140  14.264  1.00  0.00     0.036 C 
HETATM   13  C1  UNL     1      -7.724   3.304  12.994  1.00  0.00     0.008 C 
ENDBRANCH   1  12
BRANCH   1  14
HETATM   14  C4  UNL     1      -9.308   5.960  13.290  1.00  0.00     0.157 C 
HETATM   15  C5  UNL     1      -9.185   6.537  11.889  1.00  0.00     0.038 C 
HETATM   16  C6  UNL     1     -10.597   7.015  11.622  1.00  0.00     0.043 C 
HETATM   17  C7  UNL     1     -11.106   7.437  13.016  1.00  0.00     0.084 C 
HETATM   18  C8  UNL     1     -11.131   8.966  13.092  1.00  0.00     0.049 C 
HETATM   19  O5  UNL     1     -10.120   6.950  13.957  1.00  0.00    -0.370 OA
BRANCH  17  20
HETATM   20  C9  UNL     1     -12.462   6.747  13.310  1.00  0.00     0.160 C 
HETATM   21  O1  UNL     1     -13.506   7.192  12.429  1.00  0.00    -0.375 OA
HETATM   22  C10 UNL     1     -14.704   6.551  12.906  1.00  0.00     0.152 C 
HETATM   23  C19 UNL     1     -14.569   6.549  14.432  1.00  0.00     0.041 C 
HETATM   24  C20 UNL     1     -13.081   6.777  14.714  1.00  0.00     0.016 C 
HETATM   25  C21 UNL     1     -12.897   8.048  15.532  1.00  0.00     0.012 C 
BRANCH  22  26
HETATM   26  C11 UNL     1     -15.978   7.253  12.388  1.00  0.00     0.158 C 
HETATM   27  O2  UNL     1     -15.737   8.616  12.017  1.00  0.00    -0.345 OA
HETATM   28  C12 UNL     1     -15.587   9.572  13.079  1.00  0.00     0.187 C 
HETATM   29  C14 UNL     1     -16.840   9.556  13.992  1.00  0.00     0.046 C 
HETATM   30  C15 UNL     1     -16.748  10.505  15.189  1.00  0.00     0.015 C 
HETATM   31  C16 UNL     1     -17.131   8.130  14.483  1.00  0.00     0.016 C 
HETATM   32  C17 UNL     1     -17.231   7.167  13.293  1.00  0.00     0.014 C 
HETATM   33  C18 UNL     1     -17.578   5.758  13.765  1.00  0.00     0.012 C 
BRANCH  28  34
HETATM   34  O3  UNL     1     -14.383   9.340  13.806  1.00  0.00    -0.363 OA
HETATM   35  H17 UNL     1     -14.607   8.958  14.667  1.00  0.00     0.213 HD
ENDBRANCH  28  34
BRANCH  28  36
HETATM   36  C13 UNL     1     -15.415  10.933  12.354  1.00  0.00     0.232 C 
BRANCH  36  37
HETATM   37  O4  UNL     1     -16.490  11.202  11.454  1.00  0.00    -0.396 OA
HETATM   38  H20 UNL     1     -16.560  10.398  10.900  1.00  0.00     0.209 HD
ENDBRANCH  36  37
ENDBRANCH  28  36
ENDBRANCH  22  26
ENDBRANCH  17  20
ENDBRANCH   1  14
BRANCH   6  39
HETATM   39  O6  UNL     1      -3.428   9.449  13.999  1.00  0.00    -0.395 OA
HETATM   40  H44 UNL     1      -3.998  10.101  14.445  1.00  0.00     0.210 HD
ENDBRANCH   6  39
BRANCH   9  41
HETATM   41  C30 UNL     1      -3.001   4.543  12.899  1.00  0.00     0.041 C 
HETATM   42  C31 UNL     1      -4.023   3.418  12.631  1.00  0.00     0.015 C 
BRANCH  41  43
HETATM   43  C32 UNL     1      -2.010   4.717  11.691  1.00  0.00     0.141 C 
BRANCH  43  44
HETATM   44  O7  UNL     1      -0.684   4.708  12.234  1.00  0.00    -0.389 OA
HETATM   45  C33 UNL     1       0.212   5.639  11.645  1.00  0.00     0.202 C 
ENDBRANCH  43  44
BRANCH  43  46
HETATM   46  C34 UNL     1      -2.166   3.612  10.604  1.00  0.00     0.109 C 
HETATM   47  C35 UNL     1      -3.617   3.427  10.156  1.00  0.00     0.024 C 
BRANCH  46  48
HETATM   48  C36 UNL     1      -1.567   2.265  10.963  1.00  0.00     0.145 C 
HETATM   49  O8  UNL     1      -0.418   2.077  11.333  1.00  0.00    -0.650 OA
BRANCH  48  50
HETATM   50  O9  UNL     1      -2.423   1.228  10.957  1.00  0.00    -0.776 OA
HETATM   51  H62 UNL     1      -1.879   0.476  11.280  1.00  0.00     0.167 HD
ENDBRANCH  48  50
ENDBRANCH  46  48
ENDBRANCH  43  46
ENDBRANCH  41  43
ENDBRANCH   9  41
TORSDOF 14
ENDMDL
MODEL 5
REMARK minimizedAffinity -7.73605013
REMARK CNNscore 0.52094686
REMARK CNNaffinity 6.46072054
REMARK  14 active torsions:
REMARK  status: ('A' for Active; 'I' for Inactive)
REMARK    1  A    between atoms: C2_2  and  C3_3 
REMARK    2  A    between atoms: C3_3  and  C4_4 
REMARK    3  A    between atoms: C7_7  and  C9_9 
REMARK    4  A    between atoms: C10_11  and  C11_12 
REMARK    5  A    between atoms: C12_14  and  O3_15 
REMARK    6  A    between atoms: C12_14  and  C13_16 
REMARK    7  A    between atoms: C13_16  and  O4_17 
REMARK    8  A    between atoms: C26_31  and  O6_32 
REMARK    9  A    between atoms: C29_35  and  C30_36 
REMARK   10  A    between atoms: C30_36  and  C32_38 
REMARK   11  A    between atoms: C32_38  and  O7_39 
REMARK   12  A    between atoms: C32_38  and  C34_41 
REMARK   13  A    between atoms: C34_41  and  C36_43 
REMARK   14  A    between atoms: C36_43  and  O9_45 
ROOT
HETATM    1  C3  UNL     1       1.743  12.018  19.969  1.00  0.00     0.090 C 
HETATM    2  C22 UNL     1       0.749  13.174  20.141  1.00  0.00     0.046 C 
HETATM    3  C23 UNL     1       1.530  14.188  20.940  1.00  0.00     0.072 C 
HETATM    4  C24 UNL     1       2.979  13.950  20.503  1.00  0.00     0.168 C 
HETATM    5  C25 UNL     1       3.499  15.035  19.555  1.00  0.00     0.100 C 
HETATM    6  C26 UNL     1       4.102  16.172  20.360  1.00  0.00     0.129 C 
HETATM    7  C27 UNL     1       5.255  15.677  21.269  1.00  0.00     0.040 C 
HETATM    8  C28 UNL     1       5.207  16.495  22.571  1.00  0.00     0.015 C 
HETATM    9  C29 UNL     1       5.151  14.147  21.497  1.00  0.00     0.137 C 
HETATM   10  O10 UNL     1       3.758  13.866  21.700  1.00  0.00    -0.349 OA
HETATM   11  O11 UNL     1       3.007  12.693  19.806  1.00  0.00    -0.341 OA
ENDROOT
BRANCH   1  12
HETATM   12  C2  UNL     1       1.798  11.161  21.264  1.00  0.00     0.036 C 
HETATM   13  C1  UNL     1       2.887  10.099  21.302  1.00  0.00     0.008 C 
ENDBRANCH   1  12
BRANCH   1  14
HETATM   14  C4  UNL     1       1.416  11.138  18.731  1.00  0.00     0.157 C 
HETATM   15  C5  UNL     1       2.522  10.953  17.704  1.00  0.00     0.038 C 
HETATM   16  C6  UNL     1       1.761  10.382  16.525  1.00  0.00     0.043 C 
HETATM   17  C7  UNL     1       0.372  11.043  16.636  1.00  0.00     0.084 C 
HETATM   18  C8  UNL     1       0.250  12.124  15.558  1.00  0.00     0.049 C 
HETATM   19  O5  UNL     1       0.347  11.687  17.932  1.00  0.00    -0.370 OA
BRANCH  17  20
HETATM   20  C9  UNL     1      -0.731   9.955  16.596  1.00  0.00     0.160 C 
HETATM   21  O1  UNL     1      -1.392   9.892  15.322  1.00  0.00    -0.375 OA
HETATM   22  C10 UNL     1      -2.448   8.928  15.491  1.00  0.00     0.152 C 
HETATM   23  C19 UNL     1      -2.965   9.153  16.915  1.00  0.00     0.041 C 
HETATM   24  C20 UNL     1      -1.858   9.929  17.637  1.00  0.00     0.016 C 
HETATM   25  C21 UNL     1      -2.394  11.268  18.122  1.00  0.00     0.012 C 
BRANCH  22  26
HETATM   26  C11 UNL     1      -3.532   9.063  14.400  1.00  0.00     0.158 C 
HETATM   27  O2  UNL     1      -4.794   8.524  14.817  1.00  0.00    -0.345 OA
HETATM   28  C12 UNL     1      -4.926   7.093  14.835  1.00  0.00     0.187 C 
HETATM   29  C14 UNL     1      -4.614   6.510  13.432  1.00  0.00     0.046 C 
HETATM   30  C15 UNL     1      -4.674   4.983  13.368  1.00  0.00     0.015 C 
HETATM   31  C16 UNL     1      -3.243   6.997  12.939  1.00  0.00     0.016 C 
HETATM   32  C17 UNL     1      -3.170   8.527  12.994  1.00  0.00     0.014 C 
HETATM   33  C18 UNL     1      -1.832   9.025  12.451  1.00  0.00     0.012 C 
BRANCH  28  34
HETATM   34  O3  UNL     1      -4.110   6.520  15.854  1.00  0.00    -0.363 OA
HETATM   35  H17 UNL     1      -3.352   6.084  15.438  1.00  0.00     0.213 HD
ENDBRANCH  28  34
BRANCH  28  36
HETATM   36  C13 UNL     1      -6.399   6.845  15.252  1.00  0.00     0.232 C 
BRANCH  36  37
HETATM   37  O4  UNL     1      -6.500   6.298  16.567  1.00  0.00    -0.396 OA
HETATM   38  H20 UNL     1      -5.893   5.530  16.566  1.00  0.00     0.209 HD
ENDBRANCH  36  37
ENDBRANCH  28  36
ENDBRANCH  22  26
ENDBRANCH  17  20
ENDBRANCH   1  14
BRANCH   6  39
HETATM   39  O6  UNL     1       4.603  17.182  19.484  1.00  0.00    -0.395 OA
HETATM   40  H44 UNL     1       3.857  17.516  18.955  1.00  0.00     0.210 HD
ENDBRANCH   6  39
BRANCH   9  41
HETATM   41  C30 UNL     1       5.976  13.516  22.668  1.00  0.00     0.041 C 
HETATM   42  C31 UNL     1       5.624  12.017  22.779  1.00  0.00     0.015 C 
BRANCH  41  43
HETATM   43  C32 UNL     1       7.522  13.730  22.481  1.00  0.00     0.141 C 
BRANCH  43  44
HETATM   44  O7  UNL     1       8.019  14.283  23.707  1.00  0.00    -0.389 OA
HETATM   45  C33 UNL     1       8.603  15.571  23.590  1.00  0.00     0.202 C 
ENDBRANCH  43  44
BRANCH  43  46
HETATM   46  C34 UNL     1       8.284  12.419  22.122  1.00  0.00     0.109 C 
HETATM   47  C35 UNL     1       8.999  11.804  23.327  1.00  0.00     0.024 C 
BRANCH  46  48
HETATM   48  C36 UNL     1       9.251  12.534  20.959  1.00  0.00     0.145 C 
HETATM   49  O8  UNL     1       9.508  13.561  20.350  1.00  0.00    -0.650 OA
BRANCH  48  50
HETATM   50  O9  UNL     1       9.937  11.415  20.661  1.00  0.00    -0.776 OA
HETATM   51  H62 UNL     1      10.550  11.702  19.948  1.00  0.00     0.167 HD
ENDBRANCH  48  50
ENDBRANCH  46  48
ENDBRANCH  43  46
ENDBRANCH  41  43
ENDBRANCH   9  41
TORSDOF 14
ENDMDL
MODEL 6
REMARK minimizedAffinity -9.42758846
REMARK CNNscore 0.454044729
REMARK CNNaffinity 7.28359795
REMARK  14 active torsions:
REMARK  status: ('A' for Active; 'I' for Inactive)
REMARK    1  A    between atoms: C2_2  and  C3_3 
REMARK    2  A    between atoms: C3_3  and  C4_4 
REMARK    3  A    between atoms: C7_7  and  C9_9 
REMARK    4  A    between atoms: C10_11  and  C11_12 
REMARK    5  A    between atoms: C12_14  and  O3_15 
REMARK    6  A    between atoms: C12_14  and  C13_16 
REMARK    7  A    between atoms: C13_16  and  O4_17 
REMARK    8  A    between atoms: C26_31  and  O6_32 
REMARK    9  A    between atoms: C29_35  and  C30_36 
REMARK   10  A    between atoms: C30_36  and  C32_38 
REMARK   11  A    between atoms: C32_38  and  O7_39 
REMARK   12  A    between atoms: C32_38  and  C34_41 
REMARK   13  A    between atoms: C34_41  and  C36_43 
REMARK   14  A    between atoms: C36_43  and  O9_45 
ROOT
HETATM    1  C3  UNL     1      -2.690   6.419  14.124  1.00  0.00     0.090 C 
HETATM    2  C22 UNL     1      -2.008   5.047  14.057  1.00  0.00     0.046 C 
HETATM    3  C23 UNL     1      -3.167   4.088  13.933  1.00  0.00     0.072 C 
HETATM    4  C24 UNL     1      -4.227   4.901  13.185  1.00  0.00     0.168 C 
HETATM    5  C25 UNL     1      -4.371   4.483  11.718  1.00  0.00     0.100 C 
HETATM    6  C26 UNL     1      -5.387   3.361  11.603  1.00  0.00     0.129 C 
HETATM    7  C27 UNL     1      -6.769   3.785  12.163  1.00  0.00     0.040 C 
HETATM    8  C28 UNL     1      -7.400   2.551  12.829  1.00  0.00     0.015 C 
HETATM    9  C29 UNL     1      -6.621   4.996  13.119  1.00  0.00     0.137 C 
HETATM   10  O10 UNL     1      -5.450   4.742  13.911  1.00  0.00    -0.349 OA
HETATM   11  O11 UNL     1      -3.806   6.276  13.221  1.00  0.00    -0.341 OA
ENDROOT
BRANCH   1  12
HETATM   12  C2  UNL     1      -3.237   6.676  15.556  1.00  0.00     0.036 C 
HETATM   13  C1  UNL     1      -2.400   7.608  16.420  1.00  0.00     0.008 C 
ENDBRANCH   1  12
BRANCH   1  14
HETATM   14  C4  UNL     1      -1.750   7.569  13.671  1.00  0.00     0.157 C 
HETATM   15  C5  UNL     1      -2.399   8.904  13.345  1.00  0.00     0.038 C 
HETATM   16  C6  UNL     1      -1.282   9.627  12.622  1.00  0.00     0.043 C 
HETATM   17  C7  UNL     1      -0.524   8.493  11.901  1.00  0.00     0.084 C 
HETATM   18  C8  UNL     1      -0.857   8.544  10.407  1.00  0.00     0.049 C 
HETATM   19  O5  UNL     1      -1.055   7.261  12.444  1.00  0.00    -0.370 OA
BRANCH  17  20
HETATM   20  C9  UNL     1       0.986   8.578  12.235  1.00  0.00     0.160 C 
HETATM   21  O1  UNL     1       1.801   8.715  11.060  1.00  0.00    -0.375 OA
HETATM   22  C10 UNL     1       3.160   8.662  11.532  1.00  0.00     0.152 C 
HETATM   23  C19 UNL     1       3.145   7.631  12.666  1.00  0.00     0.041 C 
HETATM   24  C20 UNL     1       1.675   7.495  13.079  1.00  0.00     0.016 C 
HETATM   25  C21 UNL     1       1.212   6.059  12.885  1.00  0.00     0.012 C 
BRANCH  22  26
HETATM   26  C11 UNL     1       4.153   8.333  10.396  1.00  0.00     0.158 C 
HETATM   27  O2  UNL     1       3.489   7.904   9.200  1.00  0.00    -0.345 OA
HETATM   28  C12 UNL     1       2.957   6.569   9.184  1.00  0.00     0.187 C 
HETATM   29  C14 UNL     1       4.080   5.543   9.483  1.00  0.00     0.046 C 
HETATM   30  C15 UNL     1       3.596   4.093   9.543  1.00  0.00     0.015 C 
HETATM   31  C16 UNL     1       4.805   5.902  10.790  1.00  0.00     0.016 C 
HETATM   32  C17 UNL     1       5.299   7.353  10.742  1.00  0.00     0.014 C 
HETATM   33  C18 UNL     1       6.072   7.702  12.012  1.00  0.00     0.012 C 
BRANCH  28  34
HETATM   34  O3  UNL     1       1.858   6.449  10.084  1.00  0.00    -0.363 OA
HETATM   35  H17 UNL     1       2.143   5.939  10.857  1.00  0.00     0.213 HD
ENDBRANCH  28  34
BRANCH  28  36
HETATM   36  C13 UNL     1       2.381   6.399   7.753  1.00  0.00     0.232 C 
BRANCH  36  37
HETATM   37  O4  UNL     1       2.886   5.229   7.108  1.00  0.00    -0.396 OA
HETATM   38  H20 UNL     1       3.858   5.291   7.201  1.00  0.00     0.209 HD
ENDBRANCH  36  37
ENDBRANCH  28  36
ENDBRANCH  22  26
ENDBRANCH  17  20
ENDBRANCH   1  14
BRANCH   6  39
HETATM   39  O6  UNL     1      -5.539   2.975  10.237  1.00  0.00    -0.395 OA
HETATM   40  H44 UNL     1      -4.673   2.666   9.916  1.00  0.00     0.210 HD
ENDBRANCH   6  39
BRANCH   9  41
HETATM   41  C30 UNL     1      -7.816   5.337  14.071  1.00  0.00     0.041 C 
HETATM   42  C31 UNL     1      -7.384   5.083  15.530  1.00  0.00     0.015 C 
BRANCH  41  43
HETATM   43  C32 UNL     1      -8.326   6.811  13.871  1.00  0.00     0.141 C 
BRANCH  43  44
HETATM   44  O7  UNL     1      -9.757   6.770  13.929  1.00  0.00    -0.389 OA
HETATM   45  C33 UNL     1     -10.409   6.765  12.668  1.00  0.00     0.202 C 
ENDBRANCH  43  44
BRANCH  43  46
HETATM   46  C34 UNL     1      -7.762   7.804  14.931  1.00  0.00     0.109 C 
HETATM   47  C35 UNL     1      -6.234   7.883  14.911  1.00  0.00     0.024 C 
BRANCH  46  48
HETATM   48  C36 UNL     1      -8.243   7.573  16.351  1.00  0.00     0.145 C 
HETATM   49  O8  UNL     1      -9.405   7.635  16.725  1.00  0.00    -0.650 OA
BRANCH  48  50
HETATM   50  O9  UNL     1      -7.302   7.172  17.225  1.00  0.00    -0.776 OA
HETATM   51  H62 UNL     1      -7.808   7.007  18.051  1.00  0.00     0.167 HD
ENDBRANCH  48  50
ENDBRANCH  46  48
ENDBRANCH  43  46
ENDBRANCH  41  43
ENDBRANCH   9  41
TORSDOF 14
ENDMDL
MODEL 7
REMARK minimizedAffinity -9.69408607
REMARK CNNscore 0.450787544
REMARK CNNaffinity 7.15210962
REMARK  14 active torsions:
REMARK  status: ('A' for Active; 'I' for Inactive)
REMARK    1  A    between atoms: C2_2  and  C3_3 
REMARK    2  A    between atoms: C3_3  and  C4_4 
REMARK    3  A    between atoms: C7_7  and  C9_9 
REMARK    4  A    between atoms: C10_11  and  C11_12 
REMARK    5  A    between atoms: C12_14  and  O3_15 
REMARK    6  A    between atoms: C12_14  and  C13_16 
REMARK    7  A    between atoms: C13_16  and  O4_17 
REMARK    8  A    between atoms: C26_31  and  O6_32 
REMARK    9  A    between atoms: C29_35  and  C30_36 
REMARK   10  A    between atoms: C30_36  and  C32_38 
REMARK   11  A    between atoms: C32_38  and  O7_39 
REMARK   12  A    between atoms: C32_38  and  C34_41 
REMARK   13  A    between atoms: C34_41  and  C36_43 
REMARK   14  A    between atoms: C36_43  and  O9_45 
ROOT
HETATM    1  C3  UNL     1      -0.036   8.075  13.228  1.00  0.00     0.090 C 
HETATM    2  C22 UNL     1      -0.412   8.097  11.741  1.00  0.00     0.046 C 
HETATM    3  C23 UNL     1       0.906   8.354  11.052  1.00  0.00     0.072 C 
HETATM    4  C24 UNL     1       1.931   7.705  11.986  1.00  0.00     0.168 C 
HETATM    5  C25 UNL     1       2.474   6.379  11.443  1.00  0.00     0.100 C 
HETATM    6  C26 UNL     1       3.685   6.643  10.565  1.00  0.00     0.129 C 
HETATM    7  C27 UNL     1       4.801   7.385  11.344  1.00  0.00     0.040 C 
HETATM    8  C28 UNL     1       5.491   8.348  10.365  1.00  0.00     0.015 C 
HETATM    9  C29 UNL     1       4.217   8.088  12.595  1.00  0.00     0.137 C 
HETATM   10  O10 UNL     1       2.970   8.669  12.184  1.00  0.00    -0.349 OA
HETATM   11  O11 UNL     1       1.259   7.440  13.229  1.00  0.00    -0.341 OA
ENDROOT
BRANCH   1  12
HETATM   12  C2  UNL     1       0.120   9.526  13.763  1.00  0.00     0.036 C 
HETATM   13  C1  UNL     1      -1.181  10.270  14.028  1.00  0.00     0.008 C 
ENDBRANCH   1  12
BRANCH   1  14
HETATM   14  C4  UNL     1      -1.053   7.272  14.082  1.00  0.00     0.157 C 
HETATM   15  C5  UNL     1      -0.638   5.876  14.519  1.00  0.00     0.038 C 
HETATM   16  C6  UNL     1      -1.954   5.289  14.986  1.00  0.00     0.043 C 
HETATM   17  C7  UNL     1      -2.996   5.962  14.069  1.00  0.00     0.084 C 
HETATM   18  C8  UNL     1      -3.477   4.942  13.032  1.00  0.00     0.049 C 
HETATM   19  O5  UNL     1      -2.285   7.015  13.376  1.00  0.00    -0.370 OA
BRANCH  17  20
HETATM   20  C9  UNL     1      -4.118   6.597  14.928  1.00  0.00     0.160 C 
HETATM   21  O1  UNL     1      -5.171   5.666  15.228  1.00  0.00    -0.375 OA
HETATM   22  C10 UNL     1      -6.171   6.436  15.921  1.00  0.00     0.152 C 
HETATM   23  C19 UNL     1      -6.165   7.804  15.231  1.00  0.00     0.041 C 
HETATM   24  C20 UNL     1      -4.831   7.881  14.481  1.00  0.00     0.016 C 
HETATM   25  C21 UNL     1      -5.083   8.057  12.990  1.00  0.00     0.012 C 
BRANCH  22  26
HETATM   26  C11 UNL     1      -7.547   5.735  15.914  1.00  0.00     0.158 C 
HETATM   27  O2  UNL     1      -7.557   4.566  15.084  1.00  0.00    -0.345 OA
HETATM   28  C12 UNL     1      -7.602   4.769  13.661  1.00  0.00     0.187 C 
HETATM   29  C14 UNL     1      -8.843   5.618  13.282  1.00  0.00     0.046 C 
HETATM   30  C15 UNL     1      -8.944   5.934  11.789  1.00  0.00     0.015 C 
HETATM   31  C16 UNL     1      -8.871   6.923  14.091  1.00  0.00     0.016 C 
HETATM   32  C17 UNL     1      -8.774   6.621  15.592  1.00  0.00     0.014 C 
HETATM   33  C18 UNL     1      -8.860   7.907  16.409  1.00  0.00     0.012 C 
BRANCH  28  34
HETATM   34  O3  UNL     1      -6.386   5.344  13.192  1.00  0.00    -0.363 OA
HETATM   35  H17 UNL     1      -6.547   6.272  12.965  1.00  0.00     0.213 HD
ENDBRANCH  28  34
BRANCH  28  36
HETATM   36  C13 UNL     1      -7.675   3.337  13.068  1.00  0.00     0.232 C 
BRANCH  36  37
HETATM   37  O4  UNL     1      -6.645   3.100  12.108  1.00  0.00    -0.396 OA
HETATM   38  H20 UNL     1      -6.706   3.853  11.486  1.00  0.00     0.209 HD
ENDBRANCH  36  37
ENDBRANCH  28  36
ENDBRANCH  22  26
ENDBRANCH  17  20
ENDBRANCH   1  14
BRANCH   6  39
HETATM   39  O6  UNL     1       4.207   5.411  10.066  1.00  0.00    -0.395 OA
HETATM   40  H44 UNL     1       3.509   4.983   9.540  1.00  0.00     0.210 HD
ENDBRANCH   6  39
BRANCH   9  41
HETATM   41  C30 UNL     1       5.084   9.186  13.298  1.00  0.00     0.041 C 
HETATM   42  C31 UNL     1       4.194  10.410  13.604  1.00  0.00     0.015 C 
BRANCH  41  43
HETATM   43  C32 UNL     1       5.779   8.644  14.600  1.00  0.00     0.141 C 
BRANCH  43  44
HETATM   44  O7  UNL     1       6.707   7.632  14.187  1.00  0.00    -0.389 OA
HETATM   45  C33 UNL     1       7.684   8.060  13.250  1.00  0.00     0.202 C 
ENDBRANCH  43  44
BRANCH  43  46
HETATM   46  C34 UNL     1       6.506   9.754  15.417  1.00  0.00     0.109 C 
HETATM   47  C35 UNL     1       7.527  10.528  14.581  1.00  0.00     0.024 C 
BRANCH  46  48
HETATM   48  C36 UNL     1       7.151   9.287  16.708  1.00  0.00     0.145 C 
HETATM   49  O8  UNL     1       7.294   9.965  17.714  1.00  0.00    -0.650 OA
BRANCH  48  50
HETATM   50  O9  UNL     1       7.494   7.987  16.748  1.00  0.00    -0.776 OA
HETATM   51  H62 UNL     1       7.818   7.861  17.667  1.00  0.00     0.167 HD
ENDBRANCH  48  50
ENDBRANCH  46  48
ENDBRANCH  43  46
ENDBRANCH  41  43
ENDBRANCH   9  41
TORSDOF 14
ENDMDL
MODEL 8
REMARK minimizedAffinity -9.21382809
REMARK CNNscore 0.36476174
REMARK CNNaffinity 7.25495338
REMARK  14 active torsions:
REMARK  status: ('A' for Active; 'I' for Inactive)
REMARK    1  A    between atoms: C2_2  and  C3_3 
REMARK    2  A    between atoms: C3_3  and  C4_4 
REMARK    3  A    between atoms: C7_7  and  C9_9 
REMARK    4  A    between atoms: C10_11  and  C11_12 
REMARK    5  A    between atoms: C12_14  and  O3_15 
REMARK    6  A    between atoms: C12_14  and  C13_16 
REMARK    7  A    between atoms: C13_16  and  O4_17 
REMARK    8  A    between atoms: C26_31  and  O6_32 
REMARK    9  A    between atoms: C29_35  and  C30_36 
REMARK   10  A    between atoms: C30_36  and  C32_38 
REMARK   11  A    between atoms: C32_38  and  O7_39 
REMARK   12  A    between atoms: C32_38  and  C34_41 
REMARK   13  A    between atoms: C34_41  and  C36_43 
REMARK   14  A    between atoms: C36_43  and  O9_45 
ROOT
HETATM    1  C3  UNL     1      -0.594   5.428  12.572  1.00  0.00     0.090 C 
HETATM    2  C22 UNL     1      -0.243   3.980  12.208  1.00  0.00     0.046 C 
HETATM    3  C23 UNL     1      -1.563   3.260  12.333  1.00  0.00     0.072 C 
HETATM    4  C24 UNL     1      -2.594   4.335  11.977  1.00  0.00     0.168 C 
HETATM    5  C25 UNL     1      -3.190   4.145  10.578  1.00  0.00     0.100 C 
HETATM    6  C26 UNL     1      -4.406   3.240  10.660  1.00  0.00     0.129 C 
HETATM    7  C27 UNL     1      -5.484   3.818  11.613  1.00  0.00     0.040 C 
HETATM    8  C28 UNL     1      -6.157   2.634  12.327  1.00  0.00     0.015 C 
HETATM    9  C29 UNL     1      -4.854   4.848  12.585  1.00  0.00     0.137 C 
HETATM   10  O10 UNL     1      -3.595   4.295  12.998  1.00  0.00    -0.349 OA
HETATM   11  O11 UNL     1      -1.909   5.600  12.005  1.00  0.00    -0.341 OA
ENDROOT
BRANCH   1  12
HETATM   12  C2  UNL     1      -0.691   5.585  14.115  1.00  0.00     0.036 C 
HETATM   13  C1  UNL     1      -1.196   6.933  14.607  1.00  0.00     0.008 C 
ENDBRANCH   1  12
BRANCH   1  14
HETATM   14  C4  UNL     1       0.410   6.448  11.970  1.00  0.00     0.157 C 
HETATM   15  C5  UNL     1      -0.176   7.650  11.246  1.00  0.00     0.038 C 
HETATM   16  C6  UNL     1       1.032   8.193  10.511  1.00  0.00     0.043 C 
HETATM   17  C7  UNL     1       1.859   6.931  10.193  1.00  0.00     0.084 C 
HETATM   18  C8  UNL     1       1.716   6.606   8.703  1.00  0.00     0.049 C 
HETATM   19  O5  UNL     1       1.249   5.861  10.952  1.00  0.00    -0.370 OA
BRANCH  17  20
HETATM   20  C9  UNL     1       3.317   7.123  10.681  1.00  0.00     0.160 C 
HETATM   21  O1  UNL     1       3.389   7.832  11.928  1.00  0.00    -0.375 OA
HETATM   22  C10 UNL     1       4.794   8.024  12.175  1.00  0.00     0.152 C 
HETATM   23  C19 UNL     1       5.405   8.293  10.796  1.00  0.00     0.041 C 
HETATM   24  C20 UNL     1       4.376   7.779   9.783  1.00  0.00     0.016 C 
HETATM   25  C21 UNL     1       3.920   8.919   8.883  1.00  0.00     0.012 C 
BRANCH  22  26
HETATM   26  C11 UNL     1       5.051   9.146  13.205  1.00  0.00     0.158 C 
HETATM   27  O2  UNL     1       6.304   9.808  12.987  1.00  0.00    -0.345 OA
HETATM   28  C12 UNL     1       7.496   9.109  13.383  1.00  0.00     0.187 C 
HETATM   29  C14 UNL     1       7.423   8.738  14.887  1.00  0.00     0.046 C 
HETATM   30  C15 UNL     1       8.628   7.939  15.386  1.00  0.00     0.015 C 
HETATM   31  C16 UNL     1       6.129   7.968  15.190  1.00  0.00     0.016 C 
HETATM   32  C17 UNL     1       4.911   8.760  14.697  1.00  0.00     0.014 C 
HETATM   33  C18 UNL     1       3.616   8.031  15.046  1.00  0.00     0.012 C 
BRANCH  28  34
HETATM   34  O3  UNL     1       7.717   7.972  12.553  1.00  0.00    -0.363 OA
HETATM   35  H17 UNL     1       7.514   7.172  13.059  1.00  0.00     0.213 HD
ENDBRANCH  28  34
BRANCH  28  36
HETATM   36  C13 UNL     1       8.646  10.108  13.086  1.00  0.00     0.232 C 
BRANCH  36  37
HETATM   37  O4  UNL     1       8.613  11.238  13.959  1.00  0.00    -0.396 OA
HETATM   38  H20 UNL     1       7.695  11.573  13.901  1.00  0.00     0.209 HD
ENDBRANCH  36  37
ENDBRANCH  28  36
ENDBRANCH  22  26
ENDBRANCH  17  20
ENDBRANCH   1  14
BRANCH   6  39
HETATM   39  O6  UNL     1      -4.978   3.069   9.363  1.00  0.00    -0.395 OA
HETATM   40  H44 UNL     1      -4.305   2.660   8.791  1.00  0.00     0.210 HD
ENDBRANCH   6  39
BRANCH   9  41
HETATM   41  C30 UNL     1      -5.671   5.262  13.855  1.00  0.00     0.041 C 
HETATM   42  C31 UNL     1      -4.719   5.935  14.867  1.00  0.00     0.015 C 
BRANCH  41  43
HETATM   43  C32 UNL     1      -6.882   6.198  13.497  1.00  0.00     0.141 C 
BRANCH  43  44
HETATM   44  O7  UNL     1      -7.966   5.347  13.103  1.00  0.00    -0.389 OA
HETATM   45  C33 UNL     1      -8.636   5.740  11.915  1.00  0.00     0.202 C 
ENDBRANCH  43  44
BRANCH  43  46
HETATM   46  C34 UNL     1      -7.312   7.123  14.674  1.00  0.00     0.109 C 
HETATM   47  C35 UNL     1      -6.355   8.299  14.879  1.00  0.00     0.024 C 
BRANCH  46  48
HETATM   48  C36 UNL     1      -7.545   6.418  15.997  1.00  0.00     0.145 C 
HETATM   49  O8  UNL     1      -8.065   5.321  16.133  1.00  0.00    -0.650 OA
BRANCH  48  50
HETATM   50  O9  UNL     1      -7.039   7.033  17.081  1.00  0.00    -0.776 OA
HETATM   51  H62 UNL     1      -7.222   6.403  17.812  1.00  0.00     0.167 HD
ENDBRANCH  48  50
ENDBRANCH  46  48
ENDBRANCH  43  46
ENDBRANCH  41  43
ENDBRANCH   9  41
TORSDOF 14
ENDMDL
MODEL 9
REMARK minimizedAffinity -8.11052322
REMARK CNNscore 0.356235445
REMARK CNNaffinity 7.21289778
REMARK  14 active torsions:
REMARK  status: ('A' for Active; 'I' for Inactive)
REMARK    1  A    between atoms: C2_2  and  C3_3 
REMARK    2  A    between atoms: C3_3  and  C4_4 
REMARK    3  A    between atoms: C7_7  and  C9_9 
REMARK    4  A    between atoms: C10_11  and  C11_12 
REMARK    5  A    between atoms: C12_14  and  O3_15 
REMARK    6  A    between atoms: C12_14  and  C13_16 
REMARK    7  A    between atoms: C13_16  and  O4_17 
REMARK    8  A    between atoms: C26_31  and  O6_32 
REMARK    9  A    between atoms: C29_35  and  C30_36 
REMARK   10  A    between atoms: C30_36  and  C32_38 
REMARK   11  A    between atoms: C32_38  and  O7_39 
REMARK   12  A    between atoms: C32_38  and  C34_41 
REMARK   13  A    between atoms: C34_41  and  C36_43 
REMARK   14  A    between atoms: C36_43  and  O9_45 
ROOT
HETATM    1  C3  UNL     1      -7.144 -10.706   2.079  1.00  0.00     0.090 C 
HETATM    2  C22 UNL     1      -6.747 -11.594   0.893  1.00  0.00     0.046 C 
HETATM    3  C23 UNL     1      -7.834 -11.327  -0.120  1.00  0.00     0.072 C 
HETATM    4  C24 UNL     1      -8.245  -9.881   0.168  1.00  0.00     0.168 C 
HETATM    5  C25 UNL     1      -7.717  -8.894  -0.879  1.00  0.00     0.100 C 
HETATM    6  C26 UNL     1      -8.713  -8.777  -2.019  1.00  0.00     0.129 C 
HETATM    7  C27 UNL     1     -10.102  -8.310  -1.516  1.00  0.00     0.040 C 
HETATM    8  C28 UNL     1     -11.168  -9.019  -2.368  1.00  0.00     0.015 C 
HETATM    9  C29 UNL     1     -10.248  -8.576   0.004  1.00  0.00     0.137 C 
HETATM   10  O10 UNL     1      -9.674  -9.869   0.243  1.00  0.00    -0.349 OA
HETATM   11  O11 UNL     1      -7.681  -9.528   1.443  1.00  0.00    -0.341 OA
ENDROOT
BRANCH   1  12
HETATM   12  C2  UNL     1      -8.272 -11.385   2.904  1.00  0.00     0.036 C 
HETATM   13  C1  UNL     1      -8.275 -12.907   2.882  1.00  0.00     0.008 C 
ENDBRANCH   1  12
BRANCH   1  14
HETATM   14  C4  UNL     1      -5.931 -10.349   2.980  1.00  0.00     0.157 C 
HETATM   15  C5  UNL     1      -4.717  -9.740   2.296  1.00  0.00     0.038 C 
HETATM   16  C6  UNL     1      -3.656  -9.867   3.370  1.00  0.00     0.043 C 
HETATM   17  C7  UNL     1      -4.047 -11.160   4.114  1.00  0.00     0.084 C 
HETATM   18  C8  UNL     1      -3.075 -12.275   3.716  1.00  0.00     0.049 C 
HETATM   19  O5  UNL     1      -5.364 -11.509   3.627  1.00  0.00    -0.370 OA
BRANCH  17  20
HETATM   20  C9  UNL     1      -4.133 -10.883   5.636  1.00  0.00     0.160 C 
HETATM   21  O1  UNL     1      -5.394 -10.311   6.018  1.00  0.00    -0.375 OA
HETATM   22  C10 UNL     1      -5.266 -10.013   7.421  1.00  0.00     0.152 C 
HETATM   23  C19 UNL     1      -3.819  -9.538   7.593  1.00  0.00     0.041 C 
HETATM   24  C20 UNL     1      -3.073 -10.034   6.351  1.00  0.00     0.016 C 
HETATM   25  C21 UNL     1      -2.493  -8.852   5.587  1.00  0.00     0.012 C 
BRANCH  22  26
HETATM   26  C11 UNL     1      -6.323  -8.991   7.893  1.00  0.00     0.158 C 
HETATM   27  O2  UNL     1      -6.279  -8.778   9.310  1.00  0.00    -0.345 OA
HETATM   28  C12 UNL     1      -6.832  -9.806  10.149  1.00  0.00     0.187 C 
HETATM   29  C14 UNL     1      -8.312 -10.070   9.766  1.00  0.00     0.046 C 
HETATM   30  C15 UNL     1      -8.969 -11.192  10.570  1.00  0.00     0.015 C 
HETATM   31  C16 UNL     1      -8.434 -10.367   8.264  1.00  0.00     0.016 C 
HETATM   32  C17 UNL     1      -7.782  -9.248   7.444  1.00  0.00     0.014 C 
HETATM   33  C18 UNL     1      -7.950  -9.504   5.948  1.00  0.00     0.012 C 
BRANCH  28  34
HETATM   34  O3  UNL     1      -6.038 -10.988  10.094  1.00  0.00    -0.363 OA
HETATM   35  H17 UNL     1      -6.511 -11.657   9.578  1.00  0.00     0.213 HD
ENDBRANCH  28  34
BRANCH  28  36
HETATM   36  C13 UNL     1      -6.697  -9.245  11.589  1.00  0.00     0.232 C 
BRANCH  36  37
HETATM   37  O4  UNL     1      -5.634  -8.297  11.698  1.00  0.00    -0.396 OA
HETATM   38  H20 UNL     1      -4.856  -8.747  11.311  1.00  0.00     0.209 HD
ENDBRANCH  36  37
ENDBRANCH  28  36
ENDBRANCH  22  26
ENDBRANCH  17  20
ENDBRANCH   1  14
BRANCH   6  39
HETATM   39  O6  UNL     1      -8.236  -7.848  -2.993  1.00  0.00    -0.395 OA
HETATM   40  H44 UNL     1      -7.386  -8.181  -3.333  1.00  0.00     0.210 HD
ENDBRANCH   6  39
BRANCH   9  41
HETATM   41  C30 UNL     1     -11.684  -8.531   0.628  1.00  0.00     0.041 C 
HETATM   42  C31 UNL     1     -11.680  -9.321   1.953  1.00  0.00     0.015 C 
BRANCH  41  43
HETATM   43  C32 UNL     1     -12.189  -7.058   0.839  1.00  0.00     0.141 C 
BRANCH  43  44
HETATM   44  O7  UNL     1     -13.614  -7.120   0.978  1.00  0.00    -0.389 OA
HETATM   45  C33 UNL     1     -14.239  -8.187   0.281  1.00  0.00     0.202 C 
ENDBRANCH  43  44
BRANCH  43  46
HETATM   46  C34 UNL     1     -11.547  -6.360   2.076  1.00  0.00     0.109 C 
HETATM   47  C35 UNL     1     -11.919  -7.040   3.395  1.00  0.00     0.024 C 
BRANCH  46  48
HETATM   48  C36 UNL     1     -11.803  -4.868   2.179  1.00  0.00     0.145 C 
HETATM   49  O8  UNL     1     -10.952  -3.996   2.102  1.00  0.00    -0.650 OA
BRANCH  48  50
HETATM   50  O9  UNL     1     -13.096  -4.506   2.265  1.00  0.00    -0.776 OA
HETATM   51  H62 UNL     1     -13.063  -3.524   2.249  1.00  0.00     0.167 HD
ENDBRANCH  48  50
ENDBRANCH  46  48
ENDBRANCH  43  46
ENDBRANCH  41  43
ENDBRANCH   9  41
TORSDOF 14
ENDMDL
