MODEL 1
REMARK minimizedAffinity -7.99415922
REMARK CNNscore 0.699824691
REMARK CNNaffinity 7.20304489
REMARK  6 active torsions:
REMARK  status: ('A' for Active; 'I' for Inactive)
REMARK    1  A    between atoms: C2_2  and  C4_4 
REMARK    2  A    between atoms: C4_4  and  O1_5 
REMARK    3  A    between atoms: C4_4  and  C5_6 
REMARK    4  A    between atoms: C5_6  and  C6_7 
REMARK    5  A    between atoms: C6_7  and  C7_8 
REMARK    6  A    between atoms: C7_8  and  C9_10 
ROOT
HETATM    1  C9  UNL     1      -1.594  52.463  -9.792  1.00  0.00    -0.001 C 
HETATM    2  C10 UNL     1      -1.071  51.093  -9.278  1.00  0.00     0.007 C 
HETATM    3  C11 UNL     1       0.461  51.201  -9.157  1.00  0.00     0.024 C 
HETATM    4  C12 UNL     1       0.765  52.652  -9.448  1.00  0.00     0.092 C 
HETATM    5  C13 UNL     1       0.704  53.518  -8.159  1.00  0.00     0.272 C 
HETATM    6  O2  UNL     1       0.071  53.302  -7.141  1.00  0.00    -0.264 OA
HETATM    7  O3  UNL     1       1.510  54.627  -8.340  1.00  0.00    -0.305 OA
HETATM    8  C14 UNL     1       2.121  54.553  -9.651  1.00  0.00     0.113 C 
HETATM    9  C15 UNL     1       1.119  55.225 -10.644  1.00  0.00     0.043 C 
HETATM   10  C16 UNL     1      -0.325  54.659 -10.539  1.00  0.00     0.014 C 
HETATM   11  C17 UNL     1      -0.341  53.110 -10.460  1.00  0.00    -0.020 C 
HETATM   12  C18 UNL     1      -0.121  52.558 -11.886  1.00  0.00     0.017 C 
HETATM   13  C19 UNL     1       2.112  53.072  -9.888  1.00  0.00     0.137 A 
HETATM   14  O4  UNL     1       2.761  52.500 -11.007  1.00  0.00    -0.364 OA
HETATM   15  C20 UNL     1       3.351  52.221  -9.720  1.00  0.00     0.162 A 
HETATM   16  C21 UNL     1       4.675  52.875  -9.473  1.00  0.00     0.042 C 
HETATM   17  C22 UNL     1       4.480  54.222  -8.742  1.00  0.00     0.014 C 
HETATM   18  C23 UNL     1       5.789  54.837  -8.142  1.00  0.00     0.018 C 
HETATM   19  C24 UNL     1       6.316  53.937  -7.002  1.00  0.00     0.023 C 
HETATM   20  C25 UNL     1       6.923  55.045  -9.154  1.00  0.00     0.023 C 
HETATM   21  C26 UNL     1       5.470  56.196  -7.499  1.00  0.00     0.135 C 
HETATM   22  O5  UNL     1       6.348  56.902  -6.999  1.00  0.00    -0.297 OA
HETATM   23  C27 UNL     1       4.026  56.630  -7.485  1.00  0.00     0.080 C 
HETATM   24  C28 UNL     1       3.507  56.606  -8.915  1.00  0.00     0.020 C 
HETATM   25  C29 UNL     1       3.561  55.196  -9.591  1.00  0.00    -0.004 C 
HETATM   26  C30 UNL     1       4.084  55.413 -11.036  1.00  0.00     0.019 C 
ENDROOT
BRANCH   1  27
HETATM   27  C7  UNL     1      -2.990  52.386 -10.483  1.00  0.00    -0.014 C 
HETATM   28  C8  UNL     1      -3.847  53.658 -10.458  1.00  0.00     0.010 C 
BRANCH  27  29
HETATM   29  C6  UNL     1      -3.797  51.168  -9.982  1.00  0.00     0.007 C 
BRANCH  29  30
HETATM   30  C5  UNL     1      -5.045  50.767 -10.791  1.00  0.00     0.036 C 
BRANCH  30  31
HETATM   31  C4  UNL     1      -6.077  49.937 -10.005  1.00  0.00     0.146 C 
BRANCH  31  32
HETATM   32  C2  UNL     1      -6.946  48.999 -10.825  1.00  0.00    -0.065 C 
HETATM   33  C1  UNL     1      -6.509  47.914 -11.488  1.00  0.00     0.016 C 
HETATM   34  C3  UNL     1      -8.409  49.371 -10.863  1.00  0.00     0.045 C 
ENDBRANCH  31  32
BRANCH  31  35
HETATM   35  O1  UNL     1      -5.408  49.128  -9.043  1.00  0.00    -0.391 OA
HETATM   36  H7  UNL     1      -4.928  48.443  -9.542  1.00  0.00     0.210 HD
ENDBRANCH  31  35
ENDBRANCH  30  31
ENDBRANCH  29  30
ENDBRANCH  27  29
ENDBRANCH   1  27
TORSDOF 6
ENDMDL
MODEL 2
REMARK minimizedAffinity -7.1333971
REMARK CNNscore 0.599194407
REMARK CNNaffinity 7.02367449
REMARK  6 active torsions:
REMARK  status: ('A' for Active; 'I' for Inactive)
REMARK    1  A    between atoms: C2_2  and  C4_4 
REMARK    2  A    between atoms: C4_4  and  O1_5 
REMARK    3  A    between atoms: C4_4  and  C5_6 
REMARK    4  A    between atoms: C5_6  and  C6_7 
REMARK    5  A    between atoms: C6_7  and  C7_8 
REMARK    6  A    between atoms: C7_8  and  C9_10 
ROOT
HETATM    1  C9  UNL     1      -1.577  52.635 -10.730  1.00  0.00    -0.001 C 
HETATM    2  C10 UNL     1      -0.876  52.479 -12.109  1.00  0.00     0.007 C 
HETATM    3  C11 UNL     1       0.555  53.034 -11.963  1.00  0.00     0.024 C 
HETATM    4  C12 UNL     1       0.694  53.345 -10.491  1.00  0.00     0.092 C 
HETATM    5  C13 UNL     1       1.200  52.113  -9.692  1.00  0.00     0.272 C 
HETATM    6  O2  UNL     1       1.076  50.933  -9.976  1.00  0.00    -0.264 OA
HETATM    7  O3  UNL     1       1.841  52.564  -8.552  1.00  0.00    -0.305 OA
HETATM    8  C14 UNL     1       1.816  54.011  -8.544  1.00  0.00     0.113 C 
HETATM    9  C15 UNL     1       0.478  54.428  -7.854  1.00  0.00     0.043 C 
HETATM   10  C16 UNL     1      -0.772  53.735  -8.464  1.00  0.00     0.014 C 
HETATM   11  C17 UNL     1      -0.745  53.745 -10.015  1.00  0.00    -0.020 C 
HETATM   12  C18 UNL     1      -1.169  55.153 -10.490  1.00  0.00     0.017 C 
HETATM   13  C19 UNL     1       1.711  54.305 -10.012  1.00  0.00     0.137 A 
HETATM   14  O4  UNL     1       1.807  55.625 -10.508  1.00  0.00    -0.364 OA
HETATM   15  C20 UNL     1       2.902  54.743 -10.834  1.00  0.00     0.162 A 
HETATM   16  C21 UNL     1       4.198  55.062 -10.155  1.00  0.00     0.042 C 
HETATM   17  C22 UNL     1       4.337  54.244  -8.851  1.00  0.00     0.014 C 
HETATM   18  C23 UNL     1       5.773  54.242  -8.229  1.00  0.00     0.018 C 
HETATM   19  C24 UNL     1       6.750  53.500  -9.169  1.00  0.00     0.023 C 
HETATM   20  C25 UNL     1       6.350  55.633  -7.940  1.00  0.00     0.023 C 
HETATM   21  C26 UNL     1       5.762  53.448  -6.914  1.00  0.00     0.135 C 
HETATM   22  O5  UNL     1       6.768  53.342  -6.208  1.00  0.00    -0.297 OA
HETATM   23  C27 UNL     1       4.468  52.780  -6.523  1.00  0.00     0.080 C 
HETATM   24  C28 UNL     1       3.376  53.839  -6.491  1.00  0.00     0.020 C 
HETATM   25  C29 UNL     1       3.135  54.550  -7.864  1.00  0.00    -0.004 C 
HETATM   26  C30 UNL     1       2.972  56.063  -7.561  1.00  0.00     0.019 C 
ENDROOT
BRANCH   1  27
HETATM   27  C7  UNL     1      -3.134  52.650 -10.814  1.00  0.00    -0.014 C 
HETATM   28  C8  UNL     1      -3.831  53.979 -10.496  1.00  0.00     0.010 C 
BRANCH  27  29
HETATM   29  C6  UNL     1      -3.751  51.495  -9.997  1.00  0.00     0.007 C 
BRANCH  29  30
HETATM   30  C5  UNL     1      -4.930  50.732 -10.631  1.00  0.00     0.036 C 
BRANCH  30  31
HETATM   31  C4  UNL     1      -5.543  49.641  -9.734  1.00  0.00     0.146 C 
BRANCH  31  32
HETATM   32  C2  UNL     1      -7.019  49.352  -9.944  1.00  0.00    -0.065 C 
HETATM   33  C1  UNL     1      -8.009  49.710  -9.107  1.00  0.00     0.016 C 
HETATM   34  C3  UNL     1      -7.336  48.594 -11.211  1.00  0.00     0.045 C 
ENDBRANCH  31  32
BRANCH  31  35
HETATM   35  O1  UNL     1      -4.858  48.410  -9.942  1.00  0.00    -0.391 OA
HETATM   36  H7  UNL     1      -5.101  48.105 -10.834  1.00  0.00     0.210 HD
ENDBRANCH  31  35
ENDBRANCH  30  31
ENDBRANCH  29  30
ENDBRANCH  27  29
ENDBRANCH   1  27
TORSDOF 6
ENDMDL
MODEL 3
REMARK minimizedAffinity -6.78941298
REMARK CNNscore 0.481808215
REMARK CNNaffinity 6.60066843
REMARK  6 active torsions:
REMARK  status: ('A' for Active; 'I' for Inactive)
REMARK    1  A    between atoms: C2_2  and  C4_4 
REMARK    2  A    between atoms: C4_4  and  O1_5 
REMARK    3  A    between atoms: C4_4  and  C5_6 
REMARK    4  A    between atoms: C5_6  and  C6_7 
REMARK    5  A    between atoms: C6_7  and  C7_8 
REMARK    6  A    between atoms: C7_8  and  C9_10 
ROOT
HETATM    1  C9  UNL     1       1.187  54.430  -9.297  1.00  0.00    -0.001 C 
HETATM    2  C10 UNL     1       0.583  54.243  -7.877  1.00  0.00     0.007 C 
HETATM    3  C11 UNL     1      -0.614  53.280  -8.009  1.00  0.00     0.024 C 
HETATM    4  C12 UNL     1      -0.575  52.820  -9.447  1.00  0.00     0.092 C 
HETATM    5  C13 UNL     1       0.324  51.565  -9.622  1.00  0.00     0.272 C 
HETATM    6  O2  UNL     1       1.261  51.211  -8.927  1.00  0.00    -0.264 OA
HETATM    7  O3  UNL     1      -0.108  50.870 -10.737  1.00  0.00    -0.305 OA
HETATM    8  C14 UNL     1      -1.245  51.561 -11.307  1.00  0.00     0.113 C 
HETATM    9  C15 UNL     1      -0.667  52.622 -12.298  1.00  0.00     0.043 C 
HETATM   10  C16 UNL     1       0.425  53.527 -11.663  1.00  0.00     0.014 C 
HETATM   11  C17 UNL     1       0.019  54.028 -10.252  1.00  0.00    -0.020 C 
HETATM   12  C18 UNL     1      -0.985  55.188 -10.428  1.00  0.00     0.017 C 
HETATM   13  C19 UNL     1      -1.783  52.273 -10.101  1.00  0.00     0.137 A 
HETATM   14  O4  UNL     1      -3.010  52.975 -10.145  1.00  0.00    -0.364 OA
HETATM   15  C20 UNL     1      -2.993  51.776  -9.343  1.00  0.00     0.162 A 
HETATM   16  C21 UNL     1      -3.795  50.635  -9.889  1.00  0.00     0.042 C 
HETATM   17  C22 UNL     1      -2.899  49.706 -10.738  1.00  0.00     0.014 C 
HETATM   18  C23 UNL     1      -3.538  48.320 -11.087  1.00  0.00     0.018 C 
HETATM   19  C24 UNL     1      -3.719  47.487  -9.798  1.00  0.00     0.023 C 
HETATM   20  C25 UNL     1      -4.894  48.399 -11.802  1.00  0.00     0.023 C 
HETATM   21  C26 UNL     1      -2.576  47.521 -11.979  1.00  0.00     0.135 C 
HETATM   22  O5  UNL     1      -2.873  46.411 -12.429  1.00  0.00    -0.297 OA
HETATM   23  C27 UNL     1      -1.233  48.140 -12.272  1.00  0.00     0.080 C 
HETATM   24  C28 UNL     1      -1.464  49.517 -12.874  1.00  0.00     0.020 C 
HETATM   25  C29 UNL     1      -2.235  50.504 -11.936  1.00  0.00    -0.004 C 
HETATM   26  C30 UNL     1      -3.275  51.242 -12.821  1.00  0.00     0.019 C 
ENDROOT
BRANCH   1  27
HETATM   27  C7  UNL     1       2.014  55.742  -9.462  1.00  0.00    -0.014 C 
HETATM   28  C8  UNL     1       2.918  55.840 -10.698  1.00  0.00     0.010 C 
BRANCH  27  29
HETATM   29  C6  UNL     1       2.802  56.073  -8.176  1.00  0.00     0.007 C 
BRANCH  29  30
HETATM   30  C5  UNL     1       4.115  56.863  -8.336  1.00  0.00     0.036 C 
BRANCH  30  31
HETATM   31  C4  UNL     1       5.195  56.525  -7.292  1.00  0.00     0.146 C 
BRANCH  31  32
HETATM   32  C2  UNL     1       6.383  55.722  -7.792  1.00  0.00    -0.065 C 
HETATM   33  C1  UNL     1       7.506  55.476  -7.094  1.00  0.00     0.016 C 
HETATM   34  C3  UNL     1       6.232  55.186  -9.195  1.00  0.00     0.045 C 
ENDBRANCH  31  32
BRANCH  31  35
HETATM   35  O1  UNL     1       5.726  57.729  -6.746  1.00  0.00    -0.391 OA
HETATM   36  H7  UNL     1       6.246  58.150  -7.454  1.00  0.00     0.210 HD
ENDBRANCH  31  35
ENDBRANCH  30  31
ENDBRANCH  29  30
ENDBRANCH  27  29
ENDBRANCH   1  27
TORSDOF 6
ENDMDL
MODEL 4
REMARK minimizedAffinity -7.47909641
REMARK CNNscore 0.371594876
REMARK CNNaffinity 6.6053195
REMARK  6 active torsions:
REMARK  status: ('A' for Active; 'I' for Inactive)
REMARK    1  A    between atoms: C2_2  and  C4_4 
REMARK    2  A    between atoms: C4_4  and  O1_5 
REMARK    3  A    between atoms: C4_4  and  C5_6 
REMARK    4  A    between atoms: C5_6  and  C6_7 
REMARK    5  A    between atoms: C6_7  and  C7_8 
REMARK    6  A    between atoms: C7_8  and  C9_10 
ROOT
HETATM    1  C9  UNL     1      -1.537  52.925  -9.474  1.00  0.00    -0.001 C 
HETATM    2  C10 UNL     1      -1.229  51.771  -8.480  1.00  0.00     0.007 C 
HETATM    3  C11 UNL     1       0.262  51.874  -8.102  1.00  0.00     0.024 C 
HETATM    4  C12 UNL     1       0.731  53.156  -8.750  1.00  0.00     0.092 C 
HETATM    5  C13 UNL     1       0.514  54.380  -7.820  1.00  0.00     0.272 C 
HETATM    6  O2  UNL     1      -0.306  54.507  -6.927  1.00  0.00    -0.264 OA
HETATM    7  O3  UNL     1       1.428  55.359  -8.165  1.00  0.00    -0.305 OA
HETATM    8  C14 UNL     1       2.254  54.867  -9.248  1.00  0.00     0.113 C 
HETATM    9  C15 UNL     1       1.504  55.219 -10.572  1.00  0.00     0.043 C 
HETATM   10  C16 UNL     1       0.022  54.749 -10.585  1.00  0.00     0.014 C 
HETATM   11  C17 UNL     1      -0.135  53.302 -10.049  1.00  0.00    -0.020 C 
HETATM   12  C18 UNL     1       0.289  52.329 -11.171  1.00  0.00     0.017 C 
HETATM   13  C19 UNL     1       2.165  53.386  -9.025  1.00  0.00     0.137 A 
HETATM   14  O4  UNL     1       2.953  52.479  -9.772  1.00  0.00    -0.364 OA
HETATM   15  C20 UNL     1       3.280  52.600  -8.371  1.00  0.00     0.162 A 
HETATM   16  C21 UNL     1       4.588  53.267  -8.079  1.00  0.00     0.042 C 
HETATM   17  C22 UNL     1       4.378  54.780  -7.840  1.00  0.00     0.014 C 
HETATM   18  C23 UNL     1       5.606  55.519  -7.210  1.00  0.00     0.018 C 
HETATM   19  C24 UNL     1       5.846  55.006  -5.773  1.00  0.00     0.023 C 
HETATM   20  C25 UNL     1       6.915  55.375  -7.996  1.00  0.00     0.023 C 
HETATM   21  C26 UNL     1       5.291  57.018  -7.081  1.00  0.00     0.135 C 
HETATM   22  O5  UNL     1       6.122  57.824  -6.655  1.00  0.00    -0.297 OA
HETATM   23  C27 UNL     1       3.908  57.469  -7.479  1.00  0.00     0.080 C 
HETATM   24  C28 UNL     1       3.652  57.013  -8.908  1.00  0.00     0.020 C 
HETATM   25  C29 UNL     1       3.709  55.462  -9.104  1.00  0.00    -0.004 C 
HETATM   26  C30 UNL     1       4.496  55.206 -10.417  1.00  0.00     0.019 C 
ENDROOT
BRANCH   1  27
HETATM   27  C7  UNL     1      -2.789  52.669 -10.368  1.00  0.00    -0.014 C 
HETATM   28  C8  UNL     1      -3.758  53.844 -10.554  1.00  0.00     0.010 C 
BRANCH  27  29
HETATM   29  C6  UNL     1      -3.543  51.397  -9.925  1.00  0.00     0.007 C 
BRANCH  29  30
HETATM   30  C5  UNL     1      -3.300  50.113 -10.741  1.00  0.00     0.036 C 
BRANCH  30  31
HETATM   31  C4  UNL     1      -3.837  50.162 -12.184  1.00  0.00     0.146 C 
BRANCH  31  32
HETATM   32  C2  UNL     1      -2.837  50.557 -13.258  1.00  0.00    -0.065 C 
HETATM   33  C1  UNL     1      -3.032  51.506 -14.191  1.00  0.00     0.016 C 
HETATM   34  C3  UNL     1      -1.542  49.782 -13.225  1.00  0.00     0.045 C 
ENDBRANCH  31  32
BRANCH  31  35
HETATM   35  O1  UNL     1      -4.337  48.880 -12.553  1.00  0.00    -0.391 OA
HETATM   36  H7  UNL     1      -3.563  48.294 -12.639  1.00  0.00     0.210 HD
ENDBRANCH  31  35
ENDBRANCH  30  31
ENDBRANCH  29  30
ENDBRANCH  27  29
ENDBRANCH   1  27
TORSDOF 6
ENDMDL
MODEL 5
REMARK minimizedAffinity -6.85827398
REMARK CNNscore 0.333847076
REMARK CNNaffinity 6.15335035
REMARK  6 active torsions:
REMARK  status: ('A' for Active; 'I' for Inactive)
REMARK    1  A    between atoms: C2_2  and  C4_4 
REMARK    2  A    between atoms: C4_4  and  O1_5 
REMARK    3  A    between atoms: C4_4  and  C5_6 
REMARK    4  A    between atoms: C5_6  and  C6_7 
REMARK    5  A    between atoms: C6_7  and  C7_8 
REMARK    6  A    between atoms: C7_8  and  C9_10 
ROOT
HETATM    1  C9  UNL     1       0.218  54.300  -8.568  1.00  0.00    -0.001 C 
HETATM    2  C10 UNL     1       0.112  53.107  -7.578  1.00  0.00     0.007 C 
HETATM    3  C11 UNL     1       1.487  52.948  -6.899  1.00  0.00     0.024 C 
HETATM    4  C12 UNL     1       2.291  54.129  -7.388  1.00  0.00     0.092 C 
HETATM    5  C13 UNL     1       2.098  55.370  -6.475  1.00  0.00     0.272 C 
HETATM    6  O2  UNL     1       1.144  55.636  -5.764  1.00  0.00    -0.264 OA
HETATM    7  O3  UNL     1       3.217  56.175  -6.588  1.00  0.00    -0.305 OA
HETATM    8  C14 UNL     1       4.153  55.549  -7.497  1.00  0.00     0.113 C 
HETATM    9  C15 UNL     1       3.766  56.031  -8.932  1.00  0.00     0.043 C 
HETATM   10  C16 UNL     1       2.261  55.827  -9.265  1.00  0.00     0.014 C 
HETATM   11  C17 UNL     1       1.752  54.428  -8.830  1.00  0.00    -0.020 C 
HETATM   12  C18 UNL     1       2.228  53.399  -9.879  1.00  0.00     0.017 C 
HETATM   13  C19 UNL     1       3.769  54.106  -7.355  1.00  0.00     0.137 A 
HETATM   14  O4  UNL     1       4.529  53.078  -7.960  1.00  0.00    -0.364 OA
HETATM   15  C20 UNL     1       4.573  53.136  -6.519  1.00  0.00     0.162 A 
HETATM   16  C21 UNL     1       5.886  53.563  -5.940  1.00  0.00     0.042 C 
HETATM   17  C22 UNL     1       5.892  55.088  -5.690  1.00  0.00     0.014 C 
HETATM   18  C23 UNL     1       7.070  55.601  -4.795  1.00  0.00     0.018 C 
HETATM   19  C24 UNL     1       6.915  55.050  -3.360  1.00  0.00     0.023 C 
HETATM   20  C25 UNL     1       8.470  55.232  -5.302  1.00  0.00     0.023 C 
HETATM   21  C26 UNL     1       6.995  57.130  -4.674  1.00  0.00     0.135 C 
HETATM   22  O5  UNL     1       7.844  57.778  -4.057  1.00  0.00    -0.297 OA
HETATM   23  C27 UNL     1       5.823  57.817  -5.329  1.00  0.00     0.080 C 
HETATM   24  C28 UNL     1       5.795  57.418  -6.796  1.00  0.00     0.020 C 
HETATM   25  C29 UNL     1       5.626  55.881  -7.037  1.00  0.00    -0.004 C 
HETATM   26  C30 UNL     1       6.614  55.495  -8.171  1.00  0.00     0.019 C 
ENDROOT
BRANCH   1  27
HETATM   27  C7  UNL     1      -0.846  54.269  -9.708  1.00  0.00    -0.014 C 
HETATM   28  C8  UNL     1      -1.294  55.623 -10.273  1.00  0.00     0.010 C 
BRANCH  27  29
HETATM   29  C6  UNL     1      -2.064  53.406  -9.314  1.00  0.00     0.007 C 
BRANCH  29  30
HETATM   30  C5  UNL     1      -3.345  53.570 -10.153  1.00  0.00     0.036 C 
BRANCH  30  31
HETATM   31  C4  UNL     1      -3.326  52.826 -11.502  1.00  0.00     0.146 C 
BRANCH  31  32
HETATM   32  C2  UNL     1      -3.826  51.391 -11.483  1.00  0.00    -0.065 C 
HETATM   33  C1  UNL     1      -4.621  50.857 -10.538  1.00  0.00     0.016 C 
HETATM   34  C3  UNL     1      -3.356  50.547 -12.642  1.00  0.00     0.045 C 
ENDBRANCH  31  32
BRANCH  31  35
HETATM   35  O1  UNL     1      -4.136  53.522 -12.444  1.00  0.00    -0.391 OA
HETATM   36  H7  UNL     1      -5.060  53.405 -12.156  1.00  0.00     0.210 HD
ENDBRANCH  31  35
ENDBRANCH  30  31
ENDBRANCH  29  30
ENDBRANCH  27  29
ENDBRANCH   1  27
TORSDOF 6
ENDMDL
MODEL 6
REMARK minimizedAffinity -9.09197903
REMARK CNNscore 0.272557497
REMARK CNNaffinity 6.89622307
REMARK  6 active torsions:
REMARK  status: ('A' for Active; 'I' for Inactive)
REMARK    1  A    between atoms: C2_2  and  C4_4 
REMARK    2  A    between atoms: C4_4  and  O1_5 
REMARK    3  A    between atoms: C4_4  and  C5_6 
REMARK    4  A    between atoms: C5_6  and  C6_7 
REMARK    5  A    between atoms: C6_7  and  C7_8 
REMARK    6  A    between atoms: C7_8  and  C9_10 
ROOT
HETATM    1  C9  UNL     1      -2.068  51.070 -22.586  1.00  0.00    -0.001 C 
HETATM    2  C10 UNL     1      -3.098  52.190 -22.900  1.00  0.00     0.007 C 
HETATM    3  C11 UNL     1      -4.494  51.650 -22.529  1.00  0.00     0.024 C 
HETATM    4  C12 UNL     1      -4.224  50.315 -21.875  1.00  0.00     0.092 C 
HETATM    5  C13 UNL     1      -3.987  50.465 -20.347  1.00  0.00     0.272 C 
HETATM    6  O2  UNL     1      -3.581  51.444 -19.744  1.00  0.00    -0.264 OA
HETATM    7  O3  UNL     1      -4.318  49.270 -19.734  1.00  0.00    -0.305 OA
HETATM    8  C14 UNL     1      -4.777  48.339 -20.743  1.00  0.00     0.113 C 
HETATM    9  C15 UNL     1      -3.505  47.611 -21.286  1.00  0.00     0.043 C 
HETATM   10  C16 UNL     1      -2.380  48.587 -21.730  1.00  0.00     0.014 C 
HETATM   11  C17 UNL     1      -2.930  49.768 -22.572  1.00  0.00    -0.020 C 
HETATM   12  C18 UNL     1      -3.188  49.253 -24.005  1.00  0.00     0.017 C 
HETATM   13  C19 UNL     1      -5.278  49.282 -21.798  1.00  0.00     0.137 A 
HETATM   14  O4  UNL     1      -5.971  48.813 -22.937  1.00  0.00    -0.364 OA
HETATM   15  C20 UNL     1      -6.750  49.571 -21.988  1.00  0.00     0.162 A 
HETATM   16  C21 UNL     1      -7.767  48.780 -21.226  1.00  0.00     0.042 C 
HETATM   17  C22 UNL     1      -7.177  48.296 -19.883  1.00  0.00     0.014 C 
HETATM   18  C23 UNL     1      -8.231  47.747 -18.864  1.00  0.00     0.018 C 
HETATM   19  C24 UNL     1      -9.160  48.892 -18.402  1.00  0.00     0.023 C 
HETATM   20  C25 UNL     1      -9.105  46.605 -19.397  1.00  0.00     0.023 C 
HETATM   21  C26 UNL     1      -7.512  47.247 -17.601  1.00  0.00     0.135 C 
HETATM   22  O5  UNL     1      -8.124  46.722 -16.668  1.00  0.00    -0.297 OA
HETATM   23  C27 UNL     1      -6.018  47.440 -17.536  1.00  0.00     0.080 C 
HETATM   24  C28 UNL     1      -5.400  46.795 -18.767  1.00  0.00     0.020 C 
HETATM   25  C29 UNL     1      -5.888  47.405 -20.122  1.00  0.00    -0.004 C 
HETATM   26  C30 UNL     1      -6.147  46.213 -21.082  1.00  0.00     0.019 C 
ENDROOT
BRANCH   1  27
HETATM   27  C7  UNL     1      -0.731  51.203 -23.377  1.00  0.00    -0.014 C 
HETATM   28  C8  UNL     1       0.264  52.260 -22.881  1.00  0.00     0.010 C 
BRANCH  27  29
HETATM   29  C6  UNL     1      -0.989  51.356 -24.891  1.00  0.00     0.007 C 
BRANCH  29  30
HETATM   30  C5  UNL     1      -0.888  52.775 -25.484  1.00  0.00     0.036 C 
BRANCH  30  31
HETATM   31  C4  UNL     1       0.493  53.127 -26.069  1.00  0.00     0.146 C 
BRANCH  31  32
HETATM   32  C2  UNL     1       1.109  52.096 -27.000  1.00  0.00    -0.065 C 
HETATM   33  C1  UNL     1       0.607  51.726 -28.192  1.00  0.00     0.016 C 
HETATM   34  C3  UNL     1       2.383  51.469 -26.488  1.00  0.00     0.045 C 
ENDBRANCH  31  32
BRANCH  31  35
HETATM   35  O1  UNL     1       0.403  54.338 -26.813  1.00  0.00    -0.391 OA
HETATM   36  H7  UNL     1      -0.115  54.135 -27.612  1.00  0.00     0.210 HD
ENDBRANCH  31  35
ENDBRANCH  30  31
ENDBRANCH  29  30
ENDBRANCH  27  29
ENDBRANCH   1  27
TORSDOF 6
ENDMDL
MODEL 7
REMARK minimizedAffinity -8.75334263
REMARK CNNscore 0.201850846
REMARK CNNaffinity 6.75400496
REMARK  6 active torsions:
REMARK  status: ('A' for Active; 'I' for Inactive)
REMARK    1  A    between atoms: C2_2  and  C4_4 
REMARK    2  A    between atoms: C4_4  and  O1_5 
REMARK    3  A    between atoms: C4_4  and  C5_6 
REMARK    4  A    between atoms: C5_6  and  C6_7 
REMARK    5  A    between atoms: C6_7  and  C7_8 
REMARK    6  A    between atoms: C7_8  and  C9_10 
ROOT
HETATM    1  C9  UNL     1      -3.361  51.270 -23.912  1.00  0.00    -0.001 C 
HETATM    2  C10 UNL     1      -4.868  51.640 -24.009  1.00  0.00     0.007 C 
HETATM    3  C11 UNL     1      -5.648  50.619 -23.157  1.00  0.00     0.024 C 
HETATM    4  C12 UNL     1      -4.580  49.798 -22.474  1.00  0.00     0.092 C 
HETATM    5  C13 UNL     1      -4.142  50.435 -21.127  1.00  0.00     0.272 C 
HETATM    6  O2  UNL     1      -4.199  51.608 -20.799  1.00  0.00    -0.264 OA
HETATM    7  O3  UNL     1      -3.649  49.434 -20.310  1.00  0.00    -0.305 OA
HETATM    8  C14 UNL     1      -3.746  48.170 -21.008  1.00  0.00     0.113 C 
HETATM    9  C15 UNL     1      -2.431  48.021 -21.839  1.00  0.00     0.043 C 
HETATM   10  C16 UNL     1      -2.119  49.260 -22.725  1.00  0.00     0.014 C 
HETATM   11  C17 UNL     1      -3.376  49.771 -23.477  1.00  0.00    -0.020 C 
HETATM   12  C18 UNL     1      -3.617  48.841 -24.687  1.00  0.00     0.017 C 
HETATM   13  C19 UNL     1      -4.881  48.449 -21.950  1.00  0.00     0.137 A 
HETATM   14  O4  UNL     1      -5.442  47.427 -22.750  1.00  0.00    -0.364 OA
HETATM   15  C20 UNL     1      -6.283  47.942 -21.696  1.00  0.00     0.162 A 
HETATM   16  C21 UNL     1      -6.537  46.993 -20.566  1.00  0.00     0.042 C 
HETATM   17  C22 UNL     1      -5.511  47.219 -19.433  1.00  0.00     0.014 C 
HETATM   18  C23 UNL     1      -5.869  46.523 -18.077  1.00  0.00     0.018 C 
HETATM   19  C24 UNL     1      -7.141  47.164 -17.479  1.00  0.00     0.023 C 
HETATM   20  C25 UNL     1      -6.094  45.008 -18.172  1.00  0.00     0.023 C 
HETATM   21  C26 UNL     1      -4.746  46.774 -17.059  1.00  0.00     0.135 C 
HETATM   22  O5  UNL     1      -4.772  46.286 -15.926  1.00  0.00    -0.297 OA
HETATM   23  C27 UNL     1      -3.609  47.664 -17.493  1.00  0.00     0.080 C 
HETATM   24  C28 UNL     1      -3.020  47.093 -18.774  1.00  0.00     0.020 C 
HETATM   25  C29 UNL     1      -4.031  47.020 -19.965  1.00  0.00    -0.004 C 
HETATM   26  C30 UNL     1      -3.815  45.644 -20.651  1.00  0.00     0.019 C 
ENDROOT
BRANCH   1  27
HETATM   27  C7  UNL     1      -2.502  51.812 -25.095  1.00  0.00    -0.014 C 
HETATM   28  C8  UNL     1      -3.058  51.598 -26.509  1.00  0.00     0.010 C 
BRANCH  27  29
HETATM   29  C6  UNL     1      -1.042  51.322 -24.998  1.00  0.00     0.007 C 
BRANCH  29  30
HETATM   30  C5  UNL     1       0.035  52.373 -24.667  1.00  0.00     0.036 C 
BRANCH  30  31
HETATM   31  C4  UNL     1       0.667  53.050 -25.898  1.00  0.00     0.146 C 
BRANCH  31  32
HETATM   32  C2  UNL     1       1.201  52.119 -26.974  1.00  0.00    -0.065 C 
HETATM   33  C1  UNL     1       0.591  51.850 -28.142  1.00  0.00     0.016 C 
HETATM   34  C3  UNL     1       2.523  51.472 -26.643  1.00  0.00     0.045 C 
ENDBRANCH  31  32
BRANCH  31  35
HETATM   35  O1  UNL     1      -0.295  53.887 -26.531  1.00  0.00    -0.391 OA
HETATM   36  H7  UNL     1      -0.955  53.295 -26.936  1.00  0.00     0.210 HD
ENDBRANCH  31  35
ENDBRANCH  30  31
ENDBRANCH  29  30
ENDBRANCH  27  29
ENDBRANCH   1  27
TORSDOF 6
ENDMDL
MODEL 8
REMARK minimizedAffinity -8.44068527
REMARK CNNscore 0.163543582
REMARK CNNaffinity 6.24225283
REMARK  6 active torsions:
REMARK  status: ('A' for Active; 'I' for Inactive)
REMARK    1  A    between atoms: C2_2  and  C4_4 
REMARK    2  A    between atoms: C4_4  and  O1_5 
REMARK    3  A    between atoms: C4_4  and  C5_6 
REMARK    4  A    between atoms: C5_6  and  C6_7 
REMARK    5  A    between atoms: C6_7  and  C7_8 
REMARK    6  A    between atoms: C7_8  and  C9_10 
ROOT
HETATM    1  C9  UNL     1      -1.655  50.263 -16.200  1.00  0.00    -0.001 C 
HETATM    2  C10 UNL     1      -0.155  50.130 -16.589  1.00  0.00     0.007 C 
HETATM    3  C11 UNL     1      -0.098  49.791 -18.092  1.00  0.00     0.024 C 
HETATM    4  C12 UNL     1      -1.531  49.891 -18.559  1.00  0.00     0.092 C 
HETATM    5  C13 UNL     1      -1.888  51.337 -19.003  1.00  0.00     0.272 C 
HETATM    6  O2  UNL     1      -1.374  52.381 -18.638  1.00  0.00    -0.264 OA
HETATM    7  O3  UNL     1      -2.925  51.271 -19.915  1.00  0.00    -0.305 OA
HETATM    8  C14 UNL     1      -3.273  49.882 -20.128  1.00  0.00     0.113 C 
HETATM    9  C15 UNL     1      -4.326  49.516 -19.033  1.00  0.00     0.043 C 
HETATM   10  C16 UNL     1      -3.870  49.886 -17.593  1.00  0.00     0.014 C 
HETATM   11  C17 UNL     1      -2.399  49.474 -17.323  1.00  0.00    -0.020 C 
HETATM   12  C18 UNL     1      -2.372  47.954 -17.050  1.00  0.00     0.017 C 
HETATM   13  C19 UNL     1      -1.976  49.206 -19.792  1.00  0.00     0.137 A 
HETATM   14  O4  UNL     1      -1.789  47.821 -20.003  1.00  0.00    -0.364 OA
HETATM   15  C20 UNL     1      -1.029  48.701 -20.858  1.00  0.00     0.162 A 
HETATM   16  C21 UNL     1      -1.452  48.714 -22.294  1.00  0.00     0.042 C 
HETATM   17  C22 UNL     1      -2.465  49.853 -22.546  1.00  0.00     0.014 C 
HETATM   18  C23 UNL     1      -2.728  50.174 -24.056  1.00  0.00     0.018 C 
HETATM   19  C24 UNL     1      -1.446  50.747 -24.700  1.00  0.00     0.023 C 
HETATM   20  C25 UNL     1      -3.193  48.977 -24.895  1.00  0.00     0.023 C 
HETATM   21  C26 UNL     1      -3.791  51.276 -24.169  1.00  0.00     0.135 C 
HETATM   22  O5  UNL     1      -4.207  51.672 -25.261  1.00  0.00    -0.297 OA
HETATM   23  C27 UNL     1      -4.300  51.878 -22.883  1.00  0.00     0.080 C 
HETATM   24  C28 UNL     1      -4.822  50.752 -22.004  1.00  0.00     0.020 C 
HETATM   25  C29 UNL     1      -3.742  49.686 -21.622  1.00  0.00    -0.004 C 
HETATM   26  C30 UNL     1      -4.415  48.295 -21.767  1.00  0.00     0.019 C 
ENDROOT
BRANCH   1  27
HETATM   27  C7  UNL     1      -1.932  50.057 -14.679  1.00  0.00    -0.014 C 
HETATM   28  C8  UNL     1      -2.055  48.609 -14.188  1.00  0.00     0.010 C 
BRANCH  27  29
HETATM   29  C6  UNL     1      -3.134  50.903 -14.209  1.00  0.00     0.007 C 
BRANCH  29  30
HETATM   30  C5  UNL     1      -2.834  52.116 -13.308  1.00  0.00     0.036 C 
BRANCH  30  31
HETATM   31  C4  UNL     1      -4.068  52.711 -12.604  1.00  0.00     0.146 C 
BRANCH  31  32
HETATM   32  C2  UNL     1      -3.964  52.880 -11.098  1.00  0.00    -0.065 C 
HETATM   33  C1  UNL     1      -3.758  54.046 -10.459  1.00  0.00     0.016 C 
HETATM   34  C3  UNL     1      -4.107  51.601 -10.311  1.00  0.00     0.045 C 
ENDBRANCH  31  32
BRANCH  31  35
HETATM   35  O1  UNL     1      -4.346  54.002 -13.136  1.00  0.00    -0.391 OA
HETATM   36  H7  UNL     1      -3.631  54.588 -12.831  1.00  0.00     0.210 HD
ENDBRANCH  31  35
ENDBRANCH  30  31
ENDBRANCH  29  30
ENDBRANCH  27  29
ENDBRANCH   1  27
TORSDOF 6
ENDMDL
MODEL 9
REMARK minimizedAffinity -6.60979462
REMARK CNNscore 0.161326796
REMARK CNNaffinity 6.05631304
REMARK  6 active torsions:
REMARK  status: ('A' for Active; 'I' for Inactive)
REMARK    1  A    between atoms: C2_2  and  C4_4 
REMARK    2  A    between atoms: C4_4  and  O1_5 
REMARK    3  A    between atoms: C4_4  and  C5_6 
REMARK    4  A    between atoms: C5_6  and  C6_7 
REMARK    5  A    between atoms: C6_7  and  C7_8 
REMARK    6  A    between atoms: C7_8  and  C9_10 
ROOT
HETATM    1  C9  UNL     1      -2.929  51.093 -10.752  1.00  0.00    -0.001 C 
HETATM    2  C10 UNL     1      -3.630  52.479 -10.713  1.00  0.00     0.007 C 
HETATM    3  C11 UNL     1      -2.631  53.484 -10.107  1.00  0.00     0.024 C 
HETATM    4  C12 UNL     1      -1.347  52.702  -9.960  1.00  0.00     0.092 C 
HETATM    5  C13 UNL     1      -0.482  52.775 -11.248  1.00  0.00     0.272 C 
HETATM    6  O2  UNL     1      -0.857  52.970 -12.392  1.00  0.00    -0.264 OA
HETATM    7  O3  UNL     1       0.841  52.575 -10.899  1.00  0.00    -0.305 OA
HETATM    8  C14 UNL     1       0.923  52.394  -9.465  1.00  0.00     0.113 C 
HETATM    9  C15 UNL     1       0.711  50.869  -9.198  1.00  0.00     0.043 C 
HETATM   10  C16 UNL     1      -0.563  50.296  -9.879  1.00  0.00     0.014 C 
HETATM   11  C17 UNL     1      -1.793  51.223  -9.690  1.00  0.00    -0.020 C 
HETATM   12  C18 UNL     1      -2.337  51.008  -8.260  1.00  0.00     0.017 C 
HETATM   13  C19 UNL     1      -0.299  53.136  -9.011  1.00  0.00     0.137 A 
HETATM   14  O4  UNL     1      -0.559  53.360  -7.639  1.00  0.00    -0.364 OA
HETATM   15  C20 UNL     1      -0.227  54.526  -8.422  1.00  0.00     0.162 A 
HETATM   16  C21 UNL     1       1.106  55.137  -8.118  1.00  0.00     0.042 C 
HETATM   17  C22 UNL     1       2.185  54.575  -9.071  1.00  0.00     0.014 C 
HETATM   18  C23 UNL     1       3.535  55.367  -9.072  1.00  0.00     0.018 C 
HETATM   19  C24 UNL     1       3.313  56.782  -9.651  1.00  0.00     0.023 C 
HETATM   20  C25 UNL     1       4.196  55.510  -7.695  1.00  0.00     0.023 C 
HETATM   21  C26 UNL     1       4.535  54.675 -10.010  1.00  0.00     0.135 C 
HETATM   22  O5  UNL     1       5.692  55.082 -10.146  1.00  0.00    -0.297 OA
HETATM   23  C27 UNL     1       4.041  53.478 -10.783  1.00  0.00     0.080 C 
HETATM   24  C28 UNL     1       3.486  52.467  -9.792  1.00  0.00     0.020 C 
HETATM   25  C29 UNL     1       2.285  52.998  -8.942  1.00  0.00    -0.004 C 
HETATM   26  C30 UNL     1       2.525  52.526  -7.483  1.00  0.00     0.019 C 
ENDROOT
BRANCH   1  27
HETATM   27  C7  UNL     1      -3.917  49.888 -10.806  1.00  0.00    -0.014 C 
HETATM   28  C8  UNL     1      -3.855  48.996 -12.053  1.00  0.00     0.010 C 
BRANCH  27  29
HETATM   29  C6  UNL     1      -5.366  50.339 -10.523  1.00  0.00     0.007 C 
BRANCH  29  30
HETATM   30  C5  UNL     1      -6.362  49.261 -10.054  1.00  0.00     0.036 C 
BRANCH  30  31
HETATM   31  C4  UNL     1      -7.806  49.762  -9.867  1.00  0.00     0.146 C 
BRANCH  31  32
HETATM   32  C2  UNL     1      -8.905  48.847 -10.381  1.00  0.00    -0.065 C 
HETATM   33  C1  UNL     1      -9.022  48.408 -11.647  1.00  0.00     0.016 C 
HETATM   34  C3  UNL     1      -9.919  48.439  -9.341  1.00  0.00     0.045 C 
ENDBRANCH  31  32
BRANCH  31  35
HETATM   35  O1  UNL     1      -8.067  49.964  -8.482  1.00  0.00    -0.391 OA
HETATM   36  H7  UNL     1      -8.100  49.080  -8.073  1.00  0.00     0.210 HD
ENDBRANCH  31  35
ENDBRANCH  30  31
ENDBRANCH  29  30
ENDBRANCH  27  29
ENDBRANCH   1  27
TORSDOF 6
ENDMDL
