MODEL 1
REMARK minimizedAffinity -8.27049637
REMARK CNNscore 0.265923589
REMARK CNNaffinity 8.07163429
REMARK  9 active torsions:
REMARK  status: ('A' for Active; 'I' for Inactive)
REMARK    1  A    between atoms: C13_13  and  S1_14 
REMARK    2  A    between atoms: C25_30  and  O5_31 
REMARK    3  A    between atoms: C31_37  and  C32_38 
REMARK    4  A    between atoms: C32_38  and  O6_39 
REMARK    5  A    between atoms: C40_47  and  C41_48 
REMARK    6  A    between atoms: C40_47  and  N1_57 
REMARK    7  A    between atoms: C41_48  and  C42_49 
REMARK    8  A    between atoms: C42_49  and  C43_50 
REMARK    9  A    between atoms: C43_50  and  O7_51 
REMARK       I    between atoms: C49_59  and  N2_60 
REMARK       I    between atoms: C49_59  and  N3_61 
ROOT
HETATM    1  C1  UNL     1      -3.729   3.698  13.775  1.00  0.00     0.010 C 
HETATM    2  C2  UNL     1      -3.559   4.920  12.862  1.00  0.00    -0.010 C 
HETATM    3  C3  UNL     1      -4.940   5.642  12.700  1.00  0.00     0.009 C 
HETATM    4  C4  UNL     1      -4.977   7.124  13.121  1.00  0.00     0.039 C 
HETATM    5  C5  UNL     1      -4.205   7.353  14.394  1.00  0.00    -0.049 C 
HETATM    6  C6  UNL     1      -4.475   8.400  15.274  1.00  0.00     0.044 C 
HETATM    7  C7  UNL     1      -3.595   8.613  16.340  1.00  0.00     0.072 C 
HETATM    8  C8  UNL     1      -2.703   7.623  16.738  1.00  0.00     0.037 C 
HETATM    9  C9  UNL     1      -2.414   6.602  15.844  1.00  0.00     0.011 C 
HETATM   10  C10 UNL     1      -3.044   6.591  14.594  1.00  0.00    -0.047 C 
HETATM   11  C11 UNL     1      -2.484   5.908  13.347  1.00  0.00     0.024 C 
HETATM   12  C12 UNL     1      -1.008   5.493  13.510  1.00  0.00     0.033 C 
HETATM   13  C13 UNL     1      -0.085   5.378  12.270  1.00  0.00     0.139 C 
HETATM   14  C14 UNL     1      -0.062   6.523  11.169  1.00  0.00     0.038 C 
HETATM   15  C15 UNL     1       1.135   6.305  10.211  1.00  0.00    -0.014 C 
HETATM   16  C16 UNL     1       1.715   7.268   9.465  1.00  0.00    -0.050 C 
HETATM   17  C17 UNL     1       1.073   8.609   9.411  1.00  0.00     0.042 C 
HETATM   18  C18 UNL     1       0.996   8.987  10.879  1.00  0.00     0.001 C 
HETATM   19  C19 UNL     1       2.397   8.821  11.561  1.00  0.00     0.038 C 
HETATM   20  C20 UNL     1       3.621   9.119  10.639  1.00  0.00     0.130 C 
HETATM   21  O4  UNL     1       3.992   8.175   9.607  1.00  0.00    -0.371 OA
HETATM   22  C21 UNL     1       3.124   7.243   8.933  1.00  0.00     0.185 C 
HETATM   23  C22 UNL     1       3.753   5.843   8.843  1.00  0.00    -0.006 A 
HETATM   24  C23 UNL     1       3.373   5.028   7.754  1.00  0.00     0.014 A 
HETATM   25  C24 UNL     1       3.803   3.705   7.655  1.00  0.00     0.037 A 
HETATM   26  C25 UNL     1       4.615   3.171   8.647  1.00  0.00     0.067 A 
HETATM   27  C26 UNL     1       5.020   3.947   9.727  1.00  0.00     0.057 A 
HETATM   28  C27 UNL     1       4.597   5.274   9.828  1.00  0.00     0.029 A 
HETATM   29  C28 UNL     1       5.029   6.034  10.961  1.00  0.00    -0.066 C 
HETATM   30  C29 UNL     1       5.260   6.910  11.749  1.00  0.00    -0.101 C 
HETATM   31  C30 UNL     1       5.298   8.199  12.443  1.00  0.00     0.103 C 
HETATM   32  C31 UNL     1       4.935   9.358  11.472  1.00  0.00     0.049 C 
HETATM   33  C33 UNL     1      -0.148   8.101  11.515  1.00  0.00     0.030 C 
HETATM   34  C34 UNL     1      -0.599   8.745  12.818  1.00  0.00    -0.057 A 
HETATM   35  C35 UNL     1       0.120   8.703  14.013  1.00  0.00     0.005 A 
HETATM   36  C36 UNL     1      -0.362   9.343  15.177  1.00  0.00     0.010 A 
HETATM   37  C37 UNL     1      -1.575  10.058  15.176  1.00  0.00    -0.007 A 
HETATM   38  C38 UNL     1      -2.224  10.197  13.937  1.00  0.00     0.096 A 
HETATM   39  C39 UNL     1      -1.754   9.548  12.792  1.00  0.00     0.092 A 
HETATM   40  C40 UNL     1      -2.289  10.649  16.452  1.00  0.00     0.168 C 
HETATM   41  O8  UNL     1      -3.502   9.881  16.849  1.00  0.00    -0.316 OA
HETATM   42 NA1  UNL     1      -0.394   8.644  13.830  1.00  0.00    -0.355 Na
ATOM     43 1HA1 UNL     1       0.582   8.402  14.003  1.00  0.00     0.103 HD
ATOM     44 2HA1 UNL     1       0.070   7.790  14.139  1.00  0.00     0.103 HD
ENDROOT
BRANCH  40  45
HETATM   45  C41 UNL     1      -1.393  10.670  17.737  1.00  0.00     0.070 C 
BRANCH  45  46
HETATM   46  C42 UNL     1      -0.032  11.402  17.687  1.00  0.00     0.043 C 
BRANCH  46  47
HETATM   47  C43 UNL     1       1.096  11.124  18.712  1.00  0.00     0.058 C 
HETATM   48  C44 UNL     1       0.608  10.777  20.123  1.00  0.00     0.038 C 
HETATM   49  C45 UNL     1       1.756  10.377  21.058  1.00  0.00     0.003 C 
HETATM   50  C46 UNL     1       2.978  11.286  20.957  1.00  0.00     0.000 C 
HETATM   51  C47 UNL     1       2.745  12.527  20.106  1.00  0.00     0.003 C 
HETATM   52  C48 UNL     1       2.202  12.197  18.716  1.00  0.00     0.038 C 
BRANCH  47  53
HETATM   53  O7  UNL     1       1.743   9.911  18.230  1.00  0.00    -0.390 OA
HETATM   54  H44 UNL     1       1.069   9.209  18.224  1.00  0.00     0.210 HD
ENDBRANCH  47  53
ENDBRANCH  46  47
ENDBRANCH  45  46
ENDBRANCH  40  45
BRANCH  40  55
HETATM   55  N1  UNL     1      -2.658  12.054  16.159  1.00  0.00    -0.336 N 
HETATM   56  C49 UNL     1      -3.829  12.479  15.903  1.00  0.00     0.124 C 
HETATM   57  N2  UNL     1      -4.007  13.800  15.675  1.00  0.00    -0.279 NA
HETATM   58  N3  UNL     1      -5.022  11.855  15.802  1.00  0.00    -0.279 NA
HETATM   59  H55 UNL     1      -3.101  14.263  15.622  1.00  0.00     0.126 HD
HETATM   60  H56 UNL     1      -4.537  13.974  14.831  1.00  0.00     0.126 HD
HETATM   61  H57 UNL     1      -5.760  12.438  16.179  1.00  0.00     0.126 HD
HETATM   62  H58 UNL     1      -5.053  10.960  16.272  1.00  0.00     0.126 HD
ATOM     63  H1  UNL     1      -1.905  12.742  16.162  1.00  0.00     0.165 HD
ENDBRANCH  40  55
BRANCH  13  64
HETATM   64  S1  UNL     1      -0.335   3.699  11.497  1.00  0.00     0.106 S 
HETATM   65  O1  UNL     1      -1.368   3.903  10.486  1.00  0.00    -0.595 OA
HETATM   66  O2  UNL     1       0.956   3.360  10.900  1.00  0.00    -0.595 OA
HETATM   67  O3  UNL     1      -0.726   2.842  12.615  1.00  0.00    -0.595 OA
ENDBRANCH  13  64
BRANCH  32  68
HETATM   68  C32 UNL     1       4.875  10.681  12.245  1.00  0.00     0.172 C 
BRANCH  68  69
HETATM   69  O6  UNL     1       5.622  11.675  11.552  1.00  0.00    -0.400 OA
HETATM   70  H34 UNL     1       5.580  12.488  12.084  1.00  0.00     0.209 HD
ENDBRANCH  68  69
ENDBRANCH  32  68
BRANCH  26  71
HETATM   71  O5  UNL     1       4.981   1.861   8.541  1.00  0.00    -0.361 OA
HETATM   72  H27 UNL     1       5.191   1.552   9.442  1.00  0.00     0.217 HD
ENDBRANCH  26  71
TORSDOF 9
ENDMDL
MODEL 2
REMARK minimizedAffinity -9.14807796
REMARK CNNscore 0.141845778
REMARK CNNaffinity 7.04471588
REMARK  9 active torsions:
REMARK  status: ('A' for Active; 'I' for Inactive)
REMARK    1  A    between atoms: C13_13  and  S1_14 
REMARK    2  A    between atoms: C25_30  and  O5_31 
REMARK    3  A    between atoms: C31_37  and  C32_38 
REMARK    4  A    between atoms: C32_38  and  O6_39 
REMARK    5  A    between atoms: C40_47  and  C41_48 
REMARK    6  A    between atoms: C40_47  and  N1_57 
REMARK    7  A    between atoms: C41_48  and  C42_49 
REMARK    8  A    between atoms: C42_49  and  C43_50 
REMARK    9  A    between atoms: C43_50  and  O7_51 
REMARK       I    between atoms: C49_59  and  N2_60 
REMARK       I    between atoms: C49_59  and  N3_61 
ROOT
HETATM    1  C1  UNL     1      -3.892  15.770  18.645  1.00  0.00     0.010 C 
HETATM    2  C2  UNL     1      -3.294  14.560  19.376  1.00  0.00    -0.010 C 
HETATM    3  C3  UNL     1      -4.426  13.513  19.656  1.00  0.00     0.009 C 
HETATM    4  C4  UNL     1      -4.195  12.104  19.077  1.00  0.00     0.039 C 
HETATM    5  C5  UNL     1      -3.621  12.168  17.686  1.00  0.00    -0.049 C 
HETATM    6  C6  UNL     1      -3.792  11.158  16.741  1.00  0.00     0.044 C 
HETATM    7  C7  UNL     1      -3.083  11.249  15.538  1.00  0.00     0.072 C 
HETATM    8  C8  UNL     1      -2.522  12.453  15.130  1.00  0.00     0.037 C 
HETATM    9  C9  UNL     1      -2.324  13.442  16.083  1.00  0.00     0.011 C 
HETATM   10  C10 UNL     1      -2.716  13.203  17.405  1.00  0.00    -0.047 C 
HETATM   11  C11 UNL     1      -2.122  13.904  18.626  1.00  0.00     0.024 C 
HETATM   12  C12 UNL     1      -0.829  14.677  18.296  1.00  0.00     0.033 C 
HETATM   13  C13 UNL     1       0.241  14.917  19.390  1.00  0.00     0.139 C 
HETATM   14  C14 UNL     1       0.714  13.732  20.336  1.00  0.00     0.038 C 
HETATM   15  C15 UNL     1       1.975  14.160  21.124  1.00  0.00    -0.014 C 
HETATM   16  C16 UNL     1       2.879  13.312  21.660  1.00  0.00    -0.050 C 
HETATM   17  C17 UNL     1       2.577  11.856  21.654  1.00  0.00     0.042 C 
HETATM   18  C18 UNL     1       2.338  11.584  20.179  1.00  0.00     0.001 C 
HETATM   19  C19 UNL     1       3.526  12.138  19.321  1.00  0.00     0.038 C 
HETATM   20  C20 UNL     1       4.926  12.078  20.011  1.00  0.00     0.130 C 
HETATM   21  O4  UNL     1       5.243  13.001  21.079  1.00  0.00    -0.371 OA
HETATM   22  C21 UNL     1       4.314  13.640  21.977  1.00  0.00     0.185 C 
HETATM   23  C22 UNL     1       4.614  15.139  22.134  1.00  0.00    -0.006 A 
HETATM   24  C23 UNL     1       4.250  15.750  23.354  1.00  0.00     0.014 A 
HETATM   25  C24 UNL     1       4.378  17.127  23.540  1.00  0.00     0.037 A 
HETATM   26  C25 UNL     1       4.864  17.917  22.507  1.00  0.00     0.067 A 
HETATM   27  C26 UNL     1       5.245  17.349  21.297  1.00  0.00     0.057 A 
HETATM   28  C27 UNL     1       5.124  15.971  21.107  1.00  0.00     0.029 A 
HETATM   29  C28 UNL     1       5.518  15.428  19.843  1.00  0.00    -0.066 C 
HETATM   30  C29 UNL     1       5.803  14.699  18.933  1.00  0.00    -0.101 C 
HETATM   31  C30 UNL     1       6.014  13.514  18.097  1.00  0.00     0.103 C 
HETATM   32  C31 UNL     1       6.097  12.231  18.971  1.00  0.00     0.049 C 
HETATM   33  C33 UNL     1       0.931  12.211  19.826  1.00  0.00     0.030 C 
HETATM   34  C34 UNL     1       0.422  11.579  18.539  1.00  0.00    -0.057 A 
HETATM   35  C35 UNL     1       0.897  11.887  17.263  1.00  0.00     0.005 A 
HETATM   36  C36 UNL     1       0.382  11.241  16.117  1.00  0.00     0.010 A 
HETATM   37  C37 UNL     1      -0.618  10.253  16.216  1.00  0.00    -0.007 A 
HETATM   38  C38 UNL     1      -0.996   9.866  17.513  1.00  0.00     0.096 A 
HETATM   39  C39 UNL     1      -0.497  10.519  18.642  1.00  0.00     0.092 A 
HETATM   40  C40 UNL     1      -1.386   9.607  15.000  1.00  0.00     0.168 C 
HETATM   41  O8  UNL     1      -2.792  10.084  14.878  1.00  0.00    -0.316 OA
HETATM   42 NA1  UNL     1       0.422  11.805  17.527  1.00  0.00    -0.355 Na
ATOM     43 1HA1 UNL     1       1.273  12.290  17.240  1.00  0.00     0.103 HD
ATOM     44 2HA1 UNL     1       0.619  12.767  17.252  1.00  0.00     0.103 HD
ENDROOT
BRANCH  40  45
HETATM   45  C41 UNL     1      -0.743   9.904  13.602  1.00  0.00     0.070 C 
BRANCH  45  46
HETATM   46  C42 UNL     1      -1.105   8.995  12.406  1.00  0.00     0.043 C 
BRANCH  46  47
HETATM   47  C43 UNL     1      -0.030   8.405  11.459  1.00  0.00     0.058 C 
HETATM   48  C44 UNL     1      -0.311   8.607   9.965  1.00  0.00     0.038 C 
HETATM   49  C45 UNL     1       0.847   8.130   9.082  1.00  0.00     0.003 C 
HETATM   50  C46 UNL     1       1.421   6.778   9.496  1.00  0.00     0.000 C 
HETATM   51  C47 UNL     1       0.605   6.073  10.571  1.00  0.00     0.003 C 
HETATM   52  C48 UNL     1       0.357   6.953  11.797  1.00  0.00     0.038 C 
BRANCH  47  53
HETATM   53  O7  UNL     1       1.168   9.190  11.725  1.00  0.00    -0.390 OA
HETATM   54  H44 UNL     1       0.957  10.117  11.512  1.00  0.00     0.210 HD
ENDBRANCH  47  53
ENDBRANCH  46  47
ENDBRANCH  45  46
ENDBRANCH  40  45
BRANCH  40  55
HETATM   55  N1  UNL     1      -1.370   8.136  15.180  1.00  0.00    -0.336 N 
HETATM   56  C49 UNL     1      -0.334   7.416  15.337  1.00  0.00     0.124 C 
HETATM   57  N2  UNL     1      -0.486   6.083  15.510  1.00  0.00    -0.279 NA
HETATM   58  N3  UNL     1       0.984   7.711  15.371  1.00  0.00    -0.279 NA
HETATM   59  H55 UNL     1      -1.461   5.829  15.360  1.00  0.00     0.126 HD
HETATM   60  H56 UNL     1       0.112   5.547  14.895  1.00  0.00     0.126 HD
HETATM   61  H57 UNL     1       1.458   7.132  16.055  1.00  0.00     0.126 HD
HETATM   62  H58 UNL     1       1.177   8.680  15.587  1.00  0.00     0.126 HD
ATOM     63  H1  UNL     1      -2.271   7.659  15.179  1.00  0.00     0.165 HD
ENDBRANCH  40  55
BRANCH  13  64
HETATM   64  S1  UNL     1      -0.247  16.420  20.380  1.00  0.00     0.106 S 
HETATM   65  O1  UNL     1      -1.043  15.896  21.486  1.00  0.00    -0.595 OA
HETATM   66  O2  UNL     1       1.014  17.000  20.839  1.00  0.00    -0.595 OA
HETATM   67  O3  UNL     1      -0.983  17.254  19.430  1.00  0.00    -0.595 OA
ENDBRANCH  13  64
BRANCH  32  68
HETATM   68  C32 UNL     1       6.208  10.997  18.068  1.00  0.00     0.172 C 
BRANCH  68  69
HETATM   69  O6  UNL     1       7.359  10.240  18.430  1.00  0.00    -0.400 OA
HETATM   70  H34 UNL     1       7.407   9.483  17.821  1.00  0.00     0.209 HD
ENDBRANCH  68  69
ENDBRANCH  32  68
BRANCH  26  71
HETATM   71  O5  UNL     1       4.935  19.265  22.709  1.00  0.00    -0.361 OA
HETATM   72  H27 UNL     1       4.912  19.684  21.828  1.00  0.00     0.217 HD
ENDBRANCH  26  71
TORSDOF 9
ENDMDL
MODEL 3
REMARK minimizedAffinity -8.1333437
REMARK CNNscore 0.14017427
REMARK CNNaffinity 6.44762182
REMARK  9 active torsions:
REMARK  status: ('A' for Active; 'I' for Inactive)
REMARK    1  A    between atoms: C13_13  and  S1_14 
REMARK    2  A    between atoms: C25_30  and  O5_31 
REMARK    3  A    between atoms: C31_37  and  C32_38 
REMARK    4  A    between atoms: C32_38  and  O6_39 
REMARK    5  A    between atoms: C40_47  and  C41_48 
REMARK    6  A    between atoms: C40_47  and  N1_57 
REMARK    7  A    between atoms: C41_48  and  C42_49 
REMARK    8  A    between atoms: C42_49  and  C43_50 
REMARK    9  A    between atoms: C43_50  and  O7_51 
REMARK       I    between atoms: C49_59  and  N2_60 
REMARK       I    between atoms: C49_59  and  N3_61 
ROOT
HETATM    1  C1  UNL     1       3.598  12.602  23.067  1.00  0.00     0.010 C 
HETATM    2  C2  UNL     1       3.855  11.536  21.993  1.00  0.00    -0.010 C 
HETATM    3  C3  UNL     1       3.021  10.253  22.328  1.00  0.00     0.009 C 
HETATM    4  C4  UNL     1       2.040   9.785  21.235  1.00  0.00     0.039 C 
HETATM    5  C5  UNL     1       1.321  10.950  20.606  1.00  0.00    -0.049 C 
HETATM    6  C6  UNL     1       0.065  10.843  20.012  1.00  0.00     0.044 C 
HETATM    7  C7  UNL     1      -0.436  11.950  19.319  1.00  0.00     0.072 C 
HETATM    8  C8  UNL     1       0.102  13.217  19.513  1.00  0.00     0.037 C 
HETATM    9  C9  UNL     1       1.367  13.314  20.074  1.00  0.00     0.011 C 
HETATM   10  C10 UNL     1       2.040  12.144  20.446  1.00  0.00    -0.047 C 
HETATM   11  C11 UNL     1       3.559  12.018  20.562  1.00  0.00     0.024 C 
HETATM   12  C12 UNL     1       4.304  13.212  19.932  1.00  0.00     0.033 C 
HETATM   13  C13 UNL     1       5.741  13.035  19.381  1.00  0.00     0.139 C 
HETATM   14  C14 UNL     1       6.108  11.798  18.454  1.00  0.00     0.038 C 
HETATM   15  C15 UNL     1       7.500  12.016  17.815  1.00  0.00    -0.014 C 
HETATM   16  C16 UNL     1       7.932  11.428  16.679  1.00  0.00    -0.050 C 
HETATM   17  C17 UNL     1       7.095  10.361  16.069  1.00  0.00     0.042 C 
HETATM   18  C18 UNL     1       5.763  11.066  15.881  1.00  0.00     0.001 C 
HETATM   19  C19 UNL     1       5.966  12.425  15.127  1.00  0.00     0.038 C 
HETATM   20  C20 UNL     1       7.122  12.434  14.078  1.00  0.00     0.130 C 
HETATM   21  O4  UNL     1       8.499  12.456  14.523  1.00  0.00    -0.371 OA
HETATM   22  C21 UNL     1       9.014  11.952  15.771  1.00  0.00     0.185 C 
HETATM   23  C22 UNL     1       9.982  12.948  16.430  1.00  0.00    -0.006 A 
HETATM   24  C23 UNL     1      10.994  12.418  17.260  1.00  0.00     0.014 A 
HETATM   25  C24 UNL     1      11.843  13.251  17.989  1.00  0.00     0.037 A 
HETATM   26  C25 UNL     1      11.689  14.629  17.907  1.00  0.00     0.067 A 
HETATM   27  C26 UNL     1      10.712  15.187  17.091  1.00  0.00     0.057 A 
HETATM   28  C27 UNL     1       9.863  14.358  16.354  1.00  0.00     0.029 A 
HETATM   29  C28 UNL     1       8.865  14.973  15.535  1.00  0.00    -0.066 C 
HETATM   30  C29 UNL     1       7.987  15.192  14.745  1.00  0.00    -0.101 C 
HETATM   31  C30 UNL     1       6.913  15.036  13.761  1.00  0.00     0.103 C 
HETATM   32  C31 UNL     1       6.993  13.641  13.077  1.00  0.00     0.049 C 
HETATM   33  C33 UNL     1       5.119  11.207  17.318  1.00  0.00     0.030 C 
HETATM   34  C34 UNL     1       3.626  11.453  17.162  1.00  0.00    -0.057 A 
HETATM   35  C35 UNL     1       3.060  12.668  16.772  1.00  0.00     0.005 A 
HETATM   36  C36 UNL     1       1.660  12.810  16.635  1.00  0.00     0.010 A 
HETATM   37  C37 UNL     1       0.784  11.732  16.872  1.00  0.00    -0.007 A 
HETATM   38  C38 UNL     1       1.376  10.487  17.142  1.00  0.00     0.096 A 
HETATM   39  C39 UNL     1       2.758  10.354  17.294  1.00  0.00     0.092 A 
HETATM   40  C40 UNL     1      -0.788  11.829  16.926  1.00  0.00     0.168 C 
HETATM   41  O8  UNL     1      -1.332  11.719  18.308  1.00  0.00    -0.316 OA
HETATM   42 NA1  UNL     1       2.986  12.269  17.143  1.00  0.00    -0.355 Na
ATOM     43 1HA1 UNL     1       3.413  13.085  16.703  1.00  0.00     0.103 HD
ATOM     44 2HA1 UNL     1       3.333  13.157  17.506  1.00  0.00     0.103 HD
ENDROOT
BRANCH  40  45
HETATM   45  C41 UNL     1      -1.369  13.177  16.377  1.00  0.00     0.070 C 
BRANCH  45  46
HETATM   46  C42 UNL     1      -1.849  13.240  14.909  1.00  0.00     0.043 C 
BRANCH  46  47
HETATM   47  C43 UNL     1      -2.521  14.501  14.311  1.00  0.00     0.058 C 
HETATM   48  C44 UNL     1      -1.953  15.831  14.818  1.00  0.00     0.038 C 
HETATM   49  C45 UNL     1      -2.557  17.040  14.093  1.00  0.00     0.003 C 
HETATM   50  C46 UNL     1      -4.070  16.962  13.918  1.00  0.00     0.000 C 
HETATM   51  C47 UNL     1      -4.712  15.806  14.674  1.00  0.00     0.003 C 
HETATM   52  C48 UNL     1      -4.060  14.459  14.357  1.00  0.00     0.038 C 
BRANCH  47  53
HETATM   53  O7  UNL     1      -2.181  14.464  12.894  1.00  0.00    -0.390 OA
HETATM   54  H44 UNL     1      -1.211  14.498  12.831  1.00  0.00     0.210 HD
ENDBRANCH  47  53
ENDBRANCH  46  47
ENDBRANCH  45  46
ENDBRANCH  40  45
BRANCH  40  55
HETATM   55  N1  UNL     1      -1.341  10.744  16.082  1.00  0.00    -0.336 N 
HETATM   56  C49 UNL     1      -2.116   9.815  16.475  1.00  0.00     0.124 C 
HETATM   57  N2  UNL     1      -2.553   8.906  15.575  1.00  0.00    -0.279 NA
HETATM   58  N3  UNL     1      -2.637   9.514  17.684  1.00  0.00    -0.279 NA
HETATM   59  H55 UNL     1      -2.070   9.044  14.688  1.00  0.00     0.126 HD
HETATM   60  H56 UNL     1      -2.424   7.956  15.898  1.00  0.00     0.126 HD
HETATM   61  H57 UNL     1      -3.585   9.170  17.586  1.00  0.00     0.126 HD
HETATM   62  H58 UNL     1      -2.648  10.296  18.327  1.00  0.00     0.126 HD
ATOM     63  H1  UNL     1      -1.077  10.742  15.097  1.00  0.00     0.165 HD
ENDBRANCH  40  55
BRANCH  13  64
HETATM   64  S1  UNL     1       6.945  13.201  20.796  1.00  0.00     0.106 S 
HETATM   65  O1  UNL     1       7.140  11.838  21.283  1.00  0.00    -0.595 OA
HETATM   66  O2  UNL     1       8.162  13.748  20.199  1.00  0.00    -0.595 OA
HETATM   67  O3  UNL     1       6.276  14.102  21.734  1.00  0.00    -0.595 OA
ENDBRANCH  13  64
BRANCH  32  68
HETATM   68  C32 UNL     1       5.798  13.460  12.133  1.00  0.00     0.172 C 
BRANCH  68  69
HETATM   69  O6  UNL     1       5.688  12.091  11.757  1.00  0.00    -0.400 OA
HETATM   70  H34 UNL     1       4.937  12.022  11.143  1.00  0.00     0.209 HD
ENDBRANCH  68  69
ENDBRANCH  32  68
BRANCH  26  71
HETATM   71  O5  UNL     1      12.507  15.412  18.667  1.00  0.00    -0.361 OA
HETATM   72  H27 UNL     1      12.044  16.261  18.798  1.00  0.00     0.217 HD
ENDBRANCH  26  71
TORSDOF 9
ENDMDL
MODEL 4
REMARK minimizedAffinity -8.07316685
REMARK CNNscore 0.111946136
REMARK CNNaffinity 6.28567362
REMARK  9 active torsions:
REMARK  status: ('A' for Active; 'I' for Inactive)
REMARK    1  A    between atoms: C13_13  and  S1_14 
REMARK    2  A    between atoms: C25_30  and  O5_31 
REMARK    3  A    between atoms: C31_37  and  C32_38 
REMARK    4  A    between atoms: C32_38  and  O6_39 
REMARK    5  A    between atoms: C40_47  and  C41_48 
REMARK    6  A    between atoms: C40_47  and  N1_57 
REMARK    7  A    between atoms: C41_48  and  C42_49 
REMARK    8  A    between atoms: C42_49  and  C43_50 
REMARK    9  A    between atoms: C43_50  and  O7_51 
REMARK       I    between atoms: C49_59  and  N2_60 
REMARK       I    between atoms: C49_59  and  N3_61 
ROOT
HETATM    1  C1  UNL     1       3.547  12.686  23.017  1.00  0.00     0.010 C 
HETATM    2  C2  UNL     1       3.839  11.579  21.993  1.00  0.00    -0.010 C 
HETATM    3  C3  UNL     1       3.031  10.293  22.378  1.00  0.00     0.009 C 
HETATM    4  C4  UNL     1       2.071   9.755  21.298  1.00  0.00     0.039 C 
HETATM    5  C5  UNL     1       1.333  10.874  20.612  1.00  0.00    -0.049 C 
HETATM    6  C6  UNL     1       0.085  10.712  20.012  1.00  0.00     0.044 C 
HETATM    7  C7  UNL     1      -0.434  11.776  19.266  1.00  0.00     0.072 C 
HETATM    8  C8  UNL     1       0.073  13.062  19.408  1.00  0.00     0.037 C 
HETATM    9  C9  UNL     1       1.330  13.213  19.976  1.00  0.00     0.011 C 
HETATM   10  C10 UNL     1       2.026  12.077  20.405  1.00  0.00    -0.047 C 
HETATM   11  C11 UNL     1       3.546  11.990  20.541  1.00  0.00     0.024 C 
HETATM   12  C12 UNL     1       4.270  13.172  19.864  1.00  0.00     0.033 C 
HETATM   13  C13 UNL     1       5.716  13.004  19.335  1.00  0.00     0.139 C 
HETATM   14  C14 UNL     1       6.120  11.737  18.467  1.00  0.00     0.038 C 
HETATM   15  C15 UNL     1       7.513  11.958  17.831  1.00  0.00    -0.014 C 
HETATM   16  C16 UNL     1       7.969  11.331  16.726  1.00  0.00    -0.050 C 
HETATM   17  C17 UNL     1       7.162  10.218  16.157  1.00  0.00     0.042 C 
HETATM   18  C18 UNL     1       5.817  10.884  15.925  1.00  0.00     0.001 C 
HETATM   19  C19 UNL     1       5.996  12.212  15.114  1.00  0.00     0.038 C 
HETATM   20  C20 UNL     1       7.162  12.202  14.076  1.00  0.00     0.130 C 
HETATM   21  O4  UNL     1       8.534  12.275  14.532  1.00  0.00    -0.371 OA
HETATM   22  C21 UNL     1       9.048  11.839  15.805  1.00  0.00     0.185 C 
HETATM   23  C22 UNL     1       9.986  12.885  16.428  1.00  0.00    -0.006 A 
HETATM   24  C23 UNL     1      11.002  12.415  17.289  1.00  0.00     0.014 A 
HETATM   25  C24 UNL     1      11.825  13.299  17.988  1.00  0.00     0.037 A 
HETATM   26  C25 UNL     1      11.641  14.667  17.843  1.00  0.00     0.067 A 
HETATM   27  C26 UNL     1      10.659  15.166  16.995  1.00  0.00     0.057 A 
HETATM   28  C27 UNL     1       9.837  14.286  16.289  1.00  0.00     0.029 A 
HETATM   29  C28 UNL     1       8.833  14.841  15.434  1.00  0.00    -0.066 C 
HETATM   30  C29 UNL     1       7.958  15.006  14.627  1.00  0.00    -0.101 C 
HETATM   31  C30 UNL     1       6.898  14.781  13.641  1.00  0.00     0.103 C 
HETATM   32  C31 UNL     1       7.015  13.360  13.021  1.00  0.00     0.049 C 
HETATM   33  C33 UNL     1       5.156  11.073  17.349  1.00  0.00     0.030 C 
HETATM   34  C34 UNL     1       3.659  11.278  17.169  1.00  0.00    -0.057 A 
HETATM   35  C35 UNL     1       3.069  12.461  16.721  1.00  0.00     0.005 A 
HETATM   36  C36 UNL     1       1.669  12.564  16.565  1.00  0.00     0.010 A 
HETATM   37  C37 UNL     1       0.815  11.478  16.842  1.00  0.00    -0.007 A 
HETATM   38  C38 UNL     1       1.431  10.260  17.172  1.00  0.00     0.096 A 
HETATM   39  C39 UNL     1       2.815  10.166  17.342  1.00  0.00     0.092 A 
HETATM   40  C40 UNL     1      -0.760  11.542  16.878  1.00  0.00     0.168 C 
HETATM   41  O8  UNL     1      -1.315  11.480  18.259  1.00  0.00    -0.316 OA
HETATM   42 NA1  UNL     1       3.001  12.078  17.108  1.00  0.00    -0.355 Na
ATOM     43 1HA1 UNL     1       3.414  12.882  16.637  1.00  0.00     0.103 HD
ATOM     44 2HA1 UNL     1       3.324  12.988  17.434  1.00  0.00     0.103 HD
ENDROOT
BRANCH  40  45
HETATM   45  C41 UNL     1      -1.365  12.850  16.264  1.00  0.00     0.070 C 
BRANCH  45  46
HETATM   46  C42 UNL     1      -2.620  12.744  15.367  1.00  0.00     0.043 C 
BRANCH  46  47
HETATM   47  C43 UNL     1      -4.048  13.001  15.908  1.00  0.00     0.058 C 
HETATM   48  C44 UNL     1      -4.776  14.183  15.259  1.00  0.00     0.038 C 
HETATM   49  C45 UNL     1      -6.230  14.306  15.730  1.00  0.00     0.003 C 
HETATM   50  C46 UNL     1      -6.407  14.134  17.236  1.00  0.00     0.000 C 
HETATM   51  C47 UNL     1      -5.091  14.080  18.002  1.00  0.00     0.003 C 
HETATM   52  C48 UNL     1      -4.128  13.030  17.447  1.00  0.00     0.038 C 
BRANCH  47  53
HETATM   53  O7  UNL     1      -4.812  11.826  15.510  1.00  0.00    -0.390 OA
HETATM   54  H44 UNL     1      -4.788  11.784  14.538  1.00  0.00     0.210 HD
ENDBRANCH  47  53
ENDBRANCH  46  47
ENDBRANCH  45  46
ENDBRANCH  40  45
BRANCH  40  55
HETATM   55  N1  UNL     1      -1.280  10.408  16.078  1.00  0.00    -0.336 N 
HETATM   56  C49 UNL     1      -2.037   9.480  16.505  1.00  0.00     0.124 C 
HETATM   57  N2  UNL     1      -2.445   8.522  15.642  1.00  0.00    -0.279 NA
HETATM   58  N3  UNL     1      -2.563   9.221  17.722  1.00  0.00    -0.279 NA
HETATM   59  H55 UNL     1      -1.956   8.632  14.754  1.00  0.00     0.126 HD
HETATM   60  H56 UNL     1      -2.298   7.590  16.008  1.00  0.00     0.126 HD
HETATM   61  H57 UNL     1      -3.502   8.850  17.630  1.00  0.00     0.126 HD
HETATM   62  H58 UNL     1      -2.599  10.029  18.329  1.00  0.00     0.126 HD
ATOM     63  H1  UNL     1      -1.006  10.368  15.096  1.00  0.00     0.165 HD
ENDBRANCH  40  55
BRANCH  13  64
HETATM   64  S1  UNL     1       6.902  13.260  20.752  1.00  0.00     0.106 S 
HETATM   65  O1  UNL     1       6.195  14.144  21.674  1.00  0.00    -0.595 OA
HETATM   66  O2  UNL     1       7.109  11.929  21.320  1.00  0.00    -0.595 OA
HETATM   67  O3  UNL     1       8.090  13.841  20.127  1.00  0.00    -0.595 OA
ENDBRANCH  13  64
BRANCH  32  68
HETATM   68  C32 UNL     1       5.834  13.110  12.076  1.00  0.00     0.172 C 
BRANCH  68  69
HETATM   69  O6  UNL     1       5.505  14.315  11.391  1.00  0.00    -0.400 OA
HETATM   70  H34 UNL     1       4.740  14.122  10.822  1.00  0.00     0.209 HD
ENDBRANCH  68  69
ENDBRANCH  32  68
BRANCH  26  71
HETATM   71  O5  UNL     1      12.434  15.503  18.575  1.00  0.00    -0.361 OA
HETATM   72  H27 UNL     1      11.950  16.346  18.664  1.00  0.00     0.217 HD
ENDBRANCH  26  71
TORSDOF 9
ENDMDL
MODEL 5
REMARK minimizedAffinity -7.38586092
REMARK CNNscore 0.0983117223
REMARK CNNaffinity 6.15466642
REMARK  9 active torsions:
REMARK  status: ('A' for Active; 'I' for Inactive)
REMARK    1  A    between atoms: C13_13  and  S1_14 
REMARK    2  A    between atoms: C25_30  and  O5_31 
REMARK    3  A    between atoms: C31_37  and  C32_38 
REMARK    4  A    between atoms: C32_38  and  O6_39 
REMARK    5  A    between atoms: C40_47  and  C41_48 
REMARK    6  A    between atoms: C40_47  and  N1_57 
REMARK    7  A    between atoms: C41_48  and  C42_49 
REMARK    8  A    between atoms: C42_49  and  C43_50 
REMARK    9  A    between atoms: C43_50  and  O7_51 
REMARK       I    between atoms: C49_59  and  N2_60 
REMARK       I    between atoms: C49_59  and  N3_61 
ROOT
HETATM    1  C1  UNL     1     -14.858   8.704  23.452  1.00  0.00     0.010 C 
HETATM    2  C2  UNL     1     -15.370   9.608  22.321  1.00  0.00    -0.010 C 
HETATM    3  C3  UNL     1     -15.803  10.990  22.919  1.00  0.00     0.009 C 
HETATM    4  C4  UNL     1     -15.096  12.227  22.331  1.00  0.00     0.039 C 
HETATM    5  C5  UNL     1     -13.625  11.976  22.128  1.00  0.00    -0.049 C 
HETATM    6  C6  UNL     1     -12.670  12.989  22.126  1.00  0.00     0.044 C 
HETATM    7  C7  UNL     1     -11.357  12.662  21.768  1.00  0.00     0.072 C 
HETATM    8  C8  UNL     1     -10.925  11.340  21.773  1.00  0.00     0.037 C 
HETATM    9  C9  UNL     1     -11.882  10.336  21.742  1.00  0.00     0.011 C 
HETATM   10  C10 UNL     1     -13.237  10.686  21.733  1.00  0.00    -0.047 C 
HETATM   11  C11 UNL     1     -14.356   9.804  21.181  1.00  0.00     0.024 C 
HETATM   12  C12 UNL     1     -13.823   8.619  20.350  1.00  0.00     0.033 C 
HETATM   13  C13 UNL     1     -14.691   7.995  19.229  1.00  0.00     0.139 C 
HETATM   14  C14 UNL     1     -15.441   8.919  18.176  1.00  0.00     0.038 C 
HETATM   15  C15 UNL     1     -15.984   8.054  17.013  1.00  0.00    -0.014 C 
HETATM   16  C16 UNL     1     -16.268   8.511  15.775  1.00  0.00    -0.050 C 
HETATM   17  C17 UNL     1     -16.226   9.978  15.532  1.00  0.00     0.042 C 
HETATM   18  C18 UNL     1     -14.815  10.334  15.966  1.00  0.00     0.001 C 
HETATM   19  C19 UNL     1     -13.773   9.398  15.265  1.00  0.00     0.038 C 
HETATM   20  C20 UNL     1     -14.160   8.940  13.823  1.00  0.00     0.130 C 
HETATM   21  O4  UNL     1     -15.200   7.952  13.636  1.00  0.00    -0.371 OA
HETATM   22  C21 UNL     1     -16.308   7.683  14.517  1.00  0.00     0.185 C 
HETATM   23  C22 UNL     1     -16.501   6.175  14.745  1.00  0.00    -0.006 A 
HETATM   24  C23 UNL     1     -17.807   5.723  15.033  1.00  0.00     0.014 A 
HETATM   25  C24 UNL     1     -18.055   4.391  15.367  1.00  0.00     0.037 A 
HETATM   26  C25 UNL     1     -17.000   3.490  15.426  1.00  0.00     0.067 A 
HETATM   27  C26 UNL     1     -15.703   3.896  15.135  1.00  0.00     0.057 A 
HETATM   28  C27 UNL     1     -15.450   5.227  14.795  1.00  0.00     0.029 A 
HETATM   29  C28 UNL     1     -14.099   5.604  14.513  1.00  0.00    -0.066 C 
HETATM   30  C29 UNL     1     -13.104   6.192  14.187  1.00  0.00    -0.101 C 
HETATM   31  C30 UNL     1     -12.165   7.229  13.752  1.00  0.00     0.103 C 
HETATM   32  C31 UNL     1     -12.917   8.385  13.034  1.00  0.00     0.049 C 
HETATM   33  C33 UNL     1     -14.797  10.263  17.546  1.00  0.00     0.030 C 
HETATM   34  C34 UNL     1     -13.601  11.051  18.057  1.00  0.00    -0.057 A 
HETATM   35  C35 UNL     1     -12.279  10.607  18.006  1.00  0.00     0.005 A 
HETATM   36  C36 UNL     1     -11.220  11.409  18.490  1.00  0.00     0.010 A 
HETATM   37  C37 UNL     1     -11.453  12.690  19.027  1.00  0.00    -0.007 A 
HETATM   38  C38 UNL     1     -12.771  13.173  18.957  1.00  0.00     0.096 A 
HETATM   39  C39 UNL     1     -13.817  12.371  18.495  1.00  0.00     0.092 A 
HETATM   40  C40 UNL     1     -10.378  13.584  19.755  1.00  0.00     0.168 C 
HETATM   41  O8  UNL     1     -10.575  13.650  21.229  1.00  0.00    -0.316 OA
HETATM   42 NA1  UNL     1     -12.627  10.852  18.353  1.00  0.00    -0.355 Na
ATOM     43 1HA1 UNL     1     -12.206  10.096  17.813  1.00  0.00     0.103 HD
ATOM     44 2HA1 UNL     1     -12.383   9.887  18.575  1.00  0.00     0.103 HD
ENDROOT
BRANCH  40  45
HETATM   45  C41 UNL     1      -8.902  13.091  19.572  1.00  0.00     0.070 C 
BRANCH  45  46
HETATM   46  C42 UNL     1      -7.775  13.802  20.356  1.00  0.00     0.043 C 
BRANCH  46  47
HETATM   47  C43 UNL     1      -6.381  14.074  19.738  1.00  0.00     0.058 C 
HETATM   48  C44 UNL     1      -6.375  14.223  18.213  1.00  0.00     0.038 C 
HETATM   49  C45 UNL     1      -4.999  14.628  17.670  1.00  0.00     0.003 C 
HETATM   50  C46 UNL     1      -3.840  13.853  18.289  1.00  0.00     0.000 C 
HETATM   51  C47 UNL     1      -4.283  12.692  19.169  1.00  0.00     0.003 C 
HETATM   52  C48 UNL     1      -5.286  13.115  20.243  1.00  0.00     0.038 C 
BRANCH  47  53
HETATM   53  O7  UNL     1      -6.002  15.386  20.245  1.00  0.00    -0.390 OA
HETATM   54  H44 UNL     1      -6.673  16.019  19.935  1.00  0.00     0.210 HD
ENDBRANCH  47  53
ENDBRANCH  46  47
ENDBRANCH  45  46
ENDBRANCH  40  45
BRANCH  40  55
HETATM   55  N1  UNL     1     -10.453  14.947  19.178  1.00  0.00    -0.336 N 
HETATM   56  C49 UNL     1     -10.204  15.261  17.971  1.00  0.00     0.124 C 
HETATM   57  N2  UNL     1     -10.338  16.552  17.592  1.00  0.00    -0.279 NA
HETATM   58  N3  UNL     1      -9.807  14.534  16.904  1.00  0.00    -0.279 NA
HETATM   59  H55 UNL     1     -10.513  17.132  18.411  1.00  0.00     0.126 HD
HETATM   60  H56 UNL     1      -9.525  16.890  17.093  1.00  0.00     0.126 HD
HETATM   61  H57 UNL     1     -10.252  14.872  16.060  1.00  0.00     0.126 HD
HETATM   62  H58 UNL     1     -10.002  13.545  16.992  1.00  0.00     0.126 HD
ATOM     63  H1  UNL     1     -10.729  15.702  19.806  1.00  0.00     0.165 HD
ENDBRANCH  40  55
BRANCH  13  64
HETATM   64  S1  UNL     1     -15.858   6.760  19.998  1.00  0.00     0.106 S 
HETATM   65  O1  UNL     1     -17.028   7.542  20.386  1.00  0.00    -0.595 OA
HETATM   66  O2  UNL     1     -16.164   5.810  18.929  1.00  0.00    -0.595 OA
HETATM   67  O3  UNL     1     -15.098   6.191  21.110  1.00  0.00    -0.595 OA
ENDBRANCH  13  64
BRANCH  32  68
HETATM   68  C32 UNL     1     -11.930   9.506  12.686  1.00  0.00     0.172 C 
BRANCH  68  69
HETATM   69  O6  UNL     1     -12.167   9.958  11.357  1.00  0.00    -0.400 OA
HETATM   70  H34 UNL     1     -11.509  10.648  11.166  1.00  0.00     0.209 HD
ENDBRANCH  68  69
ENDBRANCH  32  68
BRANCH  26  71
HETATM   71  O5  UNL     1     -17.273   2.206  15.799  1.00  0.00    -0.361 OA
HETATM   72  H27 UNL     1     -16.444   1.834  16.156  1.00  0.00     0.217 HD
ENDBRANCH  26  71
TORSDOF 9
ENDMDL
MODEL 6
REMARK minimizedAffinity -7.71527863
REMARK CNNscore 0.0974407569
REMARK CNNaffinity 6.67540789
REMARK  9 active torsions:
REMARK  status: ('A' for Active; 'I' for Inactive)
REMARK    1  A    between atoms: C13_13  and  S1_14 
REMARK    2  A    between atoms: C25_30  and  O5_31 
REMARK    3  A    between atoms: C31_37  and  C32_38 
REMARK    4  A    between atoms: C32_38  and  O6_39 
REMARK    5  A    between atoms: C40_47  and  C41_48 
REMARK    6  A    between atoms: C40_47  and  N1_57 
REMARK    7  A    between atoms: C41_48  and  C42_49 
REMARK    8  A    between atoms: C42_49  and  C43_50 
REMARK    9  A    between atoms: C43_50  and  O7_51 
REMARK       I    between atoms: C49_59  and  N2_60 
REMARK       I    between atoms: C49_59  and  N3_61 
ROOT
HETATM    1  C1  UNL     1     -15.723   7.425  23.814  1.00  0.00     0.010 C 
HETATM    2  C2  UNL     1     -15.926   8.679  22.951  1.00  0.00    -0.010 C 
HETATM    3  C3  UNL     1     -16.472   9.841  23.849  1.00  0.00     0.009 C 
HETATM    4  C4  UNL     1     -15.623  11.127  23.872  1.00  0.00     0.039 C 
HETATM    5  C5  UNL     1     -14.152  10.814  23.941  1.00  0.00    -0.049 C 
HETATM    6  C6  UNL     1     -13.210  11.684  24.487  1.00  0.00     0.044 C 
HETATM    7  C7  UNL     1     -11.855  11.361  24.354  1.00  0.00     0.072 C 
HETATM    8  C8  UNL     1     -11.458  10.069  24.029  1.00  0.00     0.037 C 
HETATM    9  C9  UNL     1     -12.392   9.219  23.456  1.00  0.00     0.011 C 
HETATM   10  C10 UNL     1     -13.698   9.681  23.250  1.00  0.00    -0.047 C 
HETATM   11  C11 UNL     1     -14.659   9.122  22.201  1.00  0.00     0.024 C 
HETATM   12  C12 UNL     1     -13.955   8.210  21.176  1.00  0.00     0.033 C 
HETATM   13  C13 UNL     1     -14.528   8.049  19.746  1.00  0.00     0.139 C 
HETATM   14  C14 UNL     1     -14.980   9.320  18.907  1.00  0.00     0.038 C 
HETATM   15  C15 UNL     1     -15.231   8.915  17.435  1.00  0.00    -0.014 C 
HETATM   16  C16 UNL     1     -15.193   9.758  16.381  1.00  0.00    -0.050 C 
HETATM   17  C17 UNL     1     -15.070  11.217  16.644  1.00  0.00     0.042 C 
HETATM   18  C18 UNL     1     -13.805  11.286  17.481  1.00  0.00     0.001 C 
HETATM   19  C19 UNL     1     -12.636  10.520  16.773  1.00  0.00     0.038 C 
HETATM   20  C20 UNL     1     -12.661  10.571  15.213  1.00  0.00     0.130 C 
HETATM   21  O4  UNL     1     -13.638   9.793  14.482  1.00  0.00    -0.371 OA
HETATM   22  C21 UNL     1     -14.933   9.369  14.949  1.00  0.00     0.185 C 
HETATM   23  C22 UNL     1     -15.199   7.890  14.625  1.00  0.00    -0.006 A 
HETATM   24  C23 UNL     1     -16.544   7.496  14.444  1.00  0.00     0.014 A 
HETATM   25  C24 UNL     1     -16.887   6.156  14.263  1.00  0.00     0.037 A 
HETATM   26  C25 UNL     1     -15.893   5.187  14.266  1.00  0.00     0.067 A 
HETATM   27  C26 UNL     1     -14.558   5.538  14.429  1.00  0.00     0.057 A 
HETATM   28  C27 UNL     1     -14.208   6.879  14.605  1.00  0.00     0.029 A 
HETATM   29  C28 UNL     1     -12.824   7.197  14.779  1.00  0.00    -0.066 C 
HETATM   30  C29 UNL     1     -11.770   7.759  14.898  1.00  0.00    -0.101 C 
HETATM   31  C30 UNL     1     -10.737   8.787  15.050  1.00  0.00     0.103 C 
HETATM   32  C31 UNL     1     -11.270  10.175  14.593  1.00  0.00     0.049 C 
HETATM   33  C33 UNL     1     -14.180  10.727  18.912  1.00  0.00     0.030 C 
HETATM   34  C34 UNL     1     -13.135  11.201  19.911  1.00  0.00    -0.057 A 
HETATM   35  C35 UNL     1     -11.848  10.672  20.024  1.00  0.00     0.005 A 
HETATM   36  C36 UNL     1     -10.931  11.181  20.970  1.00  0.00     0.010 A 
HETATM   37  C37 UNL     1     -11.270  12.248  21.825  1.00  0.00    -0.007 A 
HETATM   38  C38 UNL     1     -12.522  12.851  21.615  1.00  0.00     0.096 A 
HETATM   39  C39 UNL     1     -13.433  12.334  20.691  1.00  0.00     0.092 A 
HETATM   40  C40 UNL     1     -10.395  12.767  23.029  1.00  0.00     0.168 C 
HETATM   41  O8  UNL     1     -10.949  12.389  24.359  1.00  0.00    -0.316 OA
HETATM   42 NA1  UNL     1     -12.268  10.829  20.342  1.00  0.00    -0.355 Na
ATOM     43 1HA1 UNL     1     -11.738  10.242  19.697  1.00  0.00     0.103 HD
ATOM     44 2HA1 UNL     1     -12.101   9.824  20.288  1.00  0.00     0.103 HD
ENDROOT
BRANCH  40  45
HETATM   45  C41 UNL     1      -8.927  12.218  23.040  1.00  0.00     0.070 C 
BRANCH  45  46
HETATM   46  C42 UNL     1      -7.753  13.223  23.012  1.00  0.00     0.043 C 
BRANCH  46  47
HETATM   47  C43 UNL     1      -7.181  13.791  21.688  1.00  0.00     0.058 C 
HETATM   48  C44 UNL     1      -7.933  13.354  20.426  1.00  0.00     0.038 C 
HETATM   49  C45 UNL     1      -7.413  14.052  19.164  1.00  0.00     0.003 C 
HETATM   50  C46 UNL     1      -5.891  14.108  19.073  1.00  0.00     0.000 C 
HETATM   51  C47 UNL     1      -5.186  13.283  20.141  1.00  0.00     0.003 C 
HETATM   52  C48 UNL     1      -5.655  13.624  21.556  1.00  0.00     0.038 C 
BRANCH  47  53
HETATM   53  O7  UNL     1      -7.401  15.228  21.778  1.00  0.00    -0.390 OA
HETATM   54  H44 UNL     1      -8.361  15.368  21.854  1.00  0.00     0.210 HD
ENDBRANCH  47  53
ENDBRANCH  46  47
ENDBRANCH  45  46
ENDBRANCH  40  45
BRANCH  40  55
HETATM   55  N1  UNL     1     -10.303  14.242  22.924  1.00  0.00    -0.336 N 
HETATM   56  C49 UNL     1     -10.792  15.079  23.747  1.00  0.00     0.124 C 
HETATM   57  N2  UNL     1     -10.606  16.400  23.522  1.00  0.00    -0.279 NA
HETATM   58  N3  UNL     1     -11.510  14.929  24.881  1.00  0.00    -0.279 NA
HETATM   59  H55 UNL     1     -10.178  16.533  22.607  1.00  0.00     0.126 HD
HETATM   60  H56 UNL     1     -11.470  16.923  23.582  1.00  0.00     0.126 HD
HETATM   61  H57 UNL     1     -11.241  15.626  25.566  1.00  0.00     0.126 HD
HETATM   62  H58 UNL     1     -11.413  14.015  25.305  1.00  0.00     0.126 HD
ATOM     63  H1  UNL     1      -9.804  14.620  22.119  1.00  0.00     0.165 HD
ENDBRANCH  40  55
BRANCH  13  64
HETATM   64  S1  UNL     1     -15.867   6.752  19.784  1.00  0.00     0.106 S 
HETATM   65  O1  UNL     1     -17.089   7.486  20.101  1.00  0.00    -0.595 OA
HETATM   66  O2  UNL     1     -15.897   6.196  18.432  1.00  0.00    -0.595 OA
HETATM   67  O3  UNL     1     -15.428   5.810  20.813  1.00  0.00    -0.595 OA
ENDBRANCH  13  64
BRANCH  32  68
HETATM   68  C32 UNL     1     -10.211  11.250  14.864  1.00  0.00     0.172 C 
BRANCH  68  69
HETATM   69  O6  UNL     1      -8.963  10.629  15.156  1.00  0.00    -0.400 OA
HETATM   70  H34 UNL     1      -8.326  11.340  15.344  1.00  0.00     0.209 HD
ENDBRANCH  68  69
ENDBRANCH  32  68
BRANCH  26  71
HETATM   71  O5  UNL     1     -16.268   3.882  14.130  1.00  0.00    -0.361 OA
HETATM   72  H27 UNL     1     -15.560   3.341  14.527  1.00  0.00     0.217 HD
ENDBRANCH  26  71
TORSDOF 9
ENDMDL
MODEL 7
REMARK minimizedAffinity -7.3723526
REMARK CNNscore 0.0946569592
REMARK CNNaffinity 6.60072517
REMARK  9 active torsions:
REMARK  status: ('A' for Active; 'I' for Inactive)
REMARK    1  A    between atoms: C13_13  and  S1_14 
REMARK    2  A    between atoms: C25_30  and  O5_31 
REMARK    3  A    between atoms: C31_37  and  C32_38 
REMARK    4  A    between atoms: C32_38  and  O6_39 
REMARK    5  A    between atoms: C40_47  and  C41_48 
REMARK    6  A    between atoms: C40_47  and  N1_57 
REMARK    7  A    between atoms: C41_48  and  C42_49 
REMARK    8  A    between atoms: C42_49  and  C43_50 
REMARK    9  A    between atoms: C43_50  and  O7_51 
REMARK       I    between atoms: C49_59  and  N2_60 
REMARK       I    between atoms: C49_59  and  N3_61 
ROOT
HETATM    1  C1  UNL     1      -3.632  15.075   1.815  1.00  0.00     0.010 C 
HETATM    2  C2  UNL     1      -2.785  16.352   1.716  1.00  0.00    -0.010 C 
HETATM    3  C3  UNL     1      -3.678  17.592   2.060  1.00  0.00     0.009 C 
HETATM    4  C4  UNL     1      -3.187  18.469   3.229  1.00  0.00     0.039 C 
HETATM    5  C5  UNL     1      -2.675  17.630   4.370  1.00  0.00    -0.049 C 
HETATM    6  C6  UNL     1      -2.667  18.063   5.694  1.00  0.00     0.044 C 
HETATM    7  C7  UNL     1      -2.022  17.267   6.647  1.00  0.00     0.072 C 
HETATM    8  C8  UNL     1      -1.724  15.936   6.381  1.00  0.00     0.037 C 
HETATM    9  C9  UNL     1      -1.701  15.520   5.058  1.00  0.00     0.011 C 
HETATM   10  C10 UNL     1      -2.002  16.441   4.048  1.00  0.00    -0.047 C 
HETATM   11  C11 UNL     1      -1.527  16.327   2.600  1.00  0.00     0.024 C 
HETATM   12  C12 UNL     1      -0.423  15.265   2.421  1.00  0.00     0.033 C 
HETATM   13  C13 UNL     1       0.607  15.393   1.270  1.00  0.00     0.139 C 
HETATM   14  C14 UNL     1       1.331  16.777   0.981  1.00  0.00     0.038 C 
HETATM   15  C15 UNL     1       2.502  16.560  -0.007  1.00  0.00    -0.014 C 
HETATM   16  C16 UNL     1       3.571  17.375  -0.133  1.00  0.00    -0.050 C 
HETATM   17  C17 UNL     1       3.566  18.670   0.597  1.00  0.00     0.042 C 
HETATM   18  C18 UNL     1       3.346  18.228   2.033  1.00  0.00     0.001 C 
HETATM   19  C19 UNL     1       4.377  17.116   2.427  1.00  0.00     0.038 C 
HETATM   20  C20 UNL     1       5.778  17.242   1.750  1.00  0.00     0.130 C 
HETATM   21  O4  UNL     1       5.934  16.915   0.349  1.00  0.00    -0.371 OA
HETATM   22  C21 UNL     1       4.921  16.981  -0.673  1.00  0.00     0.185 C 
HETATM   23  C22 UNL     1       4.920  15.723  -1.555  1.00  0.00    -0.006 A 
HETATM   24  C23 UNL     1       4.475  15.864  -2.888  1.00  0.00     0.014 A 
HETATM   25  C24 UNL     1       4.331  14.756  -3.724  1.00  0.00     0.037 A 
HETATM   26  C25 UNL     1       4.622  13.488  -3.240  1.00  0.00     0.067 A 
HETATM   27  C26 UNL     1       5.075  13.312  -1.938  1.00  0.00     0.057 A 
HETATM   28  C27 UNL     1       5.227  14.418  -1.098  1.00  0.00     0.029 A 
HETATM   29  C28 UNL     1       5.686  14.191   0.238  1.00  0.00    -0.066 C 
HETATM   30  C29 UNL     1       6.086  14.317   1.363  1.00  0.00    -0.101 C 
HETATM   31  C30 UNL     1       6.507  14.881   2.648  1.00  0.00     0.103 C 
HETATM   32  C31 UNL     1       6.867  16.386   2.498  1.00  0.00     0.049 C 
HETATM   33  C33 UNL     1       1.833  17.785   2.143  1.00  0.00     0.030 C 
HETATM   34  C34 UNL     1       1.426  17.792   3.609  1.00  0.00    -0.057 A 
HETATM   35  C35 UNL     1       1.796  16.819   4.539  1.00  0.00     0.005 A 
HETATM   36  C36 UNL     1       1.389  16.909   5.889  1.00  0.00     0.010 A 
HETATM   37  C37 UNL     1       0.608  17.986   6.354  1.00  0.00    -0.007 A 
HETATM   38  C38 UNL     1       0.351  19.019   5.436  1.00  0.00     0.096 A 
HETATM   39  C39 UNL     1       0.739  18.918   4.098  1.00  0.00     0.092 A 
HETATM   40  C40 UNL     1      -0.048  18.089   7.783  1.00  0.00     0.168 C 
HETATM   41  O8  UNL     1      -1.523  17.885   7.764  1.00  0.00    -0.316 OA
HETATM   42 NA1  UNL     1       1.354  17.106   4.384  1.00  0.00    -0.355 Na
ATOM     43 1HA1 UNL     1       2.083  16.394   4.338  1.00  0.00     0.103 HD
ATOM     44 2HA1 UNL     1       1.348  16.115   4.145  1.00  0.00     0.103 HD
ENDROOT
BRANCH  40  45
HETATM   45  C41 UNL     1       0.486  17.034   8.813  1.00  0.00     0.070 C 
BRANCH  45  46
HETATM   46  C42 UNL     1       1.547  17.472   9.848  1.00  0.00     0.043 C 
BRANCH  46  47
HETATM   47  C43 UNL     1       2.717  16.551  10.274  1.00  0.00     0.058 C 
HETATM   48  C44 UNL     1       3.235  16.790  11.697  1.00  0.00     0.038 C 
HETATM   49  C45 UNL     1       4.294  15.763  12.114  1.00  0.00     0.003 C 
HETATM   50  C46 UNL     1       5.342  15.487  11.040  1.00  0.00     0.000 C 
HETATM   51  C47 UNL     1       5.254  16.430   9.847  1.00  0.00     0.003 C 
HETATM   52  C48 UNL     1       3.853  16.480   9.236  1.00  0.00     0.038 C 
BRANCH  47  53
HETATM   53  O7  UNL     1       2.143  15.213  10.303  1.00  0.00    -0.390 OA
HETATM   54  H44 UNL     1       1.424  15.223  10.959  1.00  0.00     0.210 HD
ENDBRANCH  47  53
ENDBRANCH  46  47
ENDBRANCH  45  46
ENDBRANCH  40  45
BRANCH  40  55
HETATM   55  N1  UNL     1       0.266  19.428   8.334  1.00  0.00    -0.336 N 
HETATM   56  C49 UNL     1      -0.550  20.199   8.931  1.00  0.00     0.124 C 
HETATM   57  N2  UNL     1      -0.104  21.387   9.396  1.00  0.00    -0.279 NA
HETATM   58  N3  UNL     1      -1.863  20.082   9.226  1.00  0.00    -0.279 NA
HETATM   59  H55 UNL     1       0.849  21.545   9.072  1.00  0.00     0.126 HD
HETATM   60  H56 UNL     1      -0.699  22.156   9.115  1.00  0.00     0.126 HD
HETATM   61  H57 UNL     1      -2.060  20.488  10.133  1.00  0.00     0.126 HD
HETATM   62  H58 UNL     1      -2.196  19.126   9.226  1.00  0.00     0.126 HD
ATOM     63  H1  UNL     1       1.223  19.763   8.224  1.00  0.00     0.165 HD
ENDBRANCH  40  55
BRANCH  13  64
HETATM   64  S1  UNL     1      -0.145  14.684  -0.283  1.00  0.00     0.106 S 
HETATM   65  O1  UNL     1      -0.793  15.818  -0.935  1.00  0.00    -0.595 OA
HETATM   66  O2  UNL     1       0.988  14.181  -1.058  1.00  0.00    -0.595 OA
HETATM   67  O3  UNL     1      -1.055  13.645   0.199  1.00  0.00    -0.595 OA
ENDBRANCH  13  64
BRANCH  32  68
HETATM   68  C32 UNL     1       7.197  16.978   3.873  1.00  0.00     0.172 C 
BRANCH  68  69
HETATM   69  O6  UNL     1       7.575  15.935   4.766  1.00  0.00    -0.400 OA
HETATM   70  H34 UNL     1       7.752  16.346   5.629  1.00  0.00     0.209 HD
ENDBRANCH  68  69
ENDBRANCH  32  68
BRANCH  26  71
HETATM   71  O5  UNL     1       4.428  12.423  -4.071  1.00  0.00    -0.361 OA
HETATM   72  H27 UNL     1       4.298  11.641  -3.502  1.00  0.00     0.217 HD
ENDBRANCH  26  71
TORSDOF 9
ENDMDL
MODEL 8
REMARK minimizedAffinity -8.52919579
REMARK CNNscore 0.0765089542
REMARK CNNaffinity 5.62788057
REMARK  9 active torsions:
REMARK  status: ('A' for Active; 'I' for Inactive)
REMARK    1  A    between atoms: C13_13  and  S1_14 
REMARK    2  A    between atoms: C25_30  and  O5_31 
REMARK    3  A    between atoms: C31_37  and  C32_38 
REMARK    4  A    between atoms: C32_38  and  O6_39 
REMARK    5  A    between atoms: C40_47  and  C41_48 
REMARK    6  A    between atoms: C40_47  and  N1_57 
REMARK    7  A    between atoms: C41_48  and  C42_49 
REMARK    8  A    between atoms: C42_49  and  C43_50 
REMARK    9  A    between atoms: C43_50  and  O7_51 
REMARK       I    between atoms: C49_59  and  N2_60 
REMARK       I    between atoms: C49_59  and  N3_61 
ROOT
HETATM    1  C1  UNL     1     -18.067  12.810  20.107  1.00  0.00     0.010 C 
HETATM    2  C2  UNL     1     -16.963  13.327  19.173  1.00  0.00    -0.010 C 
HETATM    3  C3  UNL     1     -16.474  14.727  19.676  1.00  0.00     0.009 C 
HETATM    4  C4  UNL     1     -14.970  14.839  19.994  1.00  0.00     0.039 C 
HETATM    5  C5  UNL     1     -14.468  13.616  20.714  1.00  0.00    -0.049 C 
HETATM    6  C6  UNL     1     -13.365  13.629  21.565  1.00  0.00     0.044 C 
HETATM    7  C7  UNL     1     -12.890  12.406  22.053  1.00  0.00     0.072 C 
HETATM    8  C8  UNL     1     -13.681  11.264  22.008  1.00  0.00     0.037 C 
HETATM    9  C9  UNL     1     -14.759  11.246  21.134  1.00  0.00     0.011 C 
HETATM   10  C10 UNL     1     -15.023  12.378  20.355  1.00  0.00    -0.047 C 
HETATM   11  C11 UNL     1     -15.777  12.359  19.025  1.00  0.00     0.024 C 
HETATM   12  C12 UNL     1     -15.952  10.933  18.463  1.00  0.00     0.033 C 
HETATM   13  C13 UNL     1     -16.095  10.705  16.937  1.00  0.00     0.139 C 
HETATM   14  C14 UNL     1     -15.113  11.423  15.915  1.00  0.00     0.038 C 
HETATM   15  C15 UNL     1     -15.282  10.806  14.505  1.00  0.00    -0.014 C 
HETATM   16  C16 UNL     1     -14.351  10.842  13.528  1.00  0.00    -0.050 C 
HETATM   17  C17 UNL     1     -13.135  11.673  13.735  1.00  0.00     0.042 C 
HETATM   18  C18 UNL     1     -12.582  11.115  15.034  1.00  0.00     0.001 C 
HETATM   19  C19 UNL     1     -12.455   9.556  14.950  1.00  0.00     0.038 C 
HETATM   20  C20 UNL     1     -12.110   8.995  13.534  1.00  0.00     0.130 C 
HETATM   21  O4  UNL     1     -13.118   8.987  12.496  1.00  0.00    -0.371 OA
HETATM   22  C21 UNL     1     -14.245   9.877  12.376  1.00  0.00     0.185 C 
HETATM   23  C22 UNL     1     -15.540   9.114  12.053  1.00  0.00    -0.006 A 
HETATM   24  C23 UNL     1     -16.536   9.804  11.327  1.00  0.00     0.014 A 
HETATM   25  C24 UNL     1     -17.786   9.231  11.090  1.00  0.00     0.037 A 
HETATM   26  C25 UNL     1     -18.063   7.962  11.581  1.00  0.00     0.067 A 
HETATM   27  C26 UNL     1     -17.103   7.248  12.288  1.00  0.00     0.057 A 
HETATM   28  C27 UNL     1     -15.848   7.814  12.523  1.00  0.00     0.029 A 
HETATM   29  C28 UNL     1     -14.892   7.050  13.264  1.00  0.00    -0.066 C 
HETATM   30  C29 UNL     1     -13.897   6.643  13.798  1.00  0.00    -0.101 C 
HETATM   31  C30 UNL     1     -12.535   6.525  14.326  1.00  0.00     0.103 C 
HETATM   32  C31 UNL     1     -11.578   7.516  13.605  1.00  0.00     0.049 C 
HETATM   33  C33 UNL     1     -13.532  11.631  16.188  1.00  0.00     0.030 C 
HETATM   34  C34 UNL     1     -12.794  11.523  17.514  1.00  0.00    -0.057 A 
HETATM   35  C35 UNL     1     -12.575  10.330  18.205  1.00  0.00     0.005 A 
HETATM   36  C36 UNL     1     -11.864  10.314  19.425  1.00  0.00     0.010 A 
HETATM   37  C37 UNL     1     -11.336  11.493  19.986  1.00  0.00    -0.007 A 
HETATM   38  C38 UNL     1     -11.455  12.664  19.218  1.00  0.00     0.096 A 
HETATM   39  C39 UNL     1     -12.174  12.680  18.021  1.00  0.00     0.092 A 
HETATM   40  C40 UNL     1     -10.692  11.614  21.419  1.00  0.00     0.168 C 
HETATM   41  O8  UNL     1     -11.565  12.324  22.394  1.00  0.00    -0.316 OA
HETATM   42 NA1  UNL     1     -12.731  10.848  18.299  1.00  0.00    -0.355 Na
ATOM     43 1HA1 UNL     1     -12.806   9.881  17.983  1.00  0.00     0.103 HD
ATOM     44 2HA1 UNL     1     -13.462  10.141  18.380  1.00  0.00     0.103 HD
ENDROOT
BRANCH  40  45
HETATM   45  C41 UNL     1     -10.374  10.238  22.099  1.00  0.00     0.070 C 
BRANCH  45  46
HETATM   46  C42 UNL     1     -10.994   9.927  23.481  1.00  0.00     0.043 C 
BRANCH  46  47
HETATM   47  C43 UNL     1     -11.676   8.573  23.797  1.00  0.00     0.058 C 
HETATM   48  C44 UNL     1     -12.649   8.079  22.720  1.00  0.00     0.038 C 
HETATM   49  C45 UNL     1     -13.188   6.675  23.018  1.00  0.00     0.003 C 
HETATM   50  C46 UNL     1     -13.609   6.471  24.470  1.00  0.00     0.000 C 
HETATM   51  C47 UNL     1     -13.608   7.753  25.291  1.00  0.00     0.003 C 
HETATM   52  C48 UNL     1     -12.276   8.502  25.214  1.00  0.00     0.038 C 
BRANCH  47  53
HETATM   53  O7  UNL     1     -10.590   7.602  23.794  1.00  0.00    -0.390 OA
HETATM   54  H44 UNL     1     -10.194   7.617  22.905  1.00  0.00     0.210 HD
ENDBRANCH  47  53
ENDBRANCH  46  47
ENDBRANCH  45  46
ENDBRANCH  40  45
BRANCH  40  55
HETATM   55  N1  UNL     1      -9.404  12.335  21.282  1.00  0.00    -0.336 N 
HETATM   56  C49 UNL     1      -8.657  12.716  22.238  1.00  0.00     0.124 C 
HETATM   57  N2  UNL     1      -7.498  13.349  21.947  1.00  0.00    -0.279 NA
HETATM   58  N3  UNL     1      -8.775  12.619  23.580  1.00  0.00    -0.279 NA
HETATM   59  H55 UNL     1      -7.455  13.541  20.947  1.00  0.00     0.126 HD
HETATM   60  H56 UNL     1      -7.388  14.206  22.472  1.00  0.00     0.126 HD
HETATM   61  H57 UNL     1      -7.871  12.448  24.003  1.00  0.00     0.126 HD
HETATM   62  H58 UNL     1      -9.410  11.891  23.880  1.00  0.00     0.126 HD
ATOM     63  H1  UNL     1      -9.090  12.546  20.335  1.00  0.00     0.165 HD
ENDBRANCH  40  55
BRANCH  13  64
HETATM   64  S1  UNL     1     -17.879  10.969  16.462  1.00  0.00     0.106 S 
HETATM   65  O1  UNL     1     -18.122  10.019  15.380  1.00  0.00    -0.595 OA
HETATM   66  O2  UNL     1     -18.646  10.639  17.662  1.00  0.00    -0.595 OA
HETATM   67  O3  UNL     1     -17.944  12.377  16.073  1.00  0.00    -0.595 OA
ENDBRANCH  13  64
BRANCH  32  68
HETATM   68  C32 UNL     1     -10.188   7.451  14.248  1.00  0.00     0.172 C 
BRANCH  68  69
HETATM   69  O6  UNL     1     -10.214   6.558  15.357  1.00  0.00    -0.400 OA
HETATM   70  H34 UNL     1      -9.324   6.563  15.751  1.00  0.00     0.209 HD
ENDBRANCH  68  69
ENDBRANCH  32  68
BRANCH  26  71
HETATM   71  O5  UNL     1     -19.310   7.451  11.369  1.00  0.00    -0.361 OA
HETATM   72  H27 UNL     1     -19.465   6.784  12.064  1.00  0.00     0.217 HD
ENDBRANCH  26  71
TORSDOF 9
ENDMDL
MODEL 9
REMARK minimizedAffinity -8.65843773
REMARK CNNscore 0.0710240006
REMARK CNNaffinity 6.5481019
REMARK  9 active torsions:
REMARK  status: ('A' for Active; 'I' for Inactive)
REMARK    1  A    between atoms: C13_13  and  S1_14 
REMARK    2  A    between atoms: C25_30  and  O5_31 
REMARK    3  A    between atoms: C31_37  and  C32_38 
REMARK    4  A    between atoms: C32_38  and  O6_39 
REMARK    5  A    between atoms: C40_47  and  C41_48 
REMARK    6  A    between atoms: C40_47  and  N1_57 
REMARK    7  A    between atoms: C41_48  and  C42_49 
REMARK    8  A    between atoms: C42_49  and  C43_50 
REMARK    9  A    between atoms: C43_50  and  O7_51 
REMARK       I    between atoms: C49_59  and  N2_60 
REMARK       I    between atoms: C49_59  and  N3_61 
ROOT
HETATM    1  C1  UNL     1     -20.228   9.070  20.442  1.00  0.00     0.010 C 
HETATM    2  C2  UNL     1     -19.007   9.988  20.283  1.00  0.00    -0.010 C 
HETATM    3  C3  UNL     1     -18.905  10.932  21.529  1.00  0.00     0.009 C 
HETATM    4  C4  UNL     1     -17.583  10.860  22.320  1.00  0.00     0.039 C 
HETATM    5  C5  UNL     1     -17.110   9.438  22.471  1.00  0.00    -0.049 C 
HETATM    6  C6  UNL     1     -16.300   9.010  23.520  1.00  0.00     0.044 C 
HETATM    7  C7  UNL     1     -15.790   7.708  23.474  1.00  0.00     0.072 C 
HETATM    8  C8  UNL     1     -16.345   6.753  22.631  1.00  0.00     0.037 C 
HETATM    9  C9  UNL     1     -17.124   7.189  21.568  1.00  0.00     0.011 C 
HETATM   10  C10 UNL     1     -17.341   8.561  21.400  1.00  0.00    -0.047 C 
HETATM   11  C11 UNL     1     -17.688   9.227  20.069  1.00  0.00     0.024 C 
HETATM   12  C12 UNL     1     -17.471   8.291  18.863  1.00  0.00     0.033 C 
HETATM   13  C13 UNL     1     -17.152   8.876  17.464  1.00  0.00     0.139 C 
HETATM   14  C14 UNL     1     -16.055  10.011  17.292  1.00  0.00     0.038 C 
HETATM   15  C15 UNL     1     -15.728  10.203  15.791  1.00  0.00    -0.014 C 
HETATM   16  C16 UNL     1     -14.583  10.730  15.308  1.00  0.00    -0.050 C 
HETATM   17  C17 UNL     1     -13.620  11.334  16.267  1.00  0.00     0.042 C 
HETATM   18  C18 UNL     1     -13.364  10.187  17.229  1.00  0.00     0.001 C 
HETATM   19  C19 UNL     1     -12.972   8.890  16.443  1.00  0.00     0.038 C 
HETATM   20  C20 UNL     1     -12.165   9.131  15.128  1.00  0.00     0.130 C 
HETATM   21  O4  UNL     1     -12.835   9.659  13.958  1.00  0.00    -0.371 OA
HETATM   22  C21 UNL     1     -14.012  10.489  13.935  1.00  0.00     0.185 C 
HETATM   23  C22 UNL     1     -15.030  10.004  12.890  1.00  0.00    -0.006 A 
HETATM   24  C23 UNL     1     -15.885  10.972  12.319  1.00  0.00     0.014 A 
HETATM   25  C24 UNL     1     -16.914  10.606  11.450  1.00  0.00     0.037 A 
HETATM   26  C25 UNL     1     -17.110   9.266  11.145  1.00  0.00     0.067 A 
HETATM   27  C26 UNL     1     -16.280   8.287  11.678  1.00  0.00     0.057 A 
HETATM   28  C27 UNL     1     -15.245   8.648  12.544  1.00  0.00     0.029 A 
HETATM   29  C28 UNL     1     -14.420   7.609  13.078  1.00  0.00    -0.066 C 
HETATM   30  C29 UNL     1     -13.558   6.982  13.632  1.00  0.00    -0.101 C 
HETATM   31  C30 UNL     1     -12.393   6.605  14.436  1.00  0.00     0.103 C 
HETATM   32  C31 UNL     1     -11.445   7.822  14.635  1.00  0.00     0.049 C 
HETATM   33  C33 UNL     1     -14.663  10.044  18.118  1.00  0.00     0.030 C 
HETATM   34  C34 UNL     1     -14.310   9.271  19.379  1.00  0.00    -0.057 A 
HETATM   35  C35 UNL     1     -14.103   7.891  19.431  1.00  0.00     0.005 A 
HETATM   36  C36 UNL     1     -13.762   7.250  20.643  1.00  0.00     0.010 A 
HETATM   37  C37 UNL     1     -13.602   7.975  21.841  1.00  0.00    -0.007 A 
HETATM   38  C38 UNL     1     -13.691   9.374  21.747  1.00  0.00     0.096 A 
HETATM   39  C39 UNL     1     -14.046  10.003  20.551  1.00  0.00     0.092 A 
HETATM   40  C40 UNL     1     -13.404   7.343  23.271  1.00  0.00     0.168 C 
HETATM   41  O8  UNL     1     -14.614   7.458  24.133  1.00  0.00    -0.316 OA
HETATM   42 NA1  UNL     1     -14.359   8.289  19.711  1.00  0.00    -0.355 Na
ATOM     43 1HA1 UNL     1     -14.189   7.619  18.960  1.00  0.00     0.103 HD
ATOM     44 2HA1 UNL     1     -14.962   7.642  19.201  1.00  0.00     0.103 HD
ENDROOT
BRANCH  40  45
HETATM   45  C41 UNL     1     -13.071   5.812  23.257  1.00  0.00     0.070 C 
BRANCH  45  46
HETATM   46  C42 UNL     1     -14.023   4.834  23.983  1.00  0.00     0.043 C 
BRANCH  46  47
HETATM   47  C43 UNL     1     -13.558   3.441  24.479  1.00  0.00     0.058 C 
HETATM   48  C44 UNL     1     -13.338   3.340  25.992  1.00  0.00     0.038 C 
HETATM   49  C45 UNL     1     -13.015   1.911  26.443  1.00  0.00     0.003 C 
HETATM   50  C46 UNL     1     -12.003   1.197  25.552  1.00  0.00     0.000 C 
HETATM   51  C47 UNL     1     -11.356   2.106  24.515  1.00  0.00     0.003 C 
HETATM   52  C48 UNL     1     -12.383   2.861  23.669  1.00  0.00     0.038 C 
BRANCH  47  53
HETATM   53  O7  UNL     1     -14.683   2.557  24.204  1.00  0.00    -0.390 OA
HETATM   54  H44 UNL     1     -15.444   2.894  24.710  1.00  0.00     0.210 HD
ENDBRANCH  47  53
ENDBRANCH  46  47
ENDBRANCH  45  46
ENDBRANCH  40  45
BRANCH  40  55
HETATM   55  N1  UNL     1     -12.261   8.028  23.918  1.00  0.00    -0.336 N 
HETATM   56  C49 UNL     1     -12.322   8.763  24.954  1.00  0.00     0.124 C 
HETATM   57  N2  UNL     1     -11.181   9.305  25.438  1.00  0.00    -0.279 NA
HETATM   58  N3  UNL     1     -13.352   9.151  25.737  1.00  0.00    -0.279 NA
HETATM   59  H55 UNL     1     -10.416   9.126  24.788  1.00  0.00     0.126 HD
HETATM   60  H56 UNL     1     -11.270  10.298  25.606  1.00  0.00     0.126 HD
HETATM   61  H57 UNL     1     -13.065   9.187  26.708  1.00  0.00     0.126 HD
HETATM   62  H58 UNL     1     -14.163   8.549  25.668  1.00  0.00     0.126 HD
ATOM     63  H1  UNL     1     -11.342   7.900  23.494  1.00  0.00     0.165 HD
ENDBRANCH  40  55
BRANCH  13  64
HETATM   64  S1  UNL     1     -18.755   9.352  16.639  1.00  0.00     0.106 S 
HETATM   65  O1  UNL     1     -19.758   8.476  17.237  1.00  0.00    -0.595 OA
HETATM   66  O2  UNL     1     -18.967  10.753  16.999  1.00  0.00    -0.595 OA
HETATM   67  O3  UNL     1     -18.509   9.127  15.215  1.00  0.00    -0.595 OA
ENDBRANCH  13  64
BRANCH  32  68
HETATM   68  C32 UNL     1     -10.293   7.432  15.569  1.00  0.00     0.172 C 
BRANCH  68  69
HETATM   69  O6  UNL     1      -9.645   6.267  15.068  1.00  0.00    -0.400 OA
HETATM   70  H34 UNL     1      -8.939   6.039  15.698  1.00  0.00     0.209 HD
ENDBRANCH  68  69
ENDBRANCH  32  68
BRANCH  26  71
HETATM   71  O5  UNL     1     -18.153   8.939  10.327  1.00  0.00    -0.361 OA
HETATM   72  H27 UNL     1     -18.384   8.011  10.521  1.00  0.00     0.217 HD
ENDBRANCH  26  71
TORSDOF 9
ENDMDL
