MODEL 1
REMARK minimizedAffinity -8.96880436
REMARK CNNscore 0.532502413
REMARK CNNaffinity 7.63397455
REMARK  13 active torsions:
REMARK  status: ('A' for Active; 'I' for Inactive)
REMARK    1  A    between atoms: C2_2  and  C3_3 
REMARK    2  A    between atoms: C4_5  and  C5_6 
REMARK    3  A    between atoms: C5_6  and  C6_7 
REMARK    4  A    between atoms: C6_7  and  C7_8 
REMARK    5  A    between atoms: C7_8  and  C9_10 
REMARK    6  A    between atoms: C17_18  and  C18_19 
REMARK    7  A    between atoms: C18_19  and  O2_21 
REMARK    8  A    between atoms: C18_19  and  C20_22 
REMARK    9  A    between atoms: C20_22  and  O3_23 
REMARK   10  A    between atoms: C21_24  and  C22_25 
REMARK   11  A    between atoms: C22_25  and  C23_26 
REMARK   12  A    between atoms: C23_26  and  C24_27 
REMARK   13  A    between atoms: C24_27  and  O5_29 
ROOT
HETATM    1  C9  UNL     1      -5.358   7.698  15.298  1.00  0.00    -0.002 C 
HETATM    2  C10 UNL     1      -5.801   8.310  13.960  1.00  0.00     0.006 C 
HETATM    3  C11 UNL     1      -4.508   8.563  13.154  1.00  0.00     0.011 C 
HETATM    4  C12 UNL     1      -3.328   8.037  14.021  1.00  0.00    -0.032 C 
HETATM    5  C13 UNL     1      -2.793   9.255  14.847  1.00  0.00     0.016 C 
HETATM    6  C14 UNL     1      -2.092   7.478  13.238  1.00  0.00     0.004 C 
HETATM    7  C15 UNL     1      -1.691   8.307  12.020  1.00  0.00     0.007 C 
HETATM    8  C16 UNL     1      -0.282   7.896  11.618  1.00  0.00     0.009 C 
HETATM    9  C17 UNL     1      -0.185   6.453  11.075  1.00  0.00     0.031 C 
HETATM   10  C21 UNL     1      -1.109   5.413  11.814  1.00  0.00    -0.025 A 
HETATM   11  C25 UNL     1      -1.035   5.150  13.307  1.00  0.00     0.021 A 
HETATM   12  C26 UNL     1      -2.169   6.012  12.818  1.00  0.00    -0.027 A 
HETATM   13  C27 UNL     1      -3.575   5.493  12.777  1.00  0.00     0.011 C 
HETATM   14  C28 UNL     1      -4.304   5.645  14.103  1.00  0.00     0.011 C 
HETATM   15  C29 UNL     1      -4.037   6.948  14.915  1.00  0.00    -0.032 C 
HETATM   16  C30 UNL     1      -3.242   6.585  16.180  1.00  0.00     0.016 C 
ENDROOT
BRANCH   1  17
HETATM   17  C7  UNL     1      -6.460   7.031  16.173  1.00  0.00    -0.014 C 
HETATM   18  C8  UNL     1      -6.483   5.502  16.205  1.00  0.00     0.010 C 
BRANCH  17  19
HETATM   19  C6  UNL     1      -7.887   7.515  15.795  1.00  0.00     0.008 C 
BRANCH  19  20
HETATM   20  C5  UNL     1      -8.358   7.077  14.403  1.00  0.00     0.028 C 
BRANCH  20  21
HETATM   21  C4  UNL     1      -8.033   5.628  14.154  1.00  0.00    -0.017 C 
HETATM   22  C2  UNL     1      -8.113   4.970  12.982  1.00  0.00    -0.028 C 
HETATM   23  C1  UNL     1      -8.566   5.511  11.661  1.00  0.00     0.051 C 
BRANCH  22  24
HETATM   24  C3  UNL     1      -7.719   3.532  12.986  1.00  0.00     0.265 C 
HETATM   25  O1  UNL     1      -8.520   2.626  12.783  1.00  0.00    -0.302 OA
ENDBRANCH  22  24
ENDBRANCH  20  21
ENDBRANCH  19  20
ENDBRANCH  17  19
ENDBRANCH   1  17
BRANCH  10  26
HETATM   26  C22 UNL     1      -1.544   4.258  10.873  1.00  0.00     0.021 C 
BRANCH  26  27
HETATM   27  C23 UNL     1      -1.801   2.869  11.463  1.00  0.00     0.111 C 
BRANCH  27  28
HETATM   28  C24 UNL     1      -0.884   1.768  11.013  1.00  0.00     0.139 C 
HETATM   29  O4  UNL     1      -1.241   0.656  10.659  1.00  0.00    -0.650 OA
BRANCH  28  30
HETATM   30  O5  UNL     1       0.407   2.126  10.916  1.00  0.00    -0.776 OA
HETATM   31  H39 UNL     1       0.834   1.305  10.586  1.00  0.00     0.167 HD
ENDBRANCH  28  30
ENDBRANCH  27  28
ENDBRANCH  26  27
ENDBRANCH  10  26
BRANCH   9  32
HETATM   32  C18 UNL     1       1.321   6.034  10.856  1.00  0.00     0.080 C 
HETATM   33  C19 UNL     1       1.795   6.355   9.424  1.00  0.00     0.048 C 
BRANCH  32  34
HETATM   34  O2  UNL     1       1.460   4.604  10.989  1.00  0.00    -0.388 OA
HETATM   35  H31 UNL     1       0.909   4.185  10.304  1.00  0.00     0.210 HD
ENDBRANCH  32  34
BRANCH  32  36
HETATM   36  C20 UNL     1       2.327   6.657  11.847  1.00  0.00     0.201 C 
BRANCH  36  37
HETATM   37  O3  UNL     1       3.635   6.138  11.618  1.00  0.00    -0.398 OA
HETATM   38  H34 UNL     1       3.628   5.916  10.661  1.00  0.00     0.209 HD
ENDBRANCH  36  37
ENDBRANCH  32  36
ENDBRANCH   9  32
TORSDOF 13
ENDMDL
MODEL 2
REMARK minimizedAffinity -6.64443636
REMARK CNNscore 0.528303981
REMARK CNNaffinity 7.00547838
REMARK  13 active torsions:
REMARK  status: ('A' for Active; 'I' for Inactive)
REMARK    1  A    between atoms: C2_2  and  C3_3 
REMARK    2  A    between atoms: C4_5  and  C5_6 
REMARK    3  A    between atoms: C5_6  and  C6_7 
REMARK    4  A    between atoms: C6_7  and  C7_8 
REMARK    5  A    between atoms: C7_8  and  C9_10 
REMARK    6  A    between atoms: C17_18  and  C18_19 
REMARK    7  A    between atoms: C18_19  and  O2_21 
REMARK    8  A    between atoms: C18_19  and  C20_22 
REMARK    9  A    between atoms: C20_22  and  O3_23 
REMARK   10  A    between atoms: C21_24  and  C22_25 
REMARK   11  A    between atoms: C22_25  and  C23_26 
REMARK   12  A    between atoms: C23_26  and  C24_27 
REMARK   13  A    between atoms: C24_27  and  O5_29 
ROOT
HETATM    1  C9  UNL     1      -6.633   5.165  13.989  1.00  0.00    -0.002 C 
HETATM    2  C10 UNL     1      -7.236   4.444  15.205  1.00  0.00     0.006 C 
HETATM    3  C11 UNL     1      -7.975   5.526  16.024  1.00  0.00     0.011 C 
HETATM    4  C12 UNL     1      -7.837   6.859  15.236  1.00  0.00    -0.032 C 
HETATM    5  C13 UNL     1      -6.578   7.596  15.806  1.00  0.00     0.016 C 
HETATM    6  C14 UNL     1      -9.023   7.872  15.377  1.00  0.00     0.004 C 
HETATM    7  C15 UNL     1      -9.571   8.004  16.796  1.00  0.00     0.007 C 
HETATM    8  C16 UNL     1     -10.406   9.274  16.858  1.00  0.00     0.009 C 
HETATM    9  C17 UNL     1     -11.699   9.212  16.016  1.00  0.00     0.031 C 
HETATM   10  C21 UNL     1     -11.548   8.457  14.642  1.00  0.00    -0.025 A 
HETATM   11  C25 UNL     1     -10.546   8.863  13.577  1.00  0.00     0.021 A 
HETATM   12  C26 UNL     1     -10.199   7.667  14.425  1.00  0.00    -0.027 A 
HETATM   13  C27 UNL     1     -10.260   6.277  13.866  1.00  0.00     0.011 C 
HETATM   14  C28 UNL     1      -8.985   5.872  13.140  1.00  0.00     0.011 C 
HETATM   15  C29 UNL     1      -7.635   6.347  13.757  1.00  0.00    -0.032 C 
HETATM   16  C30 UNL     1      -7.013   7.401  12.825  1.00  0.00     0.016 C 
ENDROOT
BRANCH   1  17
HETATM   17  C7  UNL     1      -6.121   4.276  12.818  1.00  0.00    -0.014 C 
HETATM   18  C8  UNL     1      -6.836   2.942  12.603  1.00  0.00     0.010 C 
BRANCH  17  19
HETATM   19  C6  UNL     1      -4.599   3.983  12.922  1.00  0.00     0.008 C 
BRANCH  19  20
HETATM   20  C5  UNL     1      -3.833   4.129  11.601  1.00  0.00     0.028 C 
BRANCH  20  21
HETATM   21  C4  UNL     1      -3.005   2.903  11.319  1.00  0.00    -0.017 C 
HETATM   22  C2  UNL     1      -1.662   2.819  11.309  1.00  0.00    -0.028 C 
HETATM   23  C1  UNL     1      -0.676   3.920  11.549  1.00  0.00     0.051 C 
BRANCH  22  24
HETATM   24  C3  UNL     1      -1.071   1.481  11.016  1.00  0.00     0.265 C 
HETATM   25  O1  UNL     1      -0.986   1.030   9.879  1.00  0.00    -0.302 OA
ENDBRANCH  22  24
ENDBRANCH  20  21
ENDBRANCH  19  20
ENDBRANCH  17  19
ENDBRANCH   1  17
BRANCH  10  26
HETATM   26  C22 UNL     1     -12.879   7.793  14.200  1.00  0.00     0.021 C 
BRANCH  26  27
HETATM   27  C23 UNL     1     -13.507   8.193  12.862  1.00  0.00     0.111 C 
BRANCH  27  28
HETATM   28  C24 UNL     1     -14.911   7.724  12.612  1.00  0.00     0.139 C 
HETATM   29  O4  UNL     1     -15.313   7.231  11.569  1.00  0.00    -0.650 OA
BRANCH  28  30
HETATM   30  O5  UNL     1     -15.715   7.781  13.686  1.00  0.00    -0.776 OA
HETATM   31  H39 UNL     1     -16.559   7.413  13.343  1.00  0.00     0.167 HD
ENDBRANCH  28  30
ENDBRANCH  27  28
ENDBRANCH  26  27
ENDBRANCH  10  26
BRANCH   9  32
HETATM   32  C18 UNL     1     -12.415  10.619  15.978  1.00  0.00     0.080 C 
HETATM   33  C19 UNL     1     -11.889  11.551  17.088  1.00  0.00     0.048 C 
BRANCH  32  34
HETATM   34  O2  UNL     1     -13.823  10.464  16.249  1.00  0.00    -0.388 OA
HETATM   35  H31 UNL     1     -13.916  10.083  17.140  1.00  0.00     0.210 HD
ENDBRANCH  32  34
BRANCH  32  36
HETATM   36  C20 UNL     1     -12.317  11.369  14.633  1.00  0.00     0.201 C 
BRANCH  36  37
HETATM   37  O3  UNL     1     -13.454  12.209  14.449  1.00  0.00    -0.398 OA
HETATM   38  H34 UNL     1     -13.723  12.432  15.368  1.00  0.00     0.209 HD
ENDBRANCH  36  37
ENDBRANCH  32  36
ENDBRANCH   9  32
TORSDOF 13
ENDMDL
MODEL 3
REMARK minimizedAffinity -8.12250519
REMARK CNNscore 0.383884162
REMARK CNNaffinity 7.03307343
REMARK  13 active torsions:
REMARK  status: ('A' for Active; 'I' for Inactive)
REMARK    1  A    between atoms: C2_2  and  C3_3 
REMARK    2  A    between atoms: C4_5  and  C5_6 
REMARK    3  A    between atoms: C5_6  and  C6_7 
REMARK    4  A    between atoms: C6_7  and  C7_8 
REMARK    5  A    between atoms: C7_8  and  C9_10 
REMARK    6  A    between atoms: C17_18  and  C18_19 
REMARK    7  A    between atoms: C18_19  and  O2_21 
REMARK    8  A    between atoms: C18_19  and  C20_22 
REMARK    9  A    between atoms: C20_22  and  O3_23 
REMARK   10  A    between atoms: C21_24  and  C22_25 
REMARK   11  A    between atoms: C22_25  and  C23_26 
REMARK   12  A    between atoms: C23_26  and  C24_27 
REMARK   13  A    between atoms: C24_27  and  O5_29 
ROOT
HETATM    1  C9  UNL     1      -3.556   8.593  14.572  1.00  0.00    -0.002 C 
HETATM    2  C10 UNL     1      -2.881   9.955  14.803  1.00  0.00     0.006 C 
HETATM    3  C11 UNL     1      -1.360   9.700  14.715  1.00  0.00     0.011 C 
HETATM    4  C12 UNL     1      -1.174   8.194  14.376  1.00  0.00    -0.032 C 
HETATM    5  C13 UNL     1      -1.003   7.439  15.738  1.00  0.00     0.016 C 
HETATM    6  C14 UNL     1       0.088   7.828  13.525  1.00  0.00     0.004 C 
HETATM    7  C15 UNL     1       1.359   8.568  13.934  1.00  0.00     0.007 C 
HETATM    8  C16 UNL     1       2.544   7.836  13.321  1.00  0.00     0.009 C 
HETATM    9  C17 UNL     1       2.601   7.923  11.780  1.00  0.00     0.031 C 
HETATM   10  C21 UNL     1       1.196   7.846  11.069  1.00  0.00    -0.025 A 
HETATM   11  C25 UNL     1       0.241   6.680  11.244  1.00  0.00     0.021 A 
HETATM   12  C26 UNL     1      -0.067   7.941  12.010  1.00  0.00    -0.027 A 
HETATM   13  C27 UNL     1      -1.200   8.835  11.606  1.00  0.00     0.011 C 
HETATM   14  C28 UNL     1      -2.537   8.400  12.189  1.00  0.00     0.011 C 
HETATM   15  C29 UNL     1      -2.532   7.852  13.647  1.00  0.00    -0.032 C 
HETATM   16  C30 UNL     1      -2.840   6.345  13.607  1.00  0.00     0.016 C 
ENDROOT
BRANCH   1  17
HETATM   17  C7  UNL     1      -5.084   8.600  14.269  1.00  0.00    -0.014 C 
HETATM   18  C8  UNL     1      -6.018   8.873  15.449  1.00  0.00     0.010 C 
BRANCH  17  19
HETATM   19  C6  UNL     1      -5.556   7.285  13.590  1.00  0.00     0.008 C 
BRANCH  19  20
HETATM   20  C5  UNL     1      -6.499   6.431  14.448  1.00  0.00     0.028 C 
BRANCH  20  21
HETATM   21  C4  UNL     1      -6.638   5.044  13.879  1.00  0.00    -0.017 C 
HETATM   22  C2  UNL     1      -7.476   4.649  12.903  1.00  0.00    -0.028 C 
HETATM   23  C1  UNL     1      -8.482   5.483  12.171  1.00  0.00     0.051 C 
BRANCH  22  24
HETATM   24  C3  UNL     1      -7.416   3.215  12.499  1.00  0.00     0.265 C 
HETATM   25  O1  UNL     1      -7.863   2.312  13.196  1.00  0.00    -0.302 OA
ENDBRANCH  22  24
ENDBRANCH  20  21
ENDBRANCH  19  20
ENDBRANCH  17  19
ENDBRANCH   1  17
BRANCH  10  26
HETATM   26  C22 UNL     1       1.186   8.625   9.727  1.00  0.00     0.021 C 
BRANCH  26  27
HETATM   27  C23 UNL     1       0.816   7.889   8.437  1.00  0.00     0.111 C 
BRANCH  27  28
HETATM   28  C24 UNL     1       1.910   7.719   7.423  1.00  0.00     0.139 C 
HETATM   29  O4  UNL     1       1.941   6.856   6.560  1.00  0.00    -0.650 OA
BRANCH  28  30
HETATM   30  O5  UNL     1       2.846   8.682   7.450  1.00  0.00    -0.776 OA
HETATM   31  H39 UNL     1       3.443   8.423   6.714  1.00  0.00     0.167 HD
ENDBRANCH  28  30
ENDBRANCH  27  28
ENDBRANCH  26  27
ENDBRANCH  10  26
BRANCH   9  32
HETATM   32  C18 UNL     1       3.740   6.993  11.205  1.00  0.00     0.080 C 
HETATM   33  C19 UNL     1       3.155   5.757  10.492  1.00  0.00     0.048 C 
BRANCH  32  34
HETATM   34  O2  UNL     1       4.538   6.465  12.285  1.00  0.00    -0.388 OA
HETATM   35  H31 UNL     1       3.954   5.938  12.858  1.00  0.00     0.210 HD
ENDBRANCH  32  34
BRANCH  32  36
HETATM   36  C20 UNL     1       4.726   7.684  10.240  1.00  0.00     0.201 C 
BRANCH  36  37
HETATM   37  O3  UNL     1       6.037   7.146  10.402  1.00  0.00    -0.398 OA
HETATM   38  H34 UNL     1       5.870   6.227  10.708  1.00  0.00     0.209 HD
ENDBRANCH  36  37
ENDBRANCH  32  36
ENDBRANCH   9  32
TORSDOF 13
ENDMDL
MODEL 4
REMARK minimizedAffinity -7.57508707
REMARK CNNscore 0.348751932
REMARK CNNaffinity 6.8857522
REMARK  13 active torsions:
REMARK  status: ('A' for Active; 'I' for Inactive)
REMARK    1  A    between atoms: C2_2  and  C3_3 
REMARK    2  A    between atoms: C4_5  and  C5_6 
REMARK    3  A    between atoms: C5_6  and  C6_7 
REMARK    4  A    between atoms: C6_7  and  C7_8 
REMARK    5  A    between atoms: C7_8  and  C9_10 
REMARK    6  A    between atoms: C17_18  and  C18_19 
REMARK    7  A    between atoms: C18_19  and  O2_21 
REMARK    8  A    between atoms: C18_19  and  C20_22 
REMARK    9  A    between atoms: C20_22  and  O3_23 
REMARK   10  A    between atoms: C21_24  and  C22_25 
REMARK   11  A    between atoms: C22_25  and  C23_26 
REMARK   12  A    between atoms: C23_26  and  C24_27 
REMARK   13  A    between atoms: C24_27  and  O5_29 
ROOT
HETATM    1  C9  UNL     1      -5.393   7.552  14.643  1.00  0.00    -0.002 C 
HETATM    2  C10 UNL     1      -5.336   8.543  13.470  1.00  0.00     0.006 C 
HETATM    3  C11 UNL     1      -3.910   9.139  13.481  1.00  0.00     0.011 C 
HETATM    4  C12 UNL     1      -3.138   8.436  14.634  1.00  0.00    -0.032 C 
HETATM    5  C13 UNL     1      -3.292   9.343  15.901  1.00  0.00     0.016 C 
HETATM    6  C14 UNL     1      -1.596   8.257  14.424  1.00  0.00     0.004 C 
HETATM    7  C15 UNL     1      -0.899   9.469  13.812  1.00  0.00     0.007 C 
HETATM    8  C16 UNL     1       0.597   9.314  14.042  1.00  0.00     0.009 C 
HETATM    9  C17 UNL     1       1.230   8.145  13.255  1.00  0.00     0.031 C 
HETATM   10  C21 UNL     1       0.328   6.857  13.160  1.00  0.00    -0.025 A 
HETATM   11  C25 UNL     1      -0.195   6.117  14.378  1.00  0.00     0.021 A 
HETATM   12  C26 UNL     1      -1.164   7.013  13.650  1.00  0.00    -0.027 A 
HETATM   13  C27 UNL     1      -2.263   6.441  12.807  1.00  0.00     0.011 C 
HETATM   14  C28 UNL     1      -3.509   6.092  13.609  1.00  0.00     0.011 C 
HETATM   15  C29 UNL     1      -3.909   7.065  14.758  1.00  0.00    -0.032 C 
HETATM   16  C30 UNL     1      -3.680   6.357  16.104  1.00  0.00     0.016 C 
ENDROOT
BRANCH   1  17
HETATM   17  C7  UNL     1      -6.591   6.557  14.674  1.00  0.00    -0.014 C 
HETATM   18  C8  UNL     1      -6.758   5.719  15.942  1.00  0.00     0.010 C 
BRANCH  17  19
HETATM   19  C6  UNL     1      -6.579   5.582  13.464  1.00  0.00     0.008 C 
BRANCH  19  20
HETATM   20  C5  UNL     1      -6.913   4.127  13.818  1.00  0.00     0.028 C 
BRANCH  20  21
HETATM   21  C4  UNL     1      -6.762   3.231  12.617  1.00  0.00    -0.017 C 
HETATM   22  C2  UNL     1      -5.614   2.885  12.006  1.00  0.00    -0.028 C 
HETATM   23  C1  UNL     1      -4.225   3.325  12.352  1.00  0.00     0.051 C 
BRANCH  22  24
HETATM   24  C3  UNL     1      -5.722   1.965  10.836  1.00  0.00     0.265 C 
HETATM   25  O1  UNL     1      -6.154   0.823  10.931  1.00  0.00    -0.302 OA
ENDBRANCH  22  24
ENDBRANCH  20  21
ENDBRANCH  19  20
ENDBRANCH  17  19
ENDBRANCH   1  17
BRANCH  10  26
HETATM   26  C22 UNL     1       0.605   6.054  11.861  1.00  0.00     0.021 C 
BRANCH  26  27
HETATM   27  C23 UNL     1       0.640   6.790  10.519  1.00  0.00     0.111 C 
BRANCH  27  28
HETATM   28  C24 UNL     1       1.837   6.542   9.648  1.00  0.00     0.139 C 
HETATM   29  O4  UNL     1       2.197   5.448   9.242  1.00  0.00    -0.650 OA
BRANCH  28  30
HETATM   30  O5  UNL     1       2.460   7.656   9.230  1.00  0.00    -0.776 OA
HETATM   31  H39 UNL     1       3.179   7.301   8.661  1.00  0.00     0.167 HD
ENDBRANCH  28  30
ENDBRANCH  27  28
ENDBRANCH  26  27
ENDBRANCH  10  26
BRANCH   9  32
HETATM   32  C18 UNL     1       2.734   7.928  13.683  1.00  0.00     0.080 C 
HETATM   33  C19 UNL     1       3.552   9.229  13.555  1.00  0.00     0.048 C 
BRANCH  32  34
HETATM   34  O2  UNL     1       3.371   6.991  12.790  1.00  0.00    -0.388 OA
HETATM   35  H31 UNL     1       3.345   7.368  11.893  1.00  0.00     0.210 HD
ENDBRANCH  32  34
BRANCH  32  36
HETATM   36  C20 UNL     1       2.938   7.369  15.107  1.00  0.00     0.201 C 
BRANCH  36  37
HETATM   37  O3  UNL     1       3.503   8.365  15.956  1.00  0.00    -0.398 OA
HETATM   38  H34 UNL     1       3.181   9.207  15.564  1.00  0.00     0.209 HD
ENDBRANCH  36  37
ENDBRANCH  32  36
ENDBRANCH   9  32
TORSDOF 13
ENDMDL
MODEL 5
REMARK minimizedAffinity -7.18889236
REMARK CNNscore 0.277853787
REMARK CNNaffinity 6.49820566
REMARK  13 active torsions:
REMARK  status: ('A' for Active; 'I' for Inactive)
REMARK    1  A    between atoms: C2_2  and  C3_3 
REMARK    2  A    between atoms: C4_5  and  C5_6 
REMARK    3  A    between atoms: C5_6  and  C6_7 
REMARK    4  A    between atoms: C6_7  and  C7_8 
REMARK    5  A    between atoms: C7_8  and  C9_10 
REMARK    6  A    between atoms: C17_18  and  C18_19 
REMARK    7  A    between atoms: C18_19  and  O2_21 
REMARK    8  A    between atoms: C18_19  and  C20_22 
REMARK    9  A    between atoms: C20_22  and  O3_23 
REMARK   10  A    between atoms: C21_24  and  C22_25 
REMARK   11  A    between atoms: C22_25  and  C23_26 
REMARK   12  A    between atoms: C23_26  and  C24_27 
REMARK   13  A    between atoms: C24_27  and  O5_29 
ROOT
HETATM    1  C9  UNL     1      -2.284   6.599  13.374  1.00  0.00    -0.002 C 
HETATM    2  C10 UNL     1      -1.566   7.667  12.533  1.00  0.00     0.006 C 
HETATM    3  C11 UNL     1      -2.105   9.030  13.020  1.00  0.00     0.011 C 
HETATM    4  C12 UNL     1      -3.093   8.734  14.184  1.00  0.00    -0.032 C 
HETATM    5  C13 UNL     1      -4.523   8.639  13.552  1.00  0.00     0.016 C 
HETATM    6  C14 UNL     1      -3.193   9.827  15.301  1.00  0.00     0.004 C 
HETATM    7  C15 UNL     1      -3.208  11.262  14.778  1.00  0.00     0.007 C 
HETATM    8  C16 UNL     1      -3.707  12.162  15.898  1.00  0.00     0.009 C 
HETATM    9  C17 UNL     1      -2.735  12.264  17.094  1.00  0.00     0.031 C 
HETATM   10  C21 UNL     1      -2.002  10.918  17.458  1.00  0.00    -0.025 A 
HETATM   11  C25 UNL     1      -2.740   9.640  17.812  1.00  0.00     0.021 A 
HETATM   12  C26 UNL     1      -2.161   9.737  16.424  1.00  0.00    -0.027 A 
HETATM   13  C27 UNL     1      -0.946   8.950  16.035  1.00  0.00     0.011 C 
HETATM   14  C28 UNL     1      -1.273   7.537  15.576  1.00  0.00     0.011 C 
HETATM   15  C29 UNL     1      -2.562   7.349  14.721  1.00  0.00    -0.032 C 
HETATM   16  C30 UNL     1      -3.599   6.580  15.557  1.00  0.00     0.016 C 
ENDROOT
BRANCH   1  17
HETATM   17  C7  UNL     1      -1.698   5.156  13.339  1.00  0.00    -0.014 C 
HETATM   18  C8  UNL     1      -0.449   4.940  12.485  1.00  0.00     0.010 C 
BRANCH  17  19
HETATM   19  C6  UNL     1      -2.753   4.102  12.905  1.00  0.00     0.008 C 
BRANCH  19  20
HETATM   20  C5  UNL     1      -3.927   4.672  12.098  1.00  0.00     0.028 C 
BRANCH  20  21
HETATM   21  C4  UNL     1      -5.243   4.325  12.740  1.00  0.00    -0.017 C 
HETATM   22  C2  UNL     1      -6.054   3.300  12.420  1.00  0.00    -0.028 C 
HETATM   23  C1  UNL     1      -5.856   2.282  11.340  1.00  0.00     0.051 C 
BRANCH  22  24
HETATM   24  C3  UNL     1      -7.306   3.153  13.218  1.00  0.00     0.265 C 
HETATM   25  O1  UNL     1      -8.245   2.456  12.852  1.00  0.00    -0.302 OA
ENDBRANCH  22  24
ENDBRANCH  20  21
ENDBRANCH  19  20
ENDBRANCH  17  19
ENDBRANCH   1  17
BRANCH  10  26
HETATM   26  C22 UNL     1      -0.607  11.173  18.088  1.00  0.00     0.021 C 
BRANCH  26  27
HETATM   27  C23 UNL     1      -0.393  10.881  19.575  1.00  0.00     0.111 C 
BRANCH  27  28
HETATM   28  C24 UNL     1       0.980  11.148  20.121  1.00  0.00     0.139 C 
HETATM   29  O4  UNL     1       1.323  12.169  20.694  1.00  0.00    -0.650 OA
BRANCH  28  30
HETATM   30  O5  UNL     1       1.824  10.106  20.035  1.00  0.00    -0.776 OA
HETATM   31  H39 UNL     1       2.639  10.452  20.460  1.00  0.00     0.167 HD
ENDBRANCH  28  30
ENDBRANCH  27  28
ENDBRANCH  26  27
ENDBRANCH  10  26
BRANCH   9  32
HETATM   32  C18 UNL     1      -3.395  13.058  18.289  1.00  0.00     0.080 C 
HETATM   33  C19 UNL     1      -2.373  13.975  18.992  1.00  0.00     0.048 C 
BRANCH  32  34
HETATM   34  O2  UNL     1      -3.840  12.138  19.307  1.00  0.00    -0.388 OA
HETATM   35  H31 UNL     1      -3.061  11.655  19.635  1.00  0.00     0.210 HD
ENDBRANCH  32  34
BRANCH  32  36
HETATM   36  C20 UNL     1      -4.626  13.909  17.912  1.00  0.00     0.201 C 
BRANCH  36  37
HETATM   37  O3  UNL     1      -5.123  14.598  19.057  1.00  0.00    -0.398 OA
HETATM   38  H34 UNL     1      -4.324  14.716  19.616  1.00  0.00     0.209 HD
ENDBRANCH  36  37
ENDBRANCH  32  36
ENDBRANCH   9  32
TORSDOF 13
ENDMDL
MODEL 6
REMARK minimizedAffinity -8.47834015
REMARK CNNscore 0.277577192
REMARK CNNaffinity 6.92786789
REMARK  13 active torsions:
REMARK  status: ('A' for Active; 'I' for Inactive)
REMARK    1  A    between atoms: C2_2  and  C3_3 
REMARK    2  A    between atoms: C4_5  and  C5_6 
REMARK    3  A    between atoms: C5_6  and  C6_7 
REMARK    4  A    between atoms: C6_7  and  C7_8 
REMARK    5  A    between atoms: C7_8  and  C9_10 
REMARK    6  A    between atoms: C17_18  and  C18_19 
REMARK    7  A    between atoms: C18_19  and  O2_21 
REMARK    8  A    between atoms: C18_19  and  C20_22 
REMARK    9  A    between atoms: C20_22  and  O3_23 
REMARK   10  A    between atoms: C21_24  and  C22_25 
REMARK   11  A    between atoms: C22_25  and  C23_26 
REMARK   12  A    between atoms: C23_26  and  C24_27 
REMARK   13  A    between atoms: C24_27  and  O5_29 
ROOT
HETATM    1  C9  UNL     1       0.721   7.831  13.259  1.00  0.00    -0.002 C 
HETATM    2  C10 UNL     1       0.365   7.434  14.701  1.00  0.00     0.006 C 
HETATM    3  C11 UNL     1      -1.121   7.013  14.676  1.00  0.00     0.011 C 
HETATM    4  C12 UNL     1      -1.595   7.118  13.198  1.00  0.00    -0.032 C 
HETATM    5  C13 UNL     1      -2.219   8.544  13.022  1.00  0.00     0.016 C 
HETATM    6  C14 UNL     1      -2.706   6.108  12.755  1.00  0.00     0.004 C 
HETATM    7  C15 UNL     1      -3.815   5.901  13.784  1.00  0.00     0.007 C 
HETATM    8  C16 UNL     1      -4.990   5.242  13.078  1.00  0.00     0.009 C 
HETATM    9  C17 UNL     1      -4.707   3.797  12.612  1.00  0.00     0.031 C 
HETATM   10  C21 UNL     1      -3.249   3.561  12.063  1.00  0.00    -0.025 A 
HETATM   11  C25 UNL     1      -2.663   4.345  10.902  1.00  0.00     0.021 A 
HETATM   12  C26 UNL     1      -2.221   4.737  12.289  1.00  0.00    -0.027 A 
HETATM   13  C27 UNL     1      -0.846   4.407  12.786  1.00  0.00     0.011 C 
HETATM   14  C28 UNL     1       0.196   5.441  12.385  1.00  0.00     0.011 C 
HETATM   15  C29 UNL     1      -0.242   6.935  12.407  1.00  0.00    -0.032 C 
HETATM   16  C30 UNL     1      -0.308   7.449  10.958  1.00  0.00     0.016 C 
ENDROOT
BRANCH   1  17
HETATM   17  C7  UNL     1       2.232   7.975  12.915  1.00  0.00    -0.014 C 
HETATM   18  C8  UNL     1       2.733   9.383  12.590  1.00  0.00     0.010 C 
BRANCH  17  19
HETATM   19  C6  UNL     1       2.664   7.042  11.750  1.00  0.00     0.008 C 
BRANCH  19  20
HETATM   20  C5  UNL     1       3.576   7.705  10.710  1.00  0.00     0.028 C 
BRANCH  20  21
HETATM   21  C4  UNL     1       3.032   7.521   9.319  1.00  0.00    -0.017 C 
HETATM   22  C2  UNL     1       2.949   6.370   8.628  1.00  0.00    -0.028 C 
HETATM   23  C1  UNL     1       3.397   5.009   9.063  1.00  0.00     0.051 C 
BRANCH  22  24
HETATM   24  C3  UNL     1       2.353   6.441   7.262  1.00  0.00     0.265 C 
HETATM   25  O1  UNL     1       1.929   7.485   6.779  1.00  0.00    -0.302 OA
ENDBRANCH  22  24
ENDBRANCH  20  21
ENDBRANCH  19  20
ENDBRANCH  17  19
ENDBRANCH   1  17
BRANCH  10  26
HETATM   26  C22 UNL     1      -2.775   2.102  12.294  1.00  0.00     0.021 C 
BRANCH  26  27
HETATM   27  C23 UNL     1      -2.439   1.224  11.087  1.00  0.00     0.111 C 
BRANCH  27  28
HETATM   28  C24 UNL     1      -1.028   1.291  10.578  1.00  0.00     0.139 C 
HETATM   29  O4  UNL     1      -0.064   1.672  11.224  1.00  0.00    -0.650 OA
BRANCH  28  30
HETATM   30  O5  UNL     1      -0.858   0.785   9.346  1.00  0.00    -0.776 OA
HETATM   31  H39 UNL     1       0.109   0.886   9.203  1.00  0.00     0.167 HD
ENDBRANCH  28  30
ENDBRANCH  27  28
ENDBRANCH  26  27
ENDBRANCH  10  26
BRANCH   9  32
HETATM   32  C18 UNL     1      -5.895   3.247  11.730  1.00  0.00     0.080 C 
HETATM   33  C19 UNL     1      -5.522   3.215  10.234  1.00  0.00     0.048 C 
BRANCH  32  34
HETATM   34  O2  UNL     1      -7.029   4.135  11.819  1.00  0.00    -0.388 OA
HETATM   35  H31 UNL     1      -6.754   5.005  11.478  1.00  0.00     0.210 HD
ENDBRANCH  32  34
BRANCH  32  36
HETATM   36  C20 UNL     1      -6.415   1.849  12.127  1.00  0.00     0.201 C 
BRANCH  36  37
HETATM   37  O3  UNL     1      -7.775   1.926  12.548  1.00  0.00    -0.398 OA
HETATM   38  H34 UNL     1      -8.124   2.696  12.048  1.00  0.00     0.209 HD
ENDBRANCH  36  37
ENDBRANCH  32  36
ENDBRANCH   9  32
TORSDOF 13
ENDMDL
MODEL 7
REMARK minimizedAffinity -8.26446724
REMARK CNNscore 0.228730351
REMARK CNNaffinity 6.63009882
REMARK  13 active torsions:
REMARK  status: ('A' for Active; 'I' for Inactive)
REMARK    1  A    between atoms: C2_2  and  C3_3 
REMARK    2  A    between atoms: C4_5  and  C5_6 
REMARK    3  A    between atoms: C5_6  and  C6_7 
REMARK    4  A    between atoms: C6_7  and  C7_8 
REMARK    5  A    between atoms: C7_8  and  C9_10 
REMARK    6  A    between atoms: C17_18  and  C18_19 
REMARK    7  A    between atoms: C18_19  and  O2_21 
REMARK    8  A    between atoms: C18_19  and  C20_22 
REMARK    9  A    between atoms: C20_22  and  O3_23 
REMARK   10  A    between atoms: C21_24  and  C22_25 
REMARK   11  A    between atoms: C22_25  and  C23_26 
REMARK   12  A    between atoms: C23_26  and  C24_27 
REMARK   13  A    between atoms: C24_27  and  O5_29 
ROOT
HETATM    1  C9  UNL     1      -5.850   7.126  15.181  1.00  0.00    -0.002 C 
HETATM    2  C10 UNL     1      -6.304   7.718  13.837  1.00  0.00     0.006 C 
HETATM    3  C11 UNL     1      -5.023   8.224  13.136  1.00  0.00     0.011 C 
HETATM    4  C12 UNL     1      -3.829   7.864  14.066  1.00  0.00    -0.032 C 
HETATM    5  C13 UNL     1      -3.566   9.113  14.972  1.00  0.00     0.016 C 
HETATM    6  C14 UNL     1      -2.467   7.559  13.355  1.00  0.00     0.004 C 
HETATM    7  C15 UNL     1      -2.137   8.501  12.199  1.00  0.00     0.007 C 
HETATM    8  C16 UNL     1      -0.655   8.353  11.885  1.00  0.00     0.009 C 
HETATM    9  C17 UNL     1      -0.277   6.975  11.299  1.00  0.00     0.031 C 
HETATM   10  C21 UNL     1      -1.055   5.759  11.931  1.00  0.00    -0.025 A 
HETATM   11  C25 UNL     1      -1.033   5.442  13.415  1.00  0.00     0.021 A 
HETATM   12  C26 UNL     1      -2.265   6.123  12.877  1.00  0.00    -0.027 A 
HETATM   13  C27 UNL     1      -3.555   5.376  12.716  1.00  0.00     0.011 C 
HETATM   14  C28 UNL     1      -4.384   5.340  13.992  1.00  0.00     0.011 C 
HETATM   15  C29 UNL     1      -4.398   6.629  14.867  1.00  0.00    -0.032 C 
HETATM   16  C30 UNL     1      -3.635   6.345  16.172  1.00  0.00     0.016 C 
ENDROOT
BRANCH   1  17
HETATM   17  C7  UNL     1      -6.875   6.241  15.950  1.00  0.00    -0.014 C 
HETATM   18  C8  UNL     1      -7.587   5.154  15.145  1.00  0.00     0.010 C 
BRANCH  17  19
HETATM   19  C6  UNL     1      -7.965   7.087  16.665  1.00  0.00     0.008 C 
BRANCH  19  20
HETATM   20  C5  UNL     1      -8.416   8.330  15.887  1.00  0.00     0.028 C 
BRANCH  20  21
HETATM   21  C4  UNL     1      -9.687   8.060  15.128  1.00  0.00    -0.017 C 
HETATM   22  C2  UNL     1     -10.523   8.973  14.599  1.00  0.00    -0.028 C 
HETATM   23  C1  UNL     1     -10.404  10.464  14.661  1.00  0.00     0.051 C 
BRANCH  22  24
HETATM   24  C3  UNL     1     -11.719   8.454  13.873  1.00  0.00     0.265 C 
HETATM   25  O1  UNL     1     -11.704   7.408  13.236  1.00  0.00    -0.302 OA
ENDBRANCH  22  24
ENDBRANCH  20  21
ENDBRANCH  19  20
ENDBRANCH  17  19
ENDBRANCH   1  17
BRANCH  10  26
HETATM   26  C22 UNL     1      -1.223   4.594  10.921  1.00  0.00     0.021 C 
BRANCH  26  27
HETATM   27  C23 UNL     1      -1.794   3.259  11.406  1.00  0.00     0.111 C 
BRANCH  27  28
HETATM   28  C24 UNL     1      -1.041   2.023  11.011  1.00  0.00     0.139 C 
HETATM   29  O4  UNL     1       0.174   1.903  11.029  1.00  0.00    -0.650 OA
BRANCH  28  30
HETATM   30  O5  UNL     1      -1.819   0.967  10.723  1.00  0.00    -0.776 OA
HETATM   31  H39 UNL     1      -1.163   0.263  10.523  1.00  0.00     0.167 HD
ENDBRANCH  28  30
ENDBRANCH  27  28
ENDBRANCH  26  27
ENDBRANCH  10  26
BRANCH   9  32
HETATM   32  C18 UNL     1       1.290   6.827  11.173  1.00  0.00     0.080 C 
HETATM   33  C19 UNL     1       1.920   6.348  12.496  1.00  0.00     0.048 C 
BRANCH  32  34
HETATM   34  O2  UNL     1       1.888   8.114  10.913  1.00  0.00    -0.388 OA
HETATM   35  H31 UNL     1       1.681   8.697  11.664  1.00  0.00     0.210 HD
ENDBRANCH  32  34
BRANCH  32  36
HETATM   36  C20 UNL     1       1.773   5.894  10.043  1.00  0.00     0.201 C 
BRANCH  36  37
HETATM   37  O3  UNL     1       2.346   4.708  10.590  1.00  0.00    -0.398 OA
HETATM   38  H34 UNL     1       1.875   4.601  11.445  1.00  0.00     0.209 HD
ENDBRANCH  36  37
ENDBRANCH  32  36
ENDBRANCH   9  32
TORSDOF 13
ENDMDL
MODEL 8
REMARK minimizedAffinity -7.104496
REMARK CNNscore 0.223466039
REMARK CNNaffinity 6.92594385
REMARK  13 active torsions:
REMARK  status: ('A' for Active; 'I' for Inactive)
REMARK    1  A    between atoms: C2_2  and  C3_3 
REMARK    2  A    between atoms: C4_5  and  C5_6 
REMARK    3  A    between atoms: C5_6  and  C6_7 
REMARK    4  A    between atoms: C6_7  and  C7_8 
REMARK    5  A    between atoms: C7_8  and  C9_10 
REMARK    6  A    between atoms: C17_18  and  C18_19 
REMARK    7  A    between atoms: C18_19  and  O2_21 
REMARK    8  A    between atoms: C18_19  and  C20_22 
REMARK    9  A    between atoms: C20_22  and  O3_23 
REMARK   10  A    between atoms: C21_24  and  C22_25 
REMARK   11  A    between atoms: C22_25  and  C23_26 
REMARK   12  A    between atoms: C23_26  and  C24_27 
REMARK   13  A    between atoms: C24_27  and  O5_29 
ROOT
HETATM    1  C9  UNL     1      -8.172   7.014  15.246  1.00  0.00    -0.002 C 
HETATM    2  C10 UNL     1      -8.208   5.674  15.998  1.00  0.00     0.006 C 
HETATM    3  C11 UNL     1      -7.530   4.643  15.069  1.00  0.00     0.011 C 
HETATM    4  C12 UNL     1      -7.055   5.417  13.806  1.00  0.00    -0.032 C 
HETATM    5  C13 UNL     1      -8.199   5.298  12.744  1.00  0.00     0.016 C 
HETATM    6  C14 UNL     1      -5.764   4.873  13.106  1.00  0.00     0.004 C 
HETATM    7  C15 UNL     1      -5.699   3.351  13.003  1.00  0.00     0.007 C 
HETATM    8  C16 UNL     1      -4.636   2.997  11.974  1.00  0.00     0.009 C 
HETATM    9  C17 UNL     1      -3.199   3.354  12.414  1.00  0.00     0.031 C 
HETATM   10  C21 UNL     1      -3.077   4.706  13.213  1.00  0.00    -0.025 A 
HETATM   11  C25 UNL     1      -3.534   6.043  12.657  1.00  0.00     0.021 A 
HETATM   12  C26 UNL     1      -4.434   5.374  13.664  1.00  0.00    -0.027 A 
HETATM   13  C27 UNL     1      -4.550   5.894  15.065  1.00  0.00     0.011 C 
HETATM   14  C28 UNL     1      -5.574   7.012  15.201  1.00  0.00     0.011 C 
HETATM   15  C29 UNL     1      -6.882   6.883  14.366  1.00  0.00    -0.032 C 
HETATM   16  C30 UNL     1      -6.873   7.959  13.267  1.00  0.00     0.016 C 
ENDROOT
BRANCH   1  17
HETATM   17  C7  UNL     1      -8.479   8.299  16.070  1.00  0.00    -0.014 C 
HETATM   18  C8  UNL     1      -9.620   8.211  17.085  1.00  0.00     0.010 C 
BRANCH  17  19
HETATM   19  C6  UNL     1      -8.751   9.531  15.163  1.00  0.00     0.008 C 
BRANCH  19  20
HETATM   20  C5  UNL     1     -10.181  10.080  15.250  1.00  0.00     0.028 C 
BRANCH  20  21
HETATM   21  C4  UNL     1     -10.988   9.676  14.046  1.00  0.00    -0.017 C 
HETATM   22  C2  UNL     1     -12.327   9.719  13.918  1.00  0.00    -0.028 C 
HETATM   23  C1  UNL     1     -13.329  10.149  14.945  1.00  0.00     0.051 C 
BRANCH  22  24
HETATM   24  C3  UNL     1     -12.897   9.277  12.612  1.00  0.00     0.265 C 
HETATM   25  O1  UNL     1     -13.249  10.067  11.744  1.00  0.00    -0.302 OA
ENDBRANCH  22  24
ENDBRANCH  20  21
ENDBRANCH  19  20
ENDBRANCH  17  19
ENDBRANCH   1  17
BRANCH  10  26
HETATM   26  C22 UNL     1      -1.891   4.680  14.213  1.00  0.00     0.021 C 
BRANCH  26  27
HETATM   27  C23 UNL     1      -0.788   5.734  14.094  1.00  0.00     0.111 C 
BRANCH  27  28
HETATM   28  C24 UNL     1      -0.595   6.641  15.275  1.00  0.00     0.139 C 
HETATM   29  O4  UNL     1       0.462   7.158  15.601  1.00  0.00    -0.650 OA
BRANCH  28  30
HETATM   30  O5  UNL     1      -1.729   6.954  15.925  1.00  0.00    -0.776 OA
HETATM   31  H39 UNL     1      -1.413   7.564  16.628  1.00  0.00     0.167 HD
ENDBRANCH  28  30
ENDBRANCH  27  28
ENDBRANCH  26  27
ENDBRANCH  10  26
BRANCH   9  32
HETATM   32  C18 UNL     1      -2.177   3.133  11.231  1.00  0.00     0.080 C 
HETATM   33  C19 UNL     1      -2.676   3.781   9.924  1.00  0.00     0.048 C 
BRANCH  32  34
HETATM   34  O2  UNL     1      -2.060   1.726  10.936  1.00  0.00    -0.388 OA
HETATM   35  H31 UNL     1      -2.938   1.404  10.664  1.00  0.00     0.210 HD
ENDBRANCH  32  34
BRANCH  32  36
HETATM   36  C20 UNL     1      -0.742   3.635  11.501  1.00  0.00     0.201 C 
BRANCH  36  37
HETATM   37  O3  UNL     1       0.195   2.576  11.322  1.00  0.00    -0.398 OA
HETATM   38  H34 UNL     1      -0.240   1.996  10.659  1.00  0.00     0.209 HD
ENDBRANCH  36  37
ENDBRANCH  32  36
ENDBRANCH   9  32
TORSDOF 13
ENDMDL
MODEL 9
REMARK minimizedAffinity -7.15506411
REMARK CNNscore 0.204491436
REMARK CNNaffinity 6.32275248
REMARK  13 active torsions:
REMARK  status: ('A' for Active; 'I' for Inactive)
REMARK    1  A    between atoms: C2_2  and  C3_3 
REMARK    2  A    between atoms: C4_5  and  C5_6 
REMARK    3  A    between atoms: C5_6  and  C6_7 
REMARK    4  A    between atoms: C6_7  and  C7_8 
REMARK    5  A    between atoms: C7_8  and  C9_10 
REMARK    6  A    between atoms: C17_18  and  C18_19 
REMARK    7  A    between atoms: C18_19  and  O2_21 
REMARK    8  A    between atoms: C18_19  and  C20_22 
REMARK    9  A    between atoms: C20_22  and  O3_23 
REMARK   10  A    between atoms: C21_24  and  C22_25 
REMARK   11  A    between atoms: C22_25  and  C23_26 
REMARK   12  A    between atoms: C23_26  and  C24_27 
REMARK   13  A    between atoms: C24_27  and  O5_29 
ROOT
HETATM    1  C9  UNL     1      -1.595   6.259  13.033  1.00  0.00    -0.002 C 
HETATM    2  C10 UNL     1      -0.230   6.719  13.568  1.00  0.00     0.006 C 
HETATM    3  C11 UNL     1      -0.341   8.246  13.774  1.00  0.00     0.011 C 
HETATM    4  C12 UNL     1      -1.799   8.644  13.406  1.00  0.00    -0.032 C 
HETATM    5  C13 UNL     1      -1.787   9.067  11.898  1.00  0.00     0.016 C 
HETATM    6  C14 UNL     1      -2.400   9.863  14.185  1.00  0.00     0.004 C 
HETATM    7  C15 UNL     1      -1.431  11.027  14.376  1.00  0.00     0.007 C 
HETATM    8  C16 UNL     1      -2.244  12.253  14.766  1.00  0.00     0.009 C 
HETATM    9  C17 UNL     1      -2.901  12.147  16.160  1.00  0.00     0.031 C 
HETATM   10  C21 UNL     1      -3.450  10.713  16.516  1.00  0.00    -0.025 A 
HETATM   11  C25 UNL     1      -4.479   9.984  15.671  1.00  0.00     0.021 A 
HETATM   12  C26 UNL     1      -3.043   9.547  15.534  1.00  0.00    -0.027 A 
HETATM   13  C27 UNL     1      -2.570   8.248  16.114  1.00  0.00     0.011 C 
HETATM   14  C28 UNL     1      -2.803   7.063  15.188  1.00  0.00     0.011 C 
HETATM   15  C29 UNL     1      -2.582   7.299  13.664  1.00  0.00    -0.032 C 
HETATM   16  C30 UNL     1      -3.946   7.242  12.955  1.00  0.00     0.016 C 
ENDROOT
BRANCH   1  17
HETATM   17  C7  UNL     1      -1.887   4.730  13.051  1.00  0.00    -0.014 C 
HETATM   18  C8  UNL     1      -1.463   3.932  11.817  1.00  0.00     0.010 C 
BRANCH  17  19
HETATM   19  C6  UNL     1      -3.385   4.418  13.320  1.00  0.00     0.008 C 
BRANCH  19  20
HETATM   20  C5  UNL     1      -4.104   3.709  12.165  1.00  0.00     0.028 C 
BRANCH  20  21
HETATM   21  C4  UNL     1      -5.549   3.457  12.502  1.00  0.00    -0.017 C 
HETATM   22  C2  UNL     1      -6.300   2.410  12.114  1.00  0.00    -0.028 C 
HETATM   23  C1  UNL     1      -5.889   1.266  11.240  1.00  0.00     0.051 C 
BRANCH  22  24
HETATM   24  C3  UNL     1      -7.712   2.375  12.593  1.00  0.00     0.265 C 
HETATM   25  O1  UNL     1      -8.190   3.248  13.309  1.00  0.00    -0.302 OA
ENDBRANCH  22  24
ENDBRANCH  20  21
ENDBRANCH  19  20
ENDBRANCH  17  19
ENDBRANCH   1  17
BRANCH  10  26
HETATM   26  C22 UNL     1      -3.415  10.446  18.044  1.00  0.00     0.021 C 
BRANCH  26  27
HETATM   27  C23 UNL     1      -2.064  10.378  18.761  1.00  0.00     0.111 C 
BRANCH  27  28
HETATM   28  C24 UNL     1      -1.191  11.595  18.667  1.00  0.00     0.139 C 
HETATM   29  O4  UNL     1      -1.412  12.665  19.212  1.00  0.00    -0.650 OA
BRANCH  28  30
HETATM   30  O5  UNL     1      -0.040  11.401  18.002  1.00  0.00    -0.776 OA
HETATM   31  H39 UNL     1       0.400  12.278  18.071  1.00  0.00     0.167 HD
ENDBRANCH  28  30
ENDBRANCH  27  28
ENDBRANCH  26  27
ENDBRANCH  10  26
BRANCH   9  32
HETATM   32  C18 UNL     1      -3.874  13.363  16.418  1.00  0.00     0.080 C 
HETATM   33  C19 UNL     1      -4.686  13.173  17.715  1.00  0.00     0.048 C 
BRANCH  32  34
HETATM   34  O2  UNL     1      -4.857  13.442  15.364  1.00  0.00    -0.388 OA
HETATM   35  H31 UNL     1      -5.370  12.615  15.372  1.00  0.00     0.210 HD
ENDBRANCH  32  34
BRANCH  32  36
HETATM   36  C20 UNL     1      -3.194  14.748  16.474  1.00  0.00     0.201 C 
BRANCH  36  37
HETATM   37  O3  UNL     1      -2.515  14.917  17.716  1.00  0.00    -0.398 OA
HETATM   38  H34 UNL     1      -2.277  13.999  17.972  1.00  0.00     0.209 HD
ENDBRANCH  36  37
ENDBRANCH  32  36
ENDBRANCH   9  32
TORSDOF 13
ENDMDL
