MODEL 1
REMARK minimizedAffinity -6.66980362
REMARK CNNscore 0.486888528
REMARK CNNaffinity 6.47453547
REMARK  9 active torsions:
REMARK  status: ('A' for Active; 'I' for Inactive)
REMARK    1  A    between atoms: C2_2  and  C3_3 
REMARK    2  A    between atoms: C2_2  and  C9_12 
REMARK    3  A    between atoms: C3_3  and  C4_4 
REMARK    4  A    between atoms: C4_4  and  C5_5 
REMARK    5  A    between atoms: C5_5  and  O1_6 
REMARK    6  A    between atoms: C5_5  and  C6_7 
REMARK    7  A    between atoms: C6_7  and  O2_9 
REMARK    8  A    between atoms: C6_7  and  C8_10 
REMARK    9  A    between atoms: C8_10  and  O3_11 
ROOT
HETATM    1  C9  UNL     1      -1.082  10.752  16.640  1.00  0.00    -0.002 C 
HETATM    2  C10 UNL     1       0.132  10.338  17.518  1.00  0.00     0.007 C 
HETATM    3  C11 UNL     1       1.092   9.541  16.612  1.00  0.00     0.015 C 
HETATM    4  C12 UNL     1       0.633   9.847  15.172  1.00  0.00    -0.005 C 
HETATM    5  C13 UNL     1       1.259  11.223  14.781  1.00  0.00     0.021 C 
HETATM    6  C14 UNL     1       1.007   8.928  14.017  1.00  0.00    -0.000 C 
HETATM    7  C15 UNL     1       0.202   8.811  12.927  1.00  0.00    -0.060 C 
HETATM    8  C16 UNL     1      -1.141   9.549  12.861  1.00  0.00     0.036 C 
HETATM    9  C17 UNL     1      -1.572  10.375  14.090  1.00  0.00     0.015 C 
HETATM   10  C18 UNL     1      -0.936   9.848  15.381  1.00  0.00    -0.028 C 
HETATM   11  C19 UNL     1      -1.513   8.431  15.664  1.00  0.00     0.016 C 
HETATM   12  C20 UNL     1       0.553   7.900  11.721  1.00  0.00    -0.014 C 
HETATM   13  C21 UNL     1      -0.114   6.537  12.018  1.00  0.00     0.020 C 
HETATM   14  C22 UNL     1      -0.006   8.463  10.388  1.00  0.00     0.021 C 
HETATM   15  C23 UNL     1       0.441   7.683   9.162  1.00  0.00     0.080 C 
HETATM   16  C24 UNL     1       1.945   7.665   9.073  1.00  0.00     0.135 C 
HETATM   17  O4  UNL     1       2.500   7.952   8.011  1.00  0.00    -0.297 OA
HETATM   18  C25 UNL     1       2.723   7.191  10.309  1.00  0.00     0.018 C 
HETATM   19  C26 UNL     1       4.193   7.655  10.143  1.00  0.00     0.023 C 
HETATM   20  C27 UNL     1       2.735   5.656  10.309  1.00  0.00     0.023 C 
HETATM   21  C28 UNL     1       2.115   7.854  11.595  1.00  0.00     0.020 C 
HETATM   22  C29 UNL     1       2.728   7.338  12.901  1.00  0.00     0.090 C 
HETATM   23  C30 UNL     1       2.309   8.186  14.078  1.00  0.00     0.157 C 
HETATM   24  O5  UNL     1       3.028   8.237  15.075  1.00  0.00    -0.293 OA
ENDROOT
BRANCH   1  25
HETATM   25  C2  UNL     1      -2.413  10.903  17.439  1.00  0.00    -0.014 C 
HETATM   26  C1  UNL     1      -2.614   9.951  18.621  1.00  0.00     0.010 C 
BRANCH  25  27
HETATM   27  C3  UNL     1      -3.640  10.901  16.498  1.00  0.00     0.007 C 
BRANCH  27  28
HETATM   28  C4  UNL     1      -4.016  12.281  15.923  1.00  0.00     0.035 C 
BRANCH  28  29
HETATM   29  C5  UNL     1      -5.190  12.964  16.639  1.00  0.00     0.154 C 
BRANCH  29  30
HETATM   30  O1  UNL     1      -5.948  13.712  15.674  1.00  0.00    -0.392 OA
HETATM   31  H10 UNL     1      -6.578  14.235  16.215  1.00  0.00     0.210 HD
ENDBRANCH  29  30
BRANCH  29  32
HETATM   32  C6  UNL     1      -4.783  13.918  17.794  1.00  0.00     0.101 C 
HETATM   33  C7  UNL     1      -4.800  13.235  19.169  1.00  0.00     0.051 C 
BRANCH  32  34
HETATM   34  O2  UNL     1      -3.406  14.295  17.545  1.00  0.00    -0.385 OA
HETATM   35  H14 UNL     1      -3.284  15.150  18.006  1.00  0.00     0.210 HD
ENDBRANCH  32  34
BRANCH  32  36
HETATM   36  C8  UNL     1      -5.631  15.205  17.795  1.00  0.00     0.204 C 
BRANCH  36  37
HETATM   37  O3  UNL     1      -5.847  15.642  19.141  1.00  0.00    -0.398 OA
HETATM   38  H17 UNL     1      -6.604  15.140  19.494  1.00  0.00     0.209 HD
ENDBRANCH  36  37
ENDBRANCH  32  36
ENDBRANCH  29  32
ENDBRANCH  28  29
ENDBRANCH  27  28
ENDBRANCH  25  27
ENDBRANCH   1  25
TORSDOF 9
ENDMDL
MODEL 2
REMARK minimizedAffinity -7.95666456
REMARK CNNscore 0.460019678
REMARK CNNaffinity 6.44970751
REMARK  9 active torsions:
REMARK  status: ('A' for Active; 'I' for Inactive)
REMARK    1  A    between atoms: C2_2  and  C3_3 
REMARK    2  A    between atoms: C2_2  and  C9_12 
REMARK    3  A    between atoms: C3_3  and  C4_4 
REMARK    4  A    between atoms: C4_4  and  C5_5 
REMARK    5  A    between atoms: C5_5  and  O1_6 
REMARK    6  A    between atoms: C5_5  and  C6_7 
REMARK    7  A    between atoms: C6_7  and  O2_9 
REMARK    8  A    between atoms: C6_7  and  C8_10 
REMARK    9  A    between atoms: C8_10  and  O3_11 
ROOT
HETATM    1  C9  UNL     1       7.250  10.054  15.328  1.00  0.00    -0.002 C 
HETATM    2  C10 UNL     1       8.428   9.535  14.458  1.00  0.00     0.007 C 
HETATM    3  C11 UNL     1       7.813   8.935  13.178  1.00  0.00     0.015 C 
HETATM    4  C12 UNL     1       6.367   9.469  13.138  1.00  0.00    -0.005 C 
HETATM    5  C13 UNL     1       6.432  10.911  12.543  1.00  0.00     0.021 C 
HETATM    6  C14 UNL     1       5.296   8.773  12.309  1.00  0.00    -0.000 C 
HETATM    7  C15 UNL     1       3.987   8.818  12.676  1.00  0.00    -0.060 C 
HETATM    8  C16 UNL     1       3.560   9.513  13.975  1.00  0.00     0.036 C 
HETATM    9  C17 UNL     1       4.665  10.103  14.874  1.00  0.00     0.015 C 
HETATM   10  C18 UNL     1       6.004   9.384  14.677  1.00  0.00    -0.028 C 
HETATM   11  C19 UNL     1       5.850   7.922  15.186  1.00  0.00     0.016 C 
HETATM   12  C20 UNL     1       2.862   8.138  11.851  1.00  0.00    -0.014 C 
HETATM   13  C21 UNL     1       2.698   6.724  12.454  1.00  0.00     0.020 C 
HETATM   14  C22 UNL     1       1.518   8.904  11.966  1.00  0.00     0.021 C 
HETATM   15  C23 UNL     1       0.428   8.360  11.056  1.00  0.00     0.080 C 
HETATM   16  C24 UNL     1       0.876   8.405   9.618  1.00  0.00     0.135 C 
HETATM   17  O4  UNL     1       0.134   8.887   8.760  1.00  0.00    -0.297 OA
HETATM   18  C25 UNL     1       2.222   7.751   9.273  1.00  0.00     0.018 C 
HETATM   19  C26 UNL     1       2.659   8.284   7.884  1.00  0.00     0.023 C 
HETATM   20  C27 UNL     1       1.997   6.240   9.124  1.00  0.00     0.023 C 
HETATM   21  C28 UNL     1       3.293   8.165  10.344  1.00  0.00     0.020 C 
HETATM   22  C29 UNL     1       4.639   7.453  10.174  1.00  0.00     0.090 C 
HETATM   23  C30 UNL     1       5.704   8.073  11.046  1.00  0.00     0.157 C 
HETATM   24  O5  UNL     1       6.885   7.976  10.722  1.00  0.00    -0.293 OA
ENDROOT
BRANCH   1  25
HETATM   25  C2  UNL     1       7.538  10.023  16.860  1.00  0.00    -0.014 C 
HETATM   26  C1  UNL     1       6.822  11.073  17.713  1.00  0.00     0.010 C 
BRANCH  25  27
HETATM   27  C3  UNL     1       9.058  10.004  17.149  1.00  0.00     0.007 C 
BRANCH  27  28
HETATM   28  C4  UNL     1       9.679  11.384  17.436  1.00  0.00     0.035 C 
BRANCH  28  29
HETATM   29  C5  UNL     1      11.042  11.329  18.141  1.00  0.00     0.154 C 
BRANCH  29  30
HETATM   30  O1  UNL     1      11.294   9.978  18.558  1.00  0.00    -0.392 OA
HETATM   31  H10 UNL     1      12.093  10.045  19.124  1.00  0.00     0.210 HD
ENDBRANCH  29  30
BRANCH  29  32
HETATM   32  C6  UNL     1      11.175  12.261  19.375  1.00  0.00     0.101 C 
HETATM   33  C7  UNL     1      10.282  13.506  19.285  1.00  0.00     0.051 C 
BRANCH  32  34
HETATM   34  O2  UNL     1      10.698  11.500  20.512  1.00  0.00    -0.385 OA
HETATM   35  H14 UNL     1      11.129  11.904  21.294  1.00  0.00     0.210 HD
ENDBRANCH  32  34
BRANCH  32  36
HETATM   36  C8  UNL     1      12.645  12.641  19.645  1.00  0.00     0.204 C 
BRANCH  36  37
HETATM   37  O3  UNL     1      13.143  11.888  20.757  1.00  0.00    -0.398 OA
HETATM   38  H17 UNL     1      12.871  12.351  21.570  1.00  0.00     0.209 HD
ENDBRANCH  36  37
ENDBRANCH  32  36
ENDBRANCH  29  32
ENDBRANCH  28  29
ENDBRANCH  27  28
ENDBRANCH  25  27
ENDBRANCH   1  25
TORSDOF 9
ENDMDL
MODEL 3
REMARK minimizedAffinity -7.01542854
REMARK CNNscore 0.458623677
REMARK CNNaffinity 6.90272903
REMARK  9 active torsions:
REMARK  status: ('A' for Active; 'I' for Inactive)
REMARK    1  A    between atoms: C2_2  and  C3_3 
REMARK    2  A    between atoms: C2_2  and  C9_12 
REMARK    3  A    between atoms: C3_3  and  C4_4 
REMARK    4  A    between atoms: C4_4  and  C5_5 
REMARK    5  A    between atoms: C5_5  and  O1_6 
REMARK    6  A    between atoms: C5_5  and  C6_7 
REMARK    7  A    between atoms: C6_7  and  O2_9 
REMARK    8  A    between atoms: C6_7  and  C8_10 
REMARK    9  A    between atoms: C8_10  and  O3_11 
ROOT
HETATM    1  C9  UNL     1      -9.939  -7.285  -4.223  1.00  0.00    -0.002 C 
HETATM    2  C10 UNL     1     -11.253  -7.423  -3.405  1.00  0.00     0.007 C 
HETATM    3  C11 UNL     1     -10.914  -8.242  -2.143  1.00  0.00     0.015 C 
HETATM    4  C12 UNL     1      -9.376  -8.214  -2.046  1.00  0.00    -0.005 C 
HETATM    5  C13 UNL     1      -8.988  -6.855  -1.382  1.00  0.00     0.021 C 
HETATM    6  C14 UNL     1      -8.622  -9.255  -1.230  1.00  0.00    -0.000 C 
HETATM    7  C15 UNL     1      -7.357  -9.626  -1.566  1.00  0.00    -0.060 C 
HETATM    8  C16 UNL     1      -6.680  -9.058  -2.820  1.00  0.00     0.036 C 
HETATM    9  C17 UNL     1      -7.498  -8.104  -3.712  1.00  0.00     0.015 C 
HETATM   10  C18 UNL     1      -9.004  -8.351  -3.580  1.00  0.00    -0.028 C 
HETATM   11  C19 UNL     1      -9.318  -9.762  -4.157  1.00  0.00     0.016 C 
HETATM   12  C20 UNL     1      -6.546 -10.669  -0.752  1.00  0.00    -0.014 C 
HETATM   13  C21 UNL     1      -6.831 -12.034  -1.420  1.00  0.00     0.020 C 
HETATM   14  C22 UNL     1      -5.022 -10.383  -0.800  1.00  0.00     0.021 C 
HETATM   15  C23 UNL     1      -4.204 -11.290   0.105  1.00  0.00     0.080 C 
HETATM   16  C24 UNL     1      -4.664 -11.158   1.534  1.00  0.00     0.135 C 
HETATM   17  O4  UNL     1      -3.838 -10.980   2.430  1.00  0.00    -0.297 OA
HETATM   18  C25 UNL     1      -6.161 -11.347   1.817  1.00  0.00     0.018 C 
HETATM   19  C26 UNL     1      -6.451 -10.757   3.221  1.00  0.00     0.023 C 
HETATM   20  C27 UNL     1      -6.448 -12.854   1.895  1.00  0.00     0.023 C 
HETATM   21  C28 UNL     1      -6.999 -10.564   0.745  1.00  0.00     0.020 C 
HETATM   22  C29 UNL     1      -8.509 -10.801   0.851  1.00  0.00     0.090 C 
HETATM   23  C30 UNL     1      -9.281  -9.832  -0.012  1.00  0.00     0.157 C 
HETATM   24  O5  UNL     1     -10.440  -9.549   0.281  1.00  0.00    -0.293 OA
ENDROOT
BRANCH   1  25
HETATM   25  C2  UNL     1     -10.166  -7.158  -5.761  1.00  0.00    -0.014 C 
HETATM   26  C1  UNL     1     -10.098  -8.454  -6.572  1.00  0.00     0.010 C 
BRANCH  25  27
HETATM   27  C3  UNL     1      -9.267  -6.060  -6.375  1.00  0.00     0.007 C 
BRANCH  27  28
HETATM   28  C4  UNL     1      -9.829  -4.629  -6.268  1.00  0.00     0.035 C 
BRANCH  28  29
HETATM   29  C5  UNL     1      -9.376  -3.864  -5.017  1.00  0.00     0.154 C 
BRANCH  29  30
HETATM   30  O1  UNL     1     -10.515  -3.646  -4.169  1.00  0.00    -0.392 OA
HETATM   31  H10 UNL     1     -10.187  -3.031  -3.477  1.00  0.00     0.210 HD
ENDBRANCH  29  30
BRANCH  29  32
HETATM   32  C6  UNL     1      -8.702  -2.494  -5.300  1.00  0.00     0.101 C 
HETATM   33  C7  UNL     1      -9.518  -1.305  -4.775  1.00  0.00     0.051 C 
BRANCH  32  34
HETATM   34  O2  UNL     1      -7.457  -2.492  -4.558  1.00  0.00    -0.385 OA
HETATM   35  H14 UNL     1      -6.880  -1.851  -5.022  1.00  0.00     0.210 HD
ENDBRANCH  32  34
BRANCH  32  36
HETATM   36  C8  UNL     1      -8.360  -2.326  -6.794  1.00  0.00     0.204 C 
BRANCH  36  37
HETATM   37  O3  UNL     1      -9.291  -1.428  -7.406  1.00  0.00    -0.398 OA
HETATM   38  H17 UNL     1     -10.084  -1.943  -7.643  1.00  0.00     0.209 HD
ENDBRANCH  36  37
ENDBRANCH  32  36
ENDBRANCH  29  32
ENDBRANCH  28  29
ENDBRANCH  27  28
ENDBRANCH  25  27
ENDBRANCH   1  25
TORSDOF 9
ENDMDL
MODEL 4
REMARK minimizedAffinity -7.98869371
REMARK CNNscore 0.441657364
REMARK CNNaffinity 6.69325018
REMARK  9 active torsions:
REMARK  status: ('A' for Active; 'I' for Inactive)
REMARK    1  A    between atoms: C2_2  and  C3_3 
REMARK    2  A    between atoms: C2_2  and  C9_12 
REMARK    3  A    between atoms: C3_3  and  C4_4 
REMARK    4  A    between atoms: C4_4  and  C5_5 
REMARK    5  A    between atoms: C5_5  and  O1_6 
REMARK    6  A    between atoms: C5_5  and  C6_7 
REMARK    7  A    between atoms: C6_7  and  O2_9 
REMARK    8  A    between atoms: C6_7  and  C8_10 
REMARK    9  A    between atoms: C8_10  and  O3_11 
ROOT
HETATM    1  C9  UNL     1      -2.416   8.859  15.507  1.00  0.00    -0.002 C 
HETATM    2  C10 UNL     1      -1.355   8.331  16.512  1.00  0.00     0.007 C 
HETATM    3  C11 UNL     1      -0.123   7.908  15.687  1.00  0.00     0.015 C 
HETATM    4  C12 UNL     1      -0.323   8.559  14.304  1.00  0.00    -0.005 C 
HETATM    5  C13 UNL     1       0.152  10.041  14.427  1.00  0.00     0.021 C 
HETATM    6  C14 UNL     1       0.410   8.035  13.077  1.00  0.00    -0.000 C 
HETATM    7  C15 UNL     1      -0.132   8.151  11.834  1.00  0.00    -0.060 C 
HETATM    8  C16 UNL     1      -1.529   8.752  11.642  1.00  0.00     0.036 C 
HETATM    9  C17 UNL     1      -2.319   9.161  12.901  1.00  0.00     0.015 C 
HETATM   10  C18 UNL     1      -1.884   8.358  14.132  1.00  0.00    -0.028 C 
HETATM   11  C19 UNL     1      -2.284   6.871  13.908  1.00  0.00     0.016 C 
HETATM   12  C20 UNL     1       0.589   7.647  10.556  1.00  0.00    -0.014 C 
HETATM   13  C21 UNL     1       0.091   6.200  10.338  1.00  0.00     0.020 C 
HETATM   14  C22 UNL     1       0.231   8.505   9.314  1.00  0.00     0.021 C 
HETATM   15  C23 UNL     1       1.029   8.140   8.072  1.00  0.00     0.080 C 
HETATM   16  C24 UNL     1       2.506   8.286   8.337  1.00  0.00     0.135 C 
HETATM   17  O4  UNL     1       3.212   8.907   7.541  1.00  0.00    -0.297 OA
HETATM   18  C25 UNL     1       3.081   7.561   9.562  1.00  0.00     0.018 C 
HETATM   19  C26 UNL     1       4.467   8.187   9.868  1.00  0.00     0.023 C 
HETATM   20  C27 UNL     1       3.325   6.094   9.181  1.00  0.00     0.023 C 
HETATM   21  C28 UNL     1       2.133   7.782  10.793  1.00  0.00     0.020 C 
HETATM   22  C29 UNL     1       2.542   6.983  12.035  1.00  0.00     0.090 C 
HETATM   23  C30 UNL     1       1.771   7.428  13.254  1.00  0.00     0.157 C 
HETATM   24  O5  UNL     1       2.257   7.267  14.372  1.00  0.00    -0.293 OA
ENDROOT
BRANCH   1  25
HETATM   25  C2  UNL     1      -3.888   8.659  15.983  1.00  0.00    -0.014 C 
HETATM   26  C1  UNL     1      -4.656   7.491  15.360  1.00  0.00     0.010 C 
BRANCH  25  27
HETATM   27  C3  UNL     1      -4.694   9.976  15.894  1.00  0.00     0.007 C 
BRANCH  27  28
HETATM   28  C4  UNL     1      -3.928  11.234  16.347  1.00  0.00     0.035 C 
BRANCH  28  29
HETATM   29  C5  UNL     1      -3.815  12.326  15.274  1.00  0.00     0.154 C 
BRANCH  29  30
HETATM   30  O1  UNL     1      -2.425  12.557  14.994  1.00  0.00    -0.392 OA
HETATM   31  H10 UNL     1      -2.423  13.357  14.425  1.00  0.00     0.210 HD
ENDBRANCH  29  30
BRANCH  29  32
HETATM   32  C6  UNL     1      -4.475  13.679  15.650  1.00  0.00     0.101 C 
HETATM   33  C7  UNL     1      -3.460  14.734  16.112  1.00  0.00     0.051 C 
BRANCH  32  34
HETATM   34  O2  UNL     1      -5.069  14.194  14.432  1.00  0.00    -0.385 OA
HETATM   35  H14 UNL     1      -5.783  14.797  14.727  1.00  0.00     0.210 HD
ENDBRANCH  32  34
BRANCH  32  36
HETATM   36  C8  UNL     1      -5.604  13.494  16.683  1.00  0.00     0.204 C 
BRANCH  36  37
HETATM   37  O3  UNL     1      -6.831  13.189  16.010  1.00  0.00    -0.398 OA
HETATM   38  H17 UNL     1      -7.227  14.032  15.726  1.00  0.00     0.209 HD
ENDBRANCH  36  37
ENDBRANCH  32  36
ENDBRANCH  29  32
ENDBRANCH  28  29
ENDBRANCH  27  28
ENDBRANCH  25  27
ENDBRANCH   1  25
TORSDOF 9
ENDMDL
MODEL 5
REMARK minimizedAffinity -7.74659157
REMARK CNNscore 0.383978218
REMARK CNNaffinity 7.09796667
REMARK  9 active torsions:
REMARK  status: ('A' for Active; 'I' for Inactive)
REMARK    1  A    between atoms: C2_2  and  C3_3 
REMARK    2  A    between atoms: C2_2  and  C9_12 
REMARK    3  A    between atoms: C3_3  and  C4_4 
REMARK    4  A    between atoms: C4_4  and  C5_5 
REMARK    5  A    between atoms: C5_5  and  O1_6 
REMARK    6  A    between atoms: C5_5  and  C6_7 
REMARK    7  A    between atoms: C6_7  and  O2_9 
REMARK    8  A    between atoms: C6_7  and  C8_10 
REMARK    9  A    between atoms: C8_10  and  O3_11 
ROOT
HETATM    1  C9  UNL     1      -2.576   7.158  14.584  1.00  0.00    -0.002 C 
HETATM    2  C10 UNL     1      -2.623   5.886  13.693  1.00  0.00     0.007 C 
HETATM    3  C11 UNL     1      -4.106   5.616  13.369  1.00  0.00     0.015 C 
HETATM    4  C12 UNL     1      -4.839   6.926  13.723  1.00  0.00    -0.005 C 
HETATM    5  C13 UNL     1      -4.653   7.891  12.509  1.00  0.00     0.021 C 
HETATM    6  C14 UNL     1      -6.339   6.941  13.983  1.00  0.00    -0.000 C 
HETATM    7  C15 UNL     1      -6.896   7.856  14.821  1.00  0.00    -0.060 C 
HETATM    8  C16 UNL     1      -6.018   8.856  15.584  1.00  0.00     0.036 C 
HETATM    9  C17 UNL     1      -4.490   8.750  15.415  1.00  0.00     0.015 C 
HETATM   10  C18 UNL     1      -4.055   7.330  15.038  1.00  0.00    -0.028 C 
HETATM   11  C19 UNL     1      -4.363   6.392  16.241  1.00  0.00     0.016 C 
HETATM   12  C20 UNL     1      -8.421   7.917  15.100  1.00  0.00    -0.014 C 
HETATM   13  C21 UNL     1      -8.653   7.038  16.350  1.00  0.00     0.020 C 
HETATM   14  C22 UNL     1      -8.897   9.364  15.396  1.00  0.00     0.021 C 
HETATM   15  C23 UNL     1     -10.406   9.493  15.527  1.00  0.00     0.080 C 
HETATM   16  C24 UNL     1     -11.084   9.022  14.266  1.00  0.00     0.135 C 
HETATM   17  O4  UNL     1     -11.948   9.722  13.736  1.00  0.00    -0.297 OA
HETATM   18  C25 UNL     1     -10.720   7.624  13.745  1.00  0.00     0.018 C 
HETATM   19  C26 UNL     1     -11.185   7.538  12.269  1.00  0.00     0.023 C 
HETATM   20  C27 UNL     1     -11.537   6.591  14.534  1.00  0.00     0.023 C 
HETATM   21  C28 UNL     1      -9.163   7.431  13.807  1.00  0.00     0.020 C 
HETATM   22  C29 UNL     1      -8.704   6.016  13.443  1.00  0.00     0.090 C 
HETATM   23  C30 UNL     1      -7.206   5.955  13.257  1.00  0.00     0.157 C 
HETATM   24  O5  UNL     1      -6.720   5.087  12.535  1.00  0.00    -0.293 OA
ENDROOT
BRANCH   1  25
HETATM   25  C2  UNL     1      -1.366   7.192  15.568  1.00  0.00    -0.014 C 
HETATM   26  C1  UNL     1      -1.357   8.319  16.603  1.00  0.00     0.010 C 
BRANCH  25  27
HETATM   27  C3  UNL     1      -0.020   7.109  14.811  1.00  0.00     0.007 C 
BRANCH  27  28
HETATM   28  C4  UNL     1      -0.134   6.682  13.335  1.00  0.00     0.035 C 
BRANCH  28  29
HETATM   29  C5  UNL     1       0.963   5.712  12.871  1.00  0.00     0.154 C 
BRANCH  29  30
HETATM   30  O1  UNL     1       2.198   6.435  12.746  1.00  0.00    -0.392 OA
HETATM   31  H10 UNL     1       2.806   5.801  12.308  1.00  0.00     0.210 HD
ENDBRANCH  29  30
BRANCH  29  32
HETATM   32  C6  UNL     1       0.671   4.995  11.526  1.00  0.00     0.101 C 
HETATM   33  C7  UNL     1       0.013   5.914  10.487  1.00  0.00     0.051 C 
BRANCH  32  34
HETATM   34  O2  UNL     1       1.959   4.619  10.978  1.00  0.00    -0.385 OA
HETATM   35  H14 UNL     1       1.776   3.864  10.381  1.00  0.00     0.210 HD
ENDBRANCH  32  34
BRANCH  32  36
HETATM   36  C8  UNL     1      -0.147   3.705  11.735  1.00  0.00     0.204 C 
BRANCH  36  37
HETATM   37  O3  UNL     1      -1.210   3.645  10.778  1.00  0.00    -0.398 OA
HETATM   38  H17 UNL     1      -1.949   4.173  11.128  1.00  0.00     0.209 HD
ENDBRANCH  36  37
ENDBRANCH  32  36
ENDBRANCH  29  32
ENDBRANCH  28  29
ENDBRANCH  27  28
ENDBRANCH  25  27
ENDBRANCH   1  25
TORSDOF 9
ENDMDL
MODEL 6
REMARK minimizedAffinity -8.78436089
REMARK CNNscore 0.372561365
REMARK CNNaffinity 6.59942245
REMARK  9 active torsions:
REMARK  status: ('A' for Active; 'I' for Inactive)
REMARK    1  A    between atoms: C2_2  and  C3_3 
REMARK    2  A    between atoms: C2_2  and  C9_12 
REMARK    3  A    between atoms: C3_3  and  C4_4 
REMARK    4  A    between atoms: C4_4  and  C5_5 
REMARK    5  A    between atoms: C5_5  and  O1_6 
REMARK    6  A    between atoms: C5_5  and  C6_7 
REMARK    7  A    between atoms: C6_7  and  O2_9 
REMARK    8  A    between atoms: C6_7  and  C8_10 
REMARK    9  A    between atoms: C8_10  and  O3_11 
ROOT
HETATM    1  C9  UNL     1      -0.793   9.269  14.701  1.00  0.00    -0.002 C 
HETATM    2  C10 UNL     1      -0.115   8.167  13.841  1.00  0.00     0.007 C 
HETATM    3  C11 UNL     1      -1.219   7.172  13.429  1.00  0.00     0.015 C 
HETATM    4  C12 UNL     1      -2.546   7.910  13.702  1.00  0.00    -0.005 C 
HETATM    5  C13 UNL     1      -2.803   8.846  12.478  1.00  0.00     0.021 C 
HETATM    6  C14 UNL     1      -3.851   7.143  13.864  1.00  0.00    -0.000 C 
HETATM    7  C15 UNL     1      -4.857   7.628  14.641  1.00  0.00    -0.060 C 
HETATM    8  C16 UNL     1      -4.677   8.929  15.433  1.00  0.00     0.036 C 
HETATM    9  C17 UNL     1      -3.306   9.631  15.366  1.00  0.00     0.015 C 
HETATM   10  C18 UNL     1      -2.176   8.646  15.054  1.00  0.00    -0.028 C 
HETATM   11  C19 UNL     1      -2.036   7.670  16.258  1.00  0.00     0.016 C 
HETATM   12  C20 UNL     1      -6.209   6.888  14.819  1.00  0.00    -0.014 C 
HETATM   13  C21 UNL     1      -6.037   6.001  16.073  1.00  0.00     0.020 C 
HETATM   14  C22 UNL     1      -7.383   7.876  15.047  1.00  0.00     0.021 C 
HETATM   15  C23 UNL     1      -8.746   7.204  15.076  1.00  0.00     0.080 C 
HETATM   16  C24 UNL     1      -8.995   6.465  13.787  1.00  0.00     0.135 C 
HETATM   17  O4  UNL     1     -10.058   6.623  13.185  1.00  0.00    -0.297 OA
HETATM   18  C25 UNL     1      -7.926   5.463  13.327  1.00  0.00     0.018 C 
HETATM   19  C26 UNL     1      -8.178   5.166  11.826  1.00  0.00     0.023 C 
HETATM   20  C27 UNL     1      -8.143   4.147  14.087  1.00  0.00     0.023 C 
HETATM   21  C28 UNL     1      -6.502   6.104  13.494  1.00  0.00     0.020 C 
HETATM   22  C29 UNL     1      -5.354   5.135  13.196  1.00  0.00     0.090 C 
HETATM   23  C30 UNL     1      -4.032   5.859  13.108  1.00  0.00     0.157 C 
HETATM   24  O5  UNL     1      -3.119   5.377  12.441  1.00  0.00    -0.293 OA
ENDROOT
BRANCH   1  25
HETATM   25  C2  UNL     1       0.154   9.912  15.760  1.00  0.00    -0.014 C 
HETATM   26  C1  UNL     1      -0.252  11.287  16.296  1.00  0.00     0.010 C 
BRANCH  25  27
HETATM   27  C3  UNL     1       1.625   9.905  15.280  1.00  0.00     0.007 C 
BRANCH  27  28
HETATM   28  C4  UNL     1       2.548   8.935  16.041  1.00  0.00     0.035 C 
BRANCH  28  29
HETATM   29  C5  UNL     1       3.184   7.848  15.163  1.00  0.00     0.154 C 
BRANCH  29  30
HETATM   30  O1  UNL     1       3.014   6.574  15.805  1.00  0.00    -0.392 OA
HETATM   31  H10 UNL     1       3.567   5.960  15.276  1.00  0.00     0.210 HD
ENDBRANCH  29  30
BRANCH  29  32
HETATM   32  C6  UNL     1       4.694   8.053  14.864  1.00  0.00     0.101 C 
HETATM   33  C7  UNL     1       5.214   9.422  15.322  1.00  0.00     0.051 C 
BRANCH  32  34
HETATM   34  O2  UNL     1       5.402   7.065  15.651  1.00  0.00    -0.385 OA
HETATM   35  H14 UNL     1       6.256   6.929  15.190  1.00  0.00     0.210 HD
ENDBRANCH  32  34
BRANCH  32  36
HETATM   36  C8  UNL     1       5.019   7.795  13.380  1.00  0.00     0.204 C 
BRANCH  36  37
HETATM   37  O3  UNL     1       3.919   7.129  12.750  1.00  0.00    -0.398 OA
HETATM   38  H17 UNL     1       4.006   6.177  12.938  1.00  0.00     0.209 HD
ENDBRANCH  36  37
ENDBRANCH  32  36
ENDBRANCH  29  32
ENDBRANCH  28  29
ENDBRANCH  27  28
ENDBRANCH  25  27
ENDBRANCH   1  25
TORSDOF 9
ENDMDL
MODEL 7
REMARK minimizedAffinity -6.73972321
REMARK CNNscore 0.359845787
REMARK CNNaffinity 5.85689402
REMARK  9 active torsions:
REMARK  status: ('A' for Active; 'I' for Inactive)
REMARK    1  A    between atoms: C2_2  and  C3_3 
REMARK    2  A    between atoms: C2_2  and  C9_12 
REMARK    3  A    between atoms: C3_3  and  C4_4 
REMARK    4  A    between atoms: C4_4  and  C5_5 
REMARK    5  A    between atoms: C5_5  and  O1_6 
REMARK    6  A    between atoms: C5_5  and  C6_7 
REMARK    7  A    between atoms: C6_7  and  O2_9 
REMARK    8  A    between atoms: C6_7  and  C8_10 
REMARK    9  A    between atoms: C8_10  and  O3_11 
ROOT
HETATM    1  C9  UNL     1     -17.378   3.572  14.287  1.00  0.00    -0.002 C 
HETATM    2  C10 UNL     1     -17.227   3.535  15.833  1.00  0.00     0.007 C 
HETATM    3  C11 UNL     1     -16.726   2.125  16.204  1.00  0.00     0.015 C 
HETATM    4  C12 UNL     1     -16.217   1.518  14.881  1.00  0.00    -0.005 C 
HETATM    5  C13 UNL     1     -14.775   2.073  14.654  1.00  0.00     0.021 C 
HETATM    6  C14 UNL     1     -16.067   0.013  14.714  1.00  0.00    -0.000 C 
HETATM    7  C15 UNL     1     -16.198  -0.574  13.494  1.00  0.00    -0.060 C 
HETATM    8  C16 UNL     1     -16.572   0.258  12.261  1.00  0.00     0.036 C 
HETATM    9  C17 UNL     1     -16.850   1.761  12.462  1.00  0.00     0.015 C 
HETATM   10  C18 UNL     1     -17.321   2.068  13.887  1.00  0.00    -0.028 C 
HETATM   11  C19 UNL     1     -18.711   1.401  14.094  1.00  0.00     0.016 C 
HETATM   12  C20 UNL     1     -16.035  -2.102  13.277  1.00  0.00    -0.014 C 
HETATM   13  C21 UNL     1     -17.456  -2.697  13.412  1.00  0.00     0.020 C 
HETATM   14  C22 UNL     1     -15.474  -2.429  11.868  1.00  0.00     0.021 C 
HETATM   15  C23 UNL     1     -15.157  -3.902  11.667  1.00  0.00     0.080 C 
HETATM   16  C24 UNL     1     -14.157  -4.369  12.694  1.00  0.00     0.135 C 
HETATM   17  O4  UNL     1     -13.166  -5.007  12.338  1.00  0.00    -0.297 OA
HETATM   18  C25 UNL     1     -14.479  -4.098  14.171  1.00  0.00     0.018 C 
HETATM   19  C26 UNL     1     -13.164  -4.264  14.975  1.00  0.00     0.023 C 
HETATM   20  C27 UNL     1     -15.444  -5.189  14.659  1.00  0.00     0.023 C 
HETATM   21  C28 UNL     1     -15.000  -2.626  14.331  1.00  0.00     0.020 C 
HETATM   22  C29 UNL     1     -15.485  -2.297  15.747  1.00  0.00     0.090 C 
HETATM   23  C30 UNL     1     -15.720  -0.815  15.917  1.00  0.00     0.157 C 
HETATM   24  O5  UNL     1     -15.646  -0.314  17.037  1.00  0.00    -0.293 OA
ENDROOT
BRANCH   1  25
HETATM   25  C2  UNL     1     -18.484   4.551  13.786  1.00  0.00    -0.014 C 
HETATM   26  C1  UNL     1     -19.291   4.105  12.564  1.00  0.00     0.010 C 
BRANCH  25  27
HETATM   27  C3  UNL     1     -17.928   5.984  13.603  1.00  0.00     0.007 C 
BRANCH  27  28
HETATM   28  C4  UNL     1     -16.701   6.088  12.678  1.00  0.00     0.035 C 
BRANCH  28  29
HETATM   29  C5  UNL     1     -16.100   7.497  12.582  1.00  0.00     0.154 C 
BRANCH  29  30
HETATM   30  O1  UNL     1     -15.791   7.777  11.207  1.00  0.00    -0.392 OA
HETATM   31  H10 UNL     1     -15.279   8.614  11.239  1.00  0.00     0.210 HD
ENDBRANCH  29  30
BRANCH  29  32
HETATM   32  C6  UNL     1     -14.819   7.718  13.431  1.00  0.00     0.101 C 
HETATM   33  C7  UNL     1     -13.593   6.985  12.867  1.00  0.00     0.051 C 
BRANCH  32  34
HETATM   34  O2  UNL     1     -14.518   9.133  13.353  1.00  0.00    -0.385 OA
HETATM   35  H14 UNL     1     -13.992   9.330  14.156  1.00  0.00     0.210 HD
ENDBRANCH  32  34
BRANCH  32  36
HETATM   36  C8  UNL     1     -15.052   7.366  14.913  1.00  0.00     0.204 C 
BRANCH  36  37
HETATM   37  O3  UNL     1     -13.805   7.036  15.535  1.00  0.00    -0.398 OA
HETATM   38  H17 UNL     1     -13.619   6.100  15.340  1.00  0.00     0.209 HD
ENDBRANCH  36  37
ENDBRANCH  32  36
ENDBRANCH  29  32
ENDBRANCH  28  29
ENDBRANCH  27  28
ENDBRANCH  25  27
ENDBRANCH   1  25
TORSDOF 9
ENDMDL
MODEL 8
REMARK minimizedAffinity -8.58950806
REMARK CNNscore 0.348253548
REMARK CNNaffinity 6.69357491
REMARK  9 active torsions:
REMARK  status: ('A' for Active; 'I' for Inactive)
REMARK    1  A    between atoms: C2_2  and  C3_3 
REMARK    2  A    between atoms: C2_2  and  C9_12 
REMARK    3  A    between atoms: C3_3  and  C4_4 
REMARK    4  A    between atoms: C4_4  and  C5_5 
REMARK    5  A    between atoms: C5_5  and  O1_6 
REMARK    6  A    between atoms: C5_5  and  C6_7 
REMARK    7  A    between atoms: C6_7  and  O2_9 
REMARK    8  A    between atoms: C6_7  and  C8_10 
REMARK    9  A    between atoms: C8_10  and  O3_11 
ROOT
HETATM    1  C9  UNL     1       1.130   7.931  13.042  1.00  0.00    -0.002 C 
HETATM    2  C10 UNL     1       1.660   6.504  12.731  1.00  0.00     0.007 C 
HETATM    3  C11 UNL     1       0.438   5.563  12.717  1.00  0.00     0.015 C 
HETATM    4  C12 UNL     1      -0.786   6.496  12.615  1.00  0.00    -0.005 C 
HETATM    5  C13 UNL     1      -0.943   6.874  11.108  1.00  0.00     0.021 C 
HETATM    6  C14 UNL     1      -2.172   6.018  13.024  1.00  0.00    -0.000 C 
HETATM    7  C15 UNL     1      -3.102   6.891  13.498  1.00  0.00    -0.060 C 
HETATM    8  C16 UNL     1      -2.757   8.371  13.699  1.00  0.00     0.036 C 
HETATM    9  C17 UNL     1      -1.312   8.822  13.406  1.00  0.00     0.015 C 
HETATM   10  C18 UNL     1      -0.313   7.671  13.565  1.00  0.00    -0.028 C 
HETATM   11  C19 UNL     1      -0.278   7.262  15.066  1.00  0.00     0.016 C 
HETATM   12  C20 UNL     1      -4.532   6.450  13.909  1.00  0.00    -0.014 C 
HETATM   13  C21 UNL     1      -4.454   6.138  15.421  1.00  0.00     0.020 C 
HETATM   14  C22 UNL     1      -5.575   7.573  13.671  1.00  0.00     0.021 C 
HETATM   15  C23 UNL     1      -7.009   7.134  13.918  1.00  0.00     0.080 C 
HETATM   16  C24 UNL     1      -7.361   5.968  13.032  1.00  0.00     0.135 C 
HETATM   17  O4  UNL     1      -8.405   5.988  12.377  1.00  0.00    -0.297 OA
HETATM   18  C25 UNL     1      -6.427   4.749  13.059  1.00  0.00     0.018 C 
HETATM   19  C26 UNL     1      -6.731   3.897  11.800  1.00  0.00     0.023 C 
HETATM   20  C27 UNL     1      -6.793   3.892  14.280  1.00  0.00     0.023 C 
HETATM   21  C28 UNL     1      -4.935   5.233  13.006  1.00  0.00     0.020 C 
HETATM   22  C29 UNL     1      -3.916   4.101  13.172  1.00  0.00     0.090 C 
HETATM   23  C30 UNL     1      -2.517   4.568  12.849  1.00  0.00     0.157 C 
HETATM   24  O5  UNL     1      -1.677   3.754  12.471  1.00  0.00    -0.293 OA
ENDROOT
BRANCH   1  25
HETATM   25  C2  UNL     1       2.161   8.837  13.784  1.00  0.00    -0.014 C 
HETATM   26  C1  UNL     1       2.713  10.030  13.001  1.00  0.00     0.010 C 
BRANCH  25  27
HETATM   27  C3  UNL     1       3.300   7.998  14.412  1.00  0.00     0.007 C 
BRANCH  27  28
HETATM   28  C4  UNL     1       4.722   8.450  14.029  1.00  0.00     0.035 C 
BRANCH  28  29
HETATM   29  C5  UNL     1       5.843   7.593  14.635  1.00  0.00     0.154 C 
BRANCH  29  30
HETATM   30  O1  UNL     1       5.296   6.808  15.707  1.00  0.00    -0.392 OA
HETATM   31  H10 UNL     1       6.082   6.409  16.139  1.00  0.00     0.210 HD
ENDBRANCH  29  30
BRANCH  29  32
HETATM   32  C6  UNL     1       7.055   8.396  15.178  1.00  0.00     0.101 C 
HETATM   33  C7  UNL     1       6.843   9.915  15.118  1.00  0.00     0.051 C 
BRANCH  32  34
HETATM   34  O2  UNL     1       7.171   8.057  16.582  1.00  0.00    -0.385 OA
HETATM   35  H14 UNL     1       8.108   8.227  16.813  1.00  0.00     0.210 HD
ENDBRANCH  32  34
BRANCH  32  36
HETATM   36  C8  UNL     1       8.368   7.983  14.483  1.00  0.00     0.204 C 
BRANCH  36  37
HETATM   37  O3  UNL     1       8.263   8.212  13.074  1.00  0.00    -0.398 OA
HETATM   38  H17 UNL     1       7.811   7.441  12.685  1.00  0.00     0.209 HD
ENDBRANCH  36  37
ENDBRANCH  32  36
ENDBRANCH  29  32
ENDBRANCH  28  29
ENDBRANCH  27  28
ENDBRANCH  25  27
ENDBRANCH   1  25
TORSDOF 9
ENDMDL
MODEL 9
REMARK minimizedAffinity -8.42751789
REMARK CNNscore 0.283465415
REMARK CNNaffinity 6.70551729
REMARK  9 active torsions:
REMARK  status: ('A' for Active; 'I' for Inactive)
REMARK    1  A    between atoms: C2_2  and  C3_3 
REMARK    2  A    between atoms: C2_2  and  C9_12 
REMARK    3  A    between atoms: C3_3  and  C4_4 
REMARK    4  A    between atoms: C4_4  and  C5_5 
REMARK    5  A    between atoms: C5_5  and  O1_6 
REMARK    6  A    between atoms: C5_5  and  C6_7 
REMARK    7  A    between atoms: C6_7  and  O2_9 
REMARK    8  A    between atoms: C6_7  and  C8_10 
REMARK    9  A    between atoms: C8_10  and  O3_11 
ROOT
HETATM    1  C9  UNL     1      -3.267   7.732  14.892  1.00  0.00    -0.002 C 
HETATM    2  C10 UNL     1      -3.924   6.403  14.428  1.00  0.00     0.007 C 
HETATM    3  C11 UNL     1      -3.003   5.797  13.350  1.00  0.00     0.015 C 
HETATM    4  C12 UNL     1      -1.664   6.548  13.497  1.00  0.00    -0.005 C 
HETATM    5  C13 UNL     1      -0.892   5.870  14.672  1.00  0.00     0.021 C 
HETATM    6  C14 UNL     1      -0.654   6.581  12.359  1.00  0.00    -0.000 C 
HETATM    7  C15 UNL     1       0.194   7.634  12.206  1.00  0.00    -0.060 C 
HETATM    8  C16 UNL     1       0.109   8.851  13.135  1.00  0.00     0.036 C 
HETATM    9  C17 UNL     1      -1.002   8.866  14.204  1.00  0.00     0.015 C 
HETATM   10  C18 UNL     1      -2.202   8.008  13.790  1.00  0.00    -0.028 C 
HETATM   11  C19 UNL     1      -2.869   8.670  12.550  1.00  0.00     0.016 C 
HETATM   12  C20 UNL     1       1.250   7.701  11.070  1.00  0.00    -0.014 C 
HETATM   13  C21 UNL     1       0.561   8.439   9.901  1.00  0.00     0.020 C 
HETATM   14  C22 UNL     1       2.514   8.491  11.502  1.00  0.00     0.021 C 
HETATM   15  C23 UNL     1       3.634   8.452  10.475  1.00  0.00     0.080 C 
HETATM   16  C24 UNL     1       4.041   7.029  10.195  1.00  0.00     0.135 C 
HETATM   17  O4  UNL     1       5.232   6.716  10.216  1.00  0.00    -0.297 OA
HETATM   18  C25 UNL     1       2.934   6.040   9.800  1.00  0.00     0.018 C 
HETATM   19  C26 UNL     1       3.498   4.608   9.984  1.00  0.00     0.023 C 
HETATM   20  C27 UNL     1       2.643   6.219   8.303  1.00  0.00     0.023 C 
HETATM   21  C28 UNL     1       1.698   6.233  10.748  1.00  0.00     0.020 C 
HETATM   22  C29 UNL     1       0.481   5.392  10.351  1.00  0.00     0.090 C 
HETATM   23  C30 UNL     1      -0.574   5.405  11.431  1.00  0.00     0.157 C 
HETATM   24  O5  UNL     1      -1.363   4.467  11.519  1.00  0.00    -0.293 OA
ENDROOT
BRANCH   1  25
HETATM   25  C2  UNL     1      -4.290   8.801  15.385  1.00  0.00    -0.014 C 
HETATM   26  C1  UNL     1      -3.820   9.735  16.502  1.00  0.00     0.010 C 
BRANCH  25  27
HETATM   27  C3  UNL     1      -5.658   8.162  15.721  1.00  0.00     0.007 C 
BRANCH  27  28
HETATM   28  C4  UNL     1      -6.617   8.020  14.524  1.00  0.00     0.035 C 
BRANCH  28  29
HETATM   29  C5  UNL     1      -8.086   7.803  14.913  1.00  0.00     0.154 C 
BRANCH  29  30
HETATM   30  O1  UNL     1      -8.251   8.133  16.302  1.00  0.00    -0.392 OA
HETATM   31  H10 UNL     1      -9.160   7.830  16.516  1.00  0.00     0.210 HD
ENDBRANCH  29  30
BRANCH  29  32
HETATM   32  C6  UNL     1      -8.615   6.362  14.682  1.00  0.00     0.101 C 
HETATM   33  C7  UNL     1      -7.500   5.307  14.684  1.00  0.00     0.051 C 
BRANCH  32  34
HETATM   34  O2  UNL     1      -9.467   6.054  15.813  1.00  0.00    -0.385 OA
HETATM   35  H14 UNL     1     -10.080   5.360  15.494  1.00  0.00     0.210 HD
ENDBRANCH  32  34
BRANCH  32  36
HETATM   36  C8  UNL     1      -9.474   6.270  13.406  1.00  0.00     0.204 C 
BRANCH  36  37
HETATM   37  O3  UNL     1      -8.642   5.966  12.281  1.00  0.00    -0.398 OA
HETATM   38  H17 UNL     1      -8.259   6.804  11.966  1.00  0.00     0.209 HD
ENDBRANCH  36  37
ENDBRANCH  32  36
ENDBRANCH  29  32
ENDBRANCH  28  29
ENDBRANCH  27  28
ENDBRANCH  25  27
ENDBRANCH   1  25
TORSDOF 9
ENDMDL
