MODEL 1
REMARK minimizedAffinity -9.55654335
REMARK  9 active torsions:
REMARK  status: ('A' for Active; 'I' for Inactive)
REMARK    1  A    between atoms: C2_2  and  C3_3 
REMARK    2  A    between atoms: C2_2  and  C9_12 
REMARK    3  A    between atoms: C3_3  and  C4_4 
REMARK    4  A    between atoms: C4_4  and  C5_5 
REMARK    5  A    between atoms: C5_5  and  O1_6 
REMARK    6  A    between atoms: C5_5  and  C6_7 
REMARK    7  A    between atoms: C6_7  and  O2_9 
REMARK    8  A    between atoms: C6_7  and  C8_10 
REMARK    9  A    between atoms: C8_10  and  O3_11 
ROOT
HETATM    1  C9  UNL     1      -2.334   6.437  12.742  1.00  0.00    -0.002 C 
HETATM    2  C10 UNL     1      -2.349   7.439  13.928  1.00  0.00     0.007 C 
HETATM    3  C11 UNL     1      -0.990   8.164  13.926  1.00  0.00     0.015 C 
HETATM    4  C12 UNL     1      -0.399   7.901  12.528  1.00  0.00    -0.005 C 
HETATM    5  C13 UNL     1      -1.066   8.921  11.550  1.00  0.00     0.021 C 
HETATM    6  C14 UNL     1       1.097   8.055  12.271  1.00  0.00    -0.000 C 
HETATM    7  C15 UNL     1       1.730   7.309  11.326  1.00  0.00    -0.060 C 
HETATM    8  C16 UNL     1       0.953   6.252  10.519  1.00  0.00     0.036 C 
HETATM    9  C17 UNL     1      -0.536   6.032  10.866  1.00  0.00     0.015 C 
HETATM   10  C18 UNL     1      -0.831   6.393  12.327  1.00  0.00    -0.028 C 
HETATM   11  C19 UNL     1      -0.049   5.410  13.246  1.00  0.00     0.016 C 
HETATM   12  C20 UNL     1       3.240   7.456  10.990  1.00  0.00    -0.014 C 
HETATM   13  C21 UNL     1       3.329   8.231   9.655  1.00  0.00     0.020 C 
HETATM   14  C22 UNL     1       3.900   6.056  10.821  1.00  0.00     0.021 C 
HETATM   15  C23 UNL     1       5.413   5.989  11.010  1.00  0.00     0.080 C 
HETATM   16  C24 UNL     1       6.076   7.340  10.974  1.00  0.00     0.135 C 
HETATM   17  O4  UNL     1       7.067   7.527  10.268  1.00  0.00    -0.297 OA
HETATM   18  C25 UNL     1       5.522   8.415  11.917  1.00  0.00     0.018 C 
HETATM   19  C26 UNL     1       5.857   9.808  11.343  1.00  0.00     0.023 C 
HETATM   20  C27 UNL     1       6.284   8.269  13.249  1.00  0.00     0.023 C 
HETATM   21  C28 UNL     1       3.989   8.178  12.158  1.00  0.00     0.020 C 
HETATM   22  C29 UNL     1       3.250   9.445  12.589  1.00  0.00     0.090 C 
HETATM   23  C30 UNL     1       1.831   9.141  12.993  1.00  0.00     0.157 C 
HETATM   24  O5  UNL     1       1.281   9.826  13.853  1.00  0.00    -0.293 OA
ENDROOT
BRANCH   1  25
HETATM   25  C2  UNL     1      -3.193   5.161  12.997  1.00  0.00    -0.014 C 
HETATM   26  C1  UNL     1      -3.239   4.122  11.868  1.00  0.00     0.010 C 
BRANCH  25  27
HETATM   27  C3  UNL     1      -4.619   5.527  13.466  1.00  0.00     0.007 C 
BRANCH  27  28
HETATM   28  C4  UNL     1      -5.685   4.423  13.360  1.00  0.00     0.035 C 
BRANCH  28  29
HETATM   29  C5  UNL     1      -7.147   4.771  13.700  1.00  0.00     0.154 C 
BRANCH  29  30
HETATM   30  O1  UNL     1      -7.972   3.607  13.548  1.00  0.00    -0.392 OA
HETATM   31  H10 UNL     1      -7.802   3.067  14.346  1.00  0.00     0.210 HD
ENDBRANCH  29  30
BRANCH  29  32
HETATM   32  C6  UNL     1      -7.439   5.415  15.087  1.00  0.00     0.101 C 
HETATM   33  C7  UNL     1      -6.188   5.999  15.741  1.00  0.00     0.051 C 
BRANCH  32  34
HETATM   34  O2  UNL     1      -7.978   4.396  15.955  1.00  0.00    -0.385 OA
HETATM   35  H14 UNL     1      -8.933   4.593  16.051  1.00  0.00     0.210 HD
ENDBRANCH  32  34
BRANCH  32  36
HETATM   36  C8  UNL     1      -8.513   6.524  14.947  1.00  0.00     0.204 C 
BRANCH  36  37
HETATM   37  O3  UNL     1      -9.510   6.381  15.961  1.00  0.00    -0.398 OA
HETATM   38  H17 UNL     1      -9.869   5.472  15.880  1.00  0.00     0.209 HD
ENDBRANCH  36  37
ENDBRANCH  32  36
ENDBRANCH  29  32
ENDBRANCH  28  29
ENDBRANCH  27  28
ENDBRANCH  25  27
ENDBRANCH   1  25
TORSDOF 9
ENDMDL
MODEL 2
REMARK minimizedAffinity -8.83985519
REMARK  9 active torsions:
REMARK  status: ('A' for Active; 'I' for Inactive)
REMARK    1  A    between atoms: C2_2  and  C3_3 
REMARK    2  A    between atoms: C2_2  and  C9_12 
REMARK    3  A    between atoms: C3_3  and  C4_4 
REMARK    4  A    between atoms: C4_4  and  C5_5 
REMARK    5  A    between atoms: C5_5  and  O1_6 
REMARK    6  A    between atoms: C5_5  and  C6_7 
REMARK    7  A    between atoms: C6_7  and  O2_9 
REMARK    8  A    between atoms: C6_7  and  C8_10 
REMARK    9  A    between atoms: C8_10  and  O3_11 
ROOT
HETATM    1  C9  UNL     1      -8.502   6.217  14.162  1.00  0.00    -0.002 C 
HETATM    2  C10 UNL     1      -8.791   5.461  12.837  1.00  0.00     0.007 C 
HETATM    3  C11 UNL     1      -7.436   4.979  12.286  1.00  0.00     0.015 C 
HETATM    4  C12 UNL     1      -6.463   5.073  13.477  1.00  0.00    -0.005 C 
HETATM    5  C13 UNL     1      -6.685   3.796  14.350  1.00  0.00     0.021 C 
HETATM    6  C14 UNL     1      -4.956   5.120  13.252  1.00  0.00    -0.000 C 
HETATM    7  C15 UNL     1      -4.134   5.772  14.118  1.00  0.00    -0.060 C 
HETATM    8  C16 UNL     1      -4.718   6.523  15.330  1.00  0.00     0.036 C 
HETATM    9  C17 UNL     1      -6.254   6.557  15.484  1.00  0.00     0.015 C 
HETATM   10  C18 UNL     1      -6.957   6.427  14.127  1.00  0.00    -0.028 C 
HETATM   11  C19 UNL     1      -6.605   7.677  13.268  1.00  0.00     0.016 C 
HETATM   12  C20 UNL     1      -2.589   5.813  13.964  1.00  0.00    -0.014 C 
HETATM   13  C21 UNL     1      -2.007   4.831  15.008  1.00  0.00     0.020 C 
HETATM   14  C22 UNL     1      -2.051   7.247  14.247  1.00  0.00     0.021 C 
HETATM   15  C23 UNL     1      -0.688   7.593  13.651  1.00  0.00     0.080 C 
HETATM   16  C24 UNL     1       0.082   6.384  13.190  1.00  0.00     0.135 C 
HETATM   17  O4  UNL     1       1.259   6.234  13.522  1.00  0.00    -0.297 OA
HETATM   18  C25 UNL     1      -0.631   5.425  12.231  1.00  0.00     0.018 C 
HETATM   19  C26 UNL     1       0.003   4.023  12.356  1.00  0.00     0.023 C 
HETATM   20  C27 UNL     1      -0.346   5.935  10.804  1.00  0.00     0.023 C 
HETATM   21  C28 UNL     1      -2.178   5.450  12.499  1.00  0.00     0.020 C 
HETATM   22  C29 UNL     1      -2.886   4.180  12.026  1.00  0.00     0.090 C 
HETATM   23  C30 UNL     1      -4.382   4.319  12.125  1.00  0.00     0.157 C 
HETATM   24  O5  UNL     1      -5.106   3.723  11.329  1.00  0.00    -0.293 OA
ENDROOT
BRANCH   1  25
HETATM   25  C2  UNL     1      -9.520   7.361  14.458  1.00  0.00    -0.014 C 
HETATM   26  C1  UNL     1      -9.547   7.908  15.892  1.00  0.00     0.010 C 
BRANCH  25  27
HETATM   27  C3  UNL     1     -10.942   6.986  13.985  1.00  0.00     0.007 C 
BRANCH  27  28
HETATM   28  C4  UNL     1     -11.416   7.609  12.661  1.00  0.00     0.035 C 
BRANCH  28  29
HETATM   29  C5  UNL     1     -12.225   8.920  12.708  1.00  0.00     0.154 C 
BRANCH  29  30
HETATM   30  O1  UNL     1     -11.951   9.703  11.538  1.00  0.00    -0.392 OA
HETATM   31  H10 UNL     1     -12.468   9.283  10.821  1.00  0.00     0.210 HD
ENDBRANCH  29  30
BRANCH  29  32
HETATM   32  C6  UNL     1     -13.768   8.817  12.892  1.00  0.00     0.101 C 
HETATM   33  C7  UNL     1     -14.280   7.381  12.789  1.00  0.00     0.051 C 
BRANCH  32  34
HETATM   34  O2  UNL     1     -14.400   9.604  11.862  1.00  0.00    -0.385 OA
HETATM   35  H14 UNL     1     -14.751  10.406  12.303  1.00  0.00     0.210 HD
ENDBRANCH  32  34
BRANCH  32  36
HETATM   36  C8  UNL     1     -14.185   9.415  14.259  1.00  0.00     0.204 C 
BRANCH  36  37
HETATM   37  O3  UNL     1     -13.037   9.608  15.089  1.00  0.00    -0.398 OA
HETATM   38  H17 UNL     1     -12.589   8.739  15.159  1.00  0.00     0.209 HD
ENDBRANCH  36  37
ENDBRANCH  32  36
ENDBRANCH  29  32
ENDBRANCH  28  29
ENDBRANCH  27  28
ENDBRANCH  25  27
ENDBRANCH   1  25
TORSDOF 9
ENDMDL
MODEL 3
REMARK minimizedAffinity -8.66963673
REMARK  9 active torsions:
REMARK  status: ('A' for Active; 'I' for Inactive)
REMARK    1  A    between atoms: C2_2  and  C3_3 
REMARK    2  A    between atoms: C2_2  and  C9_12 
REMARK    3  A    between atoms: C3_3  and  C4_4 
REMARK    4  A    between atoms: C4_4  and  C5_5 
REMARK    5  A    between atoms: C5_5  and  O1_6 
REMARK    6  A    between atoms: C5_5  and  C6_7 
REMARK    7  A    between atoms: C6_7  and  O2_9 
REMARK    8  A    between atoms: C6_7  and  C8_10 
REMARK    9  A    between atoms: C8_10  and  O3_11 
ROOT
HETATM    1  C9  UNL     1      -2.557   4.868  13.054  1.00  0.00    -0.002 C 
HETATM    2  C10 UNL     1      -1.508   5.155  11.945  1.00  0.00     0.007 C 
HETATM    3  C11 UNL     1      -0.896   6.535  12.247  1.00  0.00     0.015 C 
HETATM    4  C12 UNL     1      -1.264   6.824  13.715  1.00  0.00    -0.005 C 
HETATM    5  C13 UNL     1      -0.235   6.054  14.604  1.00  0.00     0.021 C 
HETATM    6  C14 UNL     1      -1.241   8.248  14.261  1.00  0.00    -0.000 C 
HETATM    7  C15 UNL     1      -2.074   8.631  15.266  1.00  0.00    -0.060 C 
HETATM    8  C16 UNL     1      -3.098   7.639  15.849  1.00  0.00     0.036 C 
HETATM    9  C17 UNL     1      -3.182   6.234  15.213  1.00  0.00     0.015 C 
HETATM   10  C18 UNL     1      -2.739   6.255  13.745  1.00  0.00    -0.028 C 
HETATM   11  C19 UNL     1      -3.743   7.129  12.938  1.00  0.00     0.016 C 
HETATM   12  C20 UNL     1      -2.063  10.053  15.890  1.00  0.00    -0.014 C 
HETATM   13  C21 UNL     1      -1.354   9.936  17.260  1.00  0.00     0.020 C 
HETATM   14  C22 UNL     1      -3.517  10.567  16.103  1.00  0.00     0.021 C 
HETATM   15  C23 UNL     1      -3.698  12.079  16.202  1.00  0.00     0.080 C 
HETATM   16  C24 UNL     1      -2.407  12.817  16.440  1.00  0.00     0.135 C 
HETATM   17  O4  UNL     1      -2.330  13.662  17.331  1.00  0.00    -0.297 OA
HETATM   18  C25 UNL     1      -1.253  12.534  15.471  1.00  0.00     0.018 C 
HETATM   19  C26 UNL     1       0.084  12.849  16.176  1.00  0.00     0.023 C 
HETATM   20  C27 UNL     1      -1.404  13.528  14.302  1.00  0.00     0.023 C 
HETATM   21  C28 UNL     1      -1.355  11.065  14.929  1.00  0.00     0.020 C 
HETATM   22  C29 UNL     1      -0.016  10.515  14.438  1.00  0.00     0.090 C 
HETATM   23  C30 UNL     1      -0.189   9.184  13.754  1.00  0.00     0.157 C 
HETATM   24  O5  UNL     1       0.574   8.861  12.845  1.00  0.00    -0.293 OA
ENDROOT
BRANCH   1  25
HETATM   25  C2  UNL     1      -3.748   3.987  12.568  1.00  0.00    -0.014 C 
HETATM   26  C1  UNL     1      -3.874   3.770  11.054  1.00  0.00     0.010 C 
BRANCH  25  27
HETATM   27  C3  UNL     1      -5.088   4.471  13.167  1.00  0.00     0.007 C 
BRANCH  27  28
HETATM   28  C4  UNL     1      -6.326   3.605  12.878  1.00  0.00     0.035 C 
BRANCH  28  29
HETATM   29  C5  UNL     1      -7.701   4.291  12.771  1.00  0.00     0.154 C 
BRANCH  29  30
HETATM   30  O1  UNL     1      -8.743   3.308  12.848  1.00  0.00    -0.392 OA
HETATM   31  H10 UNL     1      -8.811   3.081  13.797  1.00  0.00     0.210 HD
ENDBRANCH  29  30
BRANCH  29  32
HETATM   32  C6  UNL     1      -8.021   5.440  13.770  1.00  0.00     0.101 C 
HETATM   33  C7  UNL     1      -6.991   6.568  13.722  1.00  0.00     0.051 C 
BRANCH  32  34
HETATM   34  O2  UNL     1      -8.037   4.891  15.103  1.00  0.00    -0.385 OA
HETATM   35  H14 UNL     1      -8.978   4.859  15.378  1.00  0.00     0.210 HD
ENDBRANCH  32  34
BRANCH  32  36
HETATM   36  C8  UNL     1      -9.431   6.019  13.487  1.00  0.00     0.204 C 
BRANCH  36  37
HETATM   37  O3  UNL     1     -10.059   6.417  14.708  1.00  0.00    -0.398 OA
HETATM   38  H17 UNL     1     -10.065   5.631  15.294  1.00  0.00     0.209 HD
ENDBRANCH  36  37
ENDBRANCH  32  36
ENDBRANCH  29  32
ENDBRANCH  28  29
ENDBRANCH  27  28
ENDBRANCH  25  27
ENDBRANCH   1  25
TORSDOF 9
ENDMDL
MODEL 4
REMARK minimizedAffinity -8.66451931
REMARK  9 active torsions:
REMARK  status: ('A' for Active; 'I' for Inactive)
REMARK    1  A    between atoms: C2_2  and  C3_3 
REMARK    2  A    between atoms: C2_2  and  C9_12 
REMARK    3  A    between atoms: C3_3  and  C4_4 
REMARK    4  A    between atoms: C4_4  and  C5_5 
REMARK    5  A    between atoms: C5_5  and  O1_6 
REMARK    6  A    between atoms: C5_5  and  C6_7 
REMARK    7  A    between atoms: C6_7  and  O2_9 
REMARK    8  A    between atoms: C6_7  and  C8_10 
REMARK    9  A    between atoms: C8_10  and  O3_11 
ROOT
HETATM    1  C9  UNL     1      -5.369   5.333  13.856  1.00  0.00    -0.002 C 
HETATM    2  C10 UNL     1      -4.915   5.942  15.211  1.00  0.00     0.007 C 
HETATM    3  C11 UNL     1      -6.135   6.661  15.816  1.00  0.00     0.015 C 
HETATM    4  C12 UNL     1      -7.349   6.104  15.047  1.00  0.00    -0.005 C 
HETATM    5  C13 UNL     1      -7.706   4.727  15.693  1.00  0.00     0.021 C 
HETATM    6  C14 UNL     1      -8.672   6.863  15.022  1.00  0.00    -0.000 C 
HETATM    7  C15 UNL     1      -9.516   6.772  13.959  1.00  0.00    -0.060 C 
HETATM    8  C16 UNL     1      -9.131   5.930  12.729  1.00  0.00     0.036 C 
HETATM    9  C17 UNL     1      -7.741   5.256  12.724  1.00  0.00     0.015 C 
HETATM   10  C18 UNL     1      -6.739   6.029  13.590  1.00  0.00    -0.028 C 
HETATM   11  C19 UNL     1      -6.514   7.431  12.953  1.00  0.00     0.016 C 
HETATM   12  C20 UNL     1     -10.895   7.485  13.899  1.00  0.00    -0.014 C 
HETATM   13  C21 UNL     1     -11.971   6.403  14.150  1.00  0.00     0.020 C 
HETATM   14  C22 UNL     1     -11.119   8.122  12.496  1.00  0.00     0.021 C 
HETATM   15  C23 UNL     1     -12.128   9.265  12.420  1.00  0.00     0.080 C 
HETATM   16  C24 UNL     1     -13.012   9.358  13.635  1.00  0.00     0.135 C 
HETATM   17  O4  UNL     1     -14.233   9.455  13.509  1.00  0.00    -0.297 OA
HETATM   18  C25 UNL     1     -12.318   9.422  15.001  1.00  0.00     0.018 C 
HETATM   19  C26 UNL     1     -13.288   8.903  16.083  1.00  0.00     0.023 C 
HETATM   20  C27 UNL     1     -12.054  10.913  15.292  1.00  0.00     0.023 C 
HETATM   21  C28 UNL     1     -10.954   8.647  14.945  1.00  0.00     0.020 C 
HETATM   22  C29 UNL     1     -10.478   8.177  16.319  1.00  0.00     0.090 C 
HETATM   23  C30 UNL     1      -9.084   7.610  16.252  1.00  0.00     0.157 C 
HETATM   24  O5  UNL     1      -8.337   7.707  17.224  1.00  0.00    -0.293 OA
ENDROOT
BRANCH   1  25
HETATM   25  C2  UNL     1      -4.226   5.252  12.799  1.00  0.00    -0.014 C 
HETATM   26  C1  UNL     1      -3.521   3.896  12.646  1.00  0.00     0.010 C 
BRANCH  25  27
HETATM   27  C3  UNL     1      -3.197   6.388  12.994  1.00  0.00     0.007 C 
BRANCH  27  28
HETATM   28  C4  UNL     1      -1.721   5.970  13.105  1.00  0.00     0.035 C 
BRANCH  28  29
HETATM   29  C5  UNL     1      -1.081   5.876  14.503  1.00  0.00     0.154 C 
BRANCH  29  30
HETATM   30  O1  UNL     1       0.023   4.961  14.473  1.00  0.00    -0.392 OA
HETATM   31  H10 UNL     1       0.755   5.457  14.053  1.00  0.00     0.210 HD
ENDBRANCH  29  30
BRANCH  29  32
HETATM   32  C6  UNL     1      -0.618   7.198  15.182  1.00  0.00     0.101 C 
HETATM   33  C7  UNL     1       0.221   8.076  14.255  1.00  0.00     0.051 C 
BRANCH  32  34
HETATM   34  O2  UNL     1       0.177   6.860  16.337  1.00  0.00    -0.385 OA
HETATM   35  H14 UNL     1      -0.376   7.058  17.121  1.00  0.00     0.210 HD
ENDBRANCH  32  34
BRANCH  32  36
HETATM   36  C8  UNL     1      -1.845   8.002  15.681  1.00  0.00     0.204 C 
BRANCH  36  37
HETATM   37  O3  UNL     1      -2.338   7.451  16.904  1.00  0.00    -0.398 OA
HETATM   38  H17 UNL     1      -2.530   6.504  16.732  1.00  0.00     0.209 HD
ENDBRANCH  36  37
ENDBRANCH  32  36
ENDBRANCH  29  32
ENDBRANCH  28  29
ENDBRANCH  27  28
ENDBRANCH  25  27
ENDBRANCH   1  25
TORSDOF 9
ENDMDL
MODEL 5
REMARK minimizedAffinity -8.55286407
REMARK  9 active torsions:
REMARK  status: ('A' for Active; 'I' for Inactive)
REMARK    1  A    between atoms: C2_2  and  C3_3 
REMARK    2  A    between atoms: C2_2  and  C9_12 
REMARK    3  A    between atoms: C3_3  and  C4_4 
REMARK    4  A    between atoms: C4_4  and  C5_5 
REMARK    5  A    between atoms: C5_5  and  O1_6 
REMARK    6  A    between atoms: C5_5  and  C6_7 
REMARK    7  A    between atoms: C6_7  and  O2_9 
REMARK    8  A    between atoms: C6_7  and  C8_10 
REMARK    9  A    between atoms: C8_10  and  O3_11 
ROOT
HETATM    1  C9  UNL     1      -5.487   6.286  14.459  1.00  0.00    -0.002 C 
HETATM    2  C10 UNL     1      -5.937   5.341  13.311  1.00  0.00     0.007 C 
HETATM    3  C11 UNL     1      -4.692   5.041  12.457  1.00  0.00     0.015 C 
HETATM    4  C12 UNL     1      -3.494   5.443  13.340  1.00  0.00    -0.005 C 
HETATM    5  C13 UNL     1      -3.236   4.258  14.326  1.00  0.00     0.021 C 
HETATM    6  C14 UNL     1      -2.129   5.725  12.723  1.00  0.00    -0.000 C 
HETATM    7  C15 UNL     1      -1.266   6.608  13.294  1.00  0.00    -0.060 C 
HETATM    8  C16 UNL     1      -1.670   7.382  14.562  1.00  0.00     0.036 C 
HETATM    9  C17 UNL     1      -3.097   7.166  15.113  1.00  0.00     0.015 C 
HETATM   10  C18 UNL     1      -4.072   6.757  14.002  1.00  0.00    -0.028 C 
HETATM   11  C19 UNL     1      -4.198   7.939  12.997  1.00  0.00     0.016 C 
HETATM   12  C20 UNL     1       0.154   6.899  12.735  1.00  0.00    -0.014 C 
HETATM   13  C21 UNL     1       1.158   6.163  13.653  1.00  0.00     0.020 C 
HETATM   14  C22 UNL     1       0.449   8.428  12.766  1.00  0.00     0.021 C 
HETATM   15  C23 UNL     1       1.526   8.933  11.810  1.00  0.00     0.080 C 
HETATM   16  C24 UNL     1       2.384   7.831  11.246  1.00  0.00     0.135 C 
HETATM   17  O4  UNL     1       3.612   7.929  11.265  1.00  0.00    -0.297 OA
HETATM   18  C25 UNL     1       1.662   6.656  10.577  1.00  0.00     0.018 C 
HETATM   19  C26 UNL     1       2.573   5.411  10.627  1.00  0.00     0.023 C 
HETATM   20  C27 UNL     1       1.480   7.037   9.094  1.00  0.00     0.023 C 
HETATM   21  C28 UNL     1       0.256   6.443  11.242  1.00  0.00     0.020 C 
HETATM   22  C29 UNL     1      -0.280   5.023  11.061  1.00  0.00     0.090 C 
HETATM   23  C30 UNL     1      -1.703   4.909  11.542  1.00  0.00     0.157 C 
HETATM   24  O5  UNL     1      -2.467   4.107  11.007  1.00  0.00    -0.293 OA
ENDROOT
BRANCH   1  25
HETATM   25  C2  UNL     1      -6.607   7.263  14.933  1.00  0.00    -0.014 C 
HETATM   26  C1  UNL     1      -6.183   8.707  15.233  1.00  0.00     0.010 C 
BRANCH  25  27
HETATM   27  C3  UNL     1      -7.410   6.669  16.112  1.00  0.00     0.007 C 
BRANCH  27  28
HETATM   28  C4  UNL     1      -8.937   6.604  15.944  1.00  0.00     0.035 C 
BRANCH  28  29
HETATM   29  C5  UNL     1      -9.557   7.085  14.618  1.00  0.00     0.154 C 
BRANCH  29  30
HETATM   30  O1  UNL     1      -9.589   6.006  13.675  1.00  0.00    -0.392 OA
HETATM   31  H10 UNL     1     -10.344   5.447  13.950  1.00  0.00     0.210 HD
ENDBRANCH  29  30
BRANCH  29  32
HETATM   32  C6  UNL     1     -10.965   7.747  14.671  1.00  0.00     0.101 C 
HETATM   33  C7  UNL     1     -11.117   8.892  13.671  1.00  0.00     0.051 C 
BRANCH  32  34
HETATM   34  O2  UNL     1     -11.171   8.268  16.000  1.00  0.00    -0.385 OA
HETATM   35  H14 UNL     1     -11.818   7.671  16.433  1.00  0.00     0.210 HD
ENDBRANCH  32  34
BRANCH  32  36
HETATM   36  C8  UNL     1     -12.065   6.686  14.410  1.00  0.00     0.204 C 
BRANCH  36  37
HETATM   37  O3  UNL     1     -13.354   7.219  14.724  1.00  0.00    -0.398 OA
HETATM   38  H17 UNL     1     -13.315   7.526  15.654  1.00  0.00     0.209 HD
ENDBRANCH  36  37
ENDBRANCH  32  36
ENDBRANCH  29  32
ENDBRANCH  28  29
ENDBRANCH  27  28
ENDBRANCH  25  27
ENDBRANCH   1  25
TORSDOF 9
ENDMDL
MODEL 6
REMARK minimizedAffinity -8.54918671
REMARK  9 active torsions:
REMARK  status: ('A' for Active; 'I' for Inactive)
REMARK    1  A    between atoms: C2_2  and  C3_3 
REMARK    2  A    between atoms: C2_2  and  C9_12 
REMARK    3  A    between atoms: C3_3  and  C4_4 
REMARK    4  A    between atoms: C4_4  and  C5_5 
REMARK    5  A    between atoms: C5_5  and  O1_6 
REMARK    6  A    between atoms: C5_5  and  C6_7 
REMARK    7  A    between atoms: C6_7  and  O2_9 
REMARK    8  A    between atoms: C6_7  and  C8_10 
REMARK    9  A    between atoms: C8_10  and  O3_11 
ROOT
HETATM    1  C9  UNL     1      -2.142   7.555  14.311  1.00  0.00    -0.002 C 
HETATM    2  C10 UNL     1      -1.867   7.287  15.817  1.00  0.00     0.007 C 
HETATM    3  C11 UNL     1      -0.367   7.540  16.055  1.00  0.00     0.015 C 
HETATM    4  C12 UNL     1       0.102   8.348  14.830  1.00  0.00    -0.005 C 
HETATM    5  C13 UNL     1      -0.300   9.837  15.083  1.00  0.00     0.021 C 
HETATM    6  C14 UNL     1       1.579   8.414  14.457  1.00  0.00    -0.000 C 
HETATM    7  C15 UNL     1       1.974   8.566  13.164  1.00  0.00    -0.060 C 
HETATM    8  C16 UNL     1       0.930   8.630  12.034  1.00  0.00     0.036 C 
HETATM    9  C17 UNL     1      -0.556   8.454  12.416  1.00  0.00     0.015 C 
HETATM   10  C18 UNL     1      -0.713   7.615  13.690  1.00  0.00    -0.028 C 
HETATM   11  C19 UNL     1      -0.192   6.177  13.401  1.00  0.00     0.016 C 
HETATM   12  C20 UNL     1       3.462   8.686  12.733  1.00  0.00    -0.014 C 
HETATM   13  C21 UNL     1       3.718  10.177  12.414  1.00  0.00     0.020 C 
HETATM   14  C22 UNL     1       3.730   7.830  11.460  1.00  0.00     0.021 C 
HETATM   15  C23 UNL     1       5.178   7.415  11.212  1.00  0.00     0.080 C 
HETATM   16  C24 UNL     1       6.169   8.195  12.034  1.00  0.00     0.135 C 
HETATM   17  O4  UNL     1       7.157   8.700  11.501  1.00  0.00    -0.297 OA
HETATM   18  C25 UNL     1       5.936   8.240  13.549  1.00  0.00     0.018 C 
HETATM   19  C26 UNL     1       6.609   9.506  14.123  1.00  0.00     0.023 C 
HETATM   20  C27 UNL     1       6.665   7.019  14.144  1.00  0.00     0.023 C 
HETATM   21  C28 UNL     1       4.401   8.140  13.859  1.00  0.00     0.020 C 
HETATM   22  C29 UNL     1       4.027   8.724  15.221  1.00  0.00     0.090 C 
HETATM   23  C30 UNL     1       2.588   8.439  15.563  1.00  0.00     0.157 C 
HETATM   24  O5  UNL     1       2.255   8.301  16.739  1.00  0.00    -0.293 OA
ENDROOT
BRANCH   1  25
HETATM   25  C2  UNL     1      -3.297   6.685  13.728  1.00  0.00    -0.014 C 
HETATM   26  C1  UNL     1      -2.913   5.653  12.658  1.00  0.00     0.010 C 
BRANCH  25  27
HETATM   27  C3  UNL     1      -4.475   7.562  13.247  1.00  0.00     0.007 C 
BRANCH  27  28
HETATM   28  C4  UNL     1      -5.891   7.043  13.549  1.00  0.00     0.035 C 
BRANCH  28  29
HETATM   29  C5  UNL     1      -6.058   5.902  14.572  1.00  0.00     0.154 C 
BRANCH  29  30
HETATM   30  O1  UNL     1      -5.720   6.371  15.884  1.00  0.00    -0.392 OA
HETATM   31  H10 UNL     1      -6.495   6.892  16.177  1.00  0.00     0.210 HD
ENDBRANCH  29  30
BRANCH  29  32
HETATM   32  C6  UNL     1      -7.435   5.179  14.637  1.00  0.00     0.101 C 
HETATM   33  C7  UNL     1      -8.551   5.973  13.960  1.00  0.00     0.051 C 
BRANCH  32  34
HETATM   34  O2  UNL     1      -7.782   4.990  16.024  1.00  0.00    -0.385 OA
HETATM   35  H14 UNL     1      -7.663   4.035  16.211  1.00  0.00     0.210 HD
ENDBRANCH  32  34
BRANCH  32  36
HETATM   36  C8  UNL     1      -7.334   3.776  13.986  1.00  0.00     0.204 C 
BRANCH  36  37
HETATM   37  O3  UNL     1      -8.523   3.483  13.250  1.00  0.00    -0.398 OA
HETATM   38  H17 UNL     1      -9.274   3.575  13.874  1.00  0.00     0.209 HD
ENDBRANCH  36  37
ENDBRANCH  32  36
ENDBRANCH  29  32
ENDBRANCH  28  29
ENDBRANCH  27  28
ENDBRANCH  25  27
ENDBRANCH   1  25
TORSDOF 9
ENDMDL
MODEL 7
REMARK minimizedAffinity -8.51469803
REMARK  9 active torsions:
REMARK  status: ('A' for Active; 'I' for Inactive)
REMARK    1  A    between atoms: C2_2  and  C3_3 
REMARK    2  A    between atoms: C2_2  and  C9_12 
REMARK    3  A    between atoms: C3_3  and  C4_4 
REMARK    4  A    between atoms: C4_4  and  C5_5 
REMARK    5  A    between atoms: C5_5  and  O1_6 
REMARK    6  A    between atoms: C5_5  and  C6_7 
REMARK    7  A    between atoms: C6_7  and  O2_9 
REMARK    8  A    between atoms: C6_7  and  C8_10 
REMARK    9  A    between atoms: C8_10  and  O3_11 
ROOT
HETATM    1  C9  UNL     1      -5.513   4.608  13.385  1.00  0.00    -0.002 C 
HETATM    2  C10 UNL     1      -4.804   5.232  14.619  1.00  0.00     0.007 C 
HETATM    3  C11 UNL     1      -5.834   6.135  15.323  1.00  0.00     0.015 C 
HETATM    4  C12 UNL     1      -7.201   5.694  14.765  1.00  0.00    -0.005 C 
HETATM    5  C13 UNL     1      -7.624   4.413  15.554  1.00  0.00     0.021 C 
HETATM    6  C14 UNL     1      -8.415   6.612  14.857  1.00  0.00    -0.000 C 
HETATM    7  C15 UNL     1      -9.405   6.567  13.924  1.00  0.00    -0.060 C 
HETATM    8  C16 UNL     1      -9.298   5.612  12.721  1.00  0.00     0.036 C 
HETATM    9  C17 UNL     1      -8.012   4.767  12.584  1.00  0.00     0.015 C 
HETATM   10  C18 UNL     1      -6.814   5.455  13.250  1.00  0.00    -0.028 C 
HETATM   11  C19 UNL     1      -6.517   6.778  12.484  1.00  0.00     0.016 C 
HETATM   12  C20 UNL     1     -10.685   7.445  13.993  1.00  0.00    -0.014 C 
HETATM   13  C21 UNL     1     -11.835   6.525  14.464  1.00  0.00     0.020 C 
HETATM   14  C22 UNL     1     -11.026   8.022  12.587  1.00  0.00     0.021 C 
HETATM   15  C23 UNL     1     -11.894   9.277  12.559  1.00  0.00     0.080 C 
HETATM   16  C24 UNL     1     -12.581   9.553  13.870  1.00  0.00     0.135 C 
HETATM   17  O4  UNL     1     -13.788   9.798  13.898  1.00  0.00    -0.297 OA
HETATM   18  C25 UNL     1     -11.700   9.608  15.123  1.00  0.00     0.018 C 
HETATM   19  C26 UNL     1     -12.563   9.282  16.360  1.00  0.00     0.023 C 
HETATM   20  C27 UNL     1     -11.224  11.068  15.263  1.00  0.00     0.023 C 
HETATM   21  C28 UNL     1     -10.458   8.664  14.946  1.00  0.00     0.020 C 
HETATM   22  C29 UNL     1      -9.854   8.219  16.278  1.00  0.00     0.090 C 
HETATM   23  C30 UNL     1      -8.560   7.476  16.070  1.00  0.00     0.157 C 
HETATM   24  O5  UNL     1      -7.678   7.534  16.925  1.00  0.00    -0.293 OA
ENDROOT
BRANCH   1  25
HETATM   25  C2  UNL     1      -4.546   4.320  12.195  1.00  0.00    -0.014 C 
HETATM   26  C1  UNL     1      -4.955   3.198  11.230  1.00  0.00     0.010 C 
BRANCH  25  27
HETATM   27  C3  UNL     1      -3.094   4.122  12.685  1.00  0.00     0.007 C 
BRANCH  27  28
HETATM   28  C4  UNL     1      -1.985   4.259  11.627  1.00  0.00     0.035 C 
BRANCH  28  29
HETATM   29  C5  UNL     1      -0.521   4.044  12.057  1.00  0.00     0.154 C 
BRANCH  29  30
HETATM   30  O1  UNL     1      -0.054   2.775  11.578  1.00  0.00    -0.392 OA
HETATM   31  H10 UNL     1       0.132   2.914  10.627  1.00  0.00     0.210 HD
ENDBRANCH  29  30
BRANCH  29  32
HETATM   32  C6  UNL     1       0.518   5.138  11.675  1.00  0.00     0.101 C 
HETATM   33  C7  UNL     1      -0.066   6.213  10.759  1.00  0.00     0.051 C 
BRANCH  32  34
HETATM   34  O2  UNL     1       1.616   4.500  10.991  1.00  0.00    -0.385 OA
HETATM   35  H14 UNL     1       2.369   4.498  11.620  1.00  0.00     0.210 HD
ENDBRANCH  32  34
BRANCH  32  36
HETATM   36  C8  UNL     1       1.088   5.805  12.953  1.00  0.00     0.204 C 
BRANCH  36  37
HETATM   37  O3  UNL     1       0.483   5.243  14.119  1.00  0.00    -0.398 OA
HETATM   38  H17 UNL     1      -0.486   5.351  14.017  1.00  0.00     0.209 HD
ENDBRANCH  36  37
ENDBRANCH  32  36
ENDBRANCH  29  32
ENDBRANCH  28  29
ENDBRANCH  27  28
ENDBRANCH  25  27
ENDBRANCH   1  25
TORSDOF 9
ENDMDL
MODEL 8
REMARK minimizedAffinity -8.50857925
REMARK  9 active torsions:
REMARK  status: ('A' for Active; 'I' for Inactive)
REMARK    1  A    between atoms: C2_2  and  C3_3 
REMARK    2  A    between atoms: C2_2  and  C9_12 
REMARK    3  A    between atoms: C3_3  and  C4_4 
REMARK    4  A    between atoms: C4_4  and  C5_5 
REMARK    5  A    between atoms: C5_5  and  O1_6 
REMARK    6  A    between atoms: C5_5  and  C6_7 
REMARK    7  A    between atoms: C6_7  and  O2_9 
REMARK    8  A    between atoms: C6_7  and  C8_10 
REMARK    9  A    between atoms: C8_10  and  O3_11 
ROOT
HETATM    1  C9  UNL     1      -0.363   8.089  13.897  1.00  0.00    -0.002 C 
HETATM    2  C10 UNL     1      -0.942   9.508  13.645  1.00  0.00     0.007 C 
HETATM    3  C11 UNL     1      -2.474   9.366  13.582  1.00  0.00     0.015 C 
HETATM    4  C12 UNL     1      -2.776   7.994  14.215  1.00  0.00    -0.005 C 
HETATM    5  C13 UNL     1      -2.750   8.191  15.765  1.00  0.00     0.021 C 
HETATM    6  C14 UNL     1      -4.099   7.284  13.946  1.00  0.00    -0.000 C 
HETATM    7  C15 UNL     1      -4.184   5.927  13.953  1.00  0.00    -0.060 C 
HETATM    8  C16 UNL     1      -2.927   5.069  14.188  1.00  0.00     0.036 C 
HETATM    9  C17 UNL     1      -1.576   5.801  14.351  1.00  0.00     0.015 C 
HETATM   10  C18 UNL     1      -1.577   7.150  13.622  1.00  0.00    -0.028 C 
HETATM   11  C19 UNL     1      -1.717   6.886  12.095  1.00  0.00     0.016 C 
HETATM   12  C20 UNL     1      -5.513   5.153  13.732  1.00  0.00    -0.014 C 
HETATM   13  C21 UNL     1      -5.970   4.642  15.118  1.00  0.00     0.020 C 
HETATM   14  C22 UNL     1      -5.285   3.939  12.783  1.00  0.00     0.021 C 
HETATM   15  C23 UNL     1      -6.515   3.402  12.056  1.00  0.00     0.080 C 
HETATM   16  C24 UNL     1      -7.812   3.894  12.642  1.00  0.00     0.135 C 
HETATM   17  O4  UNL     1      -8.718   3.101  12.900  1.00  0.00    -0.297 OA
HETATM   18  C25 UNL     1      -7.974   5.410  12.804  1.00  0.00     0.018 C 
HETATM   19  C26 UNL     1      -9.003   5.689  13.921  1.00  0.00     0.023 C 
HETATM   20  C27 UNL     1      -8.573   5.933  11.483  1.00  0.00     0.023 C 
HETATM   21  C28 UNL     1      -6.574   6.076  13.048  1.00  0.00     0.020 C 
HETATM   22  C29 UNL     1      -6.671   7.426  13.759  1.00  0.00     0.090 C 
HETATM   23  C30 UNL     1      -5.334   8.118  13.804  1.00  0.00     0.157 C 
HETATM   24  O5  UNL     1      -5.281   9.347  13.794  1.00  0.00    -0.293 OA
ENDROOT
BRANCH   1  25
HETATM   25  C2  UNL     1       1.049   7.875  13.269  1.00  0.00    -0.014 C 
HETATM   26  C1  UNL     1       1.437   8.804  12.110  1.00  0.00     0.010 C 
BRANCH  25  27
HETATM   27  C3  UNL     1       1.278   6.395  12.888  1.00  0.00     0.007 C 
BRANCH  27  28
HETATM   28  C4  UNL     1       1.395   6.079  11.388  1.00  0.00     0.035 C 
BRANCH  28  29
HETATM   29  C5  UNL     1       2.631   5.305  10.889  1.00  0.00     0.154 C 
BRANCH  29  30
HETATM   30  O1  UNL     1       2.238   4.003  10.432  1.00  0.00    -0.392 OA
HETATM   31  H10 UNL     1       1.840   4.150   9.550  1.00  0.00     0.210 HD
ENDBRANCH  29  30
BRANCH  29  32
HETATM   32  C6  UNL     1       3.516   5.973   9.797  1.00  0.00     0.101 C 
HETATM   33  C7  UNL     1       2.713   6.863   8.849  1.00  0.00     0.051 C 
BRANCH  32  34
HETATM   34  O2  UNL     1       4.146   4.931   9.024  1.00  0.00    -0.385 OA
HETATM   35  H14 UNL     1       5.090   4.922   9.290  1.00  0.00     0.210 HD
ENDBRANCH  32  34
BRANCH  32  36
HETATM   36  C8  UNL     1       4.641   6.809  10.457  1.00  0.00     0.204 C 
BRANCH  36  37
HETATM   37  O3  UNL     1       5.010   6.240  11.716  1.00  0.00    -0.398 OA
HETATM   38  H17 UNL     1       4.191   6.186  12.254  1.00  0.00     0.209 HD
ENDBRANCH  36  37
ENDBRANCH  32  36
ENDBRANCH  29  32
ENDBRANCH  28  29
ENDBRANCH  27  28
ENDBRANCH  25  27
ENDBRANCH   1  25
TORSDOF 9
ENDMDL
MODEL 9
REMARK minimizedAffinity -8.5049715
REMARK  9 active torsions:
REMARK  status: ('A' for Active; 'I' for Inactive)
REMARK    1  A    between atoms: C2_2  and  C3_3 
REMARK    2  A    between atoms: C2_2  and  C9_12 
REMARK    3  A    between atoms: C3_3  and  C4_4 
REMARK    4  A    between atoms: C4_4  and  C5_5 
REMARK    5  A    between atoms: C5_5  and  O1_6 
REMARK    6  A    between atoms: C5_5  and  C6_7 
REMARK    7  A    between atoms: C6_7  and  O2_9 
REMARK    8  A    between atoms: C6_7  and  C8_10 
REMARK    9  A    between atoms: C8_10  and  O3_11 
ROOT
HETATM    1  C9  UNL     1      -1.945   7.425  13.869  1.00  0.00    -0.002 C 
HETATM    2  C10 UNL     1      -1.736   6.900  15.316  1.00  0.00     0.007 C 
HETATM    3  C11 UNL     1      -0.256   7.131  15.672  1.00  0.00     0.015 C 
HETATM    4  C12 UNL     1       0.252   8.150  14.634  1.00  0.00    -0.005 C 
HETATM    5  C13 UNL     1      -0.198   9.563  15.124  1.00  0.00     0.021 C 
HETATM    6  C14 UNL     1       1.743   8.304  14.355  1.00  0.00    -0.000 C 
HETATM    7  C15 UNL     1       2.195   8.688  13.131  1.00  0.00    -0.060 C 
HETATM    8  C16 UNL     1       1.204   8.935  11.977  1.00  0.00     0.036 C 
HETATM    9  C17 UNL     1      -0.294   8.670  12.246  1.00  0.00     0.015 C 
HETATM   10  C18 UNL     1      -0.489   7.616  13.343  1.00  0.00    -0.028 C 
HETATM   11  C19 UNL     1       0.080   6.260  12.832  1.00  0.00     0.016 C 
HETATM   12  C20 UNL     1       3.698   8.906  12.804  1.00  0.00    -0.014 C 
HETATM   13  C21 UNL     1       3.932  10.434  12.765  1.00  0.00     0.020 C 
HETATM   14  C22 UNL     1       4.048   8.294  11.415  1.00  0.00     0.021 C 
HETATM   15  C23 UNL     1       5.515   7.952  11.172  1.00  0.00     0.080 C 
HETATM   16  C24 UNL     1       6.447   8.589  12.169  1.00  0.00     0.135 C 
HETATM   17  O4  UNL     1       7.446   9.196  11.784  1.00  0.00    -0.297 OA
HETATM   18  C25 UNL     1       6.141   8.363  13.654  1.00  0.00     0.018 C 
HETATM   19  C26 UNL     1       6.754   9.517  14.475  1.00  0.00     0.023 C 
HETATM   20  C27 UNL     1       6.871   7.067  14.062  1.00  0.00     0.023 C 
HETATM   21  C28 UNL     1       4.596   8.184  13.862  1.00  0.00     0.020 C 
HETATM   22  C29 UNL     1       4.144   8.512  15.285  1.00  0.00     0.090 C 
HETATM   23  C30 UNL     1       2.697   8.149  15.498  1.00  0.00     0.157 C 
HETATM   24  O5  UNL     1       2.312   7.800  16.612  1.00  0.00    -0.293 OA
ENDROOT
BRANCH   1  25
HETATM   25  C2  UNL     1      -3.049   6.653  13.084  1.00  0.00    -0.014 C 
HETATM   26  C1  UNL     1      -4.477   7.212  13.171  1.00  0.00     0.010 C 
BRANCH  25  27
HETATM   27  C3  UNL     1      -3.028   5.144  13.417  1.00  0.00     0.007 C 
BRANCH  27  28
HETATM   28  C4  UNL     1      -3.916   4.235  12.552  1.00  0.00     0.035 C 
BRANCH  28  29
HETATM   29  C5  UNL     1      -3.313   2.936  11.982  1.00  0.00     0.154 C 
BRANCH  29  30
HETATM   30  O1  UNL     1      -4.364   2.050  11.572  1.00  0.00    -0.392 OA
HETATM   31  H10 UNL     1      -4.680   2.406  10.717  1.00  0.00     0.210 HD
ENDBRANCH  29  30
BRANCH  29  32
HETATM   32  C6  UNL     1      -2.281   3.060  10.824  1.00  0.00     0.101 C 
HETATM   33  C7  UNL     1      -1.401   4.303  10.947  1.00  0.00     0.051 C 
BRANCH  32  34
HETATM   34  O2  UNL     1      -3.005   3.132   9.578  1.00  0.00    -0.385 OA
HETATM   35  H14 UNL     1      -2.877   2.267   9.134  1.00  0.00     0.210 HD
ENDBRANCH  32  34
BRANCH  32  36
HETATM   36  C8  UNL     1      -1.383   1.798  10.769  1.00  0.00     0.204 C 
BRANCH  36  37
HETATM   37  O3  UNL     1      -2.163   0.622  11.000  1.00  0.00    -0.398 OA
HETATM   38  H17 UNL     1      -2.617   0.747  11.861  1.00  0.00     0.209 HD
ENDBRANCH  36  37
ENDBRANCH  32  36
ENDBRANCH  29  32
ENDBRANCH  28  29
ENDBRANCH  27  28
ENDBRANCH  25  27
ENDBRANCH   1  25
TORSDOF 9
ENDMDL
