MODEL 1
REMARK minimizedAffinity -8.29446411
REMARK CNNscore 0.684955418
REMARK CNNaffinity 6.37616158
REMARK  10 active torsions:
REMARK  status: ('A' for Active; 'I' for Inactive)
REMARK    1  A    between atoms: C9_9  and  O1_10 
REMARK    2  A    between atoms: C11_12  and  O2_13 
REMARK    3  A    between atoms: O2_13  and  C12_14 
REMARK    4  A    between atoms: C14_16  and  O3_17 
REMARK    5  A    between atoms: C15_18  and  O4_19 
REMARK    6  A    between atoms: C16_20  and  C17_21 
REMARK    7  A    between atoms: C17_21  and  O5_22 
REMARK    8  A    between atoms: C20_26  and  C21_27 
REMARK    9  A    between atoms: C22_29  and  O8_30 
REMARK   10  A    between atoms: C25_33  and  C26_34 
ROOT
HETATM    1  C1  UNL     1      -0.616  50.941 -18.797  1.00  0.00     0.019 C 
HETATM    2  C2  UNL     1      -1.746  50.527 -19.783  1.00  0.00    -0.005 C 
HETATM    3  C3  UNL     1      -3.060  51.160 -19.262  1.00  0.00     0.013 C 
HETATM    4  C4  UNL     1      -4.324  50.786 -20.046  1.00  0.00     0.007 C 
HETATM    5  C5  UNL     1      -4.336  49.333 -20.573  1.00  0.00     0.011 C 
HETATM    6  C6  UNL     1      -3.342  48.448 -19.779  1.00  0.00     0.026 C 
HETATM    7  C7  UNL     1      -3.513  46.944 -20.077  1.00  0.00     0.011 C 
HETATM    8  C8  UNL     1      -4.215  46.692 -21.402  1.00  0.00     0.039 C 
HETATM    9  C9  UNL     1      -5.641  47.284 -21.434  1.00  0.00     0.074 C 
HETATM   10  C10 UNL     1      -6.076  47.380 -22.916  1.00  0.00     0.071 C 
HETATM   11  C11 UNL     1      -7.533  47.822 -23.086  1.00  0.00     0.127 C 
HETATM   12  C18 UNL     1      -7.934  48.888 -22.060  1.00  0.00     0.033 C 
HETATM   13  C19 UNL     1      -6.726  49.627 -21.473  1.00  0.00     0.022 C 
HETATM   14  C20 UNL     1      -5.759  48.679 -20.699  1.00  0.00     0.048 C 
HETATM   15  C22 UNL     1      -1.868  48.960 -19.842  1.00  0.00     0.070 C 
HETATM   16  C23 UNL     1      -1.041  48.582 -21.076  1.00  0.00     0.040 C 
HETATM   17  C24 UNL     1      -1.256  49.683 -22.092  1.00  0.00     0.013 C 
HETATM   18  C25 UNL     1      -1.464  50.979 -21.273  1.00  0.00     0.028 C 
ENDROOT
BRANCH  11  19
HETATM   19  O2  UNL     1      -8.354  46.656 -22.929  1.00  0.00    -0.356 OA
BRANCH  19  20
HETATM   20  C12 UNL     1      -8.185  45.683 -23.958  1.00  0.00     0.263 C 
HETATM   21  C13 UNL     1      -8.407  44.289 -23.363  1.00  0.00     0.095 C 
HETATM   22  C14 UNL     1      -9.380  43.490 -24.203  1.00  0.00     0.154 C 
HETATM   23  C15 UNL     1     -10.696  44.267 -24.330  1.00  0.00     0.178 C 
HETATM   24  C16 UNL     1     -10.453  45.705 -24.837  1.00  0.00     0.179 C 
HETATM   25  O6  UNL     1      -9.058  45.964 -25.051  1.00  0.00    -0.351 OA
BRANCH  22  26
HETATM   26  O3  UNL     1      -9.634  42.223 -23.585  1.00  0.00    -0.393 OA
HETATM   27  H22 UNL     1     -10.513  41.945 -23.929  1.00  0.00     0.210 HD
ENDBRANCH  22  26
BRANCH  23  28
HETATM   28  O4  UNL     1     -11.571  43.542 -25.208  1.00  0.00    -0.390 OA
HETATM   29  H24 UNL     1     -11.182  43.568 -26.100  1.00  0.00     0.210 HD
ENDBRANCH  23  28
BRANCH  24  30
HETATM   30  C17 UNL     1     -11.119  46.755 -23.935  1.00  0.00     0.198 C 
BRANCH  30  31
HETATM   31  O5  UNL     1     -12.482  46.974 -24.291  1.00  0.00    -0.398 OA
HETATM   32  H28 UNL     1     -12.975  46.142 -24.178  1.00  0.00     0.209 HD
ENDBRANCH  30  31
ENDBRANCH  24  30
ENDBRANCH  19  20
ENDBRANCH  11  19
BRANCH   9  33
HETATM   33  O1  UNL     1      -6.492  46.334 -20.782  1.00  0.00    -0.389 OA
HETATM   34  H14 UNL     1      -6.694  45.606 -21.403  1.00  0.00     0.210 HD
ENDBRANCH   9  33
BRANCH  14  35
HETATM   35  C21 UNL     1      -6.397  48.489 -19.307  1.00  0.00     0.244 C 
HETATM   36  O7  UNL     1      -7.582  48.227 -19.109  1.00  0.00    -0.306 OA
ENDBRANCH  14  35
BRANCH  15  37
HETATM   37  O8  UNL     1      -1.200  48.366 -18.717  1.00  0.00    -0.389 OA
HETATM   38  H34 UNL     1      -1.221  47.398 -18.808  1.00  0.00     0.210 HD
ENDBRANCH  15  37
BRANCH  18  39
HETATM   39  C26 UNL     1      -0.393  52.025 -21.455  1.00  0.00    -0.045 A 
HETATM   40  C27 UNL     1       0.130  52.866 -20.559  1.00  0.00     0.087 A 
HETATM   41  C28 UNL     1       1.120  53.685 -21.257  1.00  0.00     0.283 A 
HETATM   42  O9  UNL     1       1.795  54.556 -20.743  1.00  0.00    -0.260 OA
HETATM   43  O10 UNL     1       1.162  53.321 -22.566  1.00  0.00    -0.314 OA
HETATM   44  C29 UNL     1       0.221  52.270 -22.790  1.00  0.00     0.213 A 
ENDBRANCH  18  39
TORSDOF 10
ENDMDL
MODEL 2
REMARK minimizedAffinity -9.6164093
REMARK CNNscore 0.681433082
REMARK CNNaffinity 6.36123133
REMARK  10 active torsions:
REMARK  status: ('A' for Active; 'I' for Inactive)
REMARK    1  A    between atoms: C9_9  and  O1_10 
REMARK    2  A    between atoms: C11_12  and  O2_13 
REMARK    3  A    between atoms: O2_13  and  C12_14 
REMARK    4  A    between atoms: C14_16  and  O3_17 
REMARK    5  A    between atoms: C15_18  and  O4_19 
REMARK    6  A    between atoms: C16_20  and  C17_21 
REMARK    7  A    between atoms: C17_21  and  O5_22 
REMARK    8  A    between atoms: C20_26  and  C21_27 
REMARK    9  A    between atoms: C22_29  and  O8_30 
REMARK   10  A    between atoms: C25_33  and  C26_34 
ROOT
HETATM    1  C1  UNL     1      -0.715  50.964 -18.429  1.00  0.00     0.019 C 
HETATM    2  C2  UNL     1      -1.702  50.759 -19.615  1.00  0.00    -0.005 C 
HETATM    3  C3  UNL     1      -3.085  51.281 -19.152  1.00  0.00     0.013 C 
HETATM    4  C4  UNL     1      -4.231  51.077 -20.151  1.00  0.00     0.007 C 
HETATM    5  C5  UNL     1      -4.145  49.759 -20.952  1.00  0.00     0.011 C 
HETATM    6  C6  UNL     1      -3.241  48.729 -20.228  1.00  0.00     0.026 C 
HETATM    7  C7  UNL     1      -3.341  47.315 -20.838  1.00  0.00     0.011 C 
HETATM    8  C8  UNL     1      -3.863  47.335 -22.266  1.00  0.00     0.039 C 
HETATM    9  C9  UNL     1      -5.285  47.928 -22.363  1.00  0.00     0.074 C 
HETATM   10  C10 UNL     1      -5.530  48.319 -23.840  1.00  0.00     0.071 C 
HETATM   11  C11 UNL     1      -6.964  48.793 -24.105  1.00  0.00     0.127 C 
HETATM   12  C18 UNL     1      -7.514  49.635 -22.948  1.00  0.00     0.033 C 
HETATM   13  C19 UNL     1      -6.407  50.237 -22.076  1.00  0.00     0.022 C 
HETATM   14  C20 UNL     1      -5.525  49.150 -21.388  1.00  0.00     0.048 C 
HETATM   15  C22 UNL     1      -1.782  49.236 -19.998  1.00  0.00     0.070 C 
HETATM   16  C23 UNL     1      -0.797  49.108 -21.166  1.00  0.00     0.040 C 
HETATM   17  C24 UNL     1      -0.905  50.391 -21.962  1.00  0.00     0.013 C 
HETATM   18  C25 UNL     1      -1.242  51.499 -20.936  1.00  0.00     0.028 C 
ENDROOT
BRANCH  11  19
HETATM   19  O2  UNL     1      -7.773  47.623 -24.290  1.00  0.00    -0.356 OA
BRANCH  19  20
HETATM   20  C12 UNL     1      -7.482  46.897 -25.482  1.00  0.00     0.263 C 
HETATM   21  C13 UNL     1      -8.190  45.540 -25.421  1.00  0.00     0.095 C 
HETATM   22  C14 UNL     1      -8.971  45.279 -26.691  1.00  0.00     0.154 C 
HETATM   23  C15 UNL     1      -9.964  46.425 -26.920  1.00  0.00     0.178 C 
HETATM   24  C16 UNL     1      -9.257  47.796 -26.881  1.00  0.00     0.179 C 
HETATM   25  O6  UNL     1      -7.851  47.663 -26.628  1.00  0.00    -0.351 OA
BRANCH  22  26
HETATM   26  O3  UNL     1      -9.689  44.043 -26.579  1.00  0.00    -0.393 OA
HETATM   27  H22 UNL     1     -10.437  44.127 -27.212  1.00  0.00     0.210 HD
ENDBRANCH  22  26
BRANCH  23  28
HETATM   28  O4  UNL     1     -10.626  46.211 -28.176  1.00  0.00    -0.390 OA
HETATM   29  H24 UNL     1      -9.963  46.315 -28.881  1.00  0.00     0.210 HD
ENDBRANCH  23  28
BRANCH  24  30
HETATM   30  C17 UNL     1      -9.944  48.772 -25.912  1.00  0.00     0.198 C 
BRANCH  30  31
HETATM   31  O5  UNL     1      -9.648  50.130 -26.227  1.00  0.00    -0.398 OA
HETATM   32  H28 UNL     1      -9.982  50.327 -27.119  1.00  0.00     0.209 HD
ENDBRANCH  30  31
ENDBRANCH  24  30
ENDBRANCH  19  20
ENDBRANCH  11  19
BRANCH   9  33
HETATM   33  O1  UNL     1      -6.192  46.871 -22.027  1.00  0.00    -0.389 OA
HETATM   34  H14 UNL     1      -6.298  46.282 -22.801  1.00  0.00     0.210 HD
ENDBRANCH   9  33
BRANCH  14  35
HETATM   35  C21 UNL     1      -6.331  48.689 -20.155  1.00  0.00     0.244 C 
HETATM   36  O7  UNL     1      -7.203  49.353 -19.598  1.00  0.00    -0.306 OA
ENDBRANCH  14  35
BRANCH  15  37
HETATM   37  O8  UNL     1      -1.250  48.427 -18.936  1.00  0.00    -0.389 OA
HETATM   38  H34 UNL     1      -1.239  47.497 -19.219  1.00  0.00     0.210 HD
ENDBRANCH  15  37
BRANCH  18  39
HETATM   39  C26 UNL     1      -0.180  52.555 -20.768  1.00  0.00    -0.045 A 
HETATM   40  C27 UNL     1       0.695  53.024 -21.660  1.00  0.00     0.087 A 
HETATM   41  C28 UNL     1       1.516  54.025 -20.980  1.00  0.00     0.283 A 
HETATM   42  O9  UNL     1       2.415  54.661 -21.496  1.00  0.00    -0.260 OA
HETATM   43  O10 UNL     1       1.120  54.126 -19.684  1.00  0.00    -0.314 OA
HETATM   44  C29 UNL     1       0.044  53.217 -19.452  1.00  0.00     0.213 A 
ENDBRANCH  18  39
TORSDOF 10
ENDMDL
MODEL 3
REMARK minimizedAffinity -7.68630791
REMARK CNNscore 0.639102817
REMARK CNNaffinity 6.23658228
REMARK  10 active torsions:
REMARK  status: ('A' for Active; 'I' for Inactive)
REMARK    1  A    between atoms: C9_9  and  O1_10 
REMARK    2  A    between atoms: C11_12  and  O2_13 
REMARK    3  A    between atoms: O2_13  and  C12_14 
REMARK    4  A    between atoms: C14_16  and  O3_17 
REMARK    5  A    between atoms: C15_18  and  O4_19 
REMARK    6  A    between atoms: C16_20  and  C17_21 
REMARK    7  A    between atoms: C17_21  and  O5_22 
REMARK    8  A    between atoms: C20_26  and  C21_27 
REMARK    9  A    between atoms: C22_29  and  O8_30 
REMARK   10  A    between atoms: C25_33  and  C26_34 
ROOT
HETATM    1  C1  UNL     1      -0.894  50.813 -22.642  1.00  0.00     0.019 C 
HETATM    2  C2  UNL     1      -1.662  50.168 -21.452  1.00  0.00    -0.005 C 
HETATM    3  C3  UNL     1      -1.089  48.742 -21.260  1.00  0.00     0.013 C 
HETATM    4  C4  UNL     1      -1.787  47.893 -20.189  1.00  0.00     0.007 C 
HETATM    5  C5  UNL     1      -3.313  48.119 -20.099  1.00  0.00     0.011 C 
HETATM    6  C6  UNL     1      -3.859  48.740 -21.408  1.00  0.00     0.026 C 
HETATM    7  C7  UNL     1      -5.401  48.731 -21.476  1.00  0.00     0.011 C 
HETATM    8  C8  UNL     1      -6.040  48.608 -20.102  1.00  0.00     0.039 C 
HETATM    9  C9  UNL     1      -5.649  47.298 -19.386  1.00  0.00     0.074 C 
HETATM   10  C10 UNL     1      -5.958  47.475 -17.880  1.00  0.00     0.071 C 
HETATM   11  C11 UNL     1      -5.748  46.192 -17.070  1.00  0.00     0.127 C 
HETATM   12  C18 UNL     1      -4.528  45.399 -17.552  1.00  0.00     0.033 C 
HETATM   13  C19 UNL     1      -3.530  46.266 -18.330  1.00  0.00     0.022 C 
HETATM   14  C20 UNL     1      -4.146  46.873 -19.629  1.00  0.00     0.048 C 
HETATM   15  C22 UNL     1      -3.202  50.111 -21.767  1.00  0.00     0.070 C 
HETATM   16  C23 UNL     1      -3.756  51.363 -21.077  1.00  0.00     0.040 C 
HETATM   17  C24 UNL     1      -2.958  51.539 -19.803  1.00  0.00     0.013 C 
HETATM   18  C25 UNL     1      -1.541  51.001 -20.113  1.00  0.00     0.028 C 
ENDROOT
BRANCH  11  19
HETATM   19  O2  UNL     1      -6.935  45.399 -17.210  1.00  0.00    -0.356 OA
BRANCH  19  20
HETATM   20  C12 UNL     1      -7.527  45.014 -15.970  1.00  0.00     0.263 C 
HETATM   21  C13 UNL     1      -7.823  46.274 -15.151  1.00  0.00     0.095 C 
HETATM   22  C14 UNL     1      -9.249  46.266 -14.642  1.00  0.00     0.154 C 
HETATM   23  C15 UNL     1     -10.209  46.126 -15.830  1.00  0.00     0.178 C 
HETATM   24  C16 UNL     1      -9.843  44.910 -16.707  1.00  0.00     0.179 C 
HETATM   25  O6  UNL     1      -8.689  44.220 -16.205  1.00  0.00    -0.351 OA
BRANCH  22  26
HETATM   26  O3  UNL     1      -9.528  47.489 -13.948  1.00  0.00    -0.393 OA
HETATM   27  H22 UNL     1     -10.505  47.592 -14.000  1.00  0.00     0.210 HD
ENDBRANCH  22  26
BRANCH  23  28
HETATM   28  O4  UNL     1     -11.549  46.023 -15.323  1.00  0.00    -0.390 OA
HETATM   29  H24 UNL     1     -11.621  45.177 -14.847  1.00  0.00     0.210 HD
ENDBRANCH  23  28
BRANCH  24  30
HETATM   30  C17 UNL     1      -9.708  45.288 -18.191  1.00  0.00     0.198 C 
BRANCH  30  31
HETATM   31  O5  UNL     1     -10.688  46.245 -18.586  1.00  0.00    -0.398 OA
HETATM   32  H28 UNL     1     -10.561  47.059 -18.068  1.00  0.00     0.209 HD
ENDBRANCH  30  31
ENDBRANCH  24  30
ENDBRANCH  19  20
ENDBRANCH  11  19
BRANCH   9  33
HETATM   33  O1  UNL     1      -6.516  46.279 -19.900  1.00  0.00    -0.389 OA
HETATM   34  H14 UNL     1      -7.389  46.350 -19.463  1.00  0.00     0.210 HD
ENDBRANCH   9  33
BRANCH  14  35
HETATM   35  C21 UNL     1      -4.080  45.744 -20.680  1.00  0.00     0.244 C 
HETATM   36  O7  UNL     1      -4.874  44.809 -20.755  1.00  0.00    -0.306 OA
ENDBRANCH  14  35
BRANCH  15  37
HETATM   37  O8  UNL     1      -3.430  50.297 -23.174  1.00  0.00    -0.389 OA
HETATM   38  H34 UNL     1      -4.387  50.333 -23.340  1.00  0.00     0.210 HD
ENDBRANCH  15  37
BRANCH  18  39
HETATM   39  C26 UNL     1      -0.445  52.036 -20.075  1.00  0.00    -0.045 A 
HETATM   40  C27 UNL     1      -0.061  52.898 -21.020  1.00  0.00     0.087 A 
HETATM   41  C28 UNL     1       1.060  53.666 -20.479  1.00  0.00     0.283 A 
HETATM   42  O9  UNL     1       1.655  54.545 -21.071  1.00  0.00    -0.260 OA
HETATM   43  O10 UNL     1       1.331  53.238 -19.218  1.00  0.00    -0.314 OA
HETATM   44  C29 UNL     1       0.424  52.190 -18.874  1.00  0.00     0.213 A 
ENDBRANCH  18  39
TORSDOF 10
ENDMDL
MODEL 4
REMARK minimizedAffinity -8.23381519
REMARK CNNscore 0.566991091
REMARK CNNaffinity 6.2831769
REMARK  10 active torsions:
REMARK  status: ('A' for Active; 'I' for Inactive)
REMARK    1  A    between atoms: C9_9  and  O1_10 
REMARK    2  A    between atoms: C11_12  and  O2_13 
REMARK    3  A    between atoms: O2_13  and  C12_14 
REMARK    4  A    between atoms: C14_16  and  O3_17 
REMARK    5  A    between atoms: C15_18  and  O4_19 
REMARK    6  A    between atoms: C16_20  and  C17_21 
REMARK    7  A    between atoms: C17_21  and  O5_22 
REMARK    8  A    between atoms: C20_26  and  C21_27 
REMARK    9  A    between atoms: C22_29  and  O8_30 
REMARK   10  A    between atoms: C25_33  and  C26_34 
ROOT
HETATM    1  C1  UNL     1      -0.592  50.837 -18.724  1.00  0.00     0.019 C 
HETATM    2  C2  UNL     1      -1.731  50.438 -19.707  1.00  0.00    -0.005 C 
HETATM    3  C3  UNL     1      -3.039  51.068 -19.168  1.00  0.00     0.013 C 
HETATM    4  C4  UNL     1      -4.310  50.707 -19.948  1.00  0.00     0.007 C 
HETATM    5  C5  UNL     1      -4.329  49.261 -20.493  1.00  0.00     0.011 C 
HETATM    6  C6  UNL     1      -3.332  48.364 -19.717  1.00  0.00     0.026 C 
HETATM    7  C7  UNL     1      -3.509  46.863 -20.032  1.00  0.00     0.011 C 
HETATM    8  C8  UNL     1      -4.222  46.629 -21.355  1.00  0.00     0.039 C 
HETATM    9  C9  UNL     1      -5.645  47.226 -21.369  1.00  0.00     0.074 C 
HETATM   10  C10 UNL     1      -6.091  47.341 -22.847  1.00  0.00     0.071 C 
HETATM   11  C11 UNL     1      -7.549  47.788 -23.000  1.00  0.00     0.127 C 
HETATM   12  C18 UNL     1      -7.940  48.843 -21.958  1.00  0.00     0.033 C 
HETATM   13  C19 UNL     1      -6.725  49.572 -21.371  1.00  0.00     0.022 C 
HETATM   14  C20 UNL     1      -5.755  48.612 -20.616  1.00  0.00     0.048 C 
HETATM   15  C22 UNL     1      -1.857  48.872 -19.785  1.00  0.00     0.070 C 
HETATM   16  C23 UNL     1      -1.040  48.508 -21.029  1.00  0.00     0.040 C 
HETATM   17  C24 UNL     1      -1.260  49.622 -22.030  1.00  0.00     0.013 C 
HETATM   18  C25 UNL     1      -1.458  50.908 -21.193  1.00  0.00     0.028 C 
ENDROOT
BRANCH  11  19
HETATM   19  O2  UNL     1      -8.372  46.623 -22.852  1.00  0.00    -0.356 OA
BRANCH  19  20
HETATM   20  C12 UNL     1      -9.330  46.452 -23.895  1.00  0.00     0.263 C 
HETATM   21  C13 UNL     1      -8.658  46.745 -25.239  1.00  0.00     0.095 C 
HETATM   22  C14 UNL     1      -8.922  45.632 -26.231  1.00  0.00     0.154 C 
HETATM   23  C15 UNL     1      -8.443  44.301 -25.638  1.00  0.00     0.178 C 
HETATM   24  C16 UNL     1      -9.049  44.060 -24.238  1.00  0.00     0.179 C 
HETATM   25  O6  UNL     1      -9.898  45.144 -23.832  1.00  0.00    -0.351 OA
BRANCH  22  26
HETATM   26  O3  UNL     1      -8.218  45.888 -27.452  1.00  0.00    -0.393 OA
HETATM   27  H22 UNL     1      -8.103  45.004 -27.869  1.00  0.00     0.210 HD
ENDBRANCH  22  26
BRANCH  23  28
HETATM   28  O4  UNL     1      -8.789  43.246 -26.548  1.00  0.00    -0.390 OA
HETATM   29  H24 UNL     1      -9.759  43.174 -26.562  1.00  0.00     0.210 HD
ENDBRANCH  23  28
BRANCH  24  30
HETATM   30  C17 UNL     1      -7.972  43.727 -23.193  1.00  0.00     0.198 C 
BRANCH  30  31
HETATM   31  O5  UNL     1      -7.063  42.735 -23.665  1.00  0.00    -0.398 OA
HETATM   32  H28 UNL     1      -6.605  43.077 -24.452  1.00  0.00     0.209 HD
ENDBRANCH  30  31
ENDBRANCH  24  30
ENDBRANCH  19  20
ENDBRANCH  11  19
BRANCH   9  33
HETATM   33  O1  UNL     1      -6.494  46.270 -20.722  1.00  0.00    -0.389 OA
HETATM   34  H14 UNL     1      -6.703  45.550 -21.351  1.00  0.00     0.210 HD
ENDBRANCH   9  33
BRANCH  14  35
HETATM   35  C21 UNL     1      -6.383  48.406 -19.222  1.00  0.00     0.244 C 
HETATM   36  O7  UNL     1      -7.244  47.569 -18.957  1.00  0.00    -0.306 OA
ENDBRANCH  14  35
BRANCH  15  37
HETATM   37  O8  UNL     1      -1.182  48.263 -18.672  1.00  0.00    -0.389 OA
HETATM   38  H34 UNL     1      -1.207  47.296 -18.774  1.00  0.00     0.210 HD
ENDBRANCH  15  37
BRANCH  18  39
HETATM   39  C26 UNL     1      -0.386  51.953 -21.370  1.00  0.00    -0.045 A 
HETATM   40  C27 UNL     1       0.150  52.778 -20.467  1.00  0.00     0.087 A 
HETATM   41  C28 UNL     1       1.134  53.605 -21.163  1.00  0.00     0.283 A 
HETATM   42  O9  UNL     1       1.818  54.466 -20.642  1.00  0.00    -0.260 OA
HETATM   43  O10 UNL     1       1.161  53.263 -22.478  1.00  0.00    -0.314 OA
HETATM   44  C29 UNL     1       0.214  52.219 -22.708  1.00  0.00     0.213 A 
ENDBRANCH  18  39
TORSDOF 10
ENDMDL
MODEL 5
REMARK minimizedAffinity -7.63812971
REMARK CNNscore 0.533235073
REMARK CNNaffinity 6.03370428
REMARK  10 active torsions:
REMARK  status: ('A' for Active; 'I' for Inactive)
REMARK    1  A    between atoms: C9_9  and  O1_10 
REMARK    2  A    between atoms: C11_12  and  O2_13 
REMARK    3  A    between atoms: O2_13  and  C12_14 
REMARK    4  A    between atoms: C14_16  and  O3_17 
REMARK    5  A    between atoms: C15_18  and  O4_19 
REMARK    6  A    between atoms: C16_20  and  C17_21 
REMARK    7  A    between atoms: C17_21  and  O5_22 
REMARK    8  A    between atoms: C20_26  and  C21_27 
REMARK    9  A    between atoms: C22_29  and  O8_30 
REMARK   10  A    between atoms: C25_33  and  C26_34 
ROOT
HETATM    1  C1  UNL     1     -10.580  45.597 -38.978  1.00  0.00     0.019 C 
HETATM    2  C2  UNL     1     -10.514  46.245 -37.564  1.00  0.00    -0.005 C 
HETATM    3  C3  UNL     1      -9.064  46.750 -37.362  1.00  0.00     0.013 C 
HETATM    4  C4  UNL     1      -8.761  47.339 -35.978  1.00  0.00     0.007 C 
HETATM    5  C5  UNL     1      -9.488  46.626 -34.814  1.00  0.00     0.011 C 
HETATM    6  C6  UNL     1      -9.935  45.202 -35.231  1.00  0.00     0.026 C 
HETATM    7  C7  UNL     1     -10.415  44.353 -34.034  1.00  0.00     0.011 C 
HETATM    8  C8  UNL     1     -10.829  45.208 -32.847  1.00  0.00     0.039 C 
HETATM    9  C9  UNL     1      -9.664  46.065 -32.305  1.00  0.00     0.074 C 
HETATM   10  C10 UNL     1     -10.275  47.193 -31.440  1.00  0.00     0.071 C 
HETATM   11  C11 UNL     1      -9.217  48.037 -30.722  1.00  0.00     0.127 C 
HETATM   12  C18 UNL     1      -7.981  48.275 -31.595  1.00  0.00     0.033 C 
HETATM   13  C19 UNL     1      -8.269  48.092 -33.090  1.00  0.00     0.022 C 
HETATM   14  C20 UNL     1      -8.727  46.642 -33.441  1.00  0.00     0.048 C 
HETATM   15  C22 UNL     1     -10.893  45.187 -36.464  1.00  0.00     0.070 C 
HETATM   16  C23 UNL     1     -12.380  45.454 -36.206  1.00  0.00     0.040 C 
HETATM   17  C24 UNL     1     -12.575  46.950 -36.325  1.00  0.00     0.013 C 
HETATM   18  C25 UNL     1     -11.547  47.429 -37.377  1.00  0.00     0.028 C 
ENDROOT
BRANCH  11  19
HETATM   19  O2  UNL     1      -8.847  47.334 -29.528  1.00  0.00    -0.356 OA
BRANCH  19  20
HETATM   20  C12 UNL     1      -7.508  46.840 -29.535  1.00  0.00     0.263 C 
HETATM   21  C13 UNL     1      -6.549  48.010 -29.772  1.00  0.00     0.095 C 
HETATM   22  C14 UNL     1      -5.437  48.015 -28.745  1.00  0.00     0.154 C 
HETATM   23  C15 UNL     1      -6.048  48.060 -27.338  1.00  0.00     0.178 C 
HETATM   24  C16 UNL     1      -7.087  46.936 -27.142  1.00  0.00     0.179 C 
HETATM   25  O6  UNL     1      -7.236  46.136 -28.324  1.00  0.00    -0.351 OA
BRANCH  22  26
HETATM   26  O3  UNL     1      -4.600  49.162 -28.935  1.00  0.00    -0.393 OA
HETATM   27  H22 UNL     1      -4.182  49.319 -28.059  1.00  0.00     0.210 HD
ENDBRANCH  22  26
BRANCH  23  28
HETATM   28  O4  UNL     1      -4.985  47.966 -26.377  1.00  0.00    -0.390 OA
HETATM   29  H24 UNL     1      -4.598  47.076 -26.450  1.00  0.00     0.210 HD
ENDBRANCH  23  28
BRANCH  24  30
HETATM   30  C17 UNL     1      -8.428  47.475 -26.617  1.00  0.00     0.198 C 
BRANCH  30  31
HETATM   31  O5  UNL     1      -8.253  48.632 -25.804  1.00  0.00    -0.398 OA
HETATM   32  H28 UNL     1      -7.849  49.337 -26.341  1.00  0.00     0.209 HD
ENDBRANCH  30  31
ENDBRANCH  24  30
ENDBRANCH  19  20
ENDBRANCH  11  19
BRANCH   9  33
HETATM   33  O1  UNL     1      -8.896  45.213 -31.447  1.00  0.00    -0.389 OA
HETATM   34  H14 UNL     1      -9.348  45.138 -30.583  1.00  0.00     0.210 HD
ENDBRANCH   9  33
BRANCH  14  35
HETATM   35  C21 UNL     1      -7.429  45.812 -33.525  1.00  0.00     0.244 C 
HETATM   36  O7  UNL     1      -7.316  44.647 -33.147  1.00  0.00    -0.306 OA
ENDBRANCH  14  35
BRANCH  15  37
HETATM   37  O8  UNL     1     -10.814  43.857 -37.004  1.00  0.00    -0.389 OA
HETATM   38  H34 UNL     1     -11.122  43.223 -36.335  1.00  0.00     0.210 HD
ENDBRANCH  15  37
BRANCH  18  39
HETATM   39  C26 UNL     1     -12.146  47.990 -38.642  1.00  0.00    -0.045 A 
HETATM   40  C27 UNL     1     -13.344  47.762 -39.185  1.00  0.00     0.087 A 
HETATM   41  C28 UNL     1     -13.417  48.539 -40.421  1.00  0.00     0.283 A 
HETATM   42  O9  UNL     1     -14.373  48.571 -41.172  1.00  0.00    -0.260 OA
HETATM   43  O10 UNL     1     -12.250  49.213 -40.598  1.00  0.00    -0.314 OA
HETATM   44  C29 UNL     1     -11.370  48.917 -39.513  1.00  0.00     0.213 A 
ENDBRANCH  18  39
TORSDOF 10
ENDMDL
MODEL 6
REMARK minimizedAffinity -8.91765118
REMARK CNNscore 0.411493361
REMARK CNNaffinity 6.06783533
REMARK  10 active torsions:
REMARK  status: ('A' for Active; 'I' for Inactive)
REMARK    1  A    between atoms: C9_9  and  O1_10 
REMARK    2  A    between atoms: C11_12  and  O2_13 
REMARK    3  A    between atoms: O2_13  and  C12_14 
REMARK    4  A    between atoms: C14_16  and  O3_17 
REMARK    5  A    between atoms: C15_18  and  O4_19 
REMARK    6  A    between atoms: C16_20  and  C17_21 
REMARK    7  A    between atoms: C17_21  and  O5_22 
REMARK    8  A    between atoms: C20_26  and  C21_27 
REMARK    9  A    between atoms: C22_29  and  O8_30 
REMARK   10  A    between atoms: C25_33  and  C26_34 
ROOT
HETATM    1  C1  UNL     1      -2.830  51.341 -26.847  1.00  0.00     0.019 C 
HETATM    2  C2  UNL     1      -2.582  50.707 -25.447  1.00  0.00    -0.005 C 
HETATM    3  C3  UNL     1      -2.986  49.215 -25.546  1.00  0.00     0.013 C 
HETATM    4  C4  UNL     1      -2.910  48.428 -24.231  1.00  0.00     0.007 C 
HETATM    5  C5  UNL     1      -3.308  49.243 -22.980  1.00  0.00     0.011 C 
HETATM    6  C6  UNL     1      -4.165  50.474 -23.372  1.00  0.00     0.026 C 
HETATM    7  C7  UNL     1      -4.815  51.161 -22.153  1.00  0.00     0.011 C 
HETATM    8  C8  UNL     1      -4.098  50.833 -20.852  1.00  0.00     0.039 C 
HETATM    9  C9  UNL     1      -4.117  49.323 -20.535  1.00  0.00     0.074 C 
HETATM   10  C10 UNL     1      -3.012  49.049 -19.487  1.00  0.00     0.071 C 
HETATM   11  C11 UNL     1      -3.016  47.605 -18.974  1.00  0.00     0.127 C 
HETATM   12  C18 UNL     1      -3.335  46.600 -20.088  1.00  0.00     0.033 C 
HETATM   13  C19 UNL     1      -3.066  47.165 -21.488  1.00  0.00     0.022 C 
HETATM   14  C20 UNL     1      -3.949  48.409 -21.814  1.00  0.00     0.048 C 
HETATM   15  C22 UNL     1      -3.442  51.447 -24.357  1.00  0.00     0.070 C 
HETATM   16  C23 UNL     1      -2.463  52.462 -23.756  1.00  0.00     0.040 C 
HETATM   17  C24 UNL     1      -1.107  51.792 -23.736  1.00  0.00     0.013 C 
HETATM   18  C25 UNL     1      -1.083  50.847 -24.961  1.00  0.00     0.028 C 
ENDROOT
BRANCH  11  19
HETATM   19  O2  UNL     1      -4.006  47.521 -17.939  1.00  0.00    -0.356 OA
BRANCH  19  20
HETATM   20  C12 UNL     1      -3.756  46.498 -16.977  1.00  0.00     0.263 C 
HETATM   21  C13 UNL     1      -3.835  47.107 -15.574  1.00  0.00     0.095 C 
HETATM   22  C14 UNL     1      -4.737  46.286 -14.678  1.00  0.00     0.154 C 
HETATM   23  C15 UNL     1      -6.123  46.170 -15.323  1.00  0.00     0.178 C 
HETATM   24  C16 UNL     1      -6.026  45.649 -16.773  1.00  0.00     0.179 C 
HETATM   25  O6  UNL     1      -4.666  45.414 -17.163  1.00  0.00    -0.351 OA
BRANCH  22  26
HETATM   26  O3  UNL     1      -4.860  46.917 -13.397  1.00  0.00    -0.393 OA
HETATM   27  H22 UNL     1      -5.712  46.587 -13.033  1.00  0.00     0.210 HD
ENDBRANCH  22  26
BRANCH  23  28
HETATM   28  O4  UNL     1      -6.935  45.310 -14.509  1.00  0.00    -0.390 OA
HETATM   29  H24 UNL     1      -6.562  44.413 -14.564  1.00  0.00     0.210 HD
ENDBRANCH  23  28
BRANCH  24  30
HETATM   30  C17 UNL     1      -6.780  46.552 -17.762  1.00  0.00     0.198 C 
BRANCH  30  31
HETATM   31  O5  UNL     1      -6.822  47.906 -17.320  1.00  0.00    -0.398 OA
HETATM   32  H28 UNL     1      -5.912  48.245 -17.256  1.00  0.00     0.209 HD
ENDBRANCH  30  31
ENDBRANCH  24  30
ENDBRANCH  19  20
ENDBRANCH  11  19
BRANCH   9  33
HETATM   33  O1  UNL     1      -5.385  49.051 -19.925  1.00  0.00    -0.389 OA
HETATM   34  H14 UNL     1      -5.356  49.329 -18.987  1.00  0.00     0.210 HD
ENDBRANCH   9  33
BRANCH  14  35
HETATM   35  C21 UNL     1      -5.319  47.839 -22.239  1.00  0.00     0.244 C 
HETATM   36  O7  UNL     1      -6.262  48.512 -22.651  1.00  0.00    -0.306 OA
ENDBRANCH  14  35
BRANCH  15  37
HETATM   37  O8  UNL     1      -4.483  52.216 -24.981  1.00  0.00    -0.389 OA
HETATM   38  H34 UNL     1      -4.957  52.723 -24.300  1.00  0.00     0.210 HD
ENDBRANCH  15  37
BRANCH  18  39
HETATM   39  C26 UNL     1      -0.074  51.207 -26.023  1.00  0.00    -0.045 A 
HETATM   40  C27 UNL     1       1.200  51.580 -25.887  1.00  0.00     0.087 A 
HETATM   41  C28 UNL     1       1.725  51.833 -27.228  1.00  0.00     0.283 A 
HETATM   42  O9  UNL     1       2.862  52.186 -27.479  1.00  0.00    -0.260 OA
HETATM   43  O10 UNL     1       0.745  51.614 -28.143  1.00  0.00    -0.314 OA
HETATM   44  C29 UNL     1      -0.448  51.218 -27.465  1.00  0.00     0.213 A 
ENDBRANCH  18  39
TORSDOF 10
ENDMDL
MODEL 7
REMARK minimizedAffinity -8.23699951
REMARK CNNscore 0.378372729
REMARK CNNaffinity 5.56167364
REMARK  10 active torsions:
REMARK  status: ('A' for Active; 'I' for Inactive)
REMARK    1  A    between atoms: C9_9  and  O1_10 
REMARK    2  A    between atoms: C11_12  and  O2_13 
REMARK    3  A    between atoms: O2_13  and  C12_14 
REMARK    4  A    between atoms: C14_16  and  O3_17 
REMARK    5  A    between atoms: C15_18  and  O4_19 
REMARK    6  A    between atoms: C16_20  and  C17_21 
REMARK    7  A    between atoms: C17_21  and  O5_22 
REMARK    8  A    between atoms: C20_26  and  C21_27 
REMARK    9  A    between atoms: C22_29  and  O8_30 
REMARK   10  A    between atoms: C25_33  and  C26_34 
ROOT
HETATM    1  C1  UNL     1     -14.652  43.532 -25.360  1.00  0.00     0.019 C 
HETATM    2  C2  UNL     1     -13.976  44.504 -26.370  1.00  0.00    -0.005 C 
HETATM    3  C3  UNL     1     -13.772  43.720 -27.689  1.00  0.00     0.013 C 
HETATM    4  C4  UNL     1     -13.022  44.477 -28.793  1.00  0.00     0.007 C 
HETATM    5  C5  UNL     1     -11.897  45.401 -28.275  1.00  0.00     0.011 C 
HETATM    6  C6  UNL     1     -11.445  44.979 -26.854  1.00  0.00     0.026 C 
HETATM    7  C7  UNL     1     -10.148  45.686 -26.405  1.00  0.00     0.011 C 
HETATM    8  C8  UNL     1      -9.890  46.968 -27.182  1.00  0.00     0.039 C 
HETATM    9  C9  UNL     1      -9.720  46.714 -28.695  1.00  0.00     0.074 C 
HETATM   10  C10 UNL     1      -9.919  48.066 -29.422  1.00  0.00     0.071 C 
HETATM   11  C11 UNL     1      -9.635  47.985 -30.926  1.00  0.00     0.127 C 
HETATM   12  C18 UNL     1     -10.125  46.665 -31.534  1.00  0.00     0.033 C 
HETATM   13  C19 UNL     1     -11.203  45.986 -30.680  1.00  0.00     0.022 C 
HETATM   14  C20 UNL     1     -10.689  45.599 -29.259  1.00  0.00     0.048 C 
HETATM   15  C22 UNL     1     -12.598  45.006 -25.801  1.00  0.00     0.070 C 
HETATM   16  C23 UNL     1     -12.943  46.358 -25.166  1.00  0.00     0.040 C 
HETATM   17  C24 UNL     1     -13.999  46.989 -26.046  1.00  0.00     0.013 C 
HETATM   18  C25 UNL     1     -14.823  45.816 -26.627  1.00  0.00     0.028 C 
ENDROOT
BRANCH  11  19
HETATM   19  O2  UNL     1      -8.217  48.109 -31.102  1.00  0.00    -0.356 OA
BRANCH  19  20
HETATM   20  C12 UNL     1      -7.647  47.119 -31.955  1.00  0.00     0.263 C 
HETATM   21  C13 UNL     1      -7.361  47.748 -33.322  1.00  0.00     0.095 C 
HETATM   22  C14 UNL     1      -5.943  47.455 -33.766  1.00  0.00     0.154 C 
HETATM   23  C15 UNL     1      -4.964  47.954 -32.697  1.00  0.00     0.178 C 
HETATM   24  C16 UNL     1      -5.320  47.393 -31.304  1.00  0.00     0.179 C 
HETATM   25  O6  UNL     1      -6.485  46.556 -31.349  1.00  0.00    -0.351 OA
BRANCH  22  26
HETATM   26  O3  UNL     1      -5.672  48.119 -35.006  1.00  0.00    -0.393 OA
HETATM   27  H22 UNL     1      -4.694  48.223 -35.030  1.00  0.00     0.210 HD
ENDBRANCH  22  26
BRANCH  23  28
HETATM   28  O4  UNL     1      -3.633  47.582 -33.088  1.00  0.00    -0.390 OA
HETATM   29  H24 UNL     1      -3.573  46.612 -33.044  1.00  0.00     0.210 HD
ENDBRANCH  23  28
BRANCH  24  30
HETATM   30  C17 UNL     1      -5.428  48.503 -30.246  1.00  0.00     0.198 C 
BRANCH  30  31
HETATM   31  O5  UNL     1      -4.622  49.631 -30.574  1.00  0.00    -0.398 OA
HETATM   32  H28 UNL     1      -4.932  50.006 -31.417  1.00  0.00     0.209 HD
ENDBRANCH  30  31
ENDBRANCH  24  30
ENDBRANCH  19  20
ENDBRANCH  11  19
BRANCH   9  33
HETATM   33  O1  UNL     1      -8.362  46.301 -28.889  1.00  0.00    -0.389 OA
HETATM   34  H14 UNL     1      -7.782  47.089 -28.875  1.00  0.00     0.210 HD
ENDBRANCH   9  33
BRANCH  14  35
HETATM   35  C21 UNL     1      -9.916  44.277 -29.448  1.00  0.00     0.244 C 
HETATM   36  O7  UNL     1      -9.202  43.753 -28.595  1.00  0.00    -0.306 OA
ENDBRANCH  14  35
BRANCH  15  37
HETATM   37  O8  UNL     1     -12.165  44.158 -24.725  1.00  0.00    -0.389 OA
HETATM   38  H34 UNL     1     -11.351  44.524 -24.338  1.00  0.00     0.210 HD
ENDBRANCH  15  37
BRANCH  18  39
HETATM   39  C26 UNL     1     -16.264  45.770 -26.186  1.00  0.00    -0.045 A 
HETATM   40  C27 UNL     1     -16.826  46.257 -25.078  1.00  0.00     0.087 A 
HETATM   41  C28 UNL     1     -18.249  45.926 -25.129  1.00  0.00     0.283 A 
HETATM   42  O9  UNL     1     -19.067  46.222 -24.279  1.00  0.00    -0.260 OA
HETATM   43  O10 UNL     1     -18.509  45.234 -26.269  1.00  0.00    -0.314 OA
HETATM   44  C29 UNL     1     -17.297  45.077 -27.008  1.00  0.00     0.213 A 
ENDBRANCH  18  39
TORSDOF 10
ENDMDL
MODEL 8
REMARK minimizedAffinity -7.31557083
REMARK CNNscore 0.346075594
REMARK CNNaffinity 5.49867773
REMARK  10 active torsions:
REMARK  status: ('A' for Active; 'I' for Inactive)
REMARK    1  A    between atoms: C9_9  and  O1_10 
REMARK    2  A    between atoms: C11_12  and  O2_13 
REMARK    3  A    between atoms: O2_13  and  C12_14 
REMARK    4  A    between atoms: C14_16  and  O3_17 
REMARK    5  A    between atoms: C15_18  and  O4_19 
REMARK    6  A    between atoms: C16_20  and  C17_21 
REMARK    7  A    between atoms: C17_21  and  O5_22 
REMARK    8  A    between atoms: C20_26  and  C21_27 
REMARK    9  A    between atoms: C22_29  and  O8_30 
REMARK   10  A    between atoms: C25_33  and  C26_34 
ROOT
HETATM    1  C1  UNL     1     -15.659  42.635 -26.024  1.00  0.00     0.019 C 
HETATM    2  C2  UNL     1     -14.718  43.245 -27.103  1.00  0.00    -0.005 C 
HETATM    3  C3  UNL     1     -13.820  42.096 -27.625  1.00  0.00     0.013 C 
HETATM    4  C4  UNL     1     -12.742  42.513 -28.634  1.00  0.00     0.007 C 
HETATM    5  C5  UNL     1     -12.120  43.901 -28.359  1.00  0.00     0.011 C 
HETATM    6  C6  UNL     1     -12.339  44.323 -26.884  1.00  0.00     0.026 C 
HETATM    7  C7  UNL     1     -11.508  45.561 -26.488  1.00  0.00     0.011 C 
HETATM    8  C8  UNL     1     -11.080  46.382 -27.694  1.00  0.00     0.039 C 
HETATM    9  C9  UNL     1     -10.188  45.578 -28.665  1.00  0.00     0.074 C 
HETATM   10  C10 UNL     1     -10.192  46.316 -30.025  1.00  0.00     0.071 C 
HETATM   11  C11 UNL     1      -9.227  45.700 -31.044  1.00  0.00     0.127 C 
HETATM   12  C18 UNL     1      -9.202  44.169 -30.960  1.00  0.00     0.033 C 
HETATM   13  C19 UNL     1     -10.458  43.593 -30.296  1.00  0.00     0.022 C 
HETATM   14  C20 UNL     1     -10.628  44.067 -28.819  1.00  0.00     0.048 C 
HETATM   15  C22 UNL     1     -13.845  44.393 -26.475  1.00  0.00     0.070 C 
HETATM   16  C23 UNL     1     -14.616  45.667 -26.835  1.00  0.00     0.040 C 
HETATM   17  C24 UNL     1     -15.206  45.439 -28.210  1.00  0.00     0.013 C 
HETATM   18  C25 UNL     1     -15.503  43.923 -28.296  1.00  0.00     0.028 C 
ENDROOT
BRANCH  11  19
HETATM   19  O2  UNL     1      -7.922  46.228 -30.772  1.00  0.00    -0.356 OA
BRANCH  19  20
HETATM   20  C12 UNL     1      -7.666  47.491 -31.384  1.00  0.00     0.263 C 
HETATM   21  C13 UNL     1      -6.709  48.288 -30.494  1.00  0.00     0.095 C 
HETATM   22  C14 UNL     1      -5.547  48.833 -31.298  1.00  0.00     0.154 C 
HETATM   23  C15 UNL     1      -4.831  47.673 -32.002  1.00  0.00     0.178 C 
HETATM   24  C16 UNL     1      -5.821  46.815 -32.818  1.00  0.00     0.179 C 
HETATM   25  O6  UNL     1      -7.165  47.304 -32.708  1.00  0.00    -0.351 OA
BRANCH  22  26
HETATM   26  O3  UNL     1      -4.624  49.505 -30.432  1.00  0.00    -0.393 OA
HETATM   27  H22 UNL     1      -3.764  49.476 -30.907  1.00  0.00     0.210 HD
ENDBRANCH  22  26
BRANCH  23  28
HETATM   28  O4  UNL     1      -3.795  48.215 -32.835  1.00  0.00    -0.390 OA
HETATM   29  H24 UNL     1      -4.224  48.713 -33.554  1.00  0.00     0.210 HD
ENDBRANCH  23  28
BRANCH  24  30
HETATM   30  C17 UNL     1      -5.703  45.320 -32.480  1.00  0.00     0.198 C 
BRANCH  30  31
HETATM   31  O5  UNL     1      -6.643  44.535 -33.209  1.00  0.00    -0.398 OA
HETATM   32  H28 UNL     1      -6.462  44.630 -34.161  1.00  0.00     0.209 HD
ENDBRANCH  30  31
ENDBRANCH  24  30
ENDBRANCH  19  20
ENDBRANCH  11  19
BRANCH   9  33
HETATM   33  O1  UNL     1      -8.858  45.631 -28.135  1.00  0.00    -0.389 OA
HETATM   34  H14 UNL     1      -8.458  46.496 -28.357  1.00  0.00     0.210 HD
ENDBRANCH   9  33
BRANCH  14  35
HETATM   35  C21 UNL     1      -9.696  43.160 -27.988  1.00  0.00     0.244 C 
HETATM   36  O7  UNL     1      -9.407  43.345 -26.807  1.00  0.00    -0.306 OA
ENDBRANCH  14  35
BRANCH  15  37
HETATM   37  O8  UNL     1     -13.864  44.305 -25.041  1.00  0.00    -0.389 OA
HETATM   38  H34 UNL     1     -13.382  45.063 -24.669  1.00  0.00     0.210 HD
ENDBRANCH  15  37
BRANCH  18  39
HETATM   39  C26 UNL     1     -16.964  43.567 -28.415  1.00  0.00    -0.045 A 
HETATM   40  C27 UNL     1     -17.538  42.564 -29.083  1.00  0.00     0.087 A 
HETATM   41  C28 UNL     1     -18.983  42.682 -28.887  1.00  0.00     0.283 A 
HETATM   42  O9  UNL     1     -19.815  41.928 -29.352  1.00  0.00    -0.260 OA
HETATM   43  O10 UNL     1     -19.244  43.766 -28.110  1.00  0.00    -0.314 OA
HETATM   44  C29 UNL     1     -18.013  44.402 -27.765  1.00  0.00     0.213 A 
ENDBRANCH  18  39
TORSDOF 10
ENDMDL
MODEL 9
REMARK minimizedAffinity -7.47741461
REMARK CNNscore 0.343266785
REMARK CNNaffinity 5.39117432
REMARK  10 active torsions:
REMARK  status: ('A' for Active; 'I' for Inactive)
REMARK    1  A    between atoms: C9_9  and  O1_10 
REMARK    2  A    between atoms: C11_12  and  O2_13 
REMARK    3  A    between atoms: O2_13  and  C12_14 
REMARK    4  A    between atoms: C14_16  and  O3_17 
REMARK    5  A    between atoms: C15_18  and  O4_19 
REMARK    6  A    between atoms: C16_20  and  C17_21 
REMARK    7  A    between atoms: C17_21  and  O5_22 
REMARK    8  A    between atoms: C20_26  and  C21_27 
REMARK    9  A    between atoms: C22_29  and  O8_30 
REMARK   10  A    between atoms: C25_33  and  C26_34 
ROOT
HETATM    1  C1  UNL     1       5.286  56.734  -5.025  1.00  0.00     0.019 C 
HETATM    2  C2  UNL     1       4.081  56.377  -5.943  1.00  0.00    -0.005 C 
HETATM    3  C3  UNL     1       3.638  54.939  -5.574  1.00  0.00     0.013 C 
HETATM    4  C4  UNL     1       2.515  54.356  -6.442  1.00  0.00     0.007 C 
HETATM    5  C5  UNL     1       2.582  54.774  -7.929  1.00  0.00     0.011 C 
HETATM    6  C6  UNL     1       4.008  55.247  -8.307  1.00  0.00     0.026 C 
HETATM    7  C7  UNL     1       4.198  55.412  -9.830  1.00  0.00     0.011 C 
HETATM    8  C8  UNL     1       2.877  55.581 -10.563  1.00  0.00     0.039 C 
HETATM    9  C9  UNL     1       1.949  54.359 -10.392  1.00  0.00     0.074 C 
HETATM   10  C10 UNL     1       0.515  54.803 -10.767  1.00  0.00     0.071 C 
HETATM   11  C11 UNL     1      -0.488  53.644 -10.778  1.00  0.00     0.127 C 
HETATM   12  C18 UNL     1      -0.226  52.646  -9.644  1.00  0.00     0.033 C 
HETATM   13  C19 UNL     1       0.586  53.257  -8.496  1.00  0.00     0.022 C 
HETATM   14  C20 UNL     1       2.005  53.725  -8.945  1.00  0.00     0.048 C 
HETATM   15  C22 UNL     1       4.508  56.458  -7.455  1.00  0.00     0.070 C 
HETATM   16  C23 UNL     1       4.053  57.858  -7.882  1.00  0.00     0.040 C 
HETATM   17  C24 UNL     1       2.759  58.132  -7.148  1.00  0.00     0.013 C 
HETATM   18  C25 UNL     1       2.872  57.386  -5.797  1.00  0.00     0.028 C 
ENDROOT
BRANCH  11  19
HETATM   19  O2  UNL     1      -0.369  52.988 -12.047  1.00  0.00    -0.356 OA
BRANCH  19  20
HETATM   20  C12 UNL     1      -1.185  51.825 -12.179  1.00  0.00     0.263 C 
HETATM   21  C13 UNL     1      -2.322  52.126 -13.160  1.00  0.00     0.095 C 
HETATM   22  C14 UNL     1      -2.424  51.047 -14.218  1.00  0.00     0.154 C 
HETATM   23  C15 UNL     1      -1.077  50.914 -14.938  1.00  0.00     0.178 C 
HETATM   24  C16 UNL     1       0.078  50.710 -13.934  1.00  0.00     0.179 C 
HETATM   25  O6  UNL     1      -0.390  50.708 -12.578  1.00  0.00    -0.351 OA
BRANCH  22  26
HETATM   26  O3  UNL     1      -3.439  51.390 -15.169  1.00  0.00    -0.393 OA
HETATM   27  H22 UNL     1      -3.195  50.902 -15.988  1.00  0.00     0.210 HD
ENDBRANCH  22  26
BRANCH  23  28
HETATM   28  O4  UNL     1      -1.163  49.824 -15.868  1.00  0.00    -0.390 OA
HETATM   29  H24 UNL     1      -1.249  49.002 -15.353  1.00  0.00     0.210 HD
ENDBRANCH  23  28
BRANCH  24  30
HETATM   30  C17 UNL     1       1.225  51.706 -14.164  1.00  0.00     0.198 C 
BRANCH  30  31
HETATM   31  O5  UNL     1       0.782  52.881 -14.838  1.00  0.00    -0.398 OA
HETATM   32  H28 UNL     1       0.117  53.329 -14.286  1.00  0.00     0.209 HD
ENDBRANCH  30  31
ENDBRANCH  24  30
ENDBRANCH  19  20
ENDBRANCH  11  19
BRANCH   9  33
HETATM   33  O1  UNL     1       2.378  53.385 -11.351  1.00  0.00    -0.389 OA
HETATM   34  H14 UNL     1       2.028  53.627 -12.232  1.00  0.00     0.210 HD
ENDBRANCH   9  33
BRANCH  14  35
HETATM   35  C21 UNL     1       2.872  52.448  -8.962  1.00  0.00     0.244 C 
HETATM   36  O7  UNL     1       3.995  52.369  -9.456  1.00  0.00    -0.306 OA
ENDBRANCH  14  35
BRANCH  15  37
HETATM   37  O8  UNL     1       5.940  56.450  -7.569  1.00  0.00    -0.389 OA
HETATM   38  H34 UNL     1       6.187  56.575  -8.501  1.00  0.00     0.210 HD
ENDBRANCH  15  37
BRANCH  18  39
HETATM   39  C26 UNL     1       2.896  58.276  -4.580  1.00  0.00    -0.045 A 
HETATM   40  C27 UNL     1       3.624  59.369  -4.345  1.00  0.00     0.087 A 
HETATM   41  C28 UNL     1       3.281  59.842  -3.005  1.00  0.00     0.283 A 
HETATM   42  O9  UNL     1       3.755  60.824  -2.467  1.00  0.00    -0.260 OA
HETATM   43  O10 UNL     1       2.355  59.010  -2.458  1.00  0.00    -0.314 OA
HETATM   44  C29 UNL     1       2.052  57.971  -3.390  1.00  0.00     0.213 A 
ENDBRANCH  18  39
TORSDOF 10
ENDMDL
