MODEL 1
REMARK minimizedAffinity -8.45380878
REMARK CNNscore 0.217318848
REMARK CNNaffinity 7.47050428
REMARK  12 active torsions:
REMARK  status: ('A' for Active; 'I' for Inactive)
REMARK    1  A    between atoms: C2_2  and  C3_3 
REMARK    2  A    between atoms: C6_6  and  C7_7 
REMARK    3  A    between atoms: C7_7  and  C8_8 
REMARK    4  A    between atoms: C15_19  and  C16_20 
REMARK    5  A    between atoms: C16_20  and  C17_21 
REMARK    6  A    between atoms: C18_22  and  C19_23 
REMARK    7  A    between atoms: C21_25  and  C22_26 
REMARK    8  A    between atoms: C23_28  and  C24_29 
REMARK    9  A    between atoms: C27_34  and  C28_35 
REMARK   10  A    between atoms: C28_35  and  C29_36 
REMARK   11  A    between atoms: C29_36  and  C30_37 
REMARK   12  A    between atoms: C30_37  and  O5_39 
ROOT
HETATM    1  C8  UNL     1      -0.119  50.843 -15.460  1.00  0.00     0.016 C 
HETATM    2  N1  UNL     1       0.116  51.823 -16.285  1.00  0.00    -0.362 N 
ATOM      3  H1  UNL     1       0.547  52.718 -16.053  1.00  0.00     0.165 HD
HETATM    4  C9  UNL     1      -0.325  51.429 -17.529  1.00  0.00     0.023 C 
HETATM    5  C10 UNL     1       0.151  52.016 -18.639  1.00  0.00    -0.000 A 
HETATM    6  C11 UNL     1       1.108  53.238 -18.613  1.00  0.00     0.127 A 
HETATM    7  C12 UNL     1       1.226  53.545 -20.135  1.00  0.00     0.166 A 
HETATM    8  O1  UNL     1       1.871  54.457 -20.635  1.00  0.00    -0.292 OA
HETATM    9  C13 UNL     1       0.455  52.560 -20.868  1.00  0.00     0.045 A 
HETATM   10  C14 UNL     1      -0.132  51.707 -19.981  1.00  0.00     0.055 A 
HETATM   11  N2  UNL     1      -0.808  50.754 -20.654  1.00  0.00    -0.357 N 
HETATM   12  C15 UNL     1      -0.701  51.034 -22.016  1.00  0.00     0.022 A 
HETATM   13  C25 UNL     1       0.101  52.172 -22.171  1.00  0.00    -0.023 A 
HETATM   14  C26 UNL     1       0.522  52.853 -23.422  1.00  0.00     0.051 C 
HETATM   15  C27 UNL     1      -1.275  50.261 -17.393  1.00  0.00     0.046 C 
HETATM   16  C32 UNL     1      -0.731  49.616 -16.100  1.00  0.00     0.041 C 
HETATM   17  C33 UNL     1       0.346  48.571 -16.391  1.00  0.00     0.017 C 
HETATM   18  H10 UNL     1      -1.298  49.959 -20.269  1.00  0.00     0.166 HD
ENDROOT
BRANCH  15  19
HETATM   19  C28 UNL     1      -2.743  50.696 -17.184  1.00  0.00     0.021 C 
BRANCH  19  20
HETATM   20  C29 UNL     1      -3.781  49.744 -17.779  1.00  0.00     0.112 C 
BRANCH  20  21
HETATM   21  C30 UNL     1      -3.835  49.863 -19.286  1.00  0.00     0.258 C 
HETATM   22  O4  UNL     1      -4.486  50.697 -19.898  1.00  0.00    -0.265 OA
BRANCH  21  23
HETATM   23  O5  UNL     1      -3.097  48.870 -19.855  1.00  0.00    -0.326 OA
HETATM   24  C31 UNL     1      -3.281  47.588 -19.251  1.00  0.00     0.213 C 
ENDBRANCH  21  23
ENDBRANCH  20  21
ENDBRANCH  19  20
ENDBRANCH  15  19
BRANCH   1  25
HETATM   25  C7  UNL     1       0.236  50.973 -14.029  1.00  0.00     0.055 C 
BRANCH  25  26
HETATM   26  C6  UNL     1      -0.202  51.807 -13.080  1.00  0.00     0.043 A 
HETATM   27  C4  UNL     1      -1.503  51.770 -12.420  1.00  0.00    -0.019 A 
HETATM   28  C3  UNL     1      -1.617  52.770 -11.518  1.00  0.00     0.039 A 
HETATM   29  C5  UNL     1      -2.517  50.724 -12.757  1.00  0.00     0.052 C 
HETATM   30  C34 UNL     1      -0.316  53.509 -11.583  1.00  0.00     0.256 A 
HETATM   31  N4  UNL     1       0.448  52.861 -12.526  1.00  0.00    -0.322 N 
HETATM   32  O6  UNL     1       0.029  54.489 -10.949  1.00  0.00    -0.267 OA
HETATM   33  H36 UNL     1       1.370  53.199 -12.736  1.00  0.00     0.169 HD
BRANCH  28  34
HETATM   34  C2  UNL     1      -2.735  53.084 -10.664  1.00  0.00     0.007 C 
HETATM   35  C1  UNL     1      -3.785  53.854 -10.975  1.00  0.00     0.012 C 
ENDBRANCH  28  34
ENDBRANCH  25  26
ENDBRANCH   1  25
BRANCH  12  36
HETATM   36  C16 UNL     1      -1.393  50.170 -23.025  1.00  0.00     0.115 C 
BRANCH  36  37
HETATM   37  C17 UNL     1      -1.413  50.797 -24.387  1.00  0.00     0.022 A 
HETATM   38  C18 UNL     1      -2.359  51.587 -25.027  1.00  0.00    -0.020 A 
HETATM   39  C21 UNL     1      -1.832  51.905 -26.331  1.00  0.00     0.040 A 
HETATM   40  C23 UNL     1      -0.585  51.302 -26.428  1.00  0.00     0.084 A 
HETATM   41  N3  UNL     1      -0.369  50.616 -25.258  1.00  0.00    -0.356 N 
HETATM   42  H20 UNL     1       0.464  50.062 -25.087  1.00  0.00     0.166 HD
BRANCH  38  43
HETATM   43  C19 UNL     1      -3.678  52.025 -24.462  1.00  0.00     0.037 C 
HETATM   44  C20 UNL     1      -4.682  50.885 -24.373  1.00  0.00     0.010 C 
ENDBRANCH  38  43
BRANCH  39  45
HETATM   45  C22 UNL     1      -2.466  52.710 -27.365  1.00  0.00     0.273 C 
HETATM   46  O2  UNL     1      -1.964  53.723 -27.842  1.00  0.00    -0.301 OA
ENDBRANCH  39  45
BRANCH  40  47
HETATM   47  C24 UNL     1       0.401  51.298 -27.485  1.00  0.00     0.288 C 
HETATM   48  O3  UNL     1       1.595  51.493 -27.271  1.00  0.00    -0.300 OA
ENDBRANCH  40  47
ENDBRANCH  36  37
ENDBRANCH  12  36
TORSDOF 12
ENDMDL
MODEL 2
REMARK minimizedAffinity -8.44036007
REMARK CNNscore 0.192952439
REMARK CNNaffinity 7.57598257
REMARK  12 active torsions:
REMARK  status: ('A' for Active; 'I' for Inactive)
REMARK    1  A    between atoms: C2_2  and  C3_3 
REMARK    2  A    between atoms: C6_6  and  C7_7 
REMARK    3  A    between atoms: C7_7  and  C8_8 
REMARK    4  A    between atoms: C15_19  and  C16_20 
REMARK    5  A    between atoms: C16_20  and  C17_21 
REMARK    6  A    between atoms: C18_22  and  C19_23 
REMARK    7  A    between atoms: C21_25  and  C22_26 
REMARK    8  A    between atoms: C23_28  and  C24_29 
REMARK    9  A    between atoms: C27_34  and  C28_35 
REMARK   10  A    between atoms: C28_35  and  C29_36 
REMARK   11  A    between atoms: C29_36  and  C30_37 
REMARK   12  A    between atoms: C30_37  and  O5_39 
ROOT
HETATM    1  C8  UNL     1      -3.225  50.977 -22.610  1.00  0.00     0.016 C 
HETATM    2  N1  UNL     1      -2.060  51.516 -22.388  1.00  0.00    -0.362 N 
ATOM      3  H1  UNL     1      -1.556  52.145 -23.013  1.00  0.00     0.165 HD
HETATM    4  C9  UNL     1      -1.633  51.081 -21.153  1.00  0.00     0.023 C 
HETATM    5  C10 UNL     1      -0.707  51.772 -20.470  1.00  0.00    -0.000 A 
HETATM    6  C11 UNL     1       0.034  53.006 -21.048  1.00  0.00     0.127 A 
HETATM    7  C12 UNL     1       1.034  53.312 -19.893  1.00  0.00     0.166 A 
HETATM    8  O1  UNL     1       1.871  54.204 -19.886  1.00  0.00    -0.292 OA
HETATM    9  C13 UNL     1       0.801  52.369 -18.817  1.00  0.00     0.045 A 
HETATM   10  C14 UNL     1      -0.201  51.518 -19.182  1.00  0.00     0.055 A 
HETATM   11  N2  UNL     1      -0.463  50.670 -18.167  1.00  0.00    -0.357 N 
HETATM   12  C15 UNL     1       0.435  50.945 -17.137  1.00  0.00     0.022 A 
HETATM   13  C25 UNL     1       1.241  52.023 -17.528  1.00  0.00    -0.023 A 
HETATM   14  C26 UNL     1       2.330  52.695 -16.776  1.00  0.00     0.051 C 
HETATM   15  C27 UNL     1      -2.415  49.854 -20.740  1.00  0.00     0.046 C 
HETATM   16  C32 UNL     1      -3.745  50.118 -21.478  1.00  0.00     0.041 C 
HETATM   17  C33 UNL     1      -4.730  50.907 -20.617  1.00  0.00     0.017 C 
HETATM   18  H10 UNL     1      -1.184  49.965 -18.125  1.00  0.00     0.166 HD
ENDROOT
BRANCH  15  19
HETATM   19  C28 UNL     1      -1.786  48.537 -21.247  1.00  0.00     0.021 C 
BRANCH  19  20
HETATM   20  C29 UNL     1      -1.884  47.366 -20.269  1.00  0.00     0.112 C 
BRANCH  20  21
HETATM   21  C30 UNL     1      -3.272  46.766 -20.267  1.00  0.00     0.258 C 
HETATM   22  O4  UNL     1      -3.898  46.450 -21.268  1.00  0.00    -0.265 OA
BRANCH  21  23
HETATM   23  O5  UNL     1      -3.739  46.684 -18.990  1.00  0.00    -0.326 OA
HETATM   24  C31 UNL     1      -2.828  47.175 -18.004  1.00  0.00     0.213 C 
ENDBRANCH  21  23
ENDBRANCH  20  21
ENDBRANCH  19  20
ENDBRANCH  15  19
BRANCH   1  25
HETATM   25  C7  UNL     1      -3.941  51.248 -23.876  1.00  0.00     0.055 C 
BRANCH  25  26
HETATM   26  C6  UNL     1      -3.780  50.754 -25.108  1.00  0.00     0.043 A 
HETATM   27  C4  UNL     1      -4.225  49.451 -25.591  1.00  0.00    -0.019 A 
HETATM   28  C3  UNL     1      -3.884  49.273 -26.887  1.00  0.00     0.039 A 
HETATM   29  C5  UNL     1      -4.956  48.499 -24.699  1.00  0.00     0.052 C 
HETATM   30  C34 UNL     1      -3.178  50.532 -27.285  1.00  0.00     0.256 A 
HETATM   31  N4  UNL     1      -3.174  51.339 -26.172  1.00  0.00    -0.322 N 
HETATM   32  O6  UNL     1      -2.691  50.816 -28.363  1.00  0.00    -0.267 OA
HETATM   33  H36 UNL     1      -2.739  52.244 -26.216  1.00  0.00     0.169 HD
BRANCH  28  34
HETATM   34  C2  UNL     1      -4.133  48.130 -27.731  1.00  0.00     0.007 C 
HETATM   35  C1  UNL     1      -5.194  47.942 -28.525  1.00  0.00     0.012 C 
ENDBRANCH  28  34
ENDBRANCH  25  26
ENDBRANCH   1  25
BRANCH  12  36
HETATM   36  C16 UNL     1       0.423  50.130 -15.880  1.00  0.00     0.115 C 
BRANCH  36  37
HETATM   37  C17 UNL     1      -0.085  50.910 -14.705  1.00  0.00     0.022 A 
HETATM   38  C18 UNL     1       0.574  51.507 -13.637  1.00  0.00    -0.020 A 
HETATM   39  C21 UNL     1      -0.433  52.126 -12.813  1.00  0.00     0.040 A 
HETATM   40  C23 UNL     1      -1.661  51.887 -13.414  1.00  0.00     0.084 A 
HETATM   41  N3  UNL     1      -1.429  51.128 -14.534  1.00  0.00    -0.356 N 
HETATM   42  H20 UNL     1      -2.171  50.791 -15.138  1.00  0.00     0.166 HD
BRANCH  38  43
HETATM   43  C19 UNL     1       2.055  51.505 -13.396  1.00  0.00     0.037 C 
HETATM   44  C20 UNL     1       2.530  50.243 -12.691  1.00  0.00     0.010 C 
ENDBRANCH  38  43
BRANCH  39  45
HETATM   45  C22 UNL     1      -0.225  52.872 -11.579  1.00  0.00     0.273 C 
HETATM   46  O2  UNL     1      -0.792  53.928 -11.320  1.00  0.00    -0.301 OA
ENDBRANCH  39  45
BRANCH  40  47
HETATM   47  C24 UNL     1      -3.002  52.284 -13.051  1.00  0.00     0.288 C 
HETATM   48  O3  UNL     1      -3.575  51.837 -12.059  1.00  0.00    -0.300 OA
ENDBRANCH  40  47
ENDBRANCH  36  37
ENDBRANCH  12  36
TORSDOF 12
ENDMDL
MODEL 3
REMARK minimizedAffinity -8.28196049
REMARK CNNscore 0.166033223
REMARK CNNaffinity 7.58686304
REMARK  12 active torsions:
REMARK  status: ('A' for Active; 'I' for Inactive)
REMARK    1  A    between atoms: C2_2  and  C3_3 
REMARK    2  A    between atoms: C6_6  and  C7_7 
REMARK    3  A    between atoms: C7_7  and  C8_8 
REMARK    4  A    between atoms: C15_19  and  C16_20 
REMARK    5  A    between atoms: C16_20  and  C17_21 
REMARK    6  A    between atoms: C18_22  and  C19_23 
REMARK    7  A    between atoms: C21_25  and  C22_26 
REMARK    8  A    between atoms: C23_28  and  C24_29 
REMARK    9  A    between atoms: C27_34  and  C28_35 
REMARK   10  A    between atoms: C28_35  and  C29_36 
REMARK   11  A    between atoms: C29_36  and  C30_37 
REMARK   12  A    between atoms: C30_37  and  O5_39 
ROOT
HETATM    1  C8  UNL     1      -2.622  51.006 -23.173  1.00  0.00     0.016 C 
HETATM    2  N1  UNL     1      -1.496  51.511 -22.758  1.00  0.00    -0.362 N 
ATOM      3  H1  UNL     1      -0.870  52.114 -23.292  1.00  0.00     0.165 HD
HETATM    4  C9  UNL     1      -1.305  51.083 -21.463  1.00  0.00     0.023 C 
HETATM    5  C10 UNL     1      -0.488  51.755 -20.636  1.00  0.00    -0.000 A 
HETATM    6  C11 UNL     1       0.384  52.955 -21.089  1.00  0.00     0.127 A 
HETATM    7  C12 UNL     1       1.178  53.247 -19.781  1.00  0.00     0.166 A 
HETATM    8  O1  UNL     1       2.031  54.112 -19.638  1.00  0.00    -0.292 OA
HETATM    9  C13 UNL     1       0.730  52.329 -18.753  1.00  0.00     0.045 A 
HETATM   10  C14 UNL     1      -0.222  51.505 -19.277  1.00  0.00     0.055 A 
HETATM   11  N2  UNL     1      -0.685  50.682 -18.315  1.00  0.00    -0.357 N 
HETATM   12  C15 UNL     1       0.030  50.945 -17.147  1.00  0.00     0.022 A 
HETATM   13  C25 UNL     1       0.928  51.990 -17.404  1.00  0.00    -0.023 A 
HETATM   14  C26 UNL     1       1.892  52.639 -16.480  1.00  0.00     0.051 C 
HETATM   15  C27 UNL     1      -2.187  49.888 -21.180  1.00  0.00     0.046 C 
HETATM   16  C32 UNL     1      -3.360  50.183 -22.140  1.00  0.00     0.041 C 
HETATM   17  C33 UNL     1      -4.452  51.016 -21.472  1.00  0.00     0.017 C 
HETATM   18  H10 UNL     1      -1.426  50.001 -18.392  1.00  0.00     0.166 HD
ENDROOT
BRANCH  15  19
HETATM   19  C28 UNL     1      -1.526  48.544 -21.557  1.00  0.00     0.021 C 
BRANCH  19  20
HETATM   20  C29 UNL     1      -2.508  47.434 -21.936  1.00  0.00     0.112 C 
BRANCH  20  21
HETATM   21  C30 UNL     1      -3.108  46.788 -20.708  1.00  0.00     0.258 C 
HETATM   22  O4  UNL     1      -3.257  47.341 -19.629  1.00  0.00    -0.265 OA
BRANCH  21  23
HETATM   23  O5  UNL     1      -3.403  45.484 -20.970  1.00  0.00    -0.326 OA
HETATM   24  C31 UNL     1      -4.538  44.989 -20.257  1.00  0.00     0.213 C 
ENDBRANCH  21  23
ENDBRANCH  20  21
ENDBRANCH  19  20
ENDBRANCH  15  19
BRANCH   1  25
HETATM   25  C7  UNL     1      -3.099  51.280 -24.548  1.00  0.00     0.055 C 
BRANCH  25  26
HETATM   26  C6  UNL     1      -2.466  51.751 -25.627  1.00  0.00     0.043 A 
HETATM   27  C4  UNL     1      -1.329  51.139 -26.308  1.00  0.00    -0.019 A 
HETATM   28  C3  UNL     1      -0.932  51.892 -27.358  1.00  0.00     0.039 A 
HETATM   29  C5  UNL     1      -0.744  49.846 -25.836  1.00  0.00     0.052 C 
HETATM   30  C34 UNL     1      -1.862  53.065 -27.376  1.00  0.00     0.256 A 
HETATM   31  N4  UNL     1      -2.728  52.886 -26.323  1.00  0.00    -0.322 N 
HETATM   32  O6  UNL     1      -1.876  54.006 -28.147  1.00  0.00    -0.267 OA
HETATM   33  H36 UNL     1      -3.442  53.570 -26.145  1.00  0.00     0.169 HD
BRANCH  28  34
HETATM   34  C2  UNL     1       0.148  51.644 -28.281  1.00  0.00     0.007 C 
HETATM   35  C1  UNL     1       1.448  51.881 -28.068  1.00  0.00     0.012 C 
ENDBRANCH  28  34
ENDBRANCH  25  26
ENDBRANCH   1  25
BRANCH  12  36
HETATM   36  C16 UNL     1      -0.228  50.150 -15.904  1.00  0.00     0.115 C 
BRANCH  36  37
HETATM   37  C17 UNL     1       0.044  50.942 -14.660  1.00  0.00     0.022 A 
HETATM   38  C18 UNL     1      -0.786  51.710 -13.854  1.00  0.00    -0.020 A 
HETATM   39  C21 UNL     1       0.029  52.235 -12.787  1.00  0.00     0.040 A 
HETATM   40  C23 UNL     1       1.319  51.760 -12.983  1.00  0.00     0.084 A 
HETATM   41  N3  UNL     1       1.309  51.010 -14.133  1.00  0.00    -0.356 N 
HETATM   42  H20 UNL     1       2.140  50.572 -14.516  1.00  0.00     0.166 HD
BRANCH  38  43
HETATM   43  C19 UNL     1      -2.254  51.943 -14.058  1.00  0.00     0.037 C 
HETATM   44  C20 UNL     1      -3.102  50.769 -13.593  1.00  0.00     0.010 C 
ENDBRANCH  38  43
BRANCH  39  45
HETATM   45  C22 UNL     1      -0.398  53.098 -11.695  1.00  0.00     0.273 C 
HETATM   46  O2  UNL     1      -0.693  52.685 -10.578  1.00  0.00    -0.301 OA
ENDBRANCH  39  45
BRANCH  40  47
HETATM   47  C24 UNL     1       2.535  51.939 -12.223  1.00  0.00     0.288 C 
HETATM   48  O3  UNL     1       2.718  52.912 -11.496  1.00  0.00    -0.300 OA
ENDBRANCH  40  47
ENDBRANCH  36  37
ENDBRANCH  12  36
TORSDOF 12
ENDMDL
MODEL 4
REMARK minimizedAffinity -8.12305546
REMARK CNNscore 0.161026806
REMARK CNNaffinity 7.21790934
REMARK  12 active torsions:
REMARK  status: ('A' for Active; 'I' for Inactive)
REMARK    1  A    between atoms: C2_2  and  C3_3 
REMARK    2  A    between atoms: C6_6  and  C7_7 
REMARK    3  A    between atoms: C7_7  and  C8_8 
REMARK    4  A    between atoms: C15_19  and  C16_20 
REMARK    5  A    between atoms: C16_20  and  C17_21 
REMARK    6  A    between atoms: C18_22  and  C19_23 
REMARK    7  A    between atoms: C21_25  and  C22_26 
REMARK    8  A    between atoms: C23_28  and  C24_29 
REMARK    9  A    between atoms: C27_34  and  C28_35 
REMARK   10  A    between atoms: C28_35  and  C29_36 
REMARK   11  A    between atoms: C29_36  and  C30_37 
REMARK   12  A    between atoms: C30_37  and  O5_39 
ROOT
HETATM    1  C8  UNL     1       0.254  51.090 -15.329  1.00  0.00     0.016 C 
HETATM    2  N1  UNL     1       0.400  52.001 -16.249  1.00  0.00    -0.362 N 
ATOM      3  H1  UNL     1       0.817  52.924 -16.124  1.00  0.00     0.165 HD
HETATM    4  C9  UNL     1      -0.112  51.490 -17.420  1.00  0.00     0.023 C 
HETATM    5  C10 UNL     1       0.267  51.991 -18.606  1.00  0.00    -0.000 A 
HETATM    6  C11 UNL     1       1.183  53.235 -18.752  1.00  0.00     0.127 A 
HETATM    7  C12 UNL     1       1.187  53.412 -20.299  1.00  0.00     0.166 A 
HETATM    8  O1  UNL     1       1.766  54.295 -20.919  1.00  0.00    -0.292 OA
HETATM    9  C13 UNL     1       0.400  52.348 -20.890  1.00  0.00     0.045 A 
HETATM   10  C14 UNL     1      -0.098  51.559 -19.895  1.00  0.00     0.055 A 
HETATM   11  N2  UNL     1      -0.787  50.535 -20.434  1.00  0.00    -0.357 N 
HETATM   12  C15 UNL     1      -0.784  50.699 -21.819  1.00  0.00     0.022 A 
HETATM   13  C25 UNL     1      -0.031  51.840 -22.127  1.00  0.00    -0.023 A 
HETATM   14  C26 UNL     1       0.281  52.421 -23.457  1.00  0.00     0.051 C 
HETATM   15  C27 UNL     1      -1.013  50.313 -17.119  1.00  0.00     0.046 C 
HETATM   16  C32 UNL     1      -0.361  49.798 -15.818  1.00  0.00     0.041 C 
HETATM   17  C33 UNL     1       0.726  48.760 -16.095  1.00  0.00     0.017 C 
HETATM   18  H10 UNL     1      -1.224  49.764 -19.950  1.00  0.00     0.166 HD
ENDROOT
BRANCH  15  19
HETATM   19  C28 UNL     1      -2.476  50.726 -16.843  1.00  0.00     0.021 C 
BRANCH  19  20
HETATM   20  C29 UNL     1      -3.380  49.591 -16.360  1.00  0.00     0.112 C 
BRANCH  20  21
HETATM   21  C30 UNL     1      -3.812  48.707 -17.509  1.00  0.00     0.258 C 
HETATM   22  O4  UNL     1      -4.767  47.946 -17.484  1.00  0.00    -0.265 OA
BRANCH  21  23
HETATM   23  O5  UNL     1      -2.945  48.847 -18.551  1.00  0.00    -0.326 OA
HETATM   24  C31 UNL     1      -2.516  47.609 -19.122  1.00  0.00     0.213 C 
ENDBRANCH  21  23
ENDBRANCH  20  21
ENDBRANCH  19  20
ENDBRANCH  15  19
BRANCH   1  25
HETATM   25  C7  UNL     1       0.702  51.353 -13.943  1.00  0.00     0.055 C 
BRANCH  25  26
HETATM   26  C6  UNL     1       0.179  52.109 -12.971  1.00  0.00     0.043 A 
HETATM   27  C4  UNL     1      -1.132  51.949 -12.352  1.00  0.00    -0.019 A 
HETATM   28  C3  UNL     1      -1.341  52.896 -11.411  1.00  0.00     0.039 A 
HETATM   29  C5  UNL     1      -2.059  50.851 -12.766  1.00  0.00     0.052 C 
HETATM   30  C34 UNL     1      -0.096  53.727 -11.404  1.00  0.00     0.256 A 
HETATM   31  N4  UNL     1       0.737  53.180 -12.352  1.00  0.00    -0.322 N 
HETATM   32  O6  UNL     1       0.161  54.698 -10.717  1.00  0.00    -0.267 OA
HETATM   33  H36 UNL     1       1.638  53.592 -12.519  1.00  0.00     0.169 HD
BRANCH  28  34
HETATM   34  C2  UNL     1      -2.502  53.090 -10.577  1.00  0.00     0.007 C 
HETATM   35  C1  UNL     1      -3.626  53.736 -10.912  1.00  0.00     0.012 C 
ENDBRANCH  28  34
ENDBRANCH  25  26
ENDBRANCH   1  25
BRANCH  12  36
HETATM   36  C16 UNL     1      -1.515  49.733 -22.700  1.00  0.00     0.115 C 
BRANCH  36  37
HETATM   37  C17 UNL     1      -3.003  49.879 -22.586  1.00  0.00     0.022 A 
HETATM   38  C18 UNL     1      -4.003  49.935 -23.549  1.00  0.00    -0.020 A 
HETATM   39  C21 UNL     1      -5.255  50.076 -22.849  1.00  0.00     0.040 A 
HETATM   40  C23 UNL     1      -4.968  50.093 -21.491  1.00  0.00     0.084 A 
HETATM   41  N3  UNL     1      -3.604  50.004 -21.359  1.00  0.00    -0.356 N 
HETATM   42  H20 UNL     1      -3.132  50.025 -20.462  1.00  0.00     0.166 HD
BRANCH  38  43
HETATM   43  C19 UNL     1      -3.809  49.860 -25.035  1.00  0.00     0.037 C 
HETATM   44  C20 UNL     1      -3.634  48.431 -25.529  1.00  0.00     0.010 C 
ENDBRANCH  38  43
BRANCH  39  45
HETATM   45  C22 UNL     1      -6.585  50.178 -23.435  1.00  0.00     0.273 C 
HETATM   46  O2  UNL     1      -7.097  49.295 -24.116  1.00  0.00    -0.301 OA
ENDBRANCH  39  45
BRANCH  40  47
HETATM   47  C24 UNL     1      -5.822  50.188 -20.329  1.00  0.00     0.288 C 
HETATM   48  O3  UNL     1      -6.560  49.270 -19.979  1.00  0.00    -0.300 OA
ENDBRANCH  40  47
ENDBRANCH  36  37
ENDBRANCH  12  36
TORSDOF 12
ENDMDL
MODEL 5
REMARK minimizedAffinity -8.66098785
REMARK CNNscore 0.143441528
REMARK CNNaffinity 7.46310186
REMARK  12 active torsions:
REMARK  status: ('A' for Active; 'I' for Inactive)
REMARK    1  A    between atoms: C2_2  and  C3_3 
REMARK    2  A    between atoms: C6_6  and  C7_7 
REMARK    3  A    between atoms: C7_7  and  C8_8 
REMARK    4  A    between atoms: C15_19  and  C16_20 
REMARK    5  A    between atoms: C16_20  and  C17_21 
REMARK    6  A    between atoms: C18_22  and  C19_23 
REMARK    7  A    between atoms: C21_25  and  C22_26 
REMARK    8  A    between atoms: C23_28  and  C24_29 
REMARK    9  A    between atoms: C27_34  and  C28_35 
REMARK   10  A    between atoms: C28_35  and  C29_36 
REMARK   11  A    between atoms: C29_36  and  C30_37 
REMARK   12  A    between atoms: C30_37  and  O5_39 
ROOT
HETATM    1  C8  UNL     1      -3.271  50.864 -22.571  1.00  0.00     0.016 C 
HETATM    2  N1  UNL     1      -2.114  51.435 -22.387  1.00  0.00    -0.362 N 
ATOM      3  H1  UNL     1      -1.638  52.058 -23.040  1.00  0.00     0.165 HD
HETATM    4  C9  UNL     1      -1.652  51.043 -21.150  1.00  0.00     0.023 C 
HETATM    5  C10 UNL     1      -0.729  51.773 -20.505  1.00  0.00    -0.000 A 
HETATM    6  C11 UNL     1      -0.028  53.008 -21.132  1.00  0.00     0.127 A 
HETATM    7  C12 UNL     1       0.988  53.366 -20.007  1.00  0.00     0.166 A 
HETATM    8  O1  UNL     1       1.804  54.277 -20.040  1.00  0.00    -0.292 OA
HETATM    9  C13 UNL     1       0.798  52.448 -18.901  1.00  0.00     0.045 A 
HETATM   10  C14 UNL     1      -0.191  51.565 -19.222  1.00  0.00     0.055 A 
HETATM   11  N2  UNL     1      -0.413  50.740 -18.180  1.00  0.00    -0.357 N 
HETATM   12  C15 UNL     1       0.499  51.062 -17.176  1.00  0.00     0.022 A 
HETATM   13  C25 UNL     1       1.272  52.147 -17.613  1.00  0.00    -0.023 A 
HETATM   14  C26 UNL     1       2.360  52.864 -16.902  1.00  0.00     0.051 C 
HETATM   15  C27 UNL     1      -2.397  49.811 -20.689  1.00  0.00     0.046 C 
HETATM   16  C32 UNL     1      -3.748  50.025 -21.406  1.00  0.00     0.041 C 
HETATM   17  C33 UNL     1      -4.733  50.815 -20.546  1.00  0.00     0.017 C 
HETATM   18  H10 UNL     1      -1.117  50.020 -18.104  1.00  0.00     0.166 HD
ENDROOT
BRANCH  15  19
HETATM   19  C28 UNL     1      -1.749  48.495 -21.174  1.00  0.00     0.021 C 
BRANCH  19  20
HETATM   20  C29 UNL     1      -2.736  47.461 -21.719  1.00  0.00     0.112 C 
BRANCH  20  21
HETATM   21  C30 UNL     1      -3.303  46.605 -20.608  1.00  0.00     0.258 C 
HETATM   22  O4  UNL     1      -2.878  46.574 -19.463  1.00  0.00    -0.265 OA
BRANCH  21  23
HETATM   23  O5  UNL     1      -4.318  45.835 -21.091  1.00  0.00    -0.326 OA
HETATM   24  C31 UNL     1      -5.517  46.560 -21.370  1.00  0.00     0.213 C 
ENDBRANCH  21  23
ENDBRANCH  20  21
ENDBRANCH  19  20
ENDBRANCH  15  19
BRANCH   1  25
HETATM   25  C7  UNL     1      -4.019  51.084 -23.829  1.00  0.00     0.055 C 
BRANCH  25  26
HETATM   26  C6  UNL     1      -3.821  50.626 -25.069  1.00  0.00     0.043 A 
HETATM   27  C4  UNL     1      -4.271  49.347 -25.608  1.00  0.00    -0.019 A 
HETATM   28  C3  UNL     1      -3.886  49.203 -26.896  1.00  0.00     0.039 A 
HETATM   29  C5  UNL     1      -5.053  48.383 -24.774  1.00  0.00     0.052 C 
HETATM   30  C34 UNL     1      -3.142  50.459 -27.228  1.00  0.00     0.256 A 
HETATM   31  N4  UNL     1      -3.165  51.232 -26.091  1.00  0.00    -0.322 N 
HETATM   32  O6  UNL     1      -2.610  50.767 -28.278  1.00  0.00    -0.267 OA
HETATM   33  H36 UNL     1      -2.712  52.129 -26.091  1.00  0.00     0.169 HD
BRANCH  28  34
HETATM   34  C2  UNL     1      -4.124  48.091 -27.784  1.00  0.00     0.007 C 
HETATM   35  C1  UNL     1      -5.134  47.969 -28.654  1.00  0.00     0.012 C 
ENDBRANCH  28  34
ENDBRANCH  25  26
ENDBRANCH   1  25
BRANCH  12  36
HETATM   36  C16 UNL     1       0.531  50.281 -15.898  1.00  0.00     0.115 C 
BRANCH  36  37
HETATM   37  C17 UNL     1      -0.145  51.008 -14.774  1.00  0.00     0.022 A 
HETATM   38  C18 UNL     1      -1.478  51.083 -14.392  1.00  0.00    -0.020 A 
HETATM   39  C21 UNL     1      -1.536  51.930 -13.226  1.00  0.00     0.040 A 
HETATM   40  C23 UNL     1      -0.237  52.331 -12.944  1.00  0.00     0.084 A 
HETATM   41  N3  UNL     1       0.578  51.788 -13.907  1.00  0.00    -0.356 N 
HETATM   42  H20 UNL     1       1.578  51.954 -13.945  1.00  0.00     0.166 HD
BRANCH  38  43
HETATM   43  C19 UNL     1      -2.634  50.405 -15.066  1.00  0.00     0.037 C 
HETATM   44  C20 UNL     1      -2.723  48.925 -14.725  1.00  0.00     0.010 C 
ENDBRANCH  38  43
BRANCH  39  45
HETATM   45  C22 UNL     1      -2.721  52.306 -12.468  1.00  0.00     0.273 C 
HETATM   46  O2  UNL     1      -3.012  51.822 -11.380  1.00  0.00    -0.301 OA
ENDBRANCH  39  45
BRANCH  40  47
HETATM   47  C24 UNL     1       0.307  53.157 -11.890  1.00  0.00     0.288 C 
HETATM   48  O3  UNL     1      -0.363  54.008 -11.311  1.00  0.00    -0.300 OA
ENDBRANCH  40  47
ENDBRANCH  36  37
ENDBRANCH  12  36
TORSDOF 12
ENDMDL
MODEL 6
REMARK minimizedAffinity -7.35504007
REMARK CNNscore 0.131811813
REMARK CNNaffinity 5.45381021
REMARK  12 active torsions:
REMARK  status: ('A' for Active; 'I' for Inactive)
REMARK    1  A    between atoms: C2_2  and  C3_3 
REMARK    2  A    between atoms: C6_6  and  C7_7 
REMARK    3  A    between atoms: C7_7  and  C8_8 
REMARK    4  A    between atoms: C15_19  and  C16_20 
REMARK    5  A    between atoms: C16_20  and  C17_21 
REMARK    6  A    between atoms: C18_22  and  C19_23 
REMARK    7  A    between atoms: C21_25  and  C22_26 
REMARK    8  A    between atoms: C23_28  and  C24_29 
REMARK    9  A    between atoms: C27_34  and  C28_35 
REMARK   10  A    between atoms: C28_35  and  C29_36 
REMARK   11  A    between atoms: C29_36  and  C30_37 
REMARK   12  A    between atoms: C30_37  and  O5_39 
ROOT
HETATM    1  C8  UNL     1      -8.137  47.176 -27.793  1.00  0.00     0.016 C 
HETATM    2  N1  UNL     1      -8.441  45.920 -27.952  1.00  0.00    -0.362 N 
ATOM      3  H1  UNL     1      -7.791  45.134 -27.932  1.00  0.00     0.165 HD
HETATM    4  C9  UNL     1      -9.802  45.846 -28.151  1.00  0.00     0.023 C 
HETATM    5  C10 UNL     1     -10.464  44.702 -27.919  1.00  0.00    -0.000 A 
HETATM    6  C11 UNL     1      -9.760  43.371 -27.546  1.00  0.00     0.127 A 
HETATM    7  C12 UNL     1     -10.977  42.399 -27.512  1.00  0.00     0.166 A 
HETATM    8  O1  UNL     1     -10.931  41.198 -27.280  1.00  0.00    -0.292 OA
HETATM    9  C13 UNL     1     -12.182  43.156 -27.789  1.00  0.00     0.045 A 
HETATM   10  C14 UNL     1     -11.847  44.460 -28.006  1.00  0.00     0.055 A 
HETATM   11  N2  UNL     1     -12.965  45.184 -28.211  1.00  0.00    -0.357 N 
HETATM   12  C15 UNL     1     -14.052  44.310 -28.182  1.00  0.00     0.022 A 
HETATM   13  C25 UNL     1     -13.576  43.021 -27.910  1.00  0.00    -0.023 A 
HETATM   14  C26 UNL     1     -14.339  41.756 -27.762  1.00  0.00     0.051 C 
HETATM   15  C27 UNL     1     -10.339  47.204 -28.546  1.00  0.00     0.046 C 
HETATM   16  C32 UNL     1      -9.321  48.117 -27.829  1.00  0.00     0.041 C 
HETATM   17  C33 UNL     1      -9.767  48.470 -26.411  1.00  0.00     0.017 C 
HETATM   18  H10 UNL     1     -13.037  46.182 -28.347  1.00  0.00     0.166 HD
ENDROOT
BRANCH  15  19
HETATM   19  C28 UNL     1     -10.287  47.456 -30.069  1.00  0.00     0.021 C 
BRANCH  19  20
HETATM   20  C29 UNL     1     -10.234  46.188 -30.923  1.00  0.00     0.112 C 
BRANCH  20  21
HETATM   21  C30 UNL     1      -8.883  46.025 -31.581  1.00  0.00     0.258 C 
HETATM   22  O4  UNL     1      -7.852  45.727 -30.996  1.00  0.00    -0.265 OA
BRANCH  21  23
HETATM   23  O5  UNL     1      -8.977  46.314 -32.909  1.00  0.00    -0.326 OA
HETATM   24  C31 UNL     1      -8.313  47.520 -33.292  1.00  0.00     0.213 C 
ENDBRANCH  21  23
ENDBRANCH  20  21
ENDBRANCH  19  20
ENDBRANCH  15  19
BRANCH   1  25
HETATM   25  C7  UNL     1      -6.730  47.580 -27.571  1.00  0.00     0.055 C 
BRANCH  25  26
HETATM   26  C6  UNL     1      -6.049  47.835 -26.449  1.00  0.00     0.043 A 
HETATM   27  C4  UNL     1      -4.679  48.329 -26.355  1.00  0.00    -0.019 A 
HETATM   28  C3  UNL     1      -4.302  48.463 -25.063  1.00  0.00     0.039 A 
HETATM   29  C5  UNL     1      -3.872  48.625 -27.578  1.00  0.00     0.052 C 
HETATM   30  C34 UNL     1      -5.490  48.036 -24.259  1.00  0.00     0.256 A 
HETATM   31  N4  UNL     1      -6.465  47.692 -25.166  1.00  0.00    -0.322 N 
HETATM   32  O6  UNL     1      -5.605  47.987 -23.048  1.00  0.00    -0.267 OA
HETATM   33  H36 UNL     1      -7.357  47.366 -24.837  1.00  0.00     0.169 HD
BRANCH  28  34
HETATM   34  C2  UNL     1      -3.036  48.916 -24.542  1.00  0.00     0.007 C 
HETATM   35  C1  UNL     1      -2.536  50.155 -24.627  1.00  0.00     0.012 C 
ENDBRANCH  28  34
ENDBRANCH  25  26
ENDBRANCH   1  25
BRANCH  12  36
HETATM   36  C16 UNL     1     -15.441  44.817 -28.426  1.00  0.00     0.115 C 
BRANCH  36  37
HETATM   37  C17 UNL     1     -16.077  45.348 -27.177  1.00  0.00     0.022 A 
HETATM   38  C18 UNL     1     -17.382  45.282 -26.705  1.00  0.00    -0.020 A 
HETATM   39  C21 UNL     1     -17.408  45.968 -25.438  1.00  0.00     0.040 A 
HETATM   40  C23 UNL     1     -16.119  46.418 -25.188  1.00  0.00     0.084 A 
HETATM   41  N3  UNL     1     -15.343  46.059 -26.262  1.00  0.00    -0.356 N 
HETATM   42  H20 UNL     1     -14.361  46.297 -26.340  1.00  0.00     0.166 HD
BRANCH  38  43
HETATM   43  C19 UNL     1     -18.541  44.617 -27.389  1.00  0.00     0.037 C 
HETATM   44  C20 UNL     1     -19.074  43.425 -26.607  1.00  0.00     0.010 C 
ENDBRANCH  38  43
BRANCH  39  45
HETATM   45  C22 UNL     1     -18.557  46.162 -24.565  1.00  0.00     0.273 C 
HETATM   46  O2  UNL     1     -19.398  47.039 -24.733  1.00  0.00    -0.301 OA
ENDBRANCH  39  45
BRANCH  40  47
HETATM   47  C24 UNL     1     -15.553  47.140 -24.071  1.00  0.00     0.288 C 
HETATM   48  O3  UNL     1     -15.515  46.670 -22.936  1.00  0.00    -0.300 OA
ENDBRANCH  40  47
ENDBRANCH  36  37
ENDBRANCH  12  36
TORSDOF 12
ENDMDL
MODEL 7
REMARK minimizedAffinity -8.83449268
REMARK CNNscore 0.119043022
REMARK CNNaffinity 6.70993185
REMARK  12 active torsions:
REMARK  status: ('A' for Active; 'I' for Inactive)
REMARK    1  A    between atoms: C2_2  and  C3_3 
REMARK    2  A    between atoms: C6_6  and  C7_7 
REMARK    3  A    between atoms: C7_7  and  C8_8 
REMARK    4  A    between atoms: C15_19  and  C16_20 
REMARK    5  A    between atoms: C16_20  and  C17_21 
REMARK    6  A    between atoms: C18_22  and  C19_23 
REMARK    7  A    between atoms: C21_25  and  C22_26 
REMARK    8  A    between atoms: C23_28  and  C24_29 
REMARK    9  A    between atoms: C27_34  and  C28_35 
REMARK   10  A    between atoms: C28_35  and  C29_36 
REMARK   11  A    between atoms: C29_36  and  C30_37 
REMARK   12  A    between atoms: C30_37  and  O5_39 
ROOT
HETATM    1  C8  UNL     1      -4.334  48.978 -23.492  1.00  0.00     0.016 C 
HETATM    2  N1  UNL     1      -3.185  49.442 -23.893  1.00  0.00    -0.362 N 
ATOM      3  H1  UNL     1      -2.807  49.386 -24.839  1.00  0.00     0.165 HD
HETATM    4  C9  UNL     1      -2.572  50.022 -22.804  1.00  0.00     0.023 C 
HETATM    5  C10 UNL     1      -1.607  50.940 -22.974  1.00  0.00    -0.000 A 
HETATM    6  C11 UNL     1      -1.025  51.318 -24.361  1.00  0.00     0.127 A 
HETATM    7  C12 UNL     1       0.099  52.312 -23.943  1.00  0.00     0.166 A 
HETATM    8  O1  UNL     1       0.874  52.879 -24.702  1.00  0.00    -0.292 OA
HETATM    9  C13 UNL     1       0.068  52.467 -22.502  1.00  0.00     0.045 A 
HETATM   10  C14 UNL     1      -0.920  51.677 -21.992  1.00  0.00     0.055 A 
HETATM   11  N2  UNL     1      -0.994  51.854 -20.658  1.00  0.00    -0.357 N 
HETATM   12  C15 UNL     1       0.015  52.742 -20.287  1.00  0.00     0.022 A 
HETATM   13  C25 UNL     1       0.695  53.146 -21.444  1.00  0.00    -0.023 A 
HETATM   14  C26 UNL     1       1.831  54.093 -21.576  1.00  0.00     0.051 C 
HETATM   15  C27 UNL     1      -3.216  49.531 -21.527  1.00  0.00     0.046 C 
HETATM   16  C32 UNL     1      -4.646  49.247 -22.037  1.00  0.00     0.041 C 
HETATM   17  C33 UNL     1      -5.555  50.468 -21.901  1.00  0.00     0.017 C 
HETATM   18  H10 UNL     1      -1.659  51.444 -20.018  1.00  0.00     0.166 HD
ENDROOT
BRANCH  15  19
HETATM   19  C28 UNL     1      -2.583  48.227 -20.992  1.00  0.00     0.021 C 
BRANCH  19  20
HETATM   20  C29 UNL     1      -3.483  46.995 -21.086  1.00  0.00     0.112 C 
BRANCH  20  21
HETATM   21  C30 UNL     1      -3.908  46.519 -19.715  1.00  0.00     0.258 C 
HETATM   22  O4  UNL     1      -3.174  45.968 -18.908  1.00  0.00    -0.265 OA
BRANCH  21  23
HETATM   23  O5  UNL     1      -5.240  46.746 -19.539  1.00  0.00    -0.326 OA
HETATM   24  C31 UNL     1      -5.534  47.862 -18.697  1.00  0.00     0.213 C 
ENDBRANCH  21  23
ENDBRANCH  20  21
ENDBRANCH  19  20
ENDBRANCH  15  19
BRANCH   1  25
HETATM   25  C7  UNL     1      -5.227  48.279 -24.443  1.00  0.00     0.055 C 
BRANCH  25  26
HETATM   26  C6  UNL     1      -5.259  48.263 -25.780  1.00  0.00     0.043 A 
HETATM   27  C4  UNL     1      -6.290  47.662 -26.620  1.00  0.00    -0.019 A 
HETATM   28  C3  UNL     1      -5.998  47.820 -27.931  1.00  0.00     0.039 A 
HETATM   29  C5  UNL     1      -7.480  46.981 -26.024  1.00  0.00     0.052 C 
HETATM   30  C34 UNL     1      -4.704  48.572 -27.959  1.00  0.00     0.256 A 
HETATM   31  N4  UNL     1      -4.356  48.789 -26.645  1.00  0.00    -0.322 N 
HETATM   32  O6  UNL     1      -4.060  48.933 -28.926  1.00  0.00    -0.267 OA
HETATM   33  H36 UNL     1      -3.506  49.279 -26.431  1.00  0.00     0.169 HD
BRANCH  28  34
HETATM   34  C2  UNL     1      -6.751  47.374 -29.077  1.00  0.00     0.007 C 
HETATM   35  C1  UNL     1      -6.617  46.203 -29.711  1.00  0.00     0.012 C 
ENDBRANCH  28  34
ENDBRANCH  25  26
ENDBRANCH   1  25
BRANCH  12  36
HETATM   36  C16 UNL     1       0.218  53.104 -18.848  1.00  0.00     0.115 C 
BRANCH  36  37
HETATM   37  C17 UNL     1       0.166  51.903 -17.951  1.00  0.00     0.022 A 
HETATM   38  C18 UNL     1       0.806  51.618 -16.752  1.00  0.00    -0.020 A 
HETATM   39  C21 UNL     1       0.366  50.308 -16.340  1.00  0.00     0.040 A 
HETATM   40  C23 UNL     1      -0.528  49.854 -17.300  1.00  0.00     0.084 A 
HETATM   41  N3  UNL     1      -0.608  50.818 -18.274  1.00  0.00    -0.356 N 
HETATM   42  H20 UNL     1      -1.176  50.716 -19.108  1.00  0.00     0.166 HD
BRANCH  38  43
HETATM   43  C19 UNL     1       1.770  52.510 -16.026  1.00  0.00     0.037 C 
HETATM   44  C20 UNL     1       3.167  52.472 -16.629  1.00  0.00     0.010 C 
ENDBRANCH  38  43
BRANCH  39  45
HETATM   45  C22 UNL     1       0.766  49.581 -15.143  1.00  0.00     0.273 C 
HETATM   46  O2  UNL     1       1.320  48.487 -15.167  1.00  0.00    -0.301 OA
ENDBRANCH  39  45
BRANCH  40  47
HETATM   47  C24 UNL     1      -1.293  48.632 -17.399  1.00  0.00     0.288 C 
HETATM   48  O3  UNL     1      -2.495  48.587 -17.147  1.00  0.00    -0.300 OA
ENDBRANCH  40  47
ENDBRANCH  36  37
ENDBRANCH  12  36
TORSDOF 12
ENDMDL
MODEL 8
REMARK minimizedAffinity -8.21373177
REMARK CNNscore 0.10469196
REMARK CNNaffinity 5.69148302
REMARK  12 active torsions:
REMARK  status: ('A' for Active; 'I' for Inactive)
REMARK    1  A    between atoms: C2_2  and  C3_3 
REMARK    2  A    between atoms: C6_6  and  C7_7 
REMARK    3  A    between atoms: C7_7  and  C8_8 
REMARK    4  A    between atoms: C15_19  and  C16_20 
REMARK    5  A    between atoms: C16_20  and  C17_21 
REMARK    6  A    between atoms: C18_22  and  C19_23 
REMARK    7  A    between atoms: C21_25  and  C22_26 
REMARK    8  A    between atoms: C23_28  and  C24_29 
REMARK    9  A    between atoms: C27_34  and  C28_35 
REMARK   10  A    between atoms: C28_35  and  C29_36 
REMARK   11  A    between atoms: C29_36  and  C30_37 
REMARK   12  A    between atoms: C30_37  and  O5_39 
ROOT
HETATM    1  C8  UNL     1      -6.516  47.503 -22.529  1.00  0.00     0.016 C 
HETATM    2  N1  UNL     1      -5.889  47.480 -23.671  1.00  0.00    -0.362 N 
ATOM      3  H1  UNL     1      -6.190  46.993 -24.515  1.00  0.00     0.165 HD
HETATM    4  C9  UNL     1      -4.746  48.234 -23.528  1.00  0.00     0.023 C 
HETATM    5  C10 UNL     1      -4.130  48.748 -24.605  1.00  0.00    -0.000 A 
HETATM    6  C11 UNL     1      -4.562  48.439 -26.062  1.00  0.00     0.127 A 
HETATM    7  C12 UNL     1      -3.455  49.193 -26.859  1.00  0.00     0.166 A 
HETATM    8  O1  UNL     1      -3.347  49.230 -28.077  1.00  0.00    -0.292 OA
HETATM    9  C13 UNL     1      -2.577  49.857 -25.916  1.00  0.00     0.045 A 
HETATM   10  C14 UNL     1      -3.000  49.586 -24.648  1.00  0.00     0.055 A 
HETATM   11  N2  UNL     1      -2.223  50.242 -23.764  1.00  0.00    -0.357 N 
HETATM   12  C15 UNL     1      -1.233  50.913 -24.480  1.00  0.00     0.022 A 
HETATM   13  C25 UNL     1      -1.444  50.686 -25.846  1.00  0.00    -0.023 A 
HETATM   14  C26 UNL     1      -0.672  51.195 -27.008  1.00  0.00     0.051 C 
HETATM   15  C27 UNL     1      -4.429  48.418 -22.061  1.00  0.00     0.046 C 
HETATM   16  C32 UNL     1      -5.851  48.348 -21.465  1.00  0.00     0.041 C 
HETATM   17  C33 UNL     1      -6.507  49.725 -21.388  1.00  0.00     0.017 C 
HETATM   18  H10 UNL     1      -2.326  50.276 -22.760  1.00  0.00     0.166 HD
ENDROOT
BRANCH  15  19
HETATM   19  C28 UNL     1      -3.561  47.277 -21.482  1.00  0.00     0.021 C 
BRANCH  19  20
HETATM   20  C29 UNL     1      -3.676  47.095 -19.968  1.00  0.00     0.112 C 
BRANCH  20  21
HETATM   21  C30 UNL     1      -2.407  47.523 -19.266  1.00  0.00     0.258 C 
HETATM   22  O4  UNL     1      -1.368  47.832 -19.828  1.00  0.00    -0.265 OA
BRANCH  21  23
HETATM   23  O5  UNL     1      -2.583  47.458 -17.916  1.00  0.00    -0.326 OA
HETATM   24  C31 UNL     1      -3.244  46.273 -17.471  1.00  0.00     0.213 C 
ENDBRANCH  21  23
ENDBRANCH  20  21
ENDBRANCH  19  20
ENDBRANCH  15  19
BRANCH   1  25
HETATM   25  C7  UNL     1      -7.788  46.764 -22.363  1.00  0.00     0.055 C 
BRANCH  25  26
HETATM   26  C6  UNL     1      -8.792  46.527 -23.214  1.00  0.00     0.043 A 
HETATM   27  C4  UNL     1      -8.979  45.333 -24.031  1.00  0.00    -0.019 A 
HETATM   28  C3  UNL     1     -10.096  45.433 -24.786  1.00  0.00     0.039 A 
HETATM   29  C5  UNL     1      -8.013  44.193 -23.976  1.00  0.00     0.052 C 
HETATM   30  C34 UNL     1     -10.683  46.768 -24.446  1.00  0.00     0.256 A 
HETATM   31  N4  UNL     1      -9.846  47.329 -23.510  1.00  0.00    -0.322 N 
HETATM   32  O6  UNL     1     -11.692  47.285 -24.889  1.00  0.00    -0.267 OA
HETATM   33  H36 UNL     1     -10.052  48.241 -23.142  1.00  0.00     0.169 HD
BRANCH  28  34
HETATM   34  C2  UNL     1     -10.633  44.479 -25.724  1.00  0.00     0.007 C 
HETATM   35  C1  UNL     1     -10.939  44.708 -27.007  1.00  0.00     0.012 C 
ENDBRANCH  28  34
ENDBRANCH  25  26
ENDBRANCH   1  25
BRANCH  12  36
HETATM   36  C16 UNL     1      -0.180  51.702 -23.764  1.00  0.00     0.115 C 
BRANCH  36  37
HETATM   37  C17 UNL     1      -0.442  51.789 -22.290  1.00  0.00     0.022 A 
HETATM   38  C18 UNL     1       0.314  52.306 -21.246  1.00  0.00    -0.020 A 
HETATM   39  C21 UNL     1      -0.450  52.118 -20.038  1.00  0.00     0.040 A 
HETATM   40  C23 UNL     1      -1.641  51.500 -20.397  1.00  0.00     0.084 A 
HETATM   41  N3  UNL     1      -1.599  51.285 -21.752  1.00  0.00    -0.356 N 
HETATM   42  H20 UNL     1      -2.341  50.818 -22.262  1.00  0.00     0.166 HD
BRANCH  38  43
HETATM   43  C19 UNL     1       1.668  52.943 -21.361  1.00  0.00     0.037 C 
HETATM   44  C20 UNL     1       1.588  54.438 -21.637  1.00  0.00     0.010 C 
ENDBRANCH  38  43
BRANCH  39  45
HETATM   45  C22 UNL     1      -0.069  52.500 -18.686  1.00  0.00     0.273 C 
HETATM   46  O2  UNL     1       0.300  51.700 -17.832  1.00  0.00    -0.301 OA
ENDBRANCH  39  45
BRANCH  40  47
HETATM   47  C24 UNL     1      -2.786  51.094 -19.615  1.00  0.00     0.288 C 
HETATM   48  O3  UNL     1      -3.106  51.662 -18.573  1.00  0.00    -0.300 OA
ENDBRANCH  40  47
ENDBRANCH  36  37
ENDBRANCH  12  36
TORSDOF 12
ENDMDL
MODEL 9
REMARK minimizedAffinity -7.43683529
REMARK CNNscore 0.0981636196
REMARK CNNaffinity 6.30200243
REMARK  12 active torsions:
REMARK  status: ('A' for Active; 'I' for Inactive)
REMARK    1  A    between atoms: C2_2  and  C3_3 
REMARK    2  A    between atoms: C6_6  and  C7_7 
REMARK    3  A    between atoms: C7_7  and  C8_8 
REMARK    4  A    between atoms: C15_19  and  C16_20 
REMARK    5  A    between atoms: C16_20  and  C17_21 
REMARK    6  A    between atoms: C18_22  and  C19_23 
REMARK    7  A    between atoms: C21_25  and  C22_26 
REMARK    8  A    between atoms: C23_28  and  C24_29 
REMARK    9  A    between atoms: C27_34  and  C28_35 
REMARK   10  A    between atoms: C28_35  and  C29_36 
REMARK   11  A    between atoms: C29_36  and  C30_37 
REMARK   12  A    between atoms: C30_37  and  O5_39 
ROOT
HETATM    1  C8  UNL     1       3.217  56.132  -9.064  1.00  0.00     0.016 C 
HETATM    2  N1  UNL     1       1.976  55.754  -8.943  1.00  0.00    -0.362 N 
ATOM      3  H1  UNL     1       1.274  56.172  -8.332  1.00  0.00     0.165 HD
HETATM    4  C9  UNL     1       1.785  54.686  -9.792  1.00  0.00     0.023 C 
HETATM    5  C10 UNL     1       0.552  54.360 -10.209  1.00  0.00    -0.000 A 
HETATM    6  C11 UNL     1      -0.736  55.050  -9.687  1.00  0.00     0.127 A 
HETATM    7  C12 UNL     1      -1.829  54.212 -10.413  1.00  0.00     0.166 A 
HETATM    8  O1  UNL     1      -3.039  54.361 -10.303  1.00  0.00    -0.292 OA
HETATM    9  C13 UNL     1      -1.176  53.229 -11.255  1.00  0.00     0.045 A 
HETATM   10  C14 UNL     1       0.175  53.352 -11.116  1.00  0.00     0.055 A 
HETATM   11  N2  UNL     1       0.793  52.479 -11.935  1.00  0.00    -0.357 N 
HETATM   12  C15 UNL     1      -0.189  51.729 -12.582  1.00  0.00     0.022 A 
HETATM   13  C25 UNL     1      -1.444  52.194 -12.167  1.00  0.00    -0.023 A 
HETATM   14  C26 UNL     1      -2.793  51.732 -12.581  1.00  0.00     0.051 C 
HETATM   15  C27 UNL     1       3.120  54.094 -10.183  1.00  0.00     0.046 C 
HETATM   16  C32 UNL     1       4.014  55.349 -10.083  1.00  0.00     0.041 C 
HETATM   17  C33 UNL     1       4.082  56.109 -11.407  1.00  0.00     0.017 C 
HETATM   18  H10 UNL     1       1.786  52.375 -12.088  1.00  0.00     0.166 HD
ENDROOT
BRANCH  15  19
HETATM   19  C28 UNL     1       3.617  53.017  -9.193  1.00  0.00     0.021 C 
BRANCH  19  20
HETATM   20  C29 UNL     1       4.696  52.087  -9.751  1.00  0.00     0.112 C 
BRANCH  20  21
HETATM   21  C30 UNL     1       6.038  52.356  -9.109  1.00  0.00     0.258 C 
HETATM   22  O4  UNL     1       6.810  53.241  -9.447  1.00  0.00    -0.265 OA
BRANCH  21  23
HETATM   23  O5  UNL     1       6.281  51.430  -8.139  1.00  0.00    -0.326 OA
HETATM   24  C31 UNL     1       7.582  50.844  -8.205  1.00  0.00     0.213 C 
ENDBRANCH  21  23
ENDBRANCH  20  21
ENDBRANCH  19  20
ENDBRANCH  15  19
BRANCH   1  25
HETATM   25  C7  UNL     1       3.733  57.262  -8.260  1.00  0.00     0.055 C 
BRANCH  25  26
HETATM   26  C6  UNL     1       4.597  57.302  -7.240  1.00  0.00     0.043 A 
HETATM   27  C4  UNL     1       4.350  57.847  -5.909  1.00  0.00    -0.019 A 
HETATM   28  C3  UNL     1       5.449  57.735  -5.130  1.00  0.00     0.039 A 
HETATM   29  C5  UNL     1       3.025  58.434  -5.542  1.00  0.00     0.052 C 
HETATM   30  C34 UNL     1       6.479  57.074  -5.992  1.00  0.00     0.256 A 
HETATM   31  N4  UNL     1       5.878  56.856  -7.210  1.00  0.00    -0.322 N 
HETATM   32  O6  UNL     1       7.625  56.778  -5.709  1.00  0.00    -0.267 OA
HETATM   33  H36 UNL     1       6.400  56.422  -7.951  1.00  0.00     0.169 HD
BRANCH  28  34
HETATM   34  C2  UNL     1       5.622  58.152  -3.760  1.00  0.00     0.007 C 
HETATM   35  C1  UNL     1       5.431  57.401  -2.668  1.00  0.00     0.012 C 
ENDBRANCH  28  34
ENDBRANCH  25  26
ENDBRANCH   1  25
BRANCH  12  36
HETATM   36  C16 UNL     1       0.193  50.635 -13.531  1.00  0.00     0.115 C 
BRANCH  36  37
HETATM   37  C17 UNL     1       0.577  51.165 -14.880  1.00  0.00     0.022 A 
HETATM   38  C18 UNL     1      -0.094  51.168 -16.097  1.00  0.00    -0.020 A 
HETATM   39  C21 UNL     1       0.765  51.824 -17.051  1.00  0.00     0.040 A 
HETATM   40  C23 UNL     1       1.919  52.198 -16.376  1.00  0.00     0.084 A 
HETATM   41  N3  UNL     1       1.795  51.763 -15.079  1.00  0.00    -0.356 N 
HETATM   42  H20 UNL     1       2.521  51.887 -14.382  1.00  0.00     0.166 HD
BRANCH  38  43
HETATM   43  C19 UNL     1      -1.457  50.598 -16.360  1.00  0.00     0.037 C 
HETATM   44  C20 UNL     1      -1.420  49.104 -16.643  1.00  0.00     0.010 C 
ENDBRANCH  38  43
BRANCH  39  45
HETATM   45  C22 UNL     1       0.493  52.065 -18.461  1.00  0.00     0.273 C 
HETATM   46  O2  UNL     1       0.288  53.178 -18.933  1.00  0.00    -0.301 OA
ENDBRANCH  39  45
BRANCH  40  47
HETATM   47  C24 UNL     1       3.103  52.900 -16.814  1.00  0.00     0.288 C 
HETATM   48  O3  UNL     1       4.080  53.061 -16.085  1.00  0.00    -0.300 OA
ENDBRANCH  40  47
ENDBRANCH  36  37
ENDBRANCH  12  36
TORSDOF 12
ENDMDL
