MODEL 1
REMARK minimizedAffinity -8.33688736
REMARK CNNscore 0.438908398
REMARK CNNaffinity 6.18518972
REMARK  12 active torsions:
REMARK  status: ('A' for Active; 'I' for Inactive)
REMARK    1  A    between atoms: C4_4  and  C5_5 
REMARK    2  A    between atoms: C5_5  and  C6_7 
REMARK    3  A    between atoms: C6_7  and  C7_8 
REMARK    4  A    between atoms: C7_8  and  C9_10 
REMARK    5  A    between atoms: C15_16  and  O2_17 
REMARK    6  A    between atoms: O2_17  and  C16_18 
REMARK    7  A    between atoms: C17_20  and  C18_21 
REMARK    8  A    between atoms: C18_21  and  O4_22 
REMARK    9  A    between atoms: C19_23  and  O5_24 
REMARK   10  A    between atoms: C20_25  and  O6_26 
REMARK   11  A    between atoms: C21_27  and  O7_28 
REMARK   12  A    between atoms: C24_31  and  O8_32 
ROOT
HETATM    1  C9  UNL     1     -16.471  45.289 -26.946  1.00  0.00    -0.002 C 
HETATM    2  C10 UNL     1     -16.286  44.549 -28.290  1.00  0.00     0.006 C 
HETATM    3  C11 UNL     1     -14.790  44.676 -28.638  1.00  0.00     0.006 C 
HETATM    4  C12 UNL     1     -14.208  45.564 -27.537  1.00  0.00     0.002 C 
HETATM    5  C13 UNL     1     -12.698  45.483 -27.268  1.00  0.00     0.022 C 
HETATM    6  C14 UNL     1     -11.877  45.974 -28.477  1.00  0.00     0.042 C 
HETATM    7  C15 UNL     1     -11.299  47.384 -28.340  1.00  0.00     0.130 C 
HETATM    8  C22 UNL     1     -10.648  47.704 -26.961  1.00  0.00     0.029 C 
HETATM    9  C23 UNL     1      -9.188  48.197 -27.013  1.00  0.00     0.039 C 
HETATM   10  C24 UNL     1      -8.734  48.766 -25.662  1.00  0.00     0.118 C 
HETATM   11  C25 UNL     1      -9.034  47.839 -24.483  1.00  0.00     0.033 C 
HETATM   12  C26 UNL     1     -10.476  47.308 -24.498  1.00  0.00     0.016 C 
HETATM   13  C27 UNL     1     -10.866  46.632 -25.850  1.00  0.00    -0.014 C 
HETATM   14  C28 UNL     1      -9.976  45.368 -25.983  1.00  0.00     0.020 C 
HETATM   15  C29 UNL     1     -12.346  46.227 -25.970  1.00  0.00    -0.070 C 
HETATM   16  C30 UNL     1     -13.304  46.567 -25.076  1.00  0.00    -0.022 C 
HETATM   17  C31 UNL     1     -14.782  46.271 -25.218  1.00  0.00     0.037 C 
HETATM   18  C32 UNL     1     -15.063  45.208 -26.292  1.00  0.00    -0.033 C 
HETATM   19  C33 UNL     1     -14.738  43.814 -25.706  1.00  0.00     0.016 C 
ENDROOT
BRANCH   7  20
HETATM   20  O2  UNL     1     -10.347  47.604 -29.392  1.00  0.00    -0.353 OA
BRANCH  20  21
HETATM   21  C16 UNL     1      -9.669  46.413 -29.816  1.00  0.00     0.292 C 
HETATM   22  O3  UNL     1      -8.362  46.311 -29.247  1.00  0.00    -0.348 OA
HETATM   23  C17 UNL     1      -7.355  46.979 -30.022  1.00  0.00     0.179 C 
HETATM   24  C19 UNL     1      -7.132  46.178 -31.325  1.00  0.00     0.180 C 
HETATM   25  C20 UNL     1      -8.468  45.628 -31.882  1.00  0.00     0.183 C 
HETATM   26  C21 UNL     1      -9.662  46.425 -31.367  1.00  0.00     0.204 C 
BRANCH  23  27
HETATM   27  C18 UNL     1      -6.091  47.166 -29.165  1.00  0.00     0.198 C 
BRANCH  27  28
HETATM   28  O4  UNL     1      -5.993  48.461 -28.576  1.00  0.00    -0.398 OA
HETATM   29  H28 UNL     1      -6.758  48.535 -27.969  1.00  0.00     0.209 HD
ENDBRANCH  27  28
ENDBRANCH  23  27
BRANCH  24  30
HETATM   30  O5  UNL     1      -6.239  45.068 -31.101  1.00  0.00    -0.390 OA
HETATM   31  H30 UNL     1      -6.700  44.449 -30.500  1.00  0.00     0.210 HD
ENDBRANCH  24  30
BRANCH  25  32
HETATM   32  O6  UNL     1      -8.453  45.667 -33.316  1.00  0.00    -0.390 OA
HETATM   33  H32 UNL     1      -8.604  46.602 -33.558  1.00  0.00     0.210 HD
ENDBRANCH  25  32
BRANCH  26  34
HETATM   34  O7  UNL     1      -9.555  47.773 -31.886  1.00  0.00    -0.388 OA
HETATM   35  H34 UNL     1     -10.010  48.331 -31.220  1.00  0.00     0.210 HD
ENDBRANCH  26  34
ENDBRANCH  20  21
ENDBRANCH   7  20
BRANCH  10  36
HETATM   36  O8  UNL     1      -9.404  50.006 -25.431  1.00  0.00    -0.396 OA
HETATM   37  H39 UNL     1      -9.112  50.629 -26.121  1.00  0.00     0.210 HD
ENDBRANCH  10  36
BRANCH   1  38
HETATM   38  C7  UNL     1     -17.738  44.926 -26.130  1.00  0.00    -0.007 C 
HETATM   39  C8  UNL     1     -18.956  44.462 -26.942  1.00  0.00     0.011 C 
BRANCH  38  40
HETATM   40  C6  UNL     1     -18.157  46.156 -25.285  1.00  0.00     0.087 C 
BRANCH  40  41
HETATM   41  C5  UNL     1     -19.550  46.030 -24.684  1.00  0.00     0.149 C 
HETATM   42  O1  UNL     1     -20.498  46.689 -25.101  1.00  0.00    -0.293 OA
BRANCH  41  43
HETATM   43  C4  UNL     1     -19.700  45.024 -23.582  1.00  0.00     0.052 C 
HETATM   44  C2  UNL     1     -19.268  45.171 -22.314  1.00  0.00    -0.084 C 
HETATM   45  C1  UNL     1     -18.570  46.397 -21.792  1.00  0.00     0.043 C 
HETATM   46  C3  UNL     1     -19.468  44.074 -21.305  1.00  0.00     0.043 C 
ENDBRANCH  41  43
ENDBRANCH  40  41
ENDBRANCH  38  40
ENDBRANCH   1  38
TORSDOF 12
ENDMDL
MODEL 2
REMARK minimizedAffinity -8.74849319
REMARK CNNscore 0.426012546
REMARK CNNaffinity 6.81660414
REMARK  12 active torsions:
REMARK  status: ('A' for Active; 'I' for Inactive)
REMARK    1  A    between atoms: C4_4  and  C5_5 
REMARK    2  A    between atoms: C5_5  and  C6_7 
REMARK    3  A    between atoms: C6_7  and  C7_8 
REMARK    4  A    between atoms: C7_8  and  C9_10 
REMARK    5  A    between atoms: C15_16  and  O2_17 
REMARK    6  A    between atoms: O2_17  and  C16_18 
REMARK    7  A    between atoms: C17_20  and  C18_21 
REMARK    8  A    between atoms: C18_21  and  O4_22 
REMARK    9  A    between atoms: C19_23  and  O5_24 
REMARK   10  A    between atoms: C20_25  and  O6_26 
REMARK   11  A    between atoms: C21_27  and  O7_28 
REMARK   12  A    between atoms: C24_31  and  O8_32 
ROOT
HETATM    1  C9  UNL     1      -3.324  50.118 -25.087  1.00  0.00    -0.002 C 
HETATM    2  C10 UNL     1      -3.903  49.281 -23.923  1.00  0.00     0.006 C 
HETATM    3  C11 UNL     1      -4.971  48.365 -24.553  1.00  0.00     0.006 C 
HETATM    4  C12 UNL     1      -5.028  48.788 -26.023  1.00  0.00     0.002 C 
HETATM    5  C13 UNL     1      -5.583  47.781 -27.042  1.00  0.00     0.022 C 
HETATM    6  C14 UNL     1      -7.072  47.474 -26.787  1.00  0.00     0.042 C 
HETATM    7  C15 UNL     1      -8.050  48.178 -27.731  1.00  0.00     0.130 C 
HETATM    8  C22 UNL     1      -7.648  48.161 -29.237  1.00  0.00     0.029 C 
HETATM    9  C23 UNL     1      -8.702  47.580 -30.200  1.00  0.00     0.039 C 
HETATM   10  C24 UNL     1      -8.354  47.875 -31.665  1.00  0.00     0.118 C 
HETATM   11  C25 UNL     1      -6.915  47.512 -32.030  1.00  0.00     0.033 C 
HETATM   12  C26 UNL     1      -5.893  48.045 -31.013  1.00  0.00     0.016 C 
HETATM   13  C27 UNL     1      -6.215  47.628 -29.544  1.00  0.00    -0.014 C 
HETATM   14  C28 UNL     1      -6.069  46.085 -29.482  1.00  0.00     0.020 C 
HETATM   15  C29 UNL     1      -5.312  48.268 -28.474  1.00  0.00    -0.070 C 
HETATM   16  C30 UNL     1      -4.416  49.250 -28.722  1.00  0.00    -0.022 C 
HETATM   17  C31 UNL     1      -3.587  49.968 -27.677  1.00  0.00     0.037 C 
HETATM   18  C32 UNL     1      -3.571  49.222 -26.333  1.00  0.00    -0.033 C 
HETATM   19  C33 UNL     1      -2.589  48.032 -26.439  1.00  0.00     0.016 C 
ENDROOT
BRANCH   7  20
HETATM   20  O2  UNL     1      -9.355  47.601 -27.568  1.00  0.00    -0.353 OA
BRANCH  20  21
HETATM   21  C16 UNL     1      -9.471  46.751 -26.419  1.00  0.00     0.292 C 
HETATM   22  O3  UNL     1      -9.888  45.430 -26.771  1.00  0.00    -0.348 OA
HETATM   23  C17 UNL     1     -11.316  45.287 -26.834  1.00  0.00     0.179 C 
HETATM   24  C19 UNL     1     -11.876  45.359 -25.396  1.00  0.00     0.180 C 
HETATM   25  C20 UNL     1     -11.121  46.415 -24.550  1.00  0.00     0.183 C 
HETATM   26  C21 UNL     1     -10.438  47.455 -25.431  1.00  0.00     0.204 C 
BRANCH  23  27
HETATM   27  C18 UNL     1     -11.666  43.995 -27.591  1.00  0.00     0.198 C 
BRANCH  27  28
HETATM   28  O4  UNL     1     -10.805  42.903 -27.277  1.00  0.00    -0.398 OA
HETATM   29  H28 UNL     1     -10.948  42.719 -26.326  1.00  0.00     0.209 HD
ENDBRANCH  27  28
ENDBRANCH  23  27
BRANCH  24  30
HETATM   30  O5  UNL     1     -11.766  44.082 -24.735  1.00  0.00    -0.390 OA
HETATM   31  H30 UNL     1     -10.811  43.900 -24.624  1.00  0.00     0.210 HD
ENDBRANCH  24  30
BRANCH  25  32
HETATM   32  O6  UNL     1     -12.034  47.071 -23.659  1.00  0.00    -0.390 OA
HETATM   33  H32 UNL     1     -12.536  47.704 -24.211  1.00  0.00     0.210 HD
ENDBRANCH  25  32
BRANCH  26  34
HETATM   34  O7  UNL     1     -11.469  48.192 -26.134  1.00  0.00    -0.388 OA
HETATM   35  H34 UNL     1     -11.040  48.483 -26.966  1.00  0.00     0.210 HD
ENDBRANCH  26  34
ENDBRANCH  20  21
ENDBRANCH   7  20
BRANCH  10  36
HETATM   36  O8  UNL     1      -8.536  49.270 -31.914  1.00  0.00    -0.396 OA
HETATM   37  H39 UNL     1      -9.482  49.467 -31.795  1.00  0.00     0.210 HD
ENDBRANCH  10  36
BRANCH   1  38
HETATM   38  C7  UNL     1      -1.935  50.762 -24.845  1.00  0.00    -0.007 C 
HETATM   39  C8  UNL     1      -1.321  50.546 -23.455  1.00  0.00     0.011 C 
BRANCH  38  40
HETATM   40  C6  UNL     1      -2.043  52.287 -25.098  1.00  0.00     0.087 C 
BRANCH  40  41
HETATM   41  C5  UNL     1      -1.053  52.800 -26.135  1.00  0.00     0.149 C 
HETATM   42  O1  UNL     1      -1.400  53.543 -27.049  1.00  0.00    -0.293 OA
BRANCH  41  43
HETATM   43  C4  UNL     1       0.373  52.378 -25.946  1.00  0.00     0.052 C 
HETATM   44  C2  UNL     1       1.164  51.826 -26.887  1.00  0.00    -0.084 C 
HETATM   45  C1  UNL     1       0.737  51.557 -28.304  1.00  0.00     0.043 C 
HETATM   46  C3  UNL     1       2.579  51.431 -26.562  1.00  0.00     0.043 C 
ENDBRANCH  41  43
ENDBRANCH  40  41
ENDBRANCH  38  40
ENDBRANCH   1  38
TORSDOF 12
ENDMDL
MODEL 3
REMARK minimizedAffinity -9.37570953
REMARK CNNscore 0.42364639
REMARK CNNaffinity 6.81599665
REMARK  12 active torsions:
REMARK  status: ('A' for Active; 'I' for Inactive)
REMARK    1  A    between atoms: C4_4  and  C5_5 
REMARK    2  A    between atoms: C5_5  and  C6_7 
REMARK    3  A    between atoms: C6_7  and  C7_8 
REMARK    4  A    between atoms: C7_8  and  C9_10 
REMARK    5  A    between atoms: C15_16  and  O2_17 
REMARK    6  A    between atoms: O2_17  and  C16_18 
REMARK    7  A    between atoms: C17_20  and  C18_21 
REMARK    8  A    between atoms: C18_21  and  O4_22 
REMARK    9  A    between atoms: C19_23  and  O5_24 
REMARK   10  A    between atoms: C20_25  and  O6_26 
REMARK   11  A    between atoms: C21_27  and  O7_28 
REMARK   12  A    between atoms: C24_31  and  O8_32 
ROOT
HETATM    1  C9  UNL     1      -0.917  51.930 -20.285  1.00  0.00    -0.002 C 
HETATM    2  C10 UNL     1      -1.095  51.517 -18.806  1.00  0.00     0.006 C 
HETATM    3  C11 UNL     1      -2.329  50.595 -18.772  1.00  0.00     0.006 C 
HETATM    4  C12 UNL     1      -2.860  50.601 -20.207  1.00  0.00     0.002 C 
HETATM    5  C13 UNL     1      -3.740  49.425 -20.656  1.00  0.00     0.022 C 
HETATM    6  C14 UNL     1      -5.067  49.375 -19.873  1.00  0.00     0.042 C 
HETATM    7  C15 UNL     1      -6.288  49.901 -20.632  1.00  0.00     0.130 C 
HETATM    8  C22 UNL     1      -6.407  49.425 -22.111  1.00  0.00     0.029 C 
HETATM    9  C23 UNL     1      -7.731  48.728 -22.481  1.00  0.00     0.039 C 
HETATM   10  C24 UNL     1      -7.881  48.567 -24.000  1.00  0.00     0.118 C 
HETATM   11  C25 UNL     1      -6.650  47.954 -24.668  1.00  0.00     0.033 C 
HETATM   12  C26 UNL     1      -5.340  48.623 -24.225  1.00  0.00     0.016 C 
HETATM   13  C27 UNL     1      -5.167  48.666 -22.674  1.00  0.00    -0.014 C 
HETATM   14  C28 UNL     1      -5.039  47.192 -22.204  1.00  0.00     0.020 C 
HETATM   15  C29 UNL     1      -3.948  49.465 -22.178  1.00  0.00    -0.070 C 
HETATM   16  C30 UNL     1      -3.165  50.230 -22.972  1.00  0.00    -0.022 C 
HETATM   17  C31 UNL     1      -2.024  51.106 -22.498  1.00  0.00     0.037 C 
HETATM   18  C32 UNL     1      -1.580  50.761 -21.068  1.00  0.00    -0.033 C 
HETATM   19  C33 UNL     1      -0.712  49.483 -21.114  1.00  0.00     0.016 C 
ENDROOT
BRANCH   7  20
HETATM   20  O2  UNL     1      -7.477  49.546 -19.908  1.00  0.00    -0.353 OA
BRANCH  20  21
HETATM   21  C16 UNL     1      -7.379  48.295 -19.214  1.00  0.00     0.292 C 
HETATM   22  O3  UNL     1      -8.119  47.262 -19.869  1.00  0.00    -0.348 OA
HETATM   23  C17 UNL     1      -9.495  47.208 -19.462  1.00  0.00     0.179 C 
HETATM   24  C19 UNL     1      -9.553  46.685 -18.009  1.00  0.00     0.180 C 
HETATM   25  C20 UNL     1      -8.393  47.259 -17.159  1.00  0.00     0.183 C 
HETATM   26  C21 UNL     1      -7.843  48.550 -17.756  1.00  0.00     0.204 C 
BRANCH  23  27
HETATM   27  C18 UNL     1     -10.293  46.369 -20.474  1.00  0.00     0.198 C 
BRANCH  27  28
HETATM   28  O4  UNL     1     -11.546  45.913 -19.969  1.00  0.00    -0.398 OA
HETATM   29  H28 UNL     1     -12.072  46.721 -19.798  1.00  0.00     0.209 HD
ENDBRANCH  27  28
ENDBRANCH  23  27
BRANCH  24  30
HETATM   30  O5  UNL     1      -9.475  45.245 -17.976  1.00  0.00    -0.390 OA
HETATM   31  H30 UNL     1      -8.583  45.001 -18.295  1.00  0.00     0.210 HD
ENDBRANCH  24  30
BRANCH  25  32
HETATM   32  O6  UNL     1      -8.845  47.509 -15.820  1.00  0.00    -0.390 OA
HETATM   33  H32 UNL     1      -9.371  48.332 -15.867  1.00  0.00     0.210 HD
ENDBRANCH  25  32
BRANCH  26  34
HETATM   34  O7  UNL     1      -8.891  49.549 -17.700  1.00  0.00    -0.388 OA
HETATM   35  H34 UNL     1      -8.699  50.149 -18.451  1.00  0.00     0.210 HD
ENDBRANCH  26  34
ENDBRANCH  20  21
ENDBRANCH   7  20
BRANCH  10  36
HETATM   36  O8  UNL     1      -8.107  49.852 -24.583  1.00  0.00    -0.396 OA
HETATM   37  H39 UNL     1      -8.957  50.182 -24.241  1.00  0.00     0.210 HD
ENDBRANCH  10  36
BRANCH   1  38
HETATM   38  C7  UNL     1       0.486  52.450 -20.689  1.00  0.00    -0.007 C 
HETATM   39  C8  UNL     1       0.744  53.947 -20.464  1.00  0.00     0.011 C 
BRANCH  38  40
HETATM   40  C6  UNL     1       0.721  52.136 -22.188  1.00  0.00     0.087 C 
BRANCH  40  41
HETATM   41  C5  UNL     1       0.781  53.380 -23.064  1.00  0.00     0.149 C 
HETATM   42  O1  UNL     1       1.532  54.317 -22.809  1.00  0.00    -0.293 OA
BRANCH  41  43
HETATM   43  C4  UNL     1      -0.100  53.371 -24.277  1.00  0.00     0.052 C 
HETATM   44  C2  UNL     1       0.173  52.759 -25.446  1.00  0.00    -0.084 C 
HETATM   45  C1  UNL     1       1.419  51.961 -25.716  1.00  0.00     0.043 C 
HETATM   46  C3  UNL     1      -0.793  52.841 -26.597  1.00  0.00     0.043 C 
ENDBRANCH  41  43
ENDBRANCH  40  41
ENDBRANCH  38  40
ENDBRANCH   1  38
TORSDOF 12
ENDMDL
MODEL 4
REMARK minimizedAffinity -8.63452625
REMARK CNNscore 0.409875512
REMARK CNNaffinity 6.84193468
REMARK  12 active torsions:
REMARK  status: ('A' for Active; 'I' for Inactive)
REMARK    1  A    between atoms: C4_4  and  C5_5 
REMARK    2  A    between atoms: C5_5  and  C6_7 
REMARK    3  A    between atoms: C6_7  and  C7_8 
REMARK    4  A    between atoms: C7_8  and  C9_10 
REMARK    5  A    between atoms: C15_16  and  O2_17 
REMARK    6  A    between atoms: O2_17  and  C16_18 
REMARK    7  A    between atoms: C17_20  and  C18_21 
REMARK    8  A    between atoms: C18_21  and  O4_22 
REMARK    9  A    between atoms: C19_23  and  O5_24 
REMARK   10  A    between atoms: C20_25  and  O6_26 
REMARK   11  A    between atoms: C21_27  and  O7_28 
REMARK   12  A    between atoms: C24_31  and  O8_32 
ROOT
HETATM    1  C9  UNL     1      -0.991  52.169 -20.688  1.00  0.00    -0.002 C 
HETATM    2  C10 UNL     1       0.169  53.077 -20.219  1.00  0.00     0.006 C 
HETATM    3  C11 UNL     1       0.541  52.587 -18.806  1.00  0.00     0.006 C 
HETATM    4  C12 UNL     1      -0.483  51.495 -18.489  1.00  0.00     0.002 C 
HETATM    5  C13 UNL     1      -0.120  50.454 -17.420  1.00  0.00     0.022 C 
HETATM    6  C14 UNL     1       0.033  51.097 -16.027  1.00  0.00     0.042 C 
HETATM    7  C15 UNL     1      -1.153  50.889 -15.083  1.00  0.00     0.130 C 
HETATM    8  C22 UNL     1      -1.732  49.442 -15.052  1.00  0.00     0.029 C 
HETATM    9  C23 UNL     1      -1.800  48.782 -13.661  1.00  0.00     0.039 C 
HETATM   10  C24 UNL     1      -2.646  47.502 -13.682  1.00  0.00     0.118 C 
HETATM   11  C25 UNL     1      -2.261  46.541 -14.806  1.00  0.00     0.033 C 
HETATM   12  C26 UNL     1      -2.133  47.242 -16.168  1.00  0.00     0.016 C 
HETATM   13  C27 UNL     1      -1.173  48.471 -16.136  1.00  0.00    -0.014 C 
HETATM   14  C28 UNL     1       0.246  47.916 -15.840  1.00  0.00     0.020 C 
HETATM   15  C29 UNL     1      -1.134  49.299 -17.434  1.00  0.00    -0.070 C 
HETATM   16  C30 UNL     1      -1.975  49.118 -18.478  1.00  0.00    -0.022 C 
HETATM   17  C31 UNL     1      -2.028  49.979 -19.722  1.00  0.00     0.037 C 
HETATM   18  C32 UNL     1      -0.778  50.861 -19.874  1.00  0.00    -0.033 C 
HETATM   19  C33 UNL     1       0.382  49.988 -20.406  1.00  0.00     0.016 C 
ENDROOT
BRANCH   7  20
HETATM   20  O2  UNL     1      -0.772  51.290 -13.758  1.00  0.00    -0.353 OA
BRANCH  20  21
HETATM   21  C16 UNL     1      -1.578  50.708 -12.724  1.00  0.00     0.292 C 
HETATM   22  O3  UNL     1      -2.769  51.460 -12.488  1.00  0.00    -0.348 OA
HETATM   23  C17 UNL     1      -2.587  52.523 -11.539  1.00  0.00     0.179 C 
HETATM   24  C19 UNL     1      -2.395  51.898 -10.139  1.00  0.00     0.180 C 
HETATM   25  C20 UNL     1      -1.539  50.609 -10.211  1.00  0.00     0.183 C 
HETATM   26  C21 UNL     1      -0.676  50.578 -11.468  1.00  0.00     0.204 C 
BRANCH  23  27
HETATM   27  C18 UNL     1      -3.766  53.506 -11.642  1.00  0.00     0.198 C 
BRANCH  27  28
HETATM   28  O4  UNL     1      -4.032  54.202 -10.426  1.00  0.00    -0.398 OA
HETATM   29  H28 UNL     1      -3.233  54.738 -10.249  1.00  0.00     0.209 HD
ENDBRANCH  27  28
ENDBRANCH  23  27
BRANCH  24  30
HETATM   30  O5  UNL     1      -3.667  51.568  -9.543  1.00  0.00    -0.390 OA
HETATM   31  H30 UNL     1      -4.059  50.855 -10.085  1.00  0.00     0.210 HD
ENDBRANCH  24  30
BRANCH  25  32
HETATM   32  O6  UNL     1      -0.697  50.517  -9.053  1.00  0.00    -0.390 OA
HETATM   33  H32 UNL     1       0.034  51.149  -9.205  1.00  0.00     0.210 HD
ENDBRANCH  25  32
BRANCH  26  34
HETATM   34  O7  UNL     1       0.275  51.667 -11.383  1.00  0.00    -0.388 OA
HETATM   35  H34 UNL     1       0.465  51.901 -12.316  1.00  0.00     0.210 HD
ENDBRANCH  26  34
ENDBRANCH  20  21
ENDBRANCH   7  20
BRANCH  10  36
HETATM   36  O8  UNL     1      -4.019  47.856 -13.853  1.00  0.00    -0.396 OA
HETATM   37  H39 UNL     1      -4.289  48.369 -13.070  1.00  0.00     0.210 HD
ENDBRANCH  10  36
BRANCH   1  38
HETATM   38  C7  UNL     1      -1.243  52.110 -22.216  1.00  0.00    -0.007 C 
HETATM   39  C8  UNL     1      -1.491  50.716 -22.809  1.00  0.00     0.011 C 
BRANCH  38  40
HETATM   40  C6  UNL     1      -0.028  52.739 -22.946  1.00  0.00     0.087 C 
BRANCH  40  41
HETATM   41  C5  UNL     1      -0.268  52.968 -24.432  1.00  0.00     0.149 C 
HETATM   42  O1  UNL     1      -1.355  53.341 -24.863  1.00  0.00    -0.293 OA
BRANCH  41  43
HETATM   43  C4  UNL     1       0.915  52.752 -25.328  1.00  0.00     0.052 C 
HETATM   44  C2  UNL     1       1.076  51.728 -26.189  1.00  0.00    -0.084 C 
HETATM   45  C1  UNL     1       0.068  50.632 -26.402  1.00  0.00     0.043 C 
HETATM   46  C3  UNL     1       2.323  51.618 -27.024  1.00  0.00     0.043 C 
ENDBRANCH  41  43
ENDBRANCH  40  41
ENDBRANCH  38  40
ENDBRANCH   1  38
TORSDOF 12
ENDMDL
MODEL 5
REMARK minimizedAffinity -8.24618053
REMARK CNNscore 0.409492016
REMARK CNNaffinity 6.75385809
REMARK  12 active torsions:
REMARK  status: ('A' for Active; 'I' for Inactive)
REMARK    1  A    between atoms: C4_4  and  C5_5 
REMARK    2  A    between atoms: C5_5  and  C6_7 
REMARK    3  A    between atoms: C6_7  and  C7_8 
REMARK    4  A    between atoms: C7_8  and  C9_10 
REMARK    5  A    between atoms: C15_16  and  O2_17 
REMARK    6  A    between atoms: O2_17  and  C16_18 
REMARK    7  A    between atoms: C17_20  and  C18_21 
REMARK    8  A    between atoms: C18_21  and  O4_22 
REMARK    9  A    between atoms: C19_23  and  O5_24 
REMARK   10  A    between atoms: C20_25  and  O6_26 
REMARK   11  A    between atoms: C21_27  and  O7_28 
REMARK   12  A    between atoms: C24_31  and  O8_32 
ROOT
HETATM    1  C9  UNL     1      -1.803  49.851 -18.134  1.00  0.00    -0.002 C 
HETATM    2  C10 UNL     1      -2.471  49.342 -16.836  1.00  0.00     0.006 C 
HETATM    3  C11 UNL     1      -3.817  48.728 -17.268  1.00  0.00     0.006 C 
HETATM    4  C12 UNL     1      -3.906  49.002 -18.771  1.00  0.00     0.002 C 
HETATM    5  C13 UNL     1      -4.831  48.111 -19.614  1.00  0.00     0.022 C 
HETATM    6  C14 UNL     1      -6.310  48.288 -19.215  1.00  0.00     0.042 C 
HETATM    7  C15 UNL     1      -7.139  49.154 -20.166  1.00  0.00     0.130 C 
HETATM    8  C22 UNL     1      -6.921  48.871 -21.683  1.00  0.00     0.029 C 
HETATM    9  C23 UNL     1      -8.193  48.538 -22.487  1.00  0.00     0.039 C 
HETATM   10  C24 UNL     1      -7.933  48.572 -23.999  1.00  0.00     0.118 C 
HETATM   11  C25 UNL     1      -6.705  47.764 -24.420  1.00  0.00     0.033 C 
HETATM   12  C26 UNL     1      -5.471  48.066 -23.554  1.00  0.00     0.016 C 
HETATM   13  C27 UNL     1      -5.742  47.909 -22.025  1.00  0.00    -0.014 C 
HETATM   14  C28 UNL     1      -6.040  46.406 -21.781  1.00  0.00     0.020 C 
HETATM   15  C29 UNL     1      -4.585  48.353 -21.111  1.00  0.00    -0.070 C 
HETATM   16  C30 UNL     1      -3.476  48.995 -21.544  1.00  0.00    -0.022 C 
HETATM   17  C31 UNL     1      -2.371  49.533 -20.660  1.00  0.00     0.037 C 
HETATM   18  C32 UNL     1      -2.427  48.952 -19.238  1.00  0.00    -0.033 C 
HETATM   19  C33 UNL     1      -1.845  47.520 -19.266  1.00  0.00     0.016 C 
ENDROOT
BRANCH   7  20
HETATM   20  O2  UNL     1      -8.529  49.009 -19.838  1.00  0.00    -0.353 OA
BRANCH  20  21
HETATM   21  C16 UNL     1      -8.829  47.815 -19.103  1.00  0.00     0.292 C 
HETATM   22  O3  UNL     1     -10.048  47.210 -19.539  1.00  0.00    -0.348 OA
HETATM   23  C17 UNL     1     -11.208  47.731 -18.871  1.00  0.00     0.179 C 
HETATM   24  C19 UNL     1     -11.187  47.241 -17.406  1.00  0.00     0.180 C 
HETATM   25  C20 UNL     1      -9.748  47.246 -16.832  1.00  0.00     0.183 C 
HETATM   26  C21 UNL     1      -8.840  48.200 -17.600  1.00  0.00     0.204 C 
BRANCH  23  27
HETATM   27  C18 UNL     1     -12.469  47.338 -19.658  1.00  0.00     0.198 C 
BRANCH  27  28
HETATM   28  O4  UNL     1     -13.299  48.448 -19.991  1.00  0.00    -0.398 OA
HETATM   29  H28 UNL     1     -12.762  49.011 -20.585  1.00  0.00     0.209 HD
ENDBRANCH  27  28
ENDBRANCH  23  27
BRANCH  24  30
HETATM   30  O5  UNL     1     -11.715  45.903 -17.303  1.00  0.00    -0.390 OA
HETATM   31  H30 UNL     1     -11.092  45.314 -17.774  1.00  0.00     0.210 HD
ENDBRANCH  24  30
BRANCH  25  32
HETATM   32  O6  UNL     1      -9.775  47.625 -15.448  1.00  0.00    -0.390 OA
HETATM   33  H32 UNL     1      -9.905  48.595 -15.441  1.00  0.00     0.210 HD
ENDBRANCH  25  32
BRANCH  26  34
HETATM   34  O7  UNL     1      -9.338  49.546 -17.401  1.00  0.00    -0.388 OA
HETATM   35  H34 UNL     1      -9.066  50.031 -18.210  1.00  0.00     0.210 HD
ENDBRANCH  26  34
ENDBRANCH  20  21
ENDBRANCH   7  20
BRANCH  10  36
HETATM   36  O8  UNL     1      -7.732  49.926 -24.406  1.00  0.00    -0.396 OA
HETATM   37  H39 UNL     1      -8.564  50.406 -24.245  1.00  0.00     0.210 HD
ENDBRANCH  10  36
BRANCH   1  38
HETATM   38  C7  UNL     1      -0.270  50.074 -18.076  1.00  0.00    -0.007 C 
HETATM   39  C8  UNL     1       0.263  50.791 -16.828  1.00  0.00     0.011 C 
BRANCH  38  40
HETATM   40  C6  UNL     1       0.163  50.884 -19.325  1.00  0.00     0.087 C 
BRANCH  40  41
HETATM   41  C5  UNL     1      -0.374  52.308 -19.338  1.00  0.00     0.149 C 
HETATM   42  O1  UNL     1      -1.455  52.598 -18.833  1.00  0.00    -0.293 OA
BRANCH  41  43
HETATM   43  C4  UNL     1       0.516  53.340 -19.964  1.00  0.00     0.052 C 
HETATM   44  C2  UNL     1       0.782  53.459 -21.279  1.00  0.00    -0.084 C 
HETATM   45  C1  UNL     1       0.204  52.570 -22.346  1.00  0.00     0.043 C 
HETATM   46  C3  UNL     1       1.710  54.533 -21.778  1.00  0.00     0.043 C 
ENDBRANCH  41  43
ENDBRANCH  40  41
ENDBRANCH  38  40
ENDBRANCH   1  38
TORSDOF 12
ENDMDL
MODEL 6
REMARK minimizedAffinity -8.56978893
REMARK CNNscore 0.395308137
REMARK CNNaffinity 6.4406476
REMARK  12 active torsions:
REMARK  status: ('A' for Active; 'I' for Inactive)
REMARK    1  A    between atoms: C4_4  and  C5_5 
REMARK    2  A    between atoms: C5_5  and  C6_7 
REMARK    3  A    between atoms: C6_7  and  C7_8 
REMARK    4  A    between atoms: C7_8  and  C9_10 
REMARK    5  A    between atoms: C15_16  and  O2_17 
REMARK    6  A    between atoms: O2_17  and  C16_18 
REMARK    7  A    between atoms: C17_20  and  C18_21 
REMARK    8  A    between atoms: C18_21  and  O4_22 
REMARK    9  A    between atoms: C19_23  and  O5_24 
REMARK   10  A    between atoms: C20_25  and  O6_26 
REMARK   11  A    between atoms: C21_27  and  O7_28 
REMARK   12  A    between atoms: C24_31  and  O8_32 
ROOT
HETATM    1  C9  UNL     1      -2.731  48.974 -25.029  1.00  0.00    -0.002 C 
HETATM    2  C10 UNL     1      -2.561  49.431 -26.496  1.00  0.00     0.006 C 
HETATM    3  C11 UNL     1      -3.890  49.091 -27.199  1.00  0.00     0.006 C 
HETATM    4  C12 UNL     1      -4.719  48.368 -26.136  1.00  0.00     0.002 C 
HETATM    5  C13 UNL     1      -6.246  48.344 -26.305  1.00  0.00     0.022 C 
HETATM    6  C14 UNL     1      -6.667  47.557 -27.562  1.00  0.00     0.042 C 
HETATM    7  C15 UNL     1      -7.196  46.145 -27.297  1.00  0.00     0.130 C 
HETATM    8  C22 UNL     1      -8.195  46.022 -26.108  1.00  0.00     0.029 C 
HETATM    9  C23 UNL     1      -9.557  45.383 -26.447  1.00  0.00     0.039 C 
HETATM   10  C24 UNL     1     -10.348  45.031 -25.181  1.00  0.00     0.118 C 
HETATM   11  C25 UNL     1     -10.437  46.185 -24.182  1.00  0.00     0.033 C 
HETATM   12  C26 UNL     1      -9.076  46.847 -23.919  1.00  0.00     0.016 C 
HETATM   13  C27 UNL     1      -8.350  47.298 -25.225  1.00  0.00    -0.014 C 
HETATM   14  C28 UNL     1      -9.222  48.419 -25.850  1.00  0.00     0.020 C 
HETATM   15  C29 UNL     1      -6.916  47.821 -25.024  1.00  0.00    -0.070 C 
HETATM   16  C30 UNL     1      -6.237  47.752 -23.856  1.00  0.00    -0.022 C 
HETATM   17  C31 UNL     1      -4.794  48.164 -23.654  1.00  0.00     0.037 C 
HETATM   18  C32 UNL     1      -4.269  49.033 -24.809  1.00  0.00    -0.033 C 
HETATM   19  C33 UNL     1      -4.810  50.471 -24.632  1.00  0.00     0.016 C 
ENDROOT
BRANCH   7  20
HETATM   20  O2  UNL     1      -7.800  45.639 -28.497  1.00  0.00    -0.353 OA
BRANCH  20  21
HETATM   21  C16 UNL     1      -6.892  44.921 -29.344  1.00  0.00     0.292 C 
HETATM   22  O3  UNL     1      -6.411  45.729 -30.419  1.00  0.00    -0.348 OA
HETATM   23  C17 UNL     1      -7.267  45.704 -31.572  1.00  0.00     0.179 C 
HETATM   24  C19 UNL     1      -7.158  44.310 -32.229  1.00  0.00     0.180 C 
HETATM   25  C20 UNL     1      -7.064  43.191 -31.161  1.00  0.00     0.183 C 
HETATM   26  C21 UNL     1      -7.633  43.645 -29.821  1.00  0.00     0.204 C 
BRANCH  23  27
HETATM   27  C18 UNL     1      -6.907  46.877 -32.500  1.00  0.00     0.198 C 
BRANCH  27  28
HETATM   28  O4  UNL     1      -7.093  46.582 -33.882  1.00  0.00    -0.398 OA
HETATM   29  H28 UNL     1      -8.053  46.422 -33.992  1.00  0.00     0.209 HD
ENDBRANCH  27  28
ENDBRANCH  23  27
BRANCH  24  30
HETATM   30  O5  UNL     1      -5.994  44.229 -33.077  1.00  0.00    -0.390 OA
HETATM   31  H30 UNL     1      -5.212  44.295 -32.494  1.00  0.00     0.210 HD
ENDBRANCH  24  30
BRANCH  25  32
HETATM   32  O6  UNL     1      -7.773  42.027 -31.610  1.00  0.00    -0.390 OA
HETATM   33  H32 UNL     1      -8.722  42.228 -31.483  1.00  0.00     0.210 HD
ENDBRANCH  25  32
BRANCH  26  34
HETATM   34  O7  UNL     1      -9.051  43.889 -29.998  1.00  0.00    -0.388 OA
HETATM   35  H34 UNL     1      -9.267  44.573 -29.329  1.00  0.00     0.210 HD
ENDBRANCH  26  34
ENDBRANCH  20  21
ENDBRANCH   7  20
BRANCH  10  36
HETATM   36  O8  UNL     1      -9.715  43.929 -24.528  1.00  0.00    -0.396 OA
HETATM   37  H39 UNL     1      -9.771  43.163 -25.128  1.00  0.00     0.210 HD
ENDBRANCH  10  36
BRANCH   1  38
HETATM   38  C7  UNL     1      -1.765  49.609 -23.996  1.00  0.00    -0.007 C 
HETATM   39  C8  UNL     1      -2.143  49.434 -22.519  1.00  0.00     0.011 C 
BRANCH  38  40
HETATM   40  C6  UNL     1      -1.647  51.126 -24.291  1.00  0.00     0.087 C 
BRANCH  40  41
HETATM   41  C5  UNL     1      -0.209  51.604 -24.435  1.00  0.00     0.149 C 
HETATM   42  O1  UNL     1       0.387  52.153 -23.512  1.00  0.00    -0.293 OA
BRANCH  41  43
HETATM   43  C4  UNL     1       0.447  51.325 -25.754  1.00  0.00     0.052 C 
HETATM   44  C2  UNL     1       0.499  52.169 -26.803  1.00  0.00    -0.084 C 
HETATM   45  C1  UNL     1      -0.089  53.553 -26.809  1.00  0.00     0.043 C 
HETATM   46  C3  UNL     1       1.177  51.759 -28.082  1.00  0.00     0.043 C 
ENDBRANCH  41  43
ENDBRANCH  40  41
ENDBRANCH  38  40
ENDBRANCH   1  38
TORSDOF 12
ENDMDL
MODEL 7
REMARK minimizedAffinity -10.0050058
REMARK CNNscore 0.359165758
REMARK CNNaffinity 6.97088957
REMARK  12 active torsions:
REMARK  status: ('A' for Active; 'I' for Inactive)
REMARK    1  A    between atoms: C4_4  and  C5_5 
REMARK    2  A    between atoms: C5_5  and  C6_7 
REMARK    3  A    between atoms: C6_7  and  C7_8 
REMARK    4  A    between atoms: C7_8  and  C9_10 
REMARK    5  A    between atoms: C15_16  and  O2_17 
REMARK    6  A    between atoms: O2_17  and  C16_18 
REMARK    7  A    between atoms: C17_20  and  C18_21 
REMARK    8  A    between atoms: C18_21  and  O4_22 
REMARK    9  A    between atoms: C19_23  and  O5_24 
REMARK   10  A    between atoms: C20_25  and  O6_26 
REMARK   11  A    between atoms: C21_27  and  O7_28 
REMARK   12  A    between atoms: C24_31  and  O8_32 
ROOT
HETATM    1  C9  UNL     1      -2.352  50.857 -23.989  1.00  0.00    -0.002 C 
HETATM    2  C10 UNL     1      -3.479  51.801 -24.466  1.00  0.00     0.006 C 
HETATM    3  C11 UNL     1      -4.800  51.111 -24.072  1.00  0.00     0.006 C 
HETATM    4  C12 UNL     1      -4.375  49.765 -23.481  1.00  0.00     0.002 C 
HETATM    5  C13 UNL     1      -5.353  49.052 -22.535  1.00  0.00     0.022 C 
HETATM    6  C14 UNL     1      -6.648  48.636 -23.261  1.00  0.00     0.042 C 
HETATM    7  C15 UNL     1      -6.737  47.153 -23.629  1.00  0.00     0.130 C 
HETATM    8  C22 UNL     1      -6.292  46.163 -22.512  1.00  0.00     0.029 C 
HETATM    9  C23 UNL     1      -7.330  45.095 -22.117  1.00  0.00     0.039 C 
HETATM   10  C24 UNL     1      -6.710  43.996 -21.243  1.00  0.00     0.118 C 
HETATM   11  C25 UNL     1      -5.905  44.543 -20.064  1.00  0.00     0.033 C 
HETATM   12  C26 UNL     1      -4.928  45.656 -20.479  1.00  0.00     0.016 C 
HETATM   13  C27 UNL     1      -5.617  46.814 -21.266  1.00  0.00    -0.014 C 
HETATM   14  C28 UNL     1      -6.600  47.496 -20.278  1.00  0.00     0.020 C 
HETATM   15  C29 UNL     1      -4.656  47.872 -21.838  1.00  0.00    -0.070 C 
HETATM   16  C30 UNL     1      -3.308  47.757 -21.836  1.00  0.00    -0.022 C 
HETATM   17  C31 UNL     1      -2.343  48.730 -22.480  1.00  0.00     0.037 C 
HETATM   18  C32 UNL     1      -3.008  50.074 -22.817  1.00  0.00    -0.033 C 
HETATM   19  C33 UNL     1      -3.134  50.903 -21.518  1.00  0.00     0.016 C 
ENDROOT
BRANCH   7  20
HETATM   20  O2  UNL     1      -8.081  46.854 -24.040  1.00  0.00    -0.353 OA
BRANCH  20  21
HETATM   21  C16 UNL     1      -8.790  47.984 -24.566  1.00  0.00     0.292 C 
HETATM   22  O3  UNL     1     -10.205  47.835 -24.433  1.00  0.00    -0.348 OA
HETATM   23  C17 UNL     1     -10.805  47.136 -25.535  1.00  0.00     0.179 C 
HETATM   24  C19 UNL     1     -10.758  48.054 -26.777  1.00  0.00     0.180 C 
HETATM   25  C20 UNL     1      -9.428  48.846 -26.840  1.00  0.00     0.183 C 
HETATM   26  C21 UNL     1      -8.328  48.163 -26.035  1.00  0.00     0.204 C 
BRANCH  23  27
HETATM   27  C18 UNL     1     -12.217  46.674 -25.137  1.00  0.00     0.198 C 
BRANCH  27  28
HETATM   28  O4  UNL     1     -13.256  47.445 -25.736  1.00  0.00    -0.398 OA
HETATM   29  H28 UNL     1     -13.173  47.298 -26.700  1.00  0.00     0.209 HD
ENDBRANCH  27  28
ENDBRANCH  23  27
BRANCH  24  30
HETATM   30  O5  UNL     1     -11.850  48.995 -26.765  1.00  0.00    -0.390 OA
HETATM   31  H30 UNL     1     -11.702  49.593 -26.005  1.00  0.00     0.210 HD
ENDBRANCH  24  30
BRANCH  25  32
HETATM   32  O6  UNL     1      -9.005  48.983 -28.204  1.00  0.00    -0.390 OA
HETATM   33  H32 UNL     1      -8.633  48.115 -28.456  1.00  0.00     0.210 HD
ENDBRANCH  25  32
BRANCH  26  34
HETATM   34  O7  UNL     1      -8.045  46.887 -26.662  1.00  0.00    -0.388 OA
HETATM   35  H34 UNL     1      -7.725  46.319 -25.929  1.00  0.00     0.210 HD
ENDBRANCH  26  34
ENDBRANCH  20  21
ENDBRANCH   7  20
BRANCH  10  36
HETATM   36  O8  UNL     1      -5.834  43.203 -22.046  1.00  0.00    -0.396 OA
HETATM   37  H39 UNL     1      -6.378  42.762 -22.724  1.00  0.00     0.210 HD
ENDBRANCH  10  36
BRANCH   1  38
HETATM   38  C7  UNL     1      -0.949  51.494 -23.819  1.00  0.00    -0.007 C 
HETATM   39  C8  UNL     1      -0.345  51.437 -22.408  1.00  0.00     0.011 C 
BRANCH  38  40
HETATM   40  C6  UNL     1      -1.020  52.979 -24.257  1.00  0.00     0.087 C 
BRANCH  40  41
HETATM   41  C5  UNL     1       0.195  53.433 -25.055  1.00  0.00     0.149 C 
HETATM   42  O1  UNL     1       1.100  54.086 -24.542  1.00  0.00    -0.293 OA
BRANCH  41  43
HETATM   43  C4  UNL     1       0.239  52.997 -26.489  1.00  0.00     0.052 C 
HETATM   44  C2  UNL     1       1.087  52.090 -27.012  1.00  0.00    -0.084 C 
HETATM   45  C1  UNL     1       2.130  51.348 -26.221  1.00  0.00     0.043 C 
HETATM   46  C3  UNL     1       1.038  51.751 -28.477  1.00  0.00     0.043 C 
ENDBRANCH  41  43
ENDBRANCH  40  41
ENDBRANCH  38  40
ENDBRANCH   1  38
TORSDOF 12
ENDMDL
MODEL 8
REMARK minimizedAffinity -8.36957359
REMARK CNNscore 0.330600083
REMARK CNNaffinity 6.71536398
REMARK  12 active torsions:
REMARK  status: ('A' for Active; 'I' for Inactive)
REMARK    1  A    between atoms: C4_4  and  C5_5 
REMARK    2  A    between atoms: C5_5  and  C6_7 
REMARK    3  A    between atoms: C6_7  and  C7_8 
REMARK    4  A    between atoms: C7_8  and  C9_10 
REMARK    5  A    between atoms: C15_16  and  O2_17 
REMARK    6  A    between atoms: O2_17  and  C16_18 
REMARK    7  A    between atoms: C17_20  and  C18_21 
REMARK    8  A    between atoms: C18_21  and  O4_22 
REMARK    9  A    between atoms: C19_23  and  O5_24 
REMARK   10  A    between atoms: C20_25  and  O6_26 
REMARK   11  A    between atoms: C21_27  and  O7_28 
REMARK   12  A    between atoms: C24_31  and  O8_32 
ROOT
HETATM    1  C9  UNL     1      -1.746  51.065 -22.099  1.00  0.00    -0.002 C 
HETATM    2  C10 UNL     1      -0.662  49.995 -21.833  1.00  0.00     0.006 C 
HETATM    3  C11 UNL     1      -1.424  48.704 -21.476  1.00  0.00     0.006 C 
HETATM    4  C12 UNL     1      -2.898  49.113 -21.456  1.00  0.00     0.002 C 
HETATM    5  C13 UNL     1      -3.955  48.015 -21.646  1.00  0.00     0.022 C 
HETATM    6  C14 UNL     1      -3.936  47.000 -20.486  1.00  0.00     0.042 C 
HETATM    7  C15 UNL     1      -5.055  47.173 -19.455  1.00  0.00     0.130 C 
HETATM    8  C22 UNL     1      -6.472  47.430 -20.049  1.00  0.00     0.029 C 
HETATM    9  C23 UNL     1      -7.572  46.452 -19.593  1.00  0.00     0.039 C 
HETATM   10  C24 UNL     1      -8.971  46.951 -19.981  1.00  0.00     0.118 C 
HETATM   11  C25 UNL     1      -9.080  47.366 -21.448  1.00  0.00     0.033 C 
HETATM   12  C26 UNL     1      -7.930  48.285 -21.891  1.00  0.00     0.016 C 
HETATM   13  C27 UNL     1      -6.519  47.691 -21.586  1.00  0.00    -0.014 C 
HETATM   14  C28 UNL     1      -6.375  46.421 -22.465  1.00  0.00     0.020 C 
HETATM   15  C29 UNL     1      -5.341  48.641 -21.867  1.00  0.00    -0.070 C 
HETATM   16  C30 UNL     1      -5.476  49.949 -22.185  1.00  0.00    -0.022 C 
HETATM   17  C31 UNL     1      -4.337  50.931 -22.368  1.00  0.00     0.037 C 
HETATM   18  C32 UNL     1      -2.981  50.226 -22.534  1.00  0.00    -0.033 C 
HETATM   19  C33 UNL     1      -2.879  49.685 -23.979  1.00  0.00     0.016 C 
ENDROOT
BRANCH   7  20
HETATM   20  O2  UNL     1      -5.086  46.019 -18.601  1.00  0.00    -0.353 OA
BRANCH  20  21
HETATM   21  C16 UNL     1      -4.210  44.964 -19.022  1.00  0.00     0.292 C 
HETATM   22  O3  UNL     1      -4.884  44.006 -19.841  1.00  0.00    -0.348 OA
HETATM   23  C17 UNL     1      -5.524  42.967 -19.083  1.00  0.00     0.179 C 
HETATM   24  C19 UNL     1      -4.429  42.062 -18.475  1.00  0.00     0.180 C 
HETATM   25  C20 UNL     1      -3.213  42.895 -17.998  1.00  0.00     0.183 C 
HETATM   26  C21 UNL     1      -3.594  44.349 -17.739  1.00  0.00     0.204 C 
BRANCH  23  27
HETATM   27  C18 UNL     1      -6.534  42.230 -19.980  1.00  0.00     0.198 C 
BRANCH  27  28
HETATM   28  O4  UNL     1      -6.034  41.951 -21.285  1.00  0.00    -0.398 OA
HETATM   29  H28 UNL     1      -5.279  41.342 -21.155  1.00  0.00     0.209 HD
ENDBRANCH  27  28
ENDBRANCH  23  27
BRANCH  24  30
HETATM   30  O5  UNL     1      -3.968  41.092 -19.437  1.00  0.00    -0.390 OA
HETATM   31  H30 UNL     1      -3.517  41.589 -20.149  1.00  0.00     0.210 HD
ENDBRANCH  24  30
BRANCH  25  32
HETATM   32  O6  UNL     1      -2.670  42.324 -16.799  1.00  0.00    -0.390 OA
HETATM   33  H32 UNL     1      -3.278  42.588 -16.080  1.00  0.00     0.210 HD
ENDBRANCH  25  32
BRANCH  26  34
HETATM   34  O7  UNL     1      -4.533  44.373 -16.635  1.00  0.00    -0.388 OA
HETATM   35  H34 UNL     1      -5.078  45.173 -16.794  1.00  0.00     0.210 HD
ENDBRANCH  26  34
ENDBRANCH  20  21
ENDBRANCH   7  20
BRANCH  10  36
HETATM   36  O8  UNL     1      -9.300  48.084 -19.175  1.00  0.00    -0.396 OA
HETATM   37  H39 UNL     1      -9.346  47.781 -18.250  1.00  0.00     0.210 HD
ENDBRANCH  10  36
BRANCH   1  38
HETATM   38  C7  UNL     1      -1.305  52.299 -22.927  1.00  0.00    -0.007 C 
HETATM   39  C8  UNL     1      -2.305  52.802 -23.978  1.00  0.00     0.011 C 
BRANCH  38  40
HETATM   40  C6  UNL     1       0.029  51.967 -23.644  1.00  0.00     0.087 C 
BRANCH  40  41
HETATM   41  C5  UNL     1       0.464  53.037 -24.635  1.00  0.00     0.149 C 
HETATM   42  O1  UNL     1       0.976  54.091 -24.267  1.00  0.00    -0.293 OA
BRANCH  41  43
HETATM   43  C4  UNL     1       0.271  52.707 -26.085  1.00  0.00     0.052 C 
HETATM   44  C2  UNL     1       1.121  51.997 -26.852  1.00  0.00    -0.084 C 
HETATM   45  C1  UNL     1       2.412  51.401 -26.362  1.00  0.00     0.043 C 
HETATM   46  C3  UNL     1       0.816  51.748 -28.305  1.00  0.00     0.043 C 
ENDBRANCH  41  43
ENDBRANCH  40  41
ENDBRANCH  38  40
ENDBRANCH   1  38
TORSDOF 12
ENDMDL
MODEL 9
REMARK minimizedAffinity -8.85014248
REMARK CNNscore 0.304117143
REMARK CNNaffinity 6.46089315
REMARK  12 active torsions:
REMARK  status: ('A' for Active; 'I' for Inactive)
REMARK    1  A    between atoms: C4_4  and  C5_5 
REMARK    2  A    between atoms: C5_5  and  C6_7 
REMARK    3  A    between atoms: C6_7  and  C7_8 
REMARK    4  A    between atoms: C7_8  and  C9_10 
REMARK    5  A    between atoms: C15_16  and  O2_17 
REMARK    6  A    between atoms: O2_17  and  C16_18 
REMARK    7  A    between atoms: C17_20  and  C18_21 
REMARK    8  A    between atoms: C18_21  and  O4_22 
REMARK    9  A    between atoms: C19_23  and  O5_24 
REMARK   10  A    between atoms: C20_25  and  O6_26 
REMARK   11  A    between atoms: C21_27  and  O7_28 
REMARK   12  A    between atoms: C24_31  and  O8_32 
ROOT
HETATM    1  C9  UNL     1      -2.293  51.274 -24.215  1.00  0.00    -0.002 C 
HETATM    2  C10 UNL     1      -3.453  52.157 -24.730  1.00  0.00     0.006 C 
HETATM    3  C11 UNL     1      -4.748  51.457 -24.276  1.00  0.00     0.006 C 
HETATM    4  C12 UNL     1      -4.278  50.160 -23.613  1.00  0.00     0.002 C 
HETATM    5  C13 UNL     1      -5.222  49.478 -22.611  1.00  0.00     0.022 C 
HETATM    6  C14 UNL     1      -6.515  48.985 -23.292  1.00  0.00     0.042 C 
HETATM    7  C15 UNL     1      -6.568  47.481 -23.571  1.00  0.00     0.130 C 
HETATM    8  C22 UNL     1      -6.080  46.571 -22.404  1.00  0.00     0.029 C 
HETATM    9  C23 UNL     1      -7.083  45.501 -21.931  1.00  0.00     0.039 C 
HETATM   10  C24 UNL     1      -6.420  44.474 -21.003  1.00  0.00     0.118 C 
HETATM   11  C25 UNL     1      -5.615  45.111 -19.871  1.00  0.00     0.033 C 
HETATM   12  C26 UNL     1      -4.676  46.223 -20.365  1.00  0.00     0.016 C 
HETATM   13  C27 UNL     1      -5.407  47.313 -21.209  1.00  0.00    -0.014 C 
HETATM   14  C28 UNL     1      -6.395  48.026 -20.248  1.00  0.00     0.020 C 
HETATM   15  C29 UNL     1      -4.484  48.361 -21.858  1.00  0.00    -0.070 C 
HETATM   16  C30 UNL     1      -3.133  48.283 -21.869  1.00  0.00    -0.022 C 
HETATM   17  C31 UNL     1      -2.204  49.241 -22.584  1.00  0.00     0.037 C 
HETATM   18  C32 UNL     1      -2.911  50.545 -22.990  1.00  0.00    -0.033 C 
HETATM   19  C33 UNL     1      -3.042  51.446 -21.740  1.00  0.00     0.016 C 
ENDROOT
BRANCH   7  20
HETATM   20  O2  UNL     1      -7.908  47.121 -23.942  1.00  0.00    -0.353 OA
BRANCH  20  21
HETATM   21  C16 UNL     1      -8.653  48.197 -24.530  1.00  0.00     0.292 C 
HETATM   22  O3  UNL     1     -10.062  48.030 -24.353  1.00  0.00    -0.348 OA
HETATM   23  C17 UNL     1     -10.672  47.242 -25.388  1.00  0.00     0.179 C 
HETATM   24  C19 UNL     1     -10.672  48.069 -26.693  1.00  0.00     0.180 C 
HETATM   25  C20 UNL     1      -9.361  48.882 -26.844  1.00  0.00     0.183 C 
HETATM   26  C21 UNL     1      -8.229  48.279 -26.020  1.00  0.00     0.204 C 
BRANCH  23  27
HETATM   27  C18 UNL     1     -12.064  46.781 -24.924  1.00  0.00     0.198 C 
BRANCH  27  28
HETATM   28  O4  UNL     1     -12.976  46.567 -25.998  1.00  0.00    -0.398 OA
HETATM   29  H28 UNL     1     -12.598  45.834 -26.524  1.00  0.00     0.209 HD
ENDBRANCH  27  28
ENDBRANCH  23  27
BRANCH  24  30
HETATM   30  O5  UNL     1     -11.784  48.988 -26.721  1.00  0.00    -0.390 OA
HETATM   31  H30 UNL     1     -11.631  49.641 -26.009  1.00  0.00     0.210 HD
ENDBRANCH  24  30
BRANCH  25  32
HETATM   32  O6  UNL     1      -8.973  48.929 -28.224  1.00  0.00    -0.390 OA
HETATM   33  H32 UNL     1      -8.588  48.052 -28.422  1.00  0.00     0.210 HD
ENDBRANCH  25  32
BRANCH  26  34
HETATM   34  O7  UNL     1      -7.933  46.968 -26.560  1.00  0.00    -0.388 OA
HETATM   35  H34 UNL     1      -7.584  46.460 -25.797  1.00  0.00     0.210 HD
ENDBRANCH  26  34
ENDBRANCH  20  21
ENDBRANCH   7  20
BRANCH  10  36
HETATM   36  O8  UNL     1      -5.534  43.658 -21.771  1.00  0.00    -0.396 OA
HETATM   37  H39 UNL     1      -6.075  43.163 -22.413  1.00  0.00     0.210 HD
ENDBRANCH  10  36
BRANCH   1  38
HETATM   38  C7  UNL     1      -0.906  51.958 -24.105  1.00  0.00    -0.007 C 
HETATM   39  C8  UNL     1       0.160  51.492 -25.107  1.00  0.00     0.011 C 
BRANCH  38  40
HETATM   40  C6  UNL     1      -0.355  51.739 -22.673  1.00  0.00     0.087 C 
BRANCH  40  41
HETATM   41  C5  UNL     1       0.651  52.798 -22.244  1.00  0.00     0.149 C 
HETATM   42  O1  UNL     1       0.899  53.777 -22.942  1.00  0.00    -0.293 OA
BRANCH  41  43
HETATM   43  C4  UNL     1       1.286  52.595 -20.901  1.00  0.00     0.052 C 
HETATM   44  C2  UNL     1       0.719  52.871 -19.710  1.00  0.00    -0.084 C 
HETATM   45  C1  UNL     1      -0.671  53.421 -19.539  1.00  0.00     0.043 C 
HETATM   46  C3  UNL     1       1.473  52.634 -18.430  1.00  0.00     0.043 C 
ENDBRANCH  41  43
ENDBRANCH  40  41
ENDBRANCH  38  40
ENDBRANCH   1  38
TORSDOF 12
ENDMDL
