MODEL 1
REMARK minimizedAffinity -8.15299129
REMARK CNNscore 0.805982292
REMARK CNNaffinity 7.23902655
REMARK  11 active torsions:
REMARK  status: ('A' for Active; 'I' for Inactive)
REMARK    1  A    between atoms: O1_2  and  C2_3 
REMARK    2  A    between atoms: C2_3  and  C3_4 
REMARK    3  A    between atoms: C3_4  and  C4_5 
REMARK    4  A    between atoms: C4_5  and  O2_6 
REMARK    5  A    between atoms: O2_6  and  C5_7 
REMARK    6  A    between atoms: C20_23  and  C21_24 
REMARK    7  A    between atoms: C21_24  and  O4_26 
REMARK    8  A    between atoms: C21_24  and  C23_27 
REMARK    9  A    between atoms: C23_27  and  O5_28 
REMARK   10  A    between atoms: C23_27  and  C24_29 
REMARK   11  A    between atoms: C34_40  and  O7_41 
ROOT
HETATM    1  C5  UNL     1      -3.491  50.099 -23.971  1.00  0.00     0.122 C 
HETATM    2  C6  UNL     1      -4.405  50.021 -22.741  1.00  0.00     0.033 C 
HETATM    3  C7  UNL     1      -4.130  48.757 -21.926  1.00  0.00     0.013 C 
HETATM    4  C8  UNL     1      -2.703  48.778 -21.296  1.00  0.00    -0.026 C 
HETATM    5  C9  UNL     1      -2.273  47.295 -21.125  1.00  0.00     0.016 C 
HETATM    6  C10 UNL     1      -1.672  49.414 -22.293  1.00  0.00     0.071 C 
HETATM    7  C11 UNL     1      -2.161  49.363 -23.750  1.00  0.00     0.045 C 
HETATM    8  C12 UNL     1      -1.172  50.807 -21.935  1.00  0.00     0.161 C 
HETATM    9  O3  UNL     1      -0.963  51.680 -22.776  1.00  0.00    -0.292 OA
HETATM   10  C13 UNL     1      -0.847  51.065 -20.512  1.00  0.00    -0.006 C 
HETATM   11  C14 UNL     1      -1.599  50.429 -19.595  1.00  0.00    -0.030 C 
HETATM   12  C15 UNL     1      -2.786  49.530 -19.899  1.00  0.00     0.027 C 
HETATM   13  C16 UNL     1      -3.220  48.610 -18.700  1.00  0.00     0.011 C 
HETATM   14  C17 UNL     1      -3.047  49.200 -17.279  1.00  0.00     0.014 C 
HETATM   15  C18 UNL     1      -1.624  49.766 -17.099  1.00  0.00    -0.002 C 
HETATM   16  C19 UNL     1      -0.604  48.614 -17.247  1.00  0.00     0.019 C 
HETATM   17  C20 UNL     1      -1.365  50.656 -15.821  1.00  0.00     0.034 C 
HETATM   18  C30 UNL     1      -0.282  51.706 -16.286  1.00  0.00     0.016 C 
HETATM   19  C31 UNL     1      -0.121  51.477 -17.801  1.00  0.00     0.026 C 
HETATM   20  C32 UNL     1       0.194  52.643 -18.723  1.00  0.00     0.013 C 
HETATM   21  C33 UNL     1       0.176  52.144 -20.193  1.00  0.00     0.043 C 
HETATM   22  C34 UNL     1      -1.462  50.856 -18.178  1.00  0.00     0.094 C 
ENDROOT
BRANCH  17  23
HETATM   23  C21 UNL     1      -1.156  50.030 -14.408  1.00  0.00     0.087 C 
HETATM   24  C22 UNL     1       0.113  50.518 -13.680  1.00  0.00     0.049 C 
BRANCH  23  25
HETATM   25  O4  UNL     1      -0.994  48.617 -14.587  1.00  0.00    -0.387 OA
HETATM   26  H33 UNL     1      -1.050  48.211 -13.704  1.00  0.00     0.210 HD
ENDBRANCH  23  25
BRANCH  23  27
HETATM   27  C23 UNL     1      -2.402  50.295 -13.472  1.00  0.00     0.181 C 
BRANCH  27  28
HETATM   28  O5  UNL     1      -3.593  50.324 -14.293  1.00  0.00    -0.390 OA
HETATM   29  H35 UNL     1      -3.760  51.276 -14.464  1.00  0.00     0.210 HD
ENDBRANCH  27  28
BRANCH  27  30
HETATM   30  C24 UNL     1      -2.380  51.616 -12.664  1.00  0.00     0.157 C 
HETATM   31  O6  UNL     1      -3.493  52.448 -13.072  1.00  0.00    -0.382 OA
HETATM   32  C25 UNL     1      -3.823  53.325 -11.982  1.00  0.00     0.172 C 
HETATM   33  C26 UNL     1      -2.996  52.904 -10.768  1.00  0.00     0.012 C 
HETATM   34  C27 UNL     1      -1.818  53.854 -10.533  1.00  0.00     0.012 C 
HETATM   35  C28 UNL     1      -2.531  51.495 -11.138  1.00  0.00     0.019 C 
HETATM   36  C29 UNL     1      -3.557  50.462 -10.663  1.00  0.00     0.013 C 
ENDBRANCH  27  30
ENDBRANCH  23  27
ENDBRANCH  17  23
BRANCH  22  37
HETATM   37  O7  UNL     1      -2.491  51.858 -18.003  1.00  0.00    -0.384 OA
HETATM   38  H54 UNL     1      -2.521  52.417 -18.798  1.00  0.00     0.211 HD
ENDBRANCH  22  37
BRANCH   1  39
HETATM   39  O2  UNL     1      -4.210  49.502 -25.059  1.00  0.00    -0.386 OA
BRANCH  39  40
HETATM   40  C4  UNL     1      -3.493  48.519 -25.809  1.00  0.00     0.170 C 
BRANCH  40  41
HETATM   41  C3  UNL     1      -3.447  48.870 -27.294  1.00  0.00     0.052 C 
BRANCH  41  42
HETATM   42  C2  UNL     1      -2.937  50.288 -27.529  1.00  0.00     0.169 C 
BRANCH  42  43
HETATM   43  O1  UNL     1      -1.649  50.513 -26.960  1.00  0.00    -0.396 OA
HETATM   44  C1  UNL     1      -0.878  51.474 -27.671  1.00  0.00     0.201 C 
ENDBRANCH  42  43
ENDBRANCH  41  42
ENDBRANCH  40  41
ENDBRANCH  39  40
ENDBRANCH   1  39
TORSDOF 11
ENDMDL
MODEL 2
REMARK minimizedAffinity -9.40946198
REMARK CNNscore 0.799544036
REMARK CNNaffinity 7.10197067
REMARK  11 active torsions:
REMARK  status: ('A' for Active; 'I' for Inactive)
REMARK    1  A    between atoms: O1_2  and  C2_3 
REMARK    2  A    between atoms: C2_3  and  C3_4 
REMARK    3  A    between atoms: C3_4  and  C4_5 
REMARK    4  A    between atoms: C4_5  and  O2_6 
REMARK    5  A    between atoms: O2_6  and  C5_7 
REMARK    6  A    between atoms: C20_23  and  C21_24 
REMARK    7  A    between atoms: C21_24  and  O4_26 
REMARK    8  A    between atoms: C21_24  and  C23_27 
REMARK    9  A    between atoms: C23_27  and  O5_28 
REMARK   10  A    between atoms: C23_27  and  C24_29 
REMARK   11  A    between atoms: C34_40  and  O7_41 
ROOT
HETATM    1  C5  UNL     1      -1.932  52.640 -24.977  1.00  0.00     0.122 C 
HETATM    2  C6  UNL     1      -3.104  52.522 -23.994  1.00  0.00     0.033 C 
HETATM    3  C7  UNL     1      -3.316  51.073 -23.556  1.00  0.00     0.013 C 
HETATM    4  C8  UNL     1      -2.111  50.540 -22.722  1.00  0.00    -0.026 C 
HETATM    5  C9  UNL     1      -2.074  49.002 -22.930  1.00  0.00     0.016 C 
HETATM    6  C10 UNL     1      -0.759  51.087 -23.302  1.00  0.00     0.071 C 
HETATM    7  C11 UNL     1      -0.889  51.531 -24.768  1.00  0.00     0.045 C 
HETATM    8  C12 UNL     1      -0.061  52.153 -22.469  1.00  0.00     0.161 C 
HETATM    9  O3  UNL     1       0.529  53.111 -22.967  1.00  0.00    -0.292 OA
HETATM   10  C13 UNL     1      -0.032  51.956 -21.001  1.00  0.00    -0.006 C 
HETATM   11  C14 UNL     1      -1.100  51.351 -20.451  1.00  0.00    -0.030 C 
HETATM   12  C15 UNL     1      -2.352  50.921 -21.199  1.00  0.00     0.027 C 
HETATM   13  C16 UNL     1      -3.250  49.896 -20.415  1.00  0.00     0.011 C 
HETATM   14  C17 UNL     1      -3.290  50.049 -18.875  1.00  0.00     0.014 C 
HETATM   15  C18 UNL     1      -1.861  50.134 -18.303  1.00  0.00    -0.002 C 
HETATM   16  C19 UNL     1      -1.117  48.815 -18.616  1.00  0.00     0.019 C 
HETATM   17  C20 UNL     1      -1.720  50.578 -16.794  1.00  0.00     0.034 C 
HETATM   18  C30 UNL     1      -0.352  51.364 -16.742  1.00  0.00     0.016 C 
HETATM   19  C31 UNL     1       0.107  51.475 -18.208  1.00  0.00     0.026 C 
HETATM   20  C32 UNL     1       0.881  52.695 -18.679  1.00  0.00     0.013 C 
HETATM   21  C33 UNL     1       1.100  52.596 -20.212  1.00  0.00     0.043 C 
HETATM   22  C34 UNL     1      -1.211  51.365 -18.968  1.00  0.00     0.094 C 
ENDROOT
BRANCH  17  23
HETATM   23  C21 UNL     1      -1.995  49.593 -15.616  1.00  0.00     0.087 C 
HETATM   24  C22 UNL     1      -1.552  48.141 -15.888  1.00  0.00     0.049 C 
BRANCH  23  25
HETATM   25  O4  UNL     1      -3.415  49.547 -15.422  1.00  0.00    -0.387 OA
HETATM   26  H33 UNL     1      -3.570  49.085 -14.578  1.00  0.00     0.210 HD
ENDBRANCH  23  25
BRANCH  23  27
HETATM   27  C23 UNL     1      -1.304  50.086 -14.282  1.00  0.00     0.181 C 
BRANCH  27  28
HETATM   28  O5  UNL     1      -0.773  48.933 -13.589  1.00  0.00    -0.390 OA
HETATM   29  H35 UNL     1      -1.455  48.699 -12.924  1.00  0.00     0.210 HD
ENDBRANCH  27  28
BRANCH  27  30
HETATM   30  C24 UNL     1      -2.216  50.833 -13.278  1.00  0.00     0.157 C 
HETATM   31  O6  UNL     1      -2.222  50.125 -12.015  1.00  0.00    -0.382 OA
HETATM   32  C25 UNL     1      -2.532  51.066 -10.973  1.00  0.00     0.172 C 
HETATM   33  C26 UNL     1      -2.547  52.465 -11.587  1.00  0.00     0.012 C 
HETATM   34  C27 UNL     1      -3.977  52.971 -11.796  1.00  0.00     0.012 C 
HETATM   35  C28 UNL     1      -1.807  52.269 -12.911  1.00  0.00     0.019 C 
HETATM   36  C29 UNL     1      -0.305  52.490 -12.710  1.00  0.00     0.013 C 
ENDBRANCH  27  30
ENDBRANCH  23  27
ENDBRANCH  17  23
BRANCH  22  37
HETATM   37  O7  UNL     1      -2.003  52.540 -18.676  1.00  0.00    -0.384 OA
HETATM   38  H54 UNL     1      -1.720  53.260 -19.264  1.00  0.00     0.211 HD
ENDBRANCH  22  37
BRANCH   1  39
HETATM   39  O2  UNL     1      -2.488  52.550 -26.296  1.00  0.00    -0.386 OA
BRANCH  39  40
HETATM   40  C4  UNL     1      -1.585  52.830 -27.368  1.00  0.00     0.170 C 
BRANCH  40  41
HETATM   41  C3  UNL     1      -0.724  51.615 -27.708  1.00  0.00     0.052 C 
BRANCH  41  42
HETATM   42  C2  UNL     1       0.678  52.018 -28.154  1.00  0.00     0.169 C 
BRANCH  42  43
HETATM   43  O1  UNL     1       1.487  52.485 -27.078  1.00  0.00    -0.396 OA
HETATM   44  C1  UNL     1       2.457  51.537 -26.648  1.00  0.00     0.201 C 
ENDBRANCH  42  43
ENDBRANCH  41  42
ENDBRANCH  40  41
ENDBRANCH  39  40
ENDBRANCH   1  39
TORSDOF 11
ENDMDL
MODEL 3
REMARK minimizedAffinity -9.3144598
REMARK CNNscore 0.773598731
REMARK CNNaffinity 6.95707083
REMARK  11 active torsions:
REMARK  status: ('A' for Active; 'I' for Inactive)
REMARK    1  A    between atoms: O1_2  and  C2_3 
REMARK    2  A    between atoms: C2_3  and  C3_4 
REMARK    3  A    between atoms: C3_4  and  C4_5 
REMARK    4  A    between atoms: C4_5  and  O2_6 
REMARK    5  A    between atoms: O2_6  and  C5_7 
REMARK    6  A    between atoms: C20_23  and  C21_24 
REMARK    7  A    between atoms: C21_24  and  O4_26 
REMARK    8  A    between atoms: C21_24  and  C23_27 
REMARK    9  A    between atoms: C23_27  and  O5_28 
REMARK   10  A    between atoms: C23_27  and  C24_29 
REMARK   11  A    between atoms: C34_40  and  O7_41 
ROOT
HETATM    1  C5  UNL     1      -2.207  52.596 -25.070  1.00  0.00     0.122 C 
HETATM    2  C6  UNL     1      -3.358  52.478 -24.061  1.00  0.00     0.033 C 
HETATM    3  C7  UNL     1      -3.570  51.027 -23.629  1.00  0.00     0.013 C 
HETATM    4  C8  UNL     1      -2.350  50.480 -22.827  1.00  0.00    -0.026 C 
HETATM    5  C9  UNL     1      -2.328  48.943 -23.047  1.00  0.00     0.016 C 
HETATM    6  C10 UNL     1      -1.008  51.022 -23.433  1.00  0.00     0.071 C 
HETATM    7  C11 UNL     1      -1.168  51.478 -24.892  1.00  0.00     0.045 C 
HETATM    8  C12 UNL     1      -0.283  52.078 -22.608  1.00  0.00     0.161 C 
HETATM    9  O3  UNL     1       0.302  53.035 -23.112  1.00  0.00    -0.292 OA
HETATM   10  C13 UNL     1      -0.222  51.869 -21.143  1.00  0.00    -0.006 C 
HETATM   11  C14 UNL     1      -1.282  51.267 -20.573  1.00  0.00    -0.030 C 
HETATM   12  C15 UNL     1      -2.553  50.851 -21.296  1.00  0.00     0.027 C 
HETATM   13  C16 UNL     1      -3.441  49.826 -20.499  1.00  0.00     0.011 C 
HETATM   14  C17 UNL     1      -3.444  49.969 -18.958  1.00  0.00     0.014 C 
HETATM   15  C18 UNL     1      -2.002  50.039 -18.418  1.00  0.00    -0.002 C 
HETATM   16  C19 UNL     1      -1.275  48.718 -18.757  1.00  0.00     0.019 C 
HETATM   17  C20 UNL     1      -1.824  50.470 -16.909  1.00  0.00     0.034 C 
HETATM   18  C30 UNL     1      -0.449  51.247 -16.882  1.00  0.00     0.016 C 
HETATM   19  C31 UNL     1      -0.023  51.366 -18.358  1.00  0.00     0.026 C 
HETATM   20  C32 UNL     1       0.748  52.584 -18.837  1.00  0.00     0.013 C 
HETATM   21  C33 UNL     1       0.932  52.495 -20.375  1.00  0.00     0.043 C 
HETATM   22  C34 UNL     1      -1.359  51.270 -19.088  1.00  0.00     0.094 C 
ENDROOT
BRANCH  17  23
HETATM   23  C21 UNL     1      -2.079  49.479 -15.732  1.00  0.00     0.087 C 
HETATM   24  C22 UNL     1      -1.661  48.024 -16.028  1.00  0.00     0.049 C 
BRANCH  23  25
HETATM   25  O4  UNL     1      -3.493  49.448 -15.500  1.00  0.00    -0.387 OA
HETATM   26  H33 UNL     1      -3.631  48.981 -14.656  1.00  0.00     0.210 HD
ENDBRANCH  23  25
BRANCH  23  27
HETATM   27  C23 UNL     1      -1.346  49.951 -14.414  1.00  0.00     0.181 C 
BRANCH  27  28
HETATM   28  O5  UNL     1      -0.863  48.781 -13.714  1.00  0.00    -0.390 OA
HETATM   29  H35 UNL     1      -1.547  48.589 -13.037  1.00  0.00     0.210 HD
ENDBRANCH  27  28
BRANCH  27  30
HETATM   30  C24 UNL     1      -2.205  50.754 -13.406  1.00  0.00     0.157 C 
HETATM   31  O6  UNL     1      -2.192  50.086 -12.122  1.00  0.00    -0.382 OA
HETATM   32  C25 UNL     1      -2.444  51.067 -11.101  1.00  0.00     0.172 C 
HETATM   33  C26 UNL     1      -2.438  52.446 -11.758  1.00  0.00     0.012 C 
HETATM   34  C27 UNL     1      -3.859  52.987 -11.941  1.00  0.00     0.012 C 
HETATM   35  C28 UNL     1      -1.745  52.189 -13.097  1.00  0.00     0.019 C 
HETATM   36  C29 UNL     1      -0.232  52.373 -12.948  1.00  0.00     0.013 C 
ENDBRANCH  27  30
ENDBRANCH  23  27
ENDBRANCH  17  23
BRANCH  22  37
HETATM   37  O7  UNL     1      -2.136  52.448 -18.770  1.00  0.00    -0.384 OA
HETATM   38  H54 UNL     1      -1.861  53.171 -19.358  1.00  0.00     0.211 HD
ENDBRANCH  22  37
BRANCH   1  39
HETATM   39  O2  UNL     1      -2.794  52.520 -26.377  1.00  0.00    -0.386 OA
BRANCH  39  40
HETATM   40  C4  UNL     1      -2.140  51.646 -27.298  1.00  0.00     0.170 C 
BRANCH  40  41
HETATM   41  C3  UNL     1      -3.115  50.642 -27.910  1.00  0.00     0.052 C 
BRANCH  41  42
HETATM   42  C2  UNL     1      -3.154  49.335 -27.125  1.00  0.00     0.169 C 
BRANCH  42  43
HETATM   43  O1  UNL     1      -3.535  48.221 -27.927  1.00  0.00    -0.396 OA
HETATM   44  C1  UNL     1      -4.835  48.349 -28.491  1.00  0.00     0.201 C 
ENDBRANCH  42  43
ENDBRANCH  41  42
ENDBRANCH  40  41
ENDBRANCH  39  40
ENDBRANCH   1  39
TORSDOF 11
ENDMDL
MODEL 4
REMARK minimizedAffinity -7.28182602
REMARK CNNscore 0.772321045
REMARK CNNaffinity 7.16047049
REMARK  11 active torsions:
REMARK  status: ('A' for Active; 'I' for Inactive)
REMARK    1  A    between atoms: O1_2  and  C2_3 
REMARK    2  A    between atoms: C2_3  and  C3_4 
REMARK    3  A    between atoms: C3_4  and  C4_5 
REMARK    4  A    between atoms: C4_5  and  O2_6 
REMARK    5  A    between atoms: O2_6  and  C5_7 
REMARK    6  A    between atoms: C20_23  and  C21_24 
REMARK    7  A    between atoms: C21_24  and  O4_26 
REMARK    8  A    between atoms: C21_24  and  C23_27 
REMARK    9  A    between atoms: C23_27  and  O5_28 
REMARK   10  A    between atoms: C23_27  and  C24_29 
REMARK   11  A    between atoms: C34_40  and  O7_41 
ROOT
HETATM    1  C5  UNL     1      -1.343  51.153 -18.713  1.00  0.00     0.122 C 
HETATM    2  C6  UNL     1      -1.861  51.813 -19.998  1.00  0.00     0.033 C 
HETATM    3  C7  UNL     1      -1.647  50.908 -21.211  1.00  0.00     0.013 C 
HETATM    4  C8  UNL     1      -2.506  49.609 -21.120  1.00  0.00    -0.026 C 
HETATM    5  C9  UNL     1      -1.752  48.522 -21.932  1.00  0.00     0.016 C 
HETATM    6  C10 UNL     1      -2.555  49.088 -19.641  1.00  0.00     0.071 C 
HETATM    7  C11 UNL     1      -1.387  49.619 -18.795  1.00  0.00     0.045 C 
HETATM    8  C12 UNL     1      -3.881  49.270 -18.915  1.00  0.00     0.161 C 
HETATM    9  O3  UNL     1      -3.956  49.568 -17.724  1.00  0.00    -0.292 OA
HETATM   10  C13 UNL     1      -5.118  48.983 -19.679  1.00  0.00    -0.006 C 
HETATM   11  C14 UNL     1      -5.095  49.267 -20.994  1.00  0.00    -0.030 C 
HETATM   12  C15 UNL     1      -3.938  49.914 -21.736  1.00  0.00     0.027 C 
HETATM   13  C16 UNL     1      -4.010  49.762 -23.299  1.00  0.00     0.011 C 
HETATM   14  C17 UNL     1      -5.424  49.764 -23.929  1.00  0.00     0.014 C 
HETATM   15  C18 UNL     1      -6.342  48.763 -23.199  1.00  0.00    -0.002 C 
HETATM   16  C19 UNL     1      -5.765  47.339 -23.368  1.00  0.00     0.019 C 
HETATM   17  C20 UNL     1      -7.886  48.843 -23.521  1.00  0.00     0.034 C 
HETATM   18  C30 UNL     1      -8.591  48.423 -22.172  1.00  0.00     0.016 C 
HETATM   19  C31 UNL     1      -7.452  48.305 -21.141  1.00  0.00     0.026 C 
HETATM   20  C32 UNL     1      -7.699  48.654 -19.683  1.00  0.00     0.013 C 
HETATM   21  C33 UNL     1      -6.359  48.563 -18.906  1.00  0.00     0.043 C 
HETATM   22  C34 UNL     1      -6.388  49.225 -21.729  1.00  0.00     0.094 C 
ENDROOT
BRANCH  17  23
HETATM   23  C21 UNL     1      -8.488  48.244 -24.829  1.00  0.00     0.087 C 
HETATM   24  C22 UNL     1      -7.436  47.812 -25.871  1.00  0.00     0.049 C 
BRANCH  23  25
HETATM   25  O4  UNL     1      -9.265  49.276 -25.452  1.00  0.00    -0.387 OA
HETATM   26  H33 UNL     1      -9.784  48.852 -26.159  1.00  0.00     0.210 HD
ENDBRANCH  23  25
BRANCH  23  27
HETATM   27  C23 UNL     1      -9.423  47.007 -24.518  1.00  0.00     0.181 C 
BRANCH  27  28
HETATM   28  O5  UNL     1      -8.640  45.798 -24.649  1.00  0.00    -0.390 OA
HETATM   29  H35 UNL     1      -8.828  45.470 -25.554  1.00  0.00     0.210 HD
ENDBRANCH  27  28
BRANCH  27  30
HETATM   30  C24 UNL     1     -10.661  46.842 -25.433  1.00  0.00     0.157 C 
HETATM   31  O6  UNL     1     -10.651  45.519 -26.023  1.00  0.00    -0.382 OA
HETATM   32  C25 UNL     1     -12.005  45.160 -26.346  1.00  0.00     0.172 C 
HETATM   33  C26 UNL     1     -12.930  46.231 -25.770  1.00  0.00     0.012 C 
HETATM   34  C27 UNL     1     -13.440  47.178 -26.859  1.00  0.00     0.012 C 
HETATM   35  C28 UNL     1     -12.038  46.949 -24.756  1.00  0.00     0.019 C 
HETATM   36  C29 UNL     1     -12.148  46.271 -23.387  1.00  0.00     0.013 C 
ENDBRANCH  27  30
ENDBRANCH  23  27
ENDBRANCH  17  23
BRANCH  22  37
HETATM   37  O7  UNL     1      -6.880  50.584 -21.670  1.00  0.00    -0.384 OA
HETATM   38  H54 UNL     1      -6.705  50.941 -20.782  1.00  0.00     0.211 HD
ENDBRANCH  22  37
BRANCH   1  39
HETATM   39  O2  UNL     1       0.009  51.598 -18.536  1.00  0.00    -0.386 OA
BRANCH  39  40
HETATM   40  C4  UNL     1       0.245  52.981 -18.809  1.00  0.00     0.170 C 
BRANCH  40  41
HETATM   41  C3  UNL     1       1.522  53.183 -19.621  1.00  0.00     0.052 C 
BRANCH  41  42
HETATM   42  C2  UNL     1       1.230  53.361 -21.107  1.00  0.00     0.169 C 
BRANCH  42  43
HETATM   43  O1  UNL     1       1.623  54.640 -21.598  1.00  0.00    -0.396 OA
HETATM   44  C1  UNL     1       1.463  54.779 -23.004  1.00  0.00     0.201 C 
ENDBRANCH  42  43
ENDBRANCH  41  42
ENDBRANCH  40  41
ENDBRANCH  39  40
ENDBRANCH   1  39
TORSDOF 11
ENDMDL
MODEL 5
REMARK minimizedAffinity -8.45244598
REMARK CNNscore 0.771594584
REMARK CNNaffinity 7.06246138
REMARK  11 active torsions:
REMARK  status: ('A' for Active; 'I' for Inactive)
REMARK    1  A    between atoms: O1_2  and  C2_3 
REMARK    2  A    between atoms: C2_3  and  C3_4 
REMARK    3  A    between atoms: C3_4  and  C4_5 
REMARK    4  A    between atoms: C4_5  and  O2_6 
REMARK    5  A    between atoms: O2_6  and  C5_7 
REMARK    6  A    between atoms: C20_23  and  C21_24 
REMARK    7  A    between atoms: C21_24  and  O4_26 
REMARK    8  A    between atoms: C21_24  and  C23_27 
REMARK    9  A    between atoms: C23_27  and  O5_28 
REMARK   10  A    between atoms: C23_27  and  C24_29 
REMARK   11  A    between atoms: C34_40  and  O7_41 
ROOT
HETATM    1  C5  UNL     1      -2.385  52.220 -25.030  1.00  0.00     0.122 C 
HETATM    2  C6  UNL     1      -3.585  52.109 -24.081  1.00  0.00     0.033 C 
HETATM    3  C7  UNL     1      -3.821  50.661 -23.653  1.00  0.00     0.013 C 
HETATM    4  C8  UNL     1      -2.644  50.116 -22.787  1.00  0.00    -0.026 C 
HETATM    5  C9  UNL     1      -2.614  48.578 -22.998  1.00  0.00     0.016 C 
HETATM    6  C10 UNL     1      -1.272  50.653 -23.327  1.00  0.00     0.071 C 
HETATM    7  C11 UNL     1      -1.358  51.102 -24.795  1.00  0.00     0.045 C 
HETATM    8  C12 UNL     1      -0.589  51.712 -22.473  1.00  0.00     0.161 C 
HETATM    9  O3  UNL     1       0.023  52.666 -22.951  1.00  0.00    -0.292 OA
HETATM   10  C13 UNL     1      -0.602  51.511 -21.005  1.00  0.00    -0.006 C 
HETATM   11  C14 UNL     1      -1.690  50.914 -20.486  1.00  0.00    -0.030 C 
HETATM   12  C15 UNL     1      -2.924  50.495 -21.270  1.00  0.00     0.027 C 
HETATM   13  C16 UNL     1      -3.852  49.476 -20.514  1.00  0.00     0.011 C 
HETATM   14  C17 UNL     1      -3.933  49.626 -18.976  1.00  0.00     0.014 C 
HETATM   15  C18 UNL     1      -2.520  49.697 -18.364  1.00  0.00    -0.002 C 
HETATM   16  C19 UNL     1      -1.778  48.373 -18.659  1.00  0.00     0.019 C 
HETATM   17  C20 UNL     1      -2.417  50.135 -16.851  1.00  0.00     0.034 C 
HETATM   18  C30 UNL     1      -1.045  50.910 -16.758  1.00  0.00     0.016 C 
HETATM   19  C31 UNL     1      -0.545  51.022 -18.211  1.00  0.00     0.026 C 
HETATM   20  C32 UNL     1       0.252  52.236 -18.656  1.00  0.00     0.013 C 
HETATM   21  C33 UNL     1       0.513  52.139 -20.183  1.00  0.00     0.043 C 
HETATM   22  C34 UNL     1      -1.842  50.924 -19.007  1.00  0.00     0.094 C 
ENDROOT
BRANCH  17  23
HETATM   23  C21 UNL     1      -2.733  49.150 -15.683  1.00  0.00     0.087 C 
HETATM   24  C22 UNL     1      -3.797  48.087 -16.022  1.00  0.00     0.049 C 
BRANCH  23  25
HETATM   25  O4  UNL     1      -3.274  49.926 -14.605  1.00  0.00    -0.387 OA
HETATM   26  H33 UNL     1      -3.295  49.347 -13.822  1.00  0.00     0.210 HD
ENDBRANCH  23  25
BRANCH  23  27
HETATM   27  C23 UNL     1      -1.427  48.411 -15.186  1.00  0.00     0.181 C 
BRANCH  27  28
HETATM   28  O5  UNL     1      -1.806  47.437 -14.185  1.00  0.00    -0.390 OA
HETATM   29  H35 UNL     1      -1.651  47.883 -13.325  1.00  0.00     0.210 HD
ENDBRANCH  27  28
BRANCH  27  30
HETATM   30  C24 UNL     1      -0.336  49.307 -14.550  1.00  0.00     0.157 C 
HETATM   31  O6  UNL     1      -0.437  49.240 -13.108  1.00  0.00    -0.382 OA
HETATM   32  C25 UNL     1       0.854  49.540 -12.551  1.00  0.00     0.172 C 
HETATM   33  C26 UNL     1       1.858  49.625 -13.700  1.00  0.00     0.012 C 
HETATM   34  C27 UNL     1       2.207  51.078 -14.034  1.00  0.00     0.012 C 
HETATM   35  C28 UNL     1       1.126  48.932 -14.850  1.00  0.00     0.019 C 
HETATM   36  C29 UNL     1       1.431  47.431 -14.838  1.00  0.00     0.013 C 
ENDBRANCH  27  30
ENDBRANCH  23  27
ENDBRANCH  17  23
BRANCH  22  37
HETATM   37  O7  UNL     1      -2.632  52.105 -18.734  1.00  0.00    -0.384 OA
HETATM   38  H54 UNL     1      -2.326  52.824 -19.311  1.00  0.00     0.211 HD
ENDBRANCH  22  37
BRANCH   1  39
HETATM   39  O2  UNL     1      -2.905  52.139 -26.365  1.00  0.00    -0.386 OA
BRANCH  39  40
HETATM   40  C4  UNL     1      -2.136  52.803 -27.370  1.00  0.00     0.170 C 
BRANCH  40  41
HETATM   41  C3  UNL     1      -0.891  53.461 -26.780  1.00  0.00     0.052 C 
BRANCH  41  42
HETATM   42  C2  UNL     1       0.392  52.859 -27.343  1.00  0.00     0.169 C 
BRANCH  42  43
HETATM   43  O1  UNL     1       1.406  52.694 -26.355  1.00  0.00    -0.396 OA
HETATM   44  C1  UNL     1       2.255  51.579 -26.597  1.00  0.00     0.201 C 
ENDBRANCH  42  43
ENDBRANCH  41  42
ENDBRANCH  40  41
ENDBRANCH  39  40
ENDBRANCH   1  39
TORSDOF 11
ENDMDL
MODEL 6
REMARK minimizedAffinity -8.09631634
REMARK CNNscore 0.703924358
REMARK CNNaffinity 6.79995155
REMARK  11 active torsions:
REMARK  status: ('A' for Active; 'I' for Inactive)
REMARK    1  A    between atoms: O1_2  and  C2_3 
REMARK    2  A    between atoms: C2_3  and  C3_4 
REMARK    3  A    between atoms: C3_4  and  C4_5 
REMARK    4  A    between atoms: C4_5  and  O2_6 
REMARK    5  A    between atoms: O2_6  and  C5_7 
REMARK    6  A    between atoms: C20_23  and  C21_24 
REMARK    7  A    between atoms: C21_24  and  O4_26 
REMARK    8  A    between atoms: C21_24  and  C23_27 
REMARK    9  A    between atoms: C23_27  and  O5_28 
REMARK   10  A    between atoms: C23_27  and  C24_29 
REMARK   11  A    between atoms: C34_40  and  O7_41 
ROOT
HETATM    1  C5  UNL     1      -2.416  52.636 -24.350  1.00  0.00     0.122 C 
HETATM    2  C6  UNL     1      -3.611  52.373 -23.424  1.00  0.00     0.033 C 
HETATM    3  C7  UNL     1      -3.802  50.877 -23.175  1.00  0.00     0.013 C 
HETATM    4  C8  UNL     1      -2.608  50.268 -22.379  1.00  0.00    -0.026 C 
HETATM    5  C9  UNL     1      -2.531  48.768 -22.775  1.00  0.00     0.016 C 
HETATM    6  C10 UNL     1      -1.254  50.908 -22.847  1.00  0.00     0.071 C 
HETATM    7  C11 UNL     1      -1.356  51.529 -24.250  1.00  0.00     0.045 C 
HETATM    8  C12 UNL     1      -0.602  51.876 -21.869  1.00  0.00     0.161 C 
HETATM    9  O3  UNL     1      -0.020  52.899 -22.226  1.00  0.00    -0.292 OA
HETATM   10  C13 UNL     1      -0.607  51.497 -20.436  1.00  0.00    -0.006 C 
HETATM   11  C14 UNL     1      -1.676  50.809 -19.997  1.00  0.00    -0.030 C 
HETATM   12  C15 UNL     1      -2.897  50.451 -20.828  1.00  0.00     0.027 C 
HETATM   13  C16 UNL     1      -3.792  49.320 -20.204  1.00  0.00     0.011 C 
HETATM   14  C17 UNL     1      -3.876  49.279 -18.659  1.00  0.00     0.014 C 
HETATM   15  C18 UNL     1      -2.465  49.319 -18.039  1.00  0.00    -0.002 C 
HETATM   16  C19 UNL     1      -1.683  48.064 -18.492  1.00  0.00     0.019 C 
HETATM   17  C20 UNL     1      -2.373  49.573 -16.484  1.00  0.00     0.034 C 
HETATM   18  C30 UNL     1      -1.025  50.373 -16.295  1.00  0.00     0.016 C 
HETATM   19  C31 UNL     1      -0.531  50.675 -17.722  1.00  0.00     0.026 C 
HETATM   20  C32 UNL     1       0.228  51.958 -18.015  1.00  0.00     0.013 C 
HETATM   21  C33 UNL     1       0.489  52.055 -19.541  1.00  0.00     0.043 C 
HETATM   22  C34 UNL     1      -1.825  50.634 -18.527  1.00  0.00     0.094 C 
ENDROOT
BRANCH  17  23
HETATM   23  C21 UNL     1      -2.657  48.444 -15.445  1.00  0.00     0.087 C 
HETATM   24  C22 UNL     1      -3.664  47.380 -15.926  1.00  0.00     0.049 C 
BRANCH  23  25
HETATM   25  O4  UNL     1      -3.249  49.062 -14.295  1.00  0.00    -0.387 OA
HETATM   26  H33 UNL     1      -3.253  48.395 -13.586  1.00  0.00     0.210 HD
ENDBRANCH  23  25
BRANCH  23  27
HETATM   27  C23 UNL     1      -1.324  47.712 -15.013  1.00  0.00     0.181 C 
BRANCH  27  28
HETATM   28  O5  UNL     1      -1.451  46.306 -15.328  1.00  0.00    -0.390 OA
HETATM   29  H35 UNL     1      -1.731  45.882 -14.488  1.00  0.00     0.210 HD
ENDBRANCH  27  28
BRANCH  27  30
HETATM   30  C24 UNL     1      -0.951  47.805 -13.513  1.00  0.00     0.157 C 
HETATM   31  O6  UNL     1      -0.605  46.488 -13.021  1.00  0.00    -0.382 OA
HETATM   32  C25 UNL     1       0.275  46.646 -11.894  1.00  0.00     0.172 C 
HETATM   33  C26 UNL     1       0.642  48.125 -11.783  1.00  0.00     0.012 C 
HETATM   34  C27 UNL     1      -0.130  48.811 -10.652  1.00  0.00     0.012 C 
HETATM   35  C28 UNL     1       0.263  48.680 -13.157  1.00  0.00     0.019 C 
HETATM   36  C29 UNL     1       1.453  48.568 -14.114  1.00  0.00     0.013 C 
ENDBRANCH  27  30
ENDBRANCH  23  27
ENDBRANCH  17  23
BRANCH  22  37
HETATM   37  O7  UNL     1      -2.651  51.749 -18.115  1.00  0.00    -0.384 OA
HETATM   38  H54 UNL     1      -2.368  52.542 -18.600  1.00  0.00     0.211 HD
ENDBRANCH  22  37
BRANCH   1  39
HETATM   39  O2  UNL     1      -2.936  52.701 -25.686  1.00  0.00    -0.386 OA
BRANCH  39  40
HETATM   40  C4  UNL     1      -3.200  51.442 -26.308  1.00  0.00     0.170 C 
BRANCH  40  41
HETATM   41  C3  UNL     1      -2.582  51.365 -27.703  1.00  0.00     0.052 C 
BRANCH  41  42
HETATM   42  C2  UNL     1      -1.259  52.119 -27.782  1.00  0.00     0.169 C 
BRANCH  42  43
HETATM   43  O1  UNL     1      -1.432  53.531 -27.870  1.00  0.00    -0.396 OA
HETATM   44  C1  UNL     1      -0.234  54.262 -27.636  1.00  0.00     0.201 C 
ENDBRANCH  42  43
ENDBRANCH  41  42
ENDBRANCH  40  41
ENDBRANCH  39  40
ENDBRANCH   1  39
TORSDOF 11
ENDMDL
MODEL 7
REMARK minimizedAffinity -7.37257051
REMARK CNNscore 0.630114138
REMARK CNNaffinity 6.11734056
REMARK  11 active torsions:
REMARK  status: ('A' for Active; 'I' for Inactive)
REMARK    1  A    between atoms: O1_2  and  C2_3 
REMARK    2  A    between atoms: C2_3  and  C3_4 
REMARK    3  A    between atoms: C3_4  and  C4_5 
REMARK    4  A    between atoms: C4_5  and  O2_6 
REMARK    5  A    between atoms: O2_6  and  C5_7 
REMARK    6  A    between atoms: C20_23  and  C21_24 
REMARK    7  A    between atoms: C21_24  and  O4_26 
REMARK    8  A    between atoms: C21_24  and  C23_27 
REMARK    9  A    between atoms: C23_27  and  O5_28 
REMARK   10  A    between atoms: C23_27  and  C24_29 
REMARK   11  A    between atoms: C34_40  and  O7_41 
ROOT
HETATM    1  C5  UNL     1     -16.346  46.470 -22.383  1.00  0.00     0.122 C 
HETATM    2  C6  UNL     1     -15.124  47.379 -22.198  1.00  0.00     0.033 C 
HETATM    3  C7  UNL     1     -13.857  46.560 -21.950  1.00  0.00     0.013 C 
HETATM    4  C8  UNL     1     -13.468  45.707 -23.196  1.00  0.00    -0.026 C 
HETATM    5  C9  UNL     1     -12.687  44.475 -22.663  1.00  0.00     0.016 C 
HETATM    6  C10 UNL     1     -14.753  45.136 -23.892  1.00  0.00     0.071 C 
HETATM    7  C11 UNL     1     -15.961  45.092 -22.942  1.00  0.00     0.045 C 
HETATM    8  C12 UNL     1     -15.129  45.774 -25.222  1.00  0.00     0.161 C 
HETATM    9  O3  UNL     1     -16.294  45.985 -25.559  1.00  0.00    -0.292 OA
HETATM   10  C13 UNL     1     -14.028  46.062 -26.171  1.00  0.00    -0.006 C 
HETATM   11  C14 UNL     1     -12.845  46.413 -25.636  1.00  0.00    -0.030 C 
HETATM   12  C15 UNL     1     -12.570  46.603 -24.153  1.00  0.00     0.027 C 
HETATM   13  C16 UNL     1     -11.044  46.612 -23.777  1.00  0.00     0.011 C 
HETATM   14  C17 UNL     1     -10.079  47.225 -24.821  1.00  0.00     0.014 C 
HETATM   15  C18 UNL     1     -10.336  46.619 -26.215  1.00  0.00    -0.002 C 
HETATM   16  C19 UNL     1     -10.053  45.100 -26.161  1.00  0.00     0.019 C 
HETATM   17  C20 UNL     1      -9.645  47.330 -27.443  1.00  0.00     0.034 C 
HETATM   18  C30 UNL     1     -10.655  47.123 -28.638  1.00  0.00     0.016 C 
HETATM   19  C31 UNL     1     -11.905  46.482 -28.005  1.00  0.00     0.026 C 
HETATM   20  C32 UNL     1     -13.286  46.788 -28.558  1.00  0.00     0.013 C 
HETATM   21  C33 UNL     1     -14.353  46.112 -27.656  1.00  0.00     0.043 C 
HETATM   22  C34 UNL     1     -11.804  46.946 -26.555  1.00  0.00     0.094 C 
ENDROOT
BRANCH  17  23
HETATM   23  C21 UNL     1      -8.134  47.123 -27.773  1.00  0.00     0.087 C 
HETATM   24  C22 UNL     1      -7.765  45.679 -28.170  1.00  0.00     0.049 C 
BRANCH  23  25
HETATM   25  O4  UNL     1      -7.393  47.410 -26.580  1.00  0.00    -0.387 OA
HETATM   26  H33 UNL     1      -6.455  47.462 -26.834  1.00  0.00     0.210 HD
ENDBRANCH  23  25
BRANCH  23  27
HETATM   27  C23 UNL     1      -7.659  48.095 -28.926  1.00  0.00     0.181 C 
BRANCH  27  28
HETATM   28  O5  UNL     1      -8.476  49.288 -28.884  1.00  0.00    -0.390 OA
HETATM   29  H35 UNL     1      -9.174  49.141 -29.557  1.00  0.00     0.210 HD
ENDBRANCH  27  28
BRANCH  27  30
HETATM   30  C24 UNL     1      -7.749  47.539 -30.368  1.00  0.00     0.157 C 
HETATM   31  O6  UNL     1      -8.590  48.406 -31.167  1.00  0.00    -0.382 OA
HETATM   32  C25 UNL     1      -8.204  48.262 -32.545  1.00  0.00     0.172 C 
HETATM   33  C26 UNL     1      -6.945  47.398 -32.597  1.00  0.00     0.012 C 
HETATM   34  C27 UNL     1      -7.261  45.969 -33.046  1.00  0.00     0.012 C 
HETATM   35  C28 UNL     1      -6.432  47.448 -31.157  1.00  0.00     0.019 C 
HETATM   36  C29 UNL     1      -5.481  48.635 -30.979  1.00  0.00     0.013 C 
ENDBRANCH  27  30
ENDBRANCH  23  27
ENDBRANCH  17  23
BRANCH  22  37
HETATM   37  O7  UNL     1     -11.994  48.379 -26.523  1.00  0.00    -0.384 OA
HETATM   38  H54 UNL     1     -12.948  48.567 -26.522  1.00  0.00     0.211 HD
ENDBRANCH  22  37
BRANCH   1  39
HETATM   39  O2  UNL     1     -16.953  46.326 -21.092  1.00  0.00    -0.386 OA
BRANCH  39  40
HETATM   40  C4  UNL     1     -18.345  46.642 -21.024  1.00  0.00     0.170 C 
BRANCH  40  41
HETATM   41  C3  UNL     1     -19.186  45.409 -20.702  1.00  0.00     0.052 C 
BRANCH  41  42
HETATM   42  C2  UNL     1     -19.323  45.190 -19.199  1.00  0.00     0.169 C 
BRANCH  42  43
HETATM   43  O1  UNL     1     -20.397  44.314 -18.864  1.00  0.00    -0.396 OA
HETATM   44  C1  UNL     1     -20.416  43.944 -17.491  1.00  0.00     0.201 C 
ENDBRANCH  42  43
ENDBRANCH  41  42
ENDBRANCH  40  41
ENDBRANCH  39  40
ENDBRANCH   1  39
TORSDOF 11
ENDMDL
MODEL 8
REMARK minimizedAffinity -7.86146498
REMARK CNNscore 0.602086127
REMARK CNNaffinity 6.68455887
REMARK  11 active torsions:
REMARK  status: ('A' for Active; 'I' for Inactive)
REMARK    1  A    between atoms: O1_2  and  C2_3 
REMARK    2  A    between atoms: C2_3  and  C3_4 
REMARK    3  A    between atoms: C3_4  and  C4_5 
REMARK    4  A    between atoms: C4_5  and  O2_6 
REMARK    5  A    between atoms: O2_6  and  C5_7 
REMARK    6  A    between atoms: C20_23  and  C21_24 
REMARK    7  A    between atoms: C21_24  and  O4_26 
REMARK    8  A    between atoms: C21_24  and  C23_27 
REMARK    9  A    between atoms: C23_27  and  O5_28 
REMARK   10  A    between atoms: C23_27  and  C24_29 
REMARK   11  A    between atoms: C34_40  and  O7_41 
ROOT
HETATM    1  C5  UNL     1      -4.095  49.502 -24.347  1.00  0.00     0.122 C 
HETATM    2  C6  UNL     1      -4.951  49.810 -23.111  1.00  0.00     0.033 C 
HETATM    3  C7  UNL     1      -4.894  48.667 -22.098  1.00  0.00     0.013 C 
HETATM    4  C8  UNL     1      -3.465  48.501 -21.496  1.00  0.00    -0.026 C 
HETATM    5  C9  UNL     1      -3.329  47.011 -21.083  1.00  0.00     0.016 C 
HETATM    6  C10 UNL     1      -2.374  48.745 -22.597  1.00  0.00     0.071 C 
HETATM    7  C11 UNL     1      -2.928  48.558 -24.019  1.00  0.00     0.045 C 
HETATM    8  C12 UNL     1      -1.594  50.048 -22.484  1.00  0.00     0.161 C 
HETATM    9  O3  UNL     1      -1.254  50.712 -23.462  1.00  0.00    -0.292 OA
HETATM   10  C13 UNL     1      -1.162  50.463 -21.129  1.00  0.00    -0.006 C 
HETATM   11  C14 UNL     1      -1.982  50.150 -20.110  1.00  0.00    -0.030 C 
HETATM   12  C15 UNL     1      -3.336  49.472 -20.245  1.00  0.00     0.027 C 
HETATM   13  C16 UNL     1      -3.889  48.866 -18.903  1.00  0.00     0.011 C 
HETATM   14  C17 UNL     1      -3.540  49.632 -17.604  1.00  0.00     0.014 C 
HETATM   15  C18 UNL     1      -2.027  49.921 -17.537  1.00  0.00    -0.002 C 
HETATM   16  C19 UNL     1      -1.262  48.578 -17.500  1.00  0.00     0.019 C 
HETATM   17  C20 UNL     1      -1.541  50.937 -16.430  1.00  0.00     0.034 C 
HETATM   18  C30 UNL     1      -0.294  51.656 -17.077  1.00  0.00     0.016 C 
HETATM   19  C31 UNL     1      -0.249  51.156 -18.534  1.00  0.00     0.026 C 
HETATM   20  C32 UNL     1       0.248  52.068 -19.642  1.00  0.00     0.013 C 
HETATM   21  C33 UNL     1       0.067  51.351 -21.007  1.00  0.00     0.043 C 
HETATM   22  C34 UNL     1      -1.701  50.766 -18.786  1.00  0.00     0.094 C 
ENDROOT
BRANCH  17  23
HETATM   23  C21 UNL     1      -1.397  50.520 -14.934  1.00  0.00     0.087 C 
HETATM   24  C22 UNL     1      -0.255  51.235 -14.184  1.00  0.00     0.049 C 
BRANCH  23  25
HETATM   25  O4  UNL     1      -1.076  49.122 -14.910  1.00  0.00    -0.387 OA
HETATM   26  H33 UNL     1      -1.170  48.826 -13.986  1.00  0.00     0.210 HD
ENDBRANCH  23  25
BRANCH  23  27
HETATM   27  C23 UNL     1      -2.743  50.757 -14.139  1.00  0.00     0.181 C 
BRANCH  27  28
HETATM   28  O5  UNL     1      -3.641  51.522 -14.977  1.00  0.00    -0.390 OA
HETATM   29  H35 UNL     1      -3.528  52.453 -14.686  1.00  0.00     0.210 HD
ENDBRANCH  27  28
BRANCH  27  30
HETATM   30  C24 UNL     1      -2.618  51.522 -12.799  1.00  0.00     0.157 C 
HETATM   31  O6  UNL     1      -3.503  52.668 -12.814  1.00  0.00    -0.382 OA
HETATM   32  C25 UNL     1      -3.836  52.997 -11.454  1.00  0.00     0.172 C 
HETATM   33  C26 UNL     1      -3.278  51.899 -10.550  1.00  0.00     0.012 C 
HETATM   34  C27 UNL     1      -2.005  52.355  -9.832  1.00  0.00     0.012 C 
HETATM   35  C28 UNL     1      -3.008  50.752 -11.526  1.00  0.00     0.019 C 
HETATM   36  C29 UNL     1      -4.251  49.867 -11.652  1.00  0.00     0.013 C 
ENDBRANCH  27  30
ENDBRANCH  23  27
ENDBRANCH  17  23
BRANCH  22  37
HETATM   37  O7  UNL     1      -2.504  51.969 -18.771  1.00  0.00    -0.384 OA
HETATM   38  H54 UNL     1      -2.458  52.385 -19.648  1.00  0.00     0.211 HD
ENDBRANCH  22  37
BRANCH   1  39
HETATM   39  O2  UNL     1      -4.966  48.893 -25.311  1.00  0.00    -0.386 OA
BRANCH  39  40
HETATM   40  C4  UNL     1      -5.887  47.932 -24.791  1.00  0.00     0.170 C 
BRANCH  40  41
HETATM   41  C3  UNL     1      -7.287  48.127 -25.369  1.00  0.00     0.052 C 
BRANCH  41  42
HETATM   42  C2  UNL     1      -8.316  47.235 -24.683  1.00  0.00     0.169 C 
BRANCH  42  43
HETATM   43  O1  UNL     1      -7.734  46.083 -24.079  1.00  0.00    -0.396 OA
HETATM   44  C1  UNL     1      -8.365  45.704 -22.862  1.00  0.00     0.201 C 
ENDBRANCH  42  43
ENDBRANCH  41  42
ENDBRANCH  40  41
ENDBRANCH  39  40
ENDBRANCH   1  39
TORSDOF 11
ENDMDL
MODEL 9
REMARK minimizedAffinity -7.97338533
REMARK CNNscore 0.551476479
REMARK CNNaffinity 6.57893133
REMARK  11 active torsions:
REMARK  status: ('A' for Active; 'I' for Inactive)
REMARK    1  A    between atoms: O1_2  and  C2_3 
REMARK    2  A    between atoms: C2_3  and  C3_4 
REMARK    3  A    between atoms: C3_4  and  C4_5 
REMARK    4  A    between atoms: C4_5  and  O2_6 
REMARK    5  A    between atoms: O2_6  and  C5_7 
REMARK    6  A    between atoms: C20_23  and  C21_24 
REMARK    7  A    between atoms: C21_24  and  O4_26 
REMARK    8  A    between atoms: C21_24  and  C23_27 
REMARK    9  A    between atoms: C23_27  and  O5_28 
REMARK   10  A    between atoms: C23_27  and  C24_29 
REMARK   11  A    between atoms: C34_40  and  O7_41 
ROOT
HETATM    1  C5  UNL     1      -1.085  50.409 -20.137  1.00  0.00     0.122 C 
HETATM    2  C6  UNL     1      -2.410  51.150 -20.362  1.00  0.00     0.033 C 
HETATM    3  C7  UNL     1      -2.702  51.324 -21.852  1.00  0.00     0.013 C 
HETATM    4  C8  UNL     1      -2.949  49.954 -22.555  1.00  0.00    -0.026 C 
HETATM    5  C9  UNL     1      -2.543  50.141 -24.042  1.00  0.00     0.016 C 
HETATM    6  C10 UNL     1      -1.984  48.860 -21.978  1.00  0.00     0.071 C 
HETATM    7  C11 UNL     1      -0.744  49.471 -21.305  1.00  0.00     0.045 C 
HETATM    8  C12 UNL     1      -2.628  47.810 -21.083  1.00  0.00     0.161 C 
HETATM    9  O3  UNL     1      -2.076  47.353 -20.083  1.00  0.00    -0.292 OA
HETATM   10  C13 UNL     1      -3.940  47.269 -21.508  1.00  0.00    -0.006 C 
HETATM   11  C14 UNL     1      -4.765  48.117 -22.149  1.00  0.00    -0.030 C 
HETATM   12  C15 UNL     1      -4.488  49.588 -22.408  1.00  0.00     0.027 C 
HETATM   13  C16 UNL     1      -5.409  50.233 -23.507  1.00  0.00     0.011 C 
HETATM   14  C17 UNL     1      -6.858  49.697 -23.594  1.00  0.00     0.014 C 
HETATM   15  C18 UNL     1      -6.862  48.157 -23.656  1.00  0.00    -0.002 C 
HETATM   16  C19 UNL     1      -6.125  47.705 -24.938  1.00  0.00     0.019 C 
HETATM   17  C20 UNL     1      -8.253  47.436 -23.460  1.00  0.00     0.034 C 
HETATM   18  C30 UNL     1      -7.894  46.075 -22.746  1.00  0.00     0.016 C 
HETATM   19  C31 UNL     1      -6.390  46.172 -22.424  1.00  0.00     0.026 C 
HETATM   20  C32 UNL     1      -5.829  45.510 -21.177  1.00  0.00     0.013 C 
HETATM   21  C33 UNL     1      -4.326  45.872 -21.045  1.00  0.00     0.043 C 
HETATM   22  C34 UNL     1      -6.170  47.679 -22.363  1.00  0.00     0.094 C 
ENDROOT
BRANCH  17  23
HETATM   23  C21 UNL     1      -9.310  47.356 -24.605  1.00  0.00     0.087 C 
HETATM   24  C22 UNL     1      -8.810  46.644 -25.879  1.00  0.00     0.049 C 
BRANCH  23  25
HETATM   25  O4  UNL     1      -9.618  48.701 -24.995  1.00  0.00    -0.387 OA
HETATM   26  H33 UNL     1     -10.403  48.656 -25.570  1.00  0.00     0.210 HD
ENDBRANCH  23  25
BRANCH  23  27
HETATM   27  C23 UNL     1     -10.632  46.640 -24.118  1.00  0.00     0.181 C 
BRANCH  27  28
HETATM   28  O5  UNL     1     -10.394  45.214 -24.081  1.00  0.00    -0.390 OA
HETATM   29  H35 UNL     1     -10.750  44.875 -24.930  1.00  0.00     0.210 HD
ENDBRANCH  27  28
BRANCH  27  30
HETATM   30  C24 UNL     1     -11.890  46.863 -24.993  1.00  0.00     0.157 C 
HETATM   31  O6  UNL     1     -11.636  47.930 -25.938  1.00  0.00    -0.382 OA
HETATM   32  C25 UNL     1     -12.495  47.737 -27.075  1.00  0.00     0.172 C 
HETATM   33  C26 UNL     1     -13.195  46.388 -26.918  1.00  0.00     0.012 C 
HETATM   34  C27 UNL     1     -14.648  46.558 -26.467  1.00  0.00     0.012 C 
HETATM   35  C28 UNL     1     -12.344  45.679 -25.863  1.00  0.00     0.019 C 
HETATM   36  C29 UNL     1     -11.217  44.894 -26.538  1.00  0.00     0.013 C 
ENDBRANCH  27  30
ENDBRANCH  23  27
ENDBRANCH  17  23
BRANCH  22  37
HETATM   37  O7  UNL     1      -6.887  48.197 -21.218  1.00  0.00    -0.384 OA
HETATM   38  H54 UNL     1      -6.335  48.079 -20.426  1.00  0.00     0.211 HD
ENDBRANCH  22  37
BRANCH   1  39
HETATM   39  O2  UNL     1      -0.069  51.412 -19.998  1.00  0.00    -0.386 OA
BRANCH  39  40
HETATM   40  C4  UNL     1      -0.307  52.396 -18.989  1.00  0.00     0.170 C 
BRANCH  40  41
HETATM   41  C3  UNL     1       0.225  53.765 -19.404  1.00  0.00     0.052 C 
BRANCH  41  42
HETATM   42  C2  UNL     1       1.476  53.652 -20.269  1.00  0.00     0.169 C 
BRANCH  42  43
HETATM   43  O1  UNL     1       1.416  54.467 -21.436  1.00  0.00    -0.396 OA
HETATM   44  C1  UNL     1       1.055  53.749 -22.610  1.00  0.00     0.201 C 
ENDBRANCH  42  43
ENDBRANCH  41  42
ENDBRANCH  40  41
ENDBRANCH  39  40
ENDBRANCH   1  39
TORSDOF 11
ENDMDL
