MODEL 1
REMARK minimizedAffinity -9.65743256
REMARK  7 active torsions:
REMARK  status: ('A' for Active; 'I' for Inactive)
REMARK    1  A    between atoms: C2_2  and  C30_32 
REMARK    2  A    between atoms: C3_3  and  C4_4 
REMARK    3  A    between atoms: C4_4  and  O1_5 
REMARK    4  A    between atoms: C4_4  and  C5_6 
REMARK    5  A    between atoms: C5_6  and  C6_7 
REMARK    6  A    between atoms: C6_7  and  C8_9 
REMARK    7  A    between atoms: C30_32  and  O4_34 
ROOT
HETATM    1  C8  UNL     1      -3.107   8.460  15.214  1.00  0.00    -0.002 C 
HETATM    2  C9  UNL     1      -2.076   8.181  16.346  1.00  0.00     0.006 C 
HETATM    3  C10 UNL     1      -0.695   8.012  15.690  1.00  0.00     0.011 C 
HETATM    4  C11 UNL     1      -0.879   8.498  14.239  1.00  0.00    -0.032 C 
HETATM    5  C12 UNL     1      -0.722  10.051  14.272  1.00  0.00     0.016 C 
HETATM    6  C13 UNL     1       0.119   7.869  13.230  1.00  0.00     0.004 C 
HETATM    7  C14 UNL     1       1.556   8.398  13.360  1.00  0.00     0.007 C 
HETATM    8  C15 UNL     1       2.475   7.647  12.402  1.00  0.00     0.007 C 
HETATM    9  C16 UNL     1       2.148   8.003  10.944  1.00  0.00     0.010 C 
HETATM   10  C17 UNL     1       3.016   7.271   9.865  1.00  0.00     0.018 C 
HETATM   11  C18 UNL     1       4.172   8.191   9.418  1.00  0.00     0.023 C 
HETATM   12  C19 UNL     1       3.629   5.949  10.377  1.00  0.00     0.023 C 
HETATM   13  C20 UNL     1       2.201   6.947   8.598  1.00  0.00     0.135 C 
HETATM   14  O2  UNL     1       2.490   5.987   7.875  1.00  0.00    -0.297 OA
HETATM   15  C21 UNL     1       1.105   7.894   8.152  1.00  0.00     0.080 C 
HETATM   16  C22 UNL     1       0.383   8.600   9.292  1.00  0.00     0.018 C 
HETATM   17  C23 UNL     1       0.657   7.925  10.618  1.00  0.00    -0.026 A 
HETATM   18  C24 UNL     1      -0.150   6.695  10.933  1.00  0.00     0.021 A 
HETATM   19  C25 UNL     1      -0.386   7.950  11.766  1.00  0.00    -0.027 A 
HETATM   20  C26 UNL     1      -1.685   8.727  11.530  1.00  0.00     0.011 C 
HETATM   21  C27 UNL     1      -2.785   8.613  12.598  1.00  0.00     0.011 C 
HETATM   22  C28 UNL     1      -2.338   7.995  13.931  1.00  0.00    -0.032 C 
HETATM   23  C29 UNL     1      -2.463   6.447  13.803  1.00  0.00     0.016 C 
ENDROOT
BRANCH   1  24
HETATM   24  C6  UNL     1      -4.518   7.877  15.542  1.00  0.00    -0.011 C 
HETATM   25  C7  UNL     1      -4.476   6.355  15.736  1.00  0.00     0.010 C 
BRANCH  24  26
HETATM   26  C5  UNL     1      -5.522   8.237  14.412  1.00  0.00     0.040 C 
BRANCH  26  27
HETATM   27  C4  UNL     1      -6.908   7.573  14.489  1.00  0.00     0.142 C 
BRANCH  27  28
HETATM   28  C3  UNL     1      -6.945   6.183  13.921  1.00  0.00     0.018 C 
HETATM   29  C2  UNL     1      -7.950   5.556  13.270  1.00  0.00     0.010 C 
HETATM   30  C1  UNL     1      -9.319   6.122  13.026  1.00  0.00     0.055 C 
BRANCH  29  31
HETATM   31  C30 UNL     1      -7.767   4.178  12.739  1.00  0.00     0.171 C 
HETATM   32  O3  UNL     1      -6.857   3.814  12.015  1.00  0.00    -0.646 OA
BRANCH  31  33
HETATM   33  O4  UNL     1      -8.721   3.312  13.123  1.00  0.00    -0.773 OA
HETATM   34  H46 UNL     1      -8.448   2.473  12.698  1.00  0.00     0.167 HD
ENDBRANCH  31  33
ENDBRANCH  29  31
ENDBRANCH  27  28
BRANCH  27  35
HETATM   35  O1  UNL     1      -7.338   7.539  15.848  1.00  0.00    -0.392 OA
HETATM   36  H6  UNL     1      -7.361   8.458  16.166  1.00  0.00     0.210 HD
ENDBRANCH  27  35
ENDBRANCH  26  27
ENDBRANCH  24  26
ENDBRANCH   1  24
TORSDOF 7
ENDMDL
MODEL 2
REMARK minimizedAffinity -9.56924343
REMARK  7 active torsions:
REMARK  status: ('A' for Active; 'I' for Inactive)
REMARK    1  A    between atoms: C2_2  and  C30_32 
REMARK    2  A    between atoms: C3_3  and  C4_4 
REMARK    3  A    between atoms: C4_4  and  O1_5 
REMARK    4  A    between atoms: C4_4  and  C5_6 
REMARK    5  A    between atoms: C5_6  and  C6_7 
REMARK    6  A    between atoms: C6_7  and  C8_9 
REMARK    7  A    between atoms: C30_32  and  O4_34 
ROOT
HETATM    1  C8  UNL     1       0.703   6.335  12.747  1.00  0.00    -0.002 C 
HETATM    2  C9  UNL     1       0.819   4.856  12.274  1.00  0.00     0.006 C 
HETATM    3  C10 UNL     1      -0.600   4.265  12.231  1.00  0.00     0.011 C 
HETATM    4  C11 UNL     1      -1.543   5.476  12.374  1.00  0.00    -0.032 C 
HETATM    5  C12 UNL     1      -1.705   6.080  10.944  1.00  0.00     0.016 C 
HETATM    6  C13 UNL     1      -2.929   5.130  12.982  1.00  0.00     0.004 C 
HETATM    7  C14 UNL     1      -3.855   4.361  12.026  1.00  0.00     0.007 C 
HETATM    8  C15 UNL     1      -5.144   3.979  12.747  1.00  0.00     0.007 C 
HETATM    9  C16 UNL     1      -5.986   5.227  13.051  1.00  0.00     0.010 C 
HETATM   10  C17 UNL     1      -7.328   4.960  13.814  1.00  0.00     0.018 C 
HETATM   11  C18 UNL     1      -8.495   4.900  12.806  1.00  0.00     0.023 C 
HETATM   12  C19 UNL     1      -7.318   3.637  14.611  1.00  0.00     0.023 C 
HETATM   13  C20 UNL     1      -7.662   6.096  14.801  1.00  0.00     0.135 C 
HETATM   14  O2  UNL     1      -8.336   5.889  15.817  1.00  0.00    -0.297 OA
HETATM   15  C21 UNL     1      -7.272   7.519  14.460  1.00  0.00     0.080 C 
HETATM   16  C22 UNL     1      -5.986   7.644  13.654  1.00  0.00     0.018 C 
HETATM   17  C23 UNL     1      -5.186   6.359  13.695  1.00  0.00    -0.026 A 
HETATM   18  C24 UNL     1      -4.341   6.125  14.917  1.00  0.00     0.021 A 
HETATM   19  C25 UNL     1      -3.639   6.370  13.585  1.00  0.00    -0.027 A 
HETATM   20  C26 UNL     1      -2.949   7.723  13.383  1.00  0.00     0.011 C 
HETATM   21  C27 UNL     1      -1.413   7.753  13.442  1.00  0.00     0.011 C 
HETATM   22  C28 UNL     1      -0.731   6.378  13.376  1.00  0.00    -0.032 C 
HETATM   23  C29 UNL     1      -0.661   5.813  14.828  1.00  0.00     0.016 C 
ENDROOT
BRANCH   1  24
HETATM   24  C6  UNL     1       1.943   6.789  13.579  1.00  0.00    -0.011 C 
HETATM   25  C7  UNL     1       1.558   7.790  14.676  1.00  0.00     0.010 C 
BRANCH  24  26
HETATM   26  C5  UNL     1       3.014   7.417  12.644  1.00  0.00     0.040 C 
BRANCH  26  27
HETATM   27  C4  UNL     1       3.338   6.641  11.355  1.00  0.00     0.142 C 
BRANCH  27  28
HETATM   28  C3  UNL     1       3.129   7.441  10.101  1.00  0.00     0.018 C 
HETATM   29  C2  UNL     1       2.936   7.005   8.835  1.00  0.00     0.010 C 
HETATM   30  C1  UNL     1       2.955   5.570   8.394  1.00  0.00     0.055 C 
BRANCH  29  31
HETATM   31  C30 UNL     1       2.698   7.969   7.728  1.00  0.00     0.171 C 
HETATM   32  O3  UNL     1       3.173   9.089   7.649  1.00  0.00    -0.646 OA
BRANCH  31  33
HETATM   33  O4  UNL     1       1.878   7.509   6.768  1.00  0.00    -0.773 OA
HETATM   34  H46 UNL     1       1.837   8.251   6.130  1.00  0.00     0.167 HD
ENDBRANCH  31  33
ENDBRANCH  29  31
ENDBRANCH  27  28
BRANCH  27  35
HETATM   35  O1  UNL     1       4.689   6.189  11.406  1.00  0.00    -0.392 OA
HETATM   36  H6  UNL     1       4.775   5.627  12.194  1.00  0.00     0.210 HD
ENDBRANCH  27  35
ENDBRANCH  26  27
ENDBRANCH  24  26
ENDBRANCH   1  24
TORSDOF 7
ENDMDL
MODEL 3
REMARK minimizedAffinity -9.47749901
REMARK  7 active torsions:
REMARK  status: ('A' for Active; 'I' for Inactive)
REMARK    1  A    between atoms: C2_2  and  C30_32 
REMARK    2  A    between atoms: C3_3  and  C4_4 
REMARK    3  A    between atoms: C4_4  and  O1_5 
REMARK    4  A    between atoms: C4_4  and  C5_6 
REMARK    5  A    between atoms: C5_6  and  C6_7 
REMARK    6  A    between atoms: C6_7  and  C8_9 
REMARK    7  A    between atoms: C30_32  and  O4_34 
ROOT
HETATM    1  C8  UNL     1       1.024   7.408  12.665  1.00  0.00    -0.002 C 
HETATM    2  C9  UNL     1       0.192   8.619  13.180  1.00  0.00     0.006 C 
HETATM    3  C10 UNL     1      -1.264   8.151  13.344  1.00  0.00     0.011 C 
HETATM    4  C11 UNL     1      -1.206   6.616  13.226  1.00  0.00    -0.032 C 
HETATM    5  C12 UNL     1      -0.829   6.079  14.643  1.00  0.00     0.016 C 
HETATM    6  C13 UNL     1      -2.529   5.969  12.731  1.00  0.00     0.004 C 
HETATM    7  C14 UNL     1      -3.655   5.974  13.777  1.00  0.00     0.007 C 
HETATM    8  C15 UNL     1      -4.936   5.417  13.163  1.00  0.00     0.007 C 
HETATM    9  C16 UNL     1      -4.791   3.915  12.876  1.00  0.00     0.010 C 
HETATM   10  C17 UNL     1      -6.040   3.235  12.221  1.00  0.00     0.018 C 
HETATM   11  C18 UNL     1      -6.887   2.544  13.311  1.00  0.00     0.023 C 
HETATM   12  C19 UNL     1      -6.950   4.234  11.472  1.00  0.00     0.023 C 
HETATM   13  C20 UNL     1      -5.635   2.134  11.221  1.00  0.00     0.135 C 
HETATM   14  O2  UNL     1      -6.358   1.836  10.264  1.00  0.00    -0.297 OA
HETATM   15  C21 UNL     1      -4.392   1.309  11.483  1.00  0.00     0.080 C 
HETATM   16  C22 UNL     1      -3.274   2.062  12.190  1.00  0.00     0.018 C 
HETATM   17  C23 UNL     1      -3.501   3.558  12.138  1.00  0.00    -0.026 A 
HETATM   18  C24 UNL     1      -3.105   4.260  10.868  1.00  0.00     0.021 A 
HETATM   19  C25 UNL     1      -2.312   4.554  12.137  1.00  0.00    -0.027 A 
HETATM   20  C26 UNL     1      -0.898   3.974  12.242  1.00  0.00     0.011 C 
HETATM   21  C27 UNL     1       0.282   4.944  12.073  1.00  0.00     0.011 C 
HETATM   22  C28 UNL     1      -0.084   6.434  12.138  1.00  0.00    -0.032 C 
HETATM   23  C29 UNL     1      -0.508   6.882  10.706  1.00  0.00     0.016 C 
ENDROOT
BRANCH   1  24
HETATM   24  C6  UNL     1       2.195   7.849  11.732  1.00  0.00    -0.011 C 
HETATM   25  C7  UNL     1       2.990   9.019  12.326  1.00  0.00     0.010 C 
BRANCH  24  26
HETATM   26  C5  UNL     1       1.646   8.241  10.332  1.00  0.00     0.040 C 
BRANCH  26  27
HETATM   27  C4  UNL     1       2.581   7.994   9.134  1.00  0.00     0.142 C 
BRANCH  27  28
HETATM   28  C3  UNL     1       2.760   6.541   8.798  1.00  0.00     0.018 C 
HETATM   29  C2  UNL     1       3.581   5.630   9.368  1.00  0.00     0.010 C 
HETATM   30  C1  UNL     1       4.571   5.911  10.460  1.00  0.00     0.055 C 
BRANCH  29  31
HETATM   31  C30 UNL     1       3.573   4.214   8.915  1.00  0.00     0.171 C 
HETATM   32  O3  UNL     1       3.843   3.828   7.791  1.00  0.00    -0.646 OA
BRANCH  31  33
HETATM   33  O4  UNL     1       3.229   3.334   9.872  1.00  0.00    -0.773 OA
HETATM   34  H46 UNL     1       3.280   2.470   9.414  1.00  0.00     0.167 HD
ENDBRANCH  31  33
ENDBRANCH  29  31
ENDBRANCH  27  28
BRANCH  27  35
HETATM   35  O1  UNL     1       2.077   8.684   7.994  1.00  0.00    -0.392 OA
HETATM   36  H6  UNL     1       2.030   9.627   8.224  1.00  0.00     0.210 HD
ENDBRANCH  27  35
ENDBRANCH  26  27
ENDBRANCH  24  26
ENDBRANCH   1  24
TORSDOF 7
ENDMDL
MODEL 4
REMARK minimizedAffinity -9.43493176
REMARK  7 active torsions:
REMARK  status: ('A' for Active; 'I' for Inactive)
REMARK    1  A    between atoms: C2_2  and  C30_32 
REMARK    2  A    between atoms: C3_3  and  C4_4 
REMARK    3  A    between atoms: C4_4  and  O1_5 
REMARK    4  A    between atoms: C4_4  and  C5_6 
REMARK    5  A    between atoms: C5_6  and  C6_7 
REMARK    6  A    between atoms: C6_7  and  C8_9 
REMARK    7  A    between atoms: C30_32  and  O4_34 
ROOT
HETATM    1  C8  UNL     1       0.846   7.266  13.183  1.00  0.00    -0.002 C 
HETATM    2  C9  UNL     1       0.924   8.113  14.488  1.00  0.00     0.006 C 
HETATM    3  C10 UNL     1      -0.446   8.031  15.181  1.00  0.00     0.011 C 
HETATM    4  C11 UNL     1      -1.199   6.903  14.449  1.00  0.00    -0.032 C 
HETATM    5  C12 UNL     1      -0.738   5.566  15.110  1.00  0.00     0.016 C 
HETATM    6  C13 UNL     1      -2.745   7.036  14.504  1.00  0.00     0.004 C 
HETATM    7  C14 UNL     1      -3.350   6.720  15.881  1.00  0.00     0.007 C 
HETATM    8  C15 UNL     1      -4.853   6.979  15.860  1.00  0.00     0.007 C 
HETATM    9  C16 UNL     1      -5.568   5.952  14.969  1.00  0.00     0.010 C 
HETATM   10  C17 UNL     1      -7.119   6.133  14.851  1.00  0.00     0.018 C 
HETATM   11  C18 UNL     1      -7.829   5.183  15.840  1.00  0.00     0.023 C 
HETATM   12  C19 UNL     1      -7.585   7.574  15.156  1.00  0.00     0.023 C 
HETATM   13  C20 UNL     1      -7.634   5.764  13.446  1.00  0.00     0.135 C 
HETATM   14  O2  UNL     1      -8.656   6.280  12.979  1.00  0.00    -0.297 OA
HETATM   15  C21 UNL     1      -6.955   4.656  12.669  1.00  0.00     0.080 C 
HETATM   16  C22 UNL     1      -5.458   4.535  12.924  1.00  0.00     0.018 C 
HETATM   17  C23 UNL     1      -4.914   5.775  13.599  1.00  0.00    -0.026 A 
HETATM   18  C24 UNL     1      -4.619   6.955  12.714  1.00  0.00     0.021 A 
HETATM   19  C25 UNL     1      -3.449   6.236  13.378  1.00  0.00    -0.027 A 
HETATM   20  C26 UNL     1      -2.555   5.364  12.491  1.00  0.00     0.011 C 
HETATM   21  C27 UNL     1      -1.160   5.906  12.138  1.00  0.00     0.011 C 
HETATM   22  C28 UNL     1      -0.698   7.110  12.972  1.00  0.00    -0.032 C 
HETATM   23  C29 UNL     1      -1.246   8.399  12.289  1.00  0.00     0.016 C 
ENDROOT
BRANCH   1  24
HETATM   24  C6  UNL     1       1.743   7.848  12.046  1.00  0.00    -0.011 C 
HETATM   25  C7  UNL     1       2.234   9.264  12.374  1.00  0.00     0.010 C 
BRANCH  24  26
HETATM   26  C5  UNL     1       0.962   7.859  10.702  1.00  0.00     0.040 C 
BRANCH  26  27
HETATM   27  C4  UNL     1       1.808   7.945   9.418  1.00  0.00     0.142 C 
BRANCH  27  28
HETATM   28  C3  UNL     1       2.231   6.606   8.884  1.00  0.00     0.018 C 
HETATM   29  C2  UNL     1       3.221   5.792   9.316  1.00  0.00     0.010 C 
HETATM   30  C1  UNL     1       4.182   6.099  10.427  1.00  0.00     0.055 C 
BRANCH  29  31
HETATM   31  C30 UNL     1       3.451   4.471   8.672  1.00  0.00     0.171 C 
HETATM   32  O3  UNL     1       3.619   4.283   7.480  1.00  0.00    -0.646 OA
BRANCH  31  33
HETATM   33  O4  UNL     1       3.459   3.437   9.532  1.00  0.00    -0.773 OA
HETATM   34  H46 UNL     1       3.625   2.664   8.954  1.00  0.00     0.167 HD
ENDBRANCH  31  33
ENDBRANCH  29  31
ENDBRANCH  27  28
BRANCH  27  35
HETATM   35  O1  UNL     1       1.072   8.642   8.416  1.00  0.00    -0.392 OA
HETATM   36  H6  UNL     1       0.866   9.524   8.770  1.00  0.00     0.210 HD
ENDBRANCH  27  35
ENDBRANCH  26  27
ENDBRANCH  24  26
ENDBRANCH   1  24
TORSDOF 7
ENDMDL
MODEL 5
REMARK minimizedAffinity -9.3614254
REMARK  7 active torsions:
REMARK  status: ('A' for Active; 'I' for Inactive)
REMARK    1  A    between atoms: C2_2  and  C30_32 
REMARK    2  A    between atoms: C3_3  and  C4_4 
REMARK    3  A    between atoms: C4_4  and  O1_5 
REMARK    4  A    between atoms: C4_4  and  C5_6 
REMARK    5  A    between atoms: C5_6  and  C6_7 
REMARK    6  A    between atoms: C6_7  and  C8_9 
REMARK    7  A    between atoms: C30_32  and  O4_34 
ROOT
HETATM    1  C8  UNL     1      -3.568   7.343  14.672  1.00  0.00    -0.002 C 
HETATM    2  C9  UNL     1      -4.038   6.033  13.974  1.00  0.00     0.006 C 
HETATM    3  C10 UNL     1      -2.876   5.522  13.106  1.00  0.00     0.011 C 
HETATM    4  C11 UNL     1      -1.654   6.353  13.544  1.00  0.00    -0.032 C 
HETATM    5  C12 UNL     1      -1.074   5.648  14.810  1.00  0.00     0.016 C 
HETATM    6  C13 UNL     1      -0.562   6.496  12.450  1.00  0.00     0.004 C 
HETATM    7  C14 UNL     1       0.242   5.210  12.198  1.00  0.00     0.007 C 
HETATM    8  C15 UNL     1       1.212   5.422  11.040  1.00  0.00     0.007 C 
HETATM    9  C16 UNL     1       2.324   6.405  11.437  1.00  0.00     0.010 C 
HETATM   10  C17 UNL     1       3.371   6.720  10.315  1.00  0.00     0.018 C 
HETATM   11  C18 UNL     1       4.622   5.838  10.511  1.00  0.00     0.023 C 
HETATM   12  C19 UNL     1       2.827   6.468   8.892  1.00  0.00     0.023 C 
HETATM   13  C20 UNL     1       3.854   8.182  10.377  1.00  0.00     0.135 C 
HETATM   14  O2  UNL     1       4.249   8.773   9.365  1.00  0.00    -0.297 OA
HETATM   15  C21 UNL     1       3.973   8.874  11.720  1.00  0.00     0.080 C 
HETATM   16  C22 UNL     1       2.943   8.429  12.749  1.00  0.00     0.018 C 
HETATM   17  C23 UNL     1       1.801   7.681  12.096  1.00  0.00    -0.026 A 
HETATM   18  C24 UNL     1       0.727   8.513  11.451  1.00  0.00     0.021 A 
HETATM   19  C25 UNL     1       0.371   7.709  12.698  1.00  0.00    -0.027 A 
HETATM   20  C26 UNL     1       0.164   8.479  14.005  1.00  0.00     0.011 C 
HETATM   21  C27 UNL     1      -1.278   8.647  14.510  1.00  0.00     0.011 C 
HETATM   22  C28 UNL     1      -2.319   7.752  13.820  1.00  0.00    -0.032 C 
HETATM   23  C29 UNL     1      -2.804   8.491  12.537  1.00  0.00     0.016 C 
ENDROOT
BRANCH   1  24
HETATM   24  C6  UNL     1      -4.739   8.352  14.888  1.00  0.00    -0.011 C 
HETATM   25  C7  UNL     1      -4.327   9.519  15.795  1.00  0.00     0.010 C 
BRANCH  24  26
HETATM   26  C5  UNL     1      -5.971   7.622  15.494  1.00  0.00     0.040 C 
BRANCH  26  27
HETATM   27  C4  UNL     1      -7.100   7.253  14.515  1.00  0.00     0.142 C 
BRANCH  27  28
HETATM   28  C3  UNL     1      -7.114   5.802  14.130  1.00  0.00     0.018 C 
HETATM   29  C2  UNL     1      -7.752   5.200  13.100  1.00  0.00     0.010 C 
HETATM   30  C1  UNL     1      -8.667   5.880  12.124  1.00  0.00     0.055 C 
BRANCH  29  31
HETATM   31  C30 UNL     1      -7.597   3.740  12.861  1.00  0.00     0.171 C 
HETATM   32  O3  UNL     1      -6.548   3.168  12.627  1.00  0.00    -0.646 OA
BRANCH  31  33
HETATM   33  O4  UNL     1      -8.751   3.052  12.917  1.00  0.00    -0.773 OA
HETATM   34  H46 UNL     1      -8.471   2.129  12.747  1.00  0.00     0.167 HD
ENDBRANCH  31  33
ENDBRANCH  29  31
ENDBRANCH  27  28
BRANCH  27  35
HETATM   35  O1  UNL     1      -8.355   7.601  15.093  1.00  0.00    -0.392 OA
HETATM   36  H6  UNL     1      -8.335   8.555  15.275  1.00  0.00     0.210 HD
ENDBRANCH  27  35
ENDBRANCH  26  27
ENDBRANCH  24  26
ENDBRANCH   1  24
TORSDOF 7
ENDMDL
MODEL 6
REMARK minimizedAffinity -9.21555614
REMARK  7 active torsions:
REMARK  status: ('A' for Active; 'I' for Inactive)
REMARK    1  A    between atoms: C2_2  and  C30_32 
REMARK    2  A    between atoms: C3_3  and  C4_4 
REMARK    3  A    between atoms: C4_4  and  O1_5 
REMARK    4  A    between atoms: C4_4  and  C5_6 
REMARK    5  A    between atoms: C5_6  and  C6_7 
REMARK    6  A    between atoms: C6_7  and  C8_9 
REMARK    7  A    between atoms: C30_32  and  O4_34 
ROOT
HETATM    1  C8  UNL     1      -2.897   7.596  14.656  1.00  0.00    -0.002 C 
HETATM    2  C9  UNL     1      -2.358   8.190  15.990  1.00  0.00     0.006 C 
HETATM    3  C10 UNL     1      -0.884   8.570  15.772  1.00  0.00     0.011 C 
HETATM    4  C11 UNL     1      -0.670   8.487  14.248  1.00  0.00    -0.032 C 
HETATM    5  C12 UNL     1      -1.153   9.851  13.661  1.00  0.00     0.016 C 
HETATM    6  C13 UNL     1       0.798   8.201  13.830  1.00  0.00     0.004 C 
HETATM    7  C14 UNL     1       1.747   9.394  14.026  1.00  0.00     0.007 C 
HETATM    8  C15 UNL     1       3.176   8.982  13.688  1.00  0.00     0.007 C 
HETATM    9  C16 UNL     1       3.323   8.719  12.182  1.00  0.00     0.010 C 
HETATM   10  C17 UNL     1       4.748   8.264  11.718  1.00  0.00     0.018 C 
HETATM   11  C18 UNL     1       5.532   9.482  11.182  1.00  0.00     0.023 C 
HETATM   12  C19 UNL     1       5.579   7.624  12.852  1.00  0.00     0.023 C 
HETATM   13  C20 UNL     1       4.677   7.248  10.561  1.00  0.00     0.135 C 
HETATM   14  O2  UNL     1       5.569   6.410  10.385  1.00  0.00    -0.297 OA
HETATM   15  C21 UNL     1       3.562   7.355   9.541  1.00  0.00     0.080 C 
HETATM   16  C22 UNL     1       2.246   7.877  10.100  1.00  0.00     0.018 C 
HETATM   17  C23 UNL     1       2.229   7.817  11.612  1.00  0.00    -0.026 A 
HETATM   18  C24 UNL     1       1.909   6.485  12.234  1.00  0.00     0.021 A 
HETATM   19  C25 UNL     1       0.904   7.621  12.396  1.00  0.00    -0.027 A 
HETATM   20  C26 UNL     1      -0.395   7.541  11.588  1.00  0.00     0.011 C 
HETATM   21  C27 UNL     1      -1.682   7.182  12.348  1.00  0.00     0.011 C 
HETATM   22  C28 UNL     1      -1.579   7.257  13.879  1.00  0.00    -0.032 C 
HETATM   23  C29 UNL     1      -1.034   5.888  14.386  1.00  0.00     0.016 C 
ENDROOT
BRANCH   1  24
HETATM   24  C6  UNL     1      -3.978   6.496  14.891  1.00  0.00    -0.011 C 
HETATM   25  C7  UNL     1      -3.816   5.319  13.920  1.00  0.00     0.010 C 
BRANCH  24  26
HETATM   26  C5  UNL     1      -5.401   7.104  14.749  1.00  0.00     0.040 C 
BRANCH  26  27
HETATM   27  C4  UNL     1      -6.567   6.253  15.285  1.00  0.00     0.142 C 
BRANCH  27  28
HETATM   28  C3  UNL     1      -6.766   4.965  14.539  1.00  0.00     0.018 C 
HETATM   29  C2  UNL     1      -7.565   4.710  13.479  1.00  0.00     0.010 C 
HETATM   30  C1  UNL     1      -8.506   5.689  12.840  1.00  0.00     0.055 C 
BRANCH  29  31
HETATM   31  C30 UNL     1      -7.583   3.362  12.849  1.00  0.00     0.171 C 
HETATM   32  O3  UNL     1      -8.567   2.655  12.716  1.00  0.00    -0.646 OA
BRANCH  31  33
HETATM   33  O4  UNL     1      -6.382   2.946  12.413  1.00  0.00    -0.773 OA
HETATM   34  H46 UNL     1      -6.573   2.065  12.030  1.00  0.00     0.167 HD
ENDBRANCH  31  33
ENDBRANCH  29  31
ENDBRANCH  27  28
BRANCH  27  35
HETATM   35  O1  UNL     1      -6.348   5.971  16.665  1.00  0.00    -0.392 OA
HETATM   36  H6  UNL     1      -6.284   6.824  17.127  1.00  0.00     0.210 HD
ENDBRANCH  27  35
ENDBRANCH  26  27
ENDBRANCH  24  26
ENDBRANCH   1  24
TORSDOF 7
ENDMDL
MODEL 7
REMARK minimizedAffinity -9.21406841
REMARK  7 active torsions:
REMARK  status: ('A' for Active; 'I' for Inactive)
REMARK    1  A    between atoms: C2_2  and  C30_32 
REMARK    2  A    between atoms: C3_3  and  C4_4 
REMARK    3  A    between atoms: C4_4  and  O1_5 
REMARK    4  A    between atoms: C4_4  and  C5_6 
REMARK    5  A    between atoms: C5_6  and  C6_7 
REMARK    6  A    between atoms: C6_7  and  C8_9 
REMARK    7  A    between atoms: C30_32  and  O4_34 
ROOT
HETATM    1  C8  UNL     1      -1.753   5.557  12.118  1.00  0.00    -0.002 C 
HETATM    2  C9  UNL     1      -2.155   6.201  13.477  1.00  0.00     0.006 C 
HETATM    3  C10 UNL     1      -1.068   7.222  13.852  1.00  0.00     0.011 C 
HETATM    4  C11 UNL     1      -0.219   7.388  12.577  1.00  0.00    -0.032 C 
HETATM    5  C12 UNL     1      -0.958   8.437  11.688  1.00  0.00     0.016 C 
HETATM    6  C13 UNL     1       1.244   7.833  12.846  1.00  0.00     0.004 C 
HETATM    7  C14 UNL     1       1.380   9.301  13.281  1.00  0.00     0.007 C 
HETATM    8  C15 UNL     1       2.835   9.610  13.620  1.00  0.00     0.007 C 
HETATM    9  C16 UNL     1       3.705   9.584  12.355  1.00  0.00     0.010 C 
HETATM   10  C17 UNL     1       5.229   9.865  12.584  1.00  0.00     0.018 C 
HETATM   11  C18 UNL     1       5.533  11.349  12.287  1.00  0.00     0.023 C 
HETATM   12  C19 UNL     1       5.690   9.563  14.026  1.00  0.00     0.023 C 
HETATM   13  C20 UNL     1       6.113   9.040  11.629  1.00  0.00     0.135 C 
HETATM   14  O2  UNL     1       7.265   8.713  11.939  1.00  0.00    -0.297 OA
HETATM   15  C21 UNL     1       5.617   8.729  10.232  1.00  0.00     0.080 C 
HETATM   16  C22 UNL     1       4.109   8.548  10.126  1.00  0.00     0.018 C 
HETATM   17  C23 UNL     1       3.483   8.344  11.489  1.00  0.00    -0.026 A 
HETATM   18  C24 UNL     1       3.560   6.959  12.070  1.00  0.00     0.021 A 
HETATM   19  C25 UNL     1       2.193   7.501  11.665  1.00  0.00    -0.027 A 
HETATM   20  C26 UNL     1       1.543   6.922  10.404  1.00  0.00     0.011 C 
HETATM   21  C27 UNL     1       0.366   5.952  10.593  1.00  0.00     0.011 C 
HETATM   22  C28 UNL     1      -0.233   5.921  12.007  1.00  0.00    -0.032 C 
HETATM   23  C29 UNL     1       0.592   4.902  12.850  1.00  0.00     0.016 C 
ENDROOT
BRANCH   1  24
HETATM   24  C6  UNL     1      -2.217   4.071  12.006  1.00  0.00    -0.011 C 
HETATM   25  C7  UNL     1      -2.062   3.530  10.579  1.00  0.00     0.010 C 
BRANCH  24  26
HETATM   26  C5  UNL     1      -3.696   3.935  12.464  1.00  0.00     0.040 C 
BRANCH  26  27
HETATM   27  C4  UNL     1      -4.635   3.154  11.528  1.00  0.00     0.142 C 
BRANCH  27  28
HETATM   28  C3  UNL     1      -6.093   3.407  11.787  1.00  0.00     0.018 C 
HETATM   29  C2  UNL     1      -6.666   4.290  12.637  1.00  0.00     0.010 C 
HETATM   30  C1  UNL     1      -5.930   5.193  13.583  1.00  0.00     0.055 C 
BRANCH  29  31
HETATM   31  C30 UNL     1      -8.146   4.420  12.711  1.00  0.00     0.171 C 
HETATM   32  O3  UNL     1      -8.787   5.407  12.396  1.00  0.00    -0.646 OA
BRANCH  31  33
HETATM   33  O4  UNL     1      -8.769   3.323  13.177  1.00  0.00    -0.773 OA
HETATM   34  H46 UNL     1      -9.715   3.575  13.154  1.00  0.00     0.167 HD
ENDBRANCH  31  33
ENDBRANCH  29  31
ENDBRANCH  27  28
BRANCH  27  35
HETATM   35  O1  UNL     1      -4.331   3.484  10.176  1.00  0.00    -0.392 OA
HETATM   36  H6  UNL     1      -3.400   3.252  10.024  1.00  0.00     0.210 HD
ENDBRANCH  27  35
ENDBRANCH  26  27
ENDBRANCH  24  26
ENDBRANCH   1  24
TORSDOF 7
ENDMDL
MODEL 8
REMARK minimizedAffinity -9.14008141
REMARK  7 active torsions:
REMARK  status: ('A' for Active; 'I' for Inactive)
REMARK    1  A    between atoms: C2_2  and  C30_32 
REMARK    2  A    between atoms: C3_3  and  C4_4 
REMARK    3  A    between atoms: C4_4  and  O1_5 
REMARK    4  A    between atoms: C4_4  and  C5_6 
REMARK    5  A    between atoms: C5_6  and  C6_7 
REMARK    6  A    between atoms: C6_7  and  C8_9 
REMARK    7  A    between atoms: C30_32  and  O4_34 
ROOT
HETATM    1  C8  UNL     1      -3.503   7.005  14.229  1.00  0.00    -0.002 C 
HETATM    2  C9  UNL     1      -3.803   5.786  13.308  1.00  0.00     0.006 C 
HETATM    3  C10 UNL     1      -2.510   5.443  12.549  1.00  0.00     0.011 C 
HETATM    4  C11 UNL     1      -1.405   6.251  13.256  1.00  0.00    -0.032 C 
HETATM    5  C12 UNL     1      -0.958   5.402  14.487  1.00  0.00     0.016 C 
HETATM    6  C13 UNL     1      -0.188   6.583  12.350  1.00  0.00     0.004 C 
HETATM    7  C14 UNL     1       0.712   5.375  12.046  1.00  0.00     0.007 C 
HETATM    8  C15 UNL     1       1.813   5.780  11.070  1.00  0.00     0.007 C 
HETATM    9  C16 UNL     1       2.806   6.741  11.741  1.00  0.00     0.010 C 
HETATM   10  C17 UNL     1       3.972   7.245  10.825  1.00  0.00     0.018 C 
HETATM   11  C18 UNL     1       5.234   6.392  11.075  1.00  0.00     0.023 C 
HETATM   12  C19 UNL     1       3.635   7.169   9.319  1.00  0.00     0.023 C 
HETATM   13  C20 UNL     1       4.361   8.702  11.142  1.00  0.00     0.135 C 
HETATM   14  O2  UNL     1       4.851   9.440  10.279  1.00  0.00    -0.297 OA
HETATM   15  C21 UNL     1       4.264   9.208  12.567  1.00  0.00     0.080 C 
HETATM   16  C22 UNL     1       3.134   8.588  13.378  1.00  0.00     0.018 C 
HETATM   17  C23 UNL     1       2.131   7.894  12.483  1.00  0.00    -0.026 A 
HETATM   18  C24 UNL     1       1.106   8.765  11.809  1.00  0.00     0.021 A 
HETATM   19  C25 UNL     1       0.636   7.786  12.880  1.00  0.00    -0.027 A 
HETATM   20  C26 UNL     1       0.216   8.362  14.236  1.00  0.00     0.011 C 
HETATM   21  C27 UNL     1      -1.287   8.404  14.555  1.00  0.00     0.011 C 
HETATM   22  C28 UNL     1      -2.176   7.573  13.618  1.00  0.00    -0.032 C 
HETATM   23  C29 UNL     1      -2.530   8.462  12.387  1.00  0.00     0.016 C 
ENDROOT
BRANCH   1  24
HETATM   24  C6  UNL     1      -4.746   7.930  14.411  1.00  0.00    -0.011 C 
HETATM   25  C7  UNL     1      -4.522   8.978  15.510  1.00  0.00     0.010 C 
BRANCH  24  26
HETATM   26  C5  UNL     1      -6.003   7.079  14.743  1.00  0.00     0.040 C 
BRANCH  26  27
HETATM   27  C4  UNL     1      -7.055   7.736  15.655  1.00  0.00     0.142 C 
BRANCH  27  28
HETATM   28  C3  UNL     1      -8.452   7.678  15.104  1.00  0.00     0.018 C 
HETATM   29  C2  UNL     1      -8.988   6.792  14.235  1.00  0.00     0.010 C 
HETATM   30  C1  UNL     1      -8.248   5.672  13.563  1.00  0.00     0.055 C 
BRANCH  29  31
HETATM   31  C30 UNL     1     -10.421   6.882  13.847  1.00  0.00     0.171 C 
HETATM   32  O3  UNL     1     -10.839   7.211  12.750  1.00  0.00    -0.646 OA
BRANCH  31  33
HETATM   33  O4  UNL     1     -11.276   6.565  14.834  1.00  0.00    -0.773 OA
HETATM   34  H46 UNL     1     -12.155   6.669  14.415  1.00  0.00     0.167 HD
ENDBRANCH  31  33
ENDBRANCH  29  31
ENDBRANCH  27  28
BRANCH  27  35
HETATM   35  O1  UNL     1      -7.026   7.108  16.935  1.00  0.00    -0.392 OA
HETATM   36  H6  UNL     1      -6.127   7.216  17.288  1.00  0.00     0.210 HD
ENDBRANCH  27  35
ENDBRANCH  26  27
ENDBRANCH  24  26
ENDBRANCH   1  24
TORSDOF 7
ENDMDL
MODEL 9
REMARK minimizedAffinity -9.1206255
REMARK  7 active torsions:
REMARK  status: ('A' for Active; 'I' for Inactive)
REMARK    1  A    between atoms: C2_2  and  C30_32 
REMARK    2  A    between atoms: C3_3  and  C4_4 
REMARK    3  A    between atoms: C4_4  and  O1_5 
REMARK    4  A    between atoms: C4_4  and  C5_6 
REMARK    5  A    between atoms: C5_6  and  C6_7 
REMARK    6  A    between atoms: C6_7  and  C8_9 
REMARK    7  A    between atoms: C30_32  and  O4_34 
ROOT
HETATM    1  C8  UNL     1      -2.852   6.031  13.717  1.00  0.00    -0.002 C 
HETATM    2  C9  UNL     1      -2.998   5.130  12.456  1.00  0.00     0.006 C 
HETATM    3  C10 UNL     1      -1.655   5.153  11.706  1.00  0.00     0.011 C 
HETATM    4  C11 UNL     1      -0.660   5.803  12.687  1.00  0.00    -0.032 C 
HETATM    5  C12 UNL     1      -0.163   4.662  13.630  1.00  0.00     0.016 C 
HETATM    6  C13 UNL     1       0.541   6.504  11.996  1.00  0.00     0.004 C 
HETATM    7  C14 UNL     1       1.570   5.533  11.396  1.00  0.00     0.007 C 
HETATM    8  C15 UNL     1       2.651   6.313  10.654  1.00  0.00     0.007 C 
HETATM    9  C16 UNL     1       3.519   7.109  11.640  1.00  0.00     0.010 C 
HETATM   10  C17 UNL     1       4.652   7.972  10.988  1.00  0.00     0.018 C 
HETATM   11  C18 UNL     1       5.988   7.200  11.043  1.00  0.00     0.023 C 
HETATM   12  C19 UNL     1       4.368   8.329   9.513  1.00  0.00     0.023 C 
HETATM   13  C20 UNL     1       4.879   9.291  11.752  1.00  0.00     0.135 C 
HETATM   14  O2  UNL     1       5.314  10.298  11.182  1.00  0.00    -0.297 OA
HETATM   15  C21 UNL     1       4.689   9.326  13.254  1.00  0.00     0.080 C 
HETATM   16  C22 UNL     1       3.607   8.390  13.774  1.00  0.00     0.018 C 
HETATM   17  C23 UNL     1       2.707   7.915  12.653  1.00  0.00    -0.026 A 
HETATM   18  C24 UNL     1       1.617   8.854  12.214  1.00  0.00     0.021 A 
HETATM   19  C25 UNL     1       1.220   7.556  12.911  1.00  0.00    -0.027 A 
HETATM   20  C26 UNL     1       0.704   7.651  14.350  1.00  0.00     0.011 C 
HETATM   21  C27 UNL     1      -0.804   7.458  14.578  1.00  0.00     0.011 C 
HETATM   22  C28 UNL     1      -1.575   6.876  13.384  1.00  0.00    -0.032 C 
HETATM   23  C29 UNL     1      -1.983   8.062  12.459  1.00  0.00     0.016 C 
ENDROOT
BRANCH   1  24
HETATM   24  C6  UNL     1      -4.189   6.741  14.096  1.00  0.00    -0.011 C 
HETATM   25  C7  UNL     1      -3.986   7.794  15.193  1.00  0.00     0.010 C 
BRANCH  24  26
HETATM   26  C5  UNL     1      -5.239   5.693  14.559  1.00  0.00     0.040 C 
BRANCH  26  27
HETATM   27  C4  UNL     1      -6.264   5.237  13.506  1.00  0.00     0.142 C 
BRANCH  27  28
HETATM   28  C3  UNL     1      -5.771   4.123  12.626  1.00  0.00     0.018 C 
HETATM   29  C2  UNL     1      -6.367   2.947  12.328  1.00  0.00     0.010 C 
HETATM   30  C1  UNL     1      -7.673   2.463  12.887  1.00  0.00     0.055 C 
BRANCH  29  31
HETATM   31  C30 UNL     1      -5.726   1.989  11.387  1.00  0.00     0.171 C 
HETATM   32  O3  UNL     1      -6.311   1.165  10.707  1.00  0.00    -0.646 OA
BRANCH  31  33
HETATM   33  O4  UNL     1      -4.386   2.089  11.332  1.00  0.00    -0.773 OA
HETATM   34  H46 UNL     1      -4.135   1.406  10.676  1.00  0.00     0.167 HD
ENDBRANCH  31  33
ENDBRANCH  29  31
ENDBRANCH  27  28
BRANCH  27  35
HETATM   35  O1  UNL     1      -7.461   4.826  14.161  1.00  0.00    -0.392 OA
HETATM   36  H6  UNL     1      -7.786   5.586  14.672  1.00  0.00     0.210 HD
ENDBRANCH  27  35
ENDBRANCH  26  27
ENDBRANCH  24  26
ENDBRANCH   1  24
TORSDOF 7
ENDMDL
