MODEL 1
REMARK minimizedAffinity -8.0418148
REMARK CNNscore 0.554563999
REMARK CNNaffinity 7.14298677
REMARK  11 active torsions:
REMARK  status: ('A' for Active; 'I' for Inactive)
REMARK    1  A    between atoms: C2_2  and  C4_4 
REMARK    2  A    between atoms: C4_4  and  C6_6 
REMARK    3  A    between atoms: C7_7  and  C8_8 
REMARK    4  A    between atoms: C8_8  and  C10_10 
REMARK    5  A    between atoms: C24_24  and  O1_25 
REMARK    6  A    between atoms: O1_25  and  C25_26 
REMARK    7  A    between atoms: C26_28  and  C27_29 
REMARK    8  A    between atoms: C27_29  and  O3_30 
REMARK    9  A    between atoms: C28_31  and  O4_32 
REMARK   10  A    between atoms: C29_33  and  O5_34 
REMARK   11  A    between atoms: C30_35  and  O6_36 
ROOT
HETATM    1  C10 UNL     1       3.158  55.250  -8.323  1.00  0.00     0.001 C 
HETATM    2  C11 UNL     1       2.271  56.226  -7.491  1.00  0.00     0.006 C 
HETATM    3  C12 UNL     1       0.805  55.884  -7.807  1.00  0.00     0.009 C 
HETATM    4  C13 UNL     1       0.908  54.601  -8.621  1.00  0.00     0.032 C 
HETATM    5  C14 UNL     1       2.196  54.786  -9.465  1.00  0.00    -0.033 C 
HETATM    6  C15 UNL     1       2.111  55.866 -10.563  1.00  0.00     0.016 C 
HETATM    7  C16 UNL     1       2.530  53.419 -10.093  1.00  0.00     0.010 C 
HETATM    8  C17 UNL     1       1.346  52.837 -10.887  1.00  0.00     0.009 C 
HETATM    9  C18 UNL     1       0.059  52.723 -10.048  1.00  0.00     0.035 C 
HETATM   10  C19 UNL     1      -0.336  54.049  -9.331  1.00  0.00     0.105 C 
HETATM   11  C20 UNL     1      -1.101  55.004 -10.251  1.00  0.00     0.045 C 
HETATM   12  C21 UNL     1      -2.463  54.377 -10.571  1.00  0.00     0.045 C 
HETATM   13  C22 UNL     1      -2.434  52.881 -10.204  1.00  0.00     0.106 C 
HETATM   14  C23 UNL     1      -3.766  52.219 -10.582  1.00  0.00     0.074 C 
HETATM   15  C24 UNL     1      -3.803  50.721 -10.259  1.00  0.00     0.127 C 
HETATM   16  C31 UNL     1      -2.618  49.995 -10.900  1.00  0.00     0.033 C 
HETATM   17  C32 UNL     1      -1.288  50.619 -10.486  1.00  0.00     0.015 C 
HETATM   18  C33 UNL     1      -1.195  52.141 -10.800  1.00  0.00    -0.003 C 
HETATM   19  C34 UNL     1      -1.121  52.314 -12.335  1.00  0.00     0.019 C 
HETATM   20  O7  UNL     1      -2.297  52.776  -8.767  1.00  0.00    -0.228 OA
HETATM   21  O8  UNL     1      -1.293  53.744  -8.282  1.00  0.00    -0.228 OA
ENDROOT
BRANCH  15  22
HETATM   22  O1  UNL     1      -5.067  50.228 -10.728  1.00  0.00    -0.353 OA
BRANCH  22  23
HETATM   23  C25 UNL     1      -5.866  49.630  -9.711  1.00  0.00     0.292 C 
HETATM   24  O2  UNL     1      -5.596  48.235  -9.606  1.00  0.00    -0.348 OA
HETATM   25  C26 UNL     1      -5.852  47.467 -10.803  1.00  0.00     0.179 C 
HETATM   26  C28 UNL     1      -6.933  48.084 -11.710  1.00  0.00     0.180 C 
HETATM   27  C29 UNL     1      -7.987  48.736 -10.825  1.00  0.00     0.183 C 
HETATM   28  C30 UNL     1      -7.369  49.873 -10.001  1.00  0.00     0.204 C 
BRANCH  25  29
HETATM   29  C27 UNL     1      -4.567  47.192 -11.601  1.00  0.00     0.198 C 
BRANCH  29  30
HETATM   30  O3  UNL     1      -4.883  46.817 -12.942  1.00  0.00    -0.398 OA
HETATM   31  H43 UNL     1      -4.104  47.026 -13.488  1.00  0.00     0.209 HD
ENDBRANCH  29  30
ENDBRANCH  25  29
BRANCH  26  32
HETATM   32  O4  UNL     1      -7.542  47.078 -12.527  1.00  0.00    -0.390 OA
HETATM   33  H45 UNL     1      -8.387  47.477 -12.828  1.00  0.00     0.210 HD
ENDBRANCH  26  32
BRANCH  27  34
HETATM   34  O5  UNL     1      -9.065  49.225 -11.643  1.00  0.00    -0.390 OA
HETATM   35  H47 UNL     1      -9.662  49.702 -11.035  1.00  0.00     0.210 HD
ENDBRANCH  27  34
BRANCH  28  36
HETATM   36  O6  UNL     1      -8.133  49.976  -8.781  1.00  0.00    -0.388 OA
HETATM   37  H49 UNL     1      -7.858  49.240  -8.205  1.00  0.00     0.210 HD
ENDBRANCH  28  36
ENDBRANCH  22  23
ENDBRANCH  15  22
BRANCH   1  38
HETATM   38  C8  UNL     1       4.533  55.875  -8.674  1.00  0.00     0.008 C 
HETATM   39  C9  UNL     1       5.315  55.066  -9.711  1.00  0.00     0.014 C 
BRANCH  38  40
HETATM   40  C7  UNL     1       5.388  55.984  -7.424  1.00  0.00    -0.026 C 
HETATM   41  C6  UNL     1       5.622  57.138  -6.777  1.00  0.00    -0.026 C 
BRANCH  41  42
HETATM   42  C4  UNL     1       6.454  57.336  -5.522  1.00  0.00     0.007 C 
HETATM   43  C5  UNL     1       6.641  58.816  -5.155  1.00  0.00     0.014 C 
BRANCH  42  44
HETATM   44  C2  UNL     1       7.815  56.585  -5.620  1.00  0.00    -0.015 C 
HETATM   45  C1  UNL     1       8.152  55.833  -4.328  1.00  0.00     0.010 C 
HETATM   46  C3  UNL     1       7.851  55.588  -6.788  1.00  0.00     0.010 C 
ENDBRANCH  42  44
ENDBRANCH  41  42
ENDBRANCH  38  40
ENDBRANCH   1  38
TORSDOF 11
ENDMDL
MODEL 2
REMARK minimizedAffinity -8.35889244
REMARK CNNscore 0.410737842
REMARK CNNaffinity 6.66111994
REMARK  11 active torsions:
REMARK  status: ('A' for Active; 'I' for Inactive)
REMARK    1  A    between atoms: C2_2  and  C4_4 
REMARK    2  A    between atoms: C4_4  and  C6_6 
REMARK    3  A    between atoms: C7_7  and  C8_8 
REMARK    4  A    between atoms: C8_8  and  C10_10 
REMARK    5  A    between atoms: C24_24  and  O1_25 
REMARK    6  A    between atoms: O1_25  and  C25_26 
REMARK    7  A    between atoms: C26_28  and  C27_29 
REMARK    8  A    between atoms: C27_29  and  O3_30 
REMARK    9  A    between atoms: C28_31  and  O4_32 
REMARK   10  A    between atoms: C29_33  and  O5_34 
REMARK   11  A    between atoms: C30_35  and  O6_36 
ROOT
HETATM    1  C10 UNL     1       6.665  55.987  -5.672  1.00  0.00     0.001 C 
HETATM    2  C11 UNL     1       6.256  57.470  -5.929  1.00  0.00     0.006 C 
HETATM    3  C12 UNL     1       5.159  57.455  -7.007  1.00  0.00     0.009 C 
HETATM    4  C13 UNL     1       4.832  55.976  -7.159  1.00  0.00     0.032 C 
HETATM    5  C14 UNL     1       6.196  55.262  -6.976  1.00  0.00    -0.033 C 
HETATM    6  C15 UNL     1       7.215  55.492  -8.111  1.00  0.00     0.016 C 
HETATM    7  C16 UNL     1       5.906  53.756  -6.823  1.00  0.00     0.010 C 
HETATM    8  C17 UNL     1       5.068  53.203  -7.991  1.00  0.00     0.009 C 
HETATM    9  C18 UNL     1       3.747  53.969  -8.198  1.00  0.00     0.035 C 
HETATM   10  C19 UNL     1       3.934  55.511  -8.315  1.00  0.00     0.105 C 
HETATM   11  C20 UNL     1       4.329  55.946  -9.729  1.00  0.00     0.045 C 
HETATM   12  C21 UNL     1       3.142  55.680 -10.663  1.00  0.00     0.045 C 
HETATM   13  C22 UNL     1       2.149  54.731  -9.966  1.00  0.00     0.106 C 
HETATM   14  C23 UNL     1       0.987  54.396 -10.913  1.00  0.00     0.074 C 
HETATM   15  C24 UNL     1      -0.036  53.439 -10.290  1.00  0.00     0.127 C 
HETATM   16  C31 UNL     1       0.647  52.170  -9.774  1.00  0.00     0.033 C 
HETATM   17  C32 UNL     1       1.770  52.496  -8.794  1.00  0.00     0.015 C 
HETATM   18  C33 UNL     1       2.843  53.460  -9.381  1.00  0.00    -0.003 C 
HETATM   19  C34 UNL     1       3.633  52.698 -10.470  1.00  0.00     0.019 C 
HETATM   20  O7  UNL     1       1.586  55.427  -8.830  1.00  0.00    -0.228 OA
HETATM   21  O8  UNL     1       2.648  56.154  -8.105  1.00  0.00    -0.228 OA
ENDROOT
BRANCH  15  22
HETATM   22  O1  UNL     1      -1.014  53.162 -11.303  1.00  0.00    -0.353 OA
BRANCH  22  23
HETATM   23  C25 UNL     1      -2.272  52.733 -10.789  1.00  0.00     0.292 C 
HETATM   24  O2  UNL     1      -2.448  51.332 -10.978  1.00  0.00    -0.348 OA
HETATM   25  C26 UNL     1      -2.419  50.889 -12.353  1.00  0.00     0.179 C 
HETATM   26  C28 UNL     1      -2.858  51.971 -13.357  1.00  0.00     0.180 C 
HETATM   27  C29 UNL     1      -3.955  52.807 -12.712  1.00  0.00     0.183 C 
HETATM   28  C30 UNL     1      -3.423  53.522 -11.464  1.00  0.00     0.204 C 
BRANCH  25  29
HETATM   29  C27 UNL     1      -1.050  50.308 -12.746  1.00  0.00     0.198 C 
BRANCH  29  30
HETATM   30  O3  UNL     1      -1.173  49.478 -13.902  1.00  0.00    -0.398 OA
HETATM   31  H43 UNL     1      -0.299  49.454 -14.330  1.00  0.00     0.209 HD
ENDBRANCH  29  30
ENDBRANCH  25  29
BRANCH  26  32
HETATM   32  O4  UNL     1      -3.351  51.372 -14.562  1.00  0.00    -0.390 OA
HETATM   33  H45 UNL     1      -3.875  52.080 -14.998  1.00  0.00     0.210 HD
ENDBRANCH  26  32
BRANCH  27  34
HETATM   34  O5  UNL     1      -4.461  53.755 -13.668  1.00  0.00    -0.390 OA
HETATM   35  H47 UNL     1      -5.095  54.313 -13.177  1.00  0.00     0.210 HD
ENDBRANCH  27  34
BRANCH  28  36
HETATM   36  O6  UNL     1      -4.539  53.700 -10.567  1.00  0.00    -0.388 OA
HETATM   37  H49 UNL     1      -4.716  52.836 -10.151  1.00  0.00     0.210 HD
ENDBRANCH  28  36
ENDBRANCH  22  23
ENDBRANCH  15  22
BRANCH   1  38
HETATM   38  C8  UNL     1       8.139  55.865  -5.205  1.00  0.00     0.008 C 
HETATM   39  C9  UNL     1       8.279  55.278  -3.799  1.00  0.00     0.014 C 
BRANCH  38  40
HETATM   40  C7  UNL     1       8.799  57.233  -5.208  1.00  0.00    -0.026 C 
HETATM   41  C6  UNL     1      10.085  57.442  -4.881  1.00  0.00    -0.026 C 
BRANCH  41  42
HETATM   42  C4  UNL     1      10.826  58.768  -4.865  1.00  0.00     0.007 C 
HETATM   43  C5  UNL     1      12.056  58.756  -3.945  1.00  0.00     0.014 C 
BRANCH  42  44
HETATM   44  C2  UNL     1       9.865  59.949  -4.536  1.00  0.00    -0.015 C 
HETATM   45  C1  UNL     1      10.344  60.761  -3.327  1.00  0.00     0.010 C 
HETATM   46  C3  UNL     1       9.683  60.905  -5.724  1.00  0.00     0.010 C 
ENDBRANCH  42  44
ENDBRANCH  41  42
ENDBRANCH  38  40
ENDBRANCH   1  38
TORSDOF 11
ENDMDL
MODEL 3
REMARK minimizedAffinity -9.64597893
REMARK CNNscore 0.407635689
REMARK CNNaffinity 7.01351404
REMARK  11 active torsions:
REMARK  status: ('A' for Active; 'I' for Inactive)
REMARK    1  A    between atoms: C2_2  and  C4_4 
REMARK    2  A    between atoms: C4_4  and  C6_6 
REMARK    3  A    between atoms: C7_7  and  C8_8 
REMARK    4  A    between atoms: C8_8  and  C10_10 
REMARK    5  A    between atoms: C24_24  and  O1_25 
REMARK    6  A    between atoms: O1_25  and  C25_26 
REMARK    7  A    between atoms: C26_28  and  C27_29 
REMARK    8  A    between atoms: C27_29  and  O3_30 
REMARK    9  A    between atoms: C28_31  and  O4_32 
REMARK   10  A    between atoms: C29_33  and  O5_34 
REMARK   11  A    between atoms: C30_35  and  O6_36 
ROOT
HETATM    1  C10 UNL     1      -3.285  51.021 -24.403  1.00  0.00     0.001 C 
HETATM    2  C11 UNL     1      -4.608  51.745 -24.006  1.00  0.00     0.006 C 
HETATM    3  C12 UNL     1      -4.715  51.679 -22.473  1.00  0.00     0.009 C 
HETATM    4  C13 UNL     1      -3.362  51.125 -22.047  1.00  0.00     0.032 C 
HETATM    5  C14 UNL     1      -2.993  50.115 -23.163  1.00  0.00    -0.033 C 
HETATM    6  C15 UNL     1      -3.867  48.844 -23.212  1.00  0.00     0.016 C 
HETATM    7  C16 UNL     1      -1.514  49.731 -22.960  1.00  0.00     0.010 C 
HETATM    8  C17 UNL     1      -1.236  49.214 -21.537  1.00  0.00     0.009 C 
HETATM    9  C18 UNL     1      -1.671  50.206 -20.442  1.00  0.00     0.035 C 
HETATM   10  C19 UNL     1      -3.144  50.691 -20.591  1.00  0.00     0.105 C 
HETATM   11  C20 UNL     1      -4.148  49.699 -19.996  1.00  0.00     0.045 C 
HETATM   12  C21 UNL     1      -3.956  49.673 -18.475  1.00  0.00     0.045 C 
HETATM   13  C22 UNL     1      -2.603  50.320 -18.122  1.00  0.00     0.106 C 
HETATM   14  C23 UNL     1      -2.359  50.240 -16.608  1.00  0.00     0.074 C 
HETATM   15  C24 UNL     1      -1.019  50.852 -16.185  1.00  0.00     0.127 C 
HETATM   16  C31 UNL     1       0.138  50.230 -16.968  1.00  0.00     0.033 C 
HETATM   17  C32 UNL     1      -0.076  50.351 -18.475  1.00  0.00     0.015 C 
HETATM   18  C33 UNL     1      -1.422  49.737 -18.960  1.00  0.00    -0.003 C 
HETATM   19  C34 UNL     1      -1.332  48.200 -18.813  1.00  0.00     0.019 C 
HETATM   20  O7  UNL     1      -2.673  51.722 -18.470  1.00  0.00    -0.228 OA
HETATM   21  O8  UNL     1      -3.325  51.886 -19.785  1.00  0.00    -0.228 OA
ENDROOT
BRANCH  15  22
HETATM   22  O1  UNL     1      -0.898  50.643 -14.769  1.00  0.00    -0.353 OA
BRANCH  22  23
HETATM   23  C25 UNL     1      -2.082  50.947 -14.037  1.00  0.00     0.292 C 
HETATM   24  O2  UNL     1      -1.893  52.099 -13.220  1.00  0.00    -0.348 OA
HETATM   25  C26 UNL     1      -0.845  51.986 -12.232  1.00  0.00     0.179 C 
HETATM   26  C28 UNL     1      -0.577  50.537 -11.782  1.00  0.00     0.180 C 
HETATM   27  C29 UNL     1      -1.902  49.788 -11.766  1.00  0.00     0.183 C 
HETATM   28  C30 UNL     1      -2.505  49.730 -13.175  1.00  0.00     0.204 C 
BRANCH  25  29
HETATM   29  C27 UNL     1       0.459  52.660 -12.692  1.00  0.00     0.198 C 
BRANCH  29  30
HETATM   30  O3  UNL     1       0.454  52.845 -14.108  1.00  0.00    -0.398 OA
HETATM   31  H43 UNL     1       1.063  53.579 -14.302  1.00  0.00     0.209 HD
ENDBRANCH  29  30
ENDBRANCH  25  29
BRANCH  26  32
HETATM   32  O4  UNL     1       0.008  50.515 -10.475  1.00  0.00    -0.390 OA
HETATM   33  H45 UNL     1      -0.138  49.599 -10.150  1.00  0.00     0.210 HD
ENDBRANCH  26  32
BRANCH  27  34
HETATM   34  O5  UNL     1      -1.697  48.463 -11.243  1.00  0.00    -0.390 OA
HETATM   35  H47 UNL     1      -2.556  48.007 -11.335  1.00  0.00     0.210 HD
ENDBRANCH  27  34
BRANCH  28  36
HETATM   36  O6  UNL     1      -3.938  49.663 -13.022  1.00  0.00    -0.388 OA
HETATM   37  H49 UNL     1      -4.246  50.559 -12.789  1.00  0.00     0.210 HD
ENDBRANCH  28  36
ENDBRANCH  22  23
ENDBRANCH  15  22
BRANCH   1  38
HETATM   38  C8  UNL     1      -3.371  50.393 -25.819  1.00  0.00     0.008 C 
HETATM   39  C9  UNL     1      -3.293  48.865 -25.806  1.00  0.00     0.014 C 
BRANCH  38  40
HETATM   40  C7  UNL     1      -2.238  50.912 -26.687  1.00  0.00    -0.026 C 
HETATM   41  C6  UNL     1      -0.993  51.134 -26.237  1.00  0.00    -0.026 C 
BRANCH  41  42
HETATM   42  C4  UNL     1       0.196  51.642 -27.033  1.00  0.00     0.007 C 
HETATM   43  C5  UNL     1       1.520  50.976 -26.625  1.00  0.00     0.014 C 
BRANCH  42  44
HETATM   44  C2  UNL     1       0.288  53.196 -26.984  1.00  0.00    -0.015 C 
HETATM   45  C1  UNL     1      -0.625  53.860 -28.021  1.00  0.00     0.010 C 
HETATM   46  C3  UNL     1      -0.057  53.759 -25.597  1.00  0.00     0.010 C 
ENDBRANCH  42  44
ENDBRANCH  41  42
ENDBRANCH  38  40
ENDBRANCH   1  38
TORSDOF 11
ENDMDL
MODEL 4
REMARK minimizedAffinity -8.87364864
REMARK CNNscore 0.335012853
REMARK CNNaffinity 6.06720972
REMARK  11 active torsions:
REMARK  status: ('A' for Active; 'I' for Inactive)
REMARK    1  A    between atoms: C2_2  and  C4_4 
REMARK    2  A    between atoms: C4_4  and  C6_6 
REMARK    3  A    between atoms: C7_7  and  C8_8 
REMARK    4  A    between atoms: C8_8  and  C10_10 
REMARK    5  A    between atoms: C24_24  and  O1_25 
REMARK    6  A    between atoms: O1_25  and  C25_26 
REMARK    7  A    between atoms: C26_28  and  C27_29 
REMARK    8  A    between atoms: C27_29  and  O3_30 
REMARK    9  A    between atoms: C28_31  and  O4_32 
REMARK   10  A    between atoms: C29_33  and  O5_34 
REMARK   11  A    between atoms: C30_35  and  O6_36 
ROOT
HETATM    1  C10 UNL     1      -7.424  48.173 -29.857  1.00  0.00     0.001 C 
HETATM    2  C11 UNL     1      -8.107  48.232 -31.258  1.00  0.00     0.006 C 
HETATM    3  C12 UNL     1      -9.495  47.587 -31.109  1.00  0.00     0.009 C 
HETATM    4  C13 UNL     1      -9.636  47.392 -29.606  1.00  0.00     0.032 C 
HETATM    5  C14 UNL     1      -8.206  47.031 -29.132  1.00  0.00    -0.033 C 
HETATM    6  C15 UNL     1      -7.689  45.652 -29.594  1.00  0.00     0.016 C 
HETATM    7  C16 UNL     1      -8.203  47.105 -27.592  1.00  0.00     0.010 C 
HETATM    8  C17 UNL     1      -9.304  46.232 -26.964  1.00  0.00     0.009 C 
HETATM    9  C18 UNL     1     -10.711  46.563 -27.498  1.00  0.00     0.035 C 
HETATM   10  C19 UNL     1     -10.802  46.559 -29.054  1.00  0.00     0.105 C 
HETATM   11  C20 UNL     1     -10.991  45.151 -29.624  1.00  0.00     0.045 C 
HETATM   12  C21 UNL     1     -12.376  44.644 -29.206  1.00  0.00     0.045 C 
HETATM   13  C22 UNL     1     -12.917  45.524 -28.063  1.00  0.00     0.106 C 
HETATM   14  C23 UNL     1     -14.273  44.989 -27.581  1.00  0.00     0.074 C 
HETATM   15  C24 UNL     1     -14.865  45.810 -26.430  1.00  0.00     0.127 C 
HETATM   16  C31 UNL     1     -13.869  45.925 -25.273  1.00  0.00     0.033 C 
HETATM   17  C32 UNL     1     -12.535  46.504 -25.737  1.00  0.00     0.015 C 
HETATM   18  C33 UNL     1     -11.886  45.701 -26.904  1.00  0.00    -0.003 C 
HETATM   19  C34 UNL     1     -11.421  44.335 -26.349  1.00  0.00     0.019 C 
HETATM   20  O7  UNL     1     -13.144  46.852 -28.590  1.00  0.00    -0.228 OA
HETATM   21  O8  UNL     1     -12.014  47.255 -29.451  1.00  0.00    -0.228 OA
ENDROOT
BRANCH  15  22
HETATM   22  O1  UNL     1     -16.083  45.157 -26.041  1.00  0.00    -0.353 OA
BRANCH  22  23
HETATM   23  C25 UNL     1     -16.997  44.953 -27.115  1.00  0.00     0.292 C 
HETATM   24  O2  UNL     1     -18.217  45.651 -26.886  1.00  0.00    -0.348 OA
HETATM   25  C26 UNL     1     -18.931  45.265 -25.691  1.00  0.00     0.179 C 
HETATM   26  C28 UNL     1     -18.655  43.815 -25.251  1.00  0.00     0.180 C 
HETATM   27  C29 UNL     1     -18.477  42.961 -26.499  1.00  0.00     0.183 C 
HETATM   28  C30 UNL     1     -17.264  43.438 -27.308  1.00  0.00     0.204 C 
BRANCH  25  29
HETATM   29  C27 UNL     1     -18.684  46.240 -24.527  1.00  0.00     0.198 C 
BRANCH  29  30
HETATM   30  O3  UNL     1     -19.197  47.535 -24.843  1.00  0.00    -0.398 OA
HETATM   31  H43 UNL     1     -19.374  47.986 -23.999  1.00  0.00     0.209 HD
ENDBRANCH  29  30
ENDBRANCH  25  29
BRANCH  26  32
HETATM   32  O4  UNL     1     -19.743  43.308 -24.469  1.00  0.00    -0.390 OA
HETATM   33  H45 UNL     1     -19.638  42.332 -24.495  1.00  0.00     0.210 HD
ENDBRANCH  26  32
BRANCH  27  34
HETATM   34  O5  UNL     1     -18.328  41.582 -26.119  1.00  0.00    -0.390 OA
HETATM   35  H47 UNL     1     -18.134  41.099 -26.947  1.00  0.00     0.210 HD
ENDBRANCH  27  34
BRANCH  28  36
HETATM   36  O6  UNL     1     -17.525  43.119 -28.691  1.00  0.00    -0.388 OA
HETATM   37  H49 UNL     1     -18.164  43.776 -29.024  1.00  0.00     0.210 HD
ENDBRANCH  28  36
ENDBRANCH  22  23
ENDBRANCH  15  22
BRANCH   1  38
HETATM   38  C8  UNL     1      -5.878  48.105 -29.969  1.00  0.00     0.008 C 
HETATM   39  C9  UNL     1      -5.393  47.088 -31.004  1.00  0.00     0.014 C 
BRANCH  38  40
HETATM   40  C7  UNL     1      -5.276  47.730 -28.626  1.00  0.00    -0.026 C 
HETATM   41  C6  UNL     1      -4.567  48.577 -27.863  1.00  0.00    -0.026 C 
BRANCH  41  42
HETATM   42  C4  UNL     1      -3.939  48.290 -26.510  1.00  0.00     0.007 C 
HETATM   43  C5  UNL     1      -4.935  48.418 -25.347  1.00  0.00     0.014 C 
BRANCH  42  44
HETATM   44  C2  UNL     1      -2.664  49.156 -26.282  1.00  0.00    -0.015 C 
HETATM   45  C1  UNL     1      -2.596  50.344 -27.248  1.00  0.00     0.010 C 
HETATM   46  C3  UNL     1      -2.568  49.689 -24.846  1.00  0.00     0.010 C 
ENDBRANCH  42  44
ENDBRANCH  41  42
ENDBRANCH  38  40
ENDBRANCH   1  38
TORSDOF 11
ENDMDL
MODEL 5
REMARK minimizedAffinity -9.94747829
REMARK CNNscore 0.328261733
REMARK CNNaffinity 7.02946997
REMARK  11 active torsions:
REMARK  status: ('A' for Active; 'I' for Inactive)
REMARK    1  A    between atoms: C2_2  and  C4_4 
REMARK    2  A    between atoms: C4_4  and  C6_6 
REMARK    3  A    between atoms: C7_7  and  C8_8 
REMARK    4  A    between atoms: C8_8  and  C10_10 
REMARK    5  A    between atoms: C24_24  and  O1_25 
REMARK    6  A    between atoms: O1_25  and  C25_26 
REMARK    7  A    between atoms: C26_28  and  C27_29 
REMARK    8  A    between atoms: C27_29  and  O3_30 
REMARK    9  A    between atoms: C28_31  and  O4_32 
REMARK   10  A    between atoms: C29_33  and  O5_34 
REMARK   11  A    between atoms: C30_35  and  O6_36 
ROOT
HETATM    1  C10 UNL     1      -3.087  50.947 -24.773  1.00  0.00     0.001 C 
HETATM    2  C11 UNL     1      -4.531  51.485 -24.537  1.00  0.00     0.006 C 
HETATM    3  C12 UNL     1      -4.816  51.367 -23.030  1.00  0.00     0.009 C 
HETATM    4  C13 UNL     1      -3.465  50.982 -22.443  1.00  0.00     0.032 C 
HETATM    5  C14 UNL     1      -2.833  50.056 -23.513  1.00  0.00    -0.033 C 
HETATM    6  C15 UNL     1      -3.520  48.685 -23.683  1.00  0.00     0.016 C 
HETATM    7  C16 UNL     1      -1.352  49.861 -23.132  1.00  0.00     0.010 C 
HETATM    8  C17 UNL     1      -1.185  49.348 -21.690  1.00  0.00     0.009 C 
HETATM    9  C18 UNL     1      -1.876  50.248 -20.648  1.00  0.00     0.035 C 
HETATM   10  C19 UNL     1      -3.371  50.543 -20.975  1.00  0.00     0.105 C 
HETATM   11  C20 UNL     1      -4.302  49.416 -20.519  1.00  0.00     0.045 C 
HETATM   12  C21 UNL     1      -4.295  49.377 -18.987  1.00  0.00     0.045 C 
HETATM   13  C22 UNL     1      -3.092  50.184 -18.461  1.00  0.00     0.106 C 
HETATM   14  C23 UNL     1      -3.027  50.098 -16.930  1.00  0.00     0.074 C 
HETATM   15  C24 UNL     1      -1.841  50.867 -16.337  1.00  0.00     0.127 C 
HETATM   16  C31 UNL     1      -0.525  50.419 -16.977  1.00  0.00     0.033 C 
HETATM   17  C32 UNL     1      -0.567  50.549 -18.497  1.00  0.00     0.015 C 
HETATM   18  C33 UNL     1      -1.751  49.778 -19.151  1.00  0.00    -0.003 C 
HETATM   19  C34 UNL     1      -1.479  48.264 -19.007  1.00  0.00     0.019 C 
HETATM   20  O7  UNL     1      -3.303  51.573 -18.803  1.00  0.00    -0.228 OA
HETATM   21  O8  UNL     1      -3.804  51.684 -20.188  1.00  0.00    -0.228 OA
ENDROOT
BRANCH  15  22
HETATM   22  O1  UNL     1      -1.867  50.640 -14.920  1.00  0.00    -0.353 OA
BRANCH  22  23
HETATM   23  C25 UNL     1      -0.594  50.761 -14.293  1.00  0.00     0.292 C 
HETATM   24  O2  UNL     1      -0.386  49.711 -13.353  1.00  0.00    -0.348 OA
HETATM   25  C26 UNL     1      -1.346  49.653 -12.275  1.00  0.00     0.179 C 
HETATM   26  C28 UNL     1      -1.978  51.017 -11.939  1.00  0.00     0.180 C 
HETATM   27  C29 UNL     1      -0.921  52.096 -12.137  1.00  0.00     0.183 C 
HETATM   28  C30 UNL     1      -0.468  52.143 -13.601  1.00  0.00     0.204 C 
BRANCH  25  29
HETATM   29  C27 UNL     1      -2.437  48.598 -12.526  1.00  0.00     0.198 C 
BRANCH  29  30
HETATM   30  O3  UNL     1      -3.643  49.221 -12.970  1.00  0.00    -0.398 OA
HETATM   31  H43 UNL     1      -4.144  48.551 -13.467  1.00  0.00     0.209 HD
ENDBRANCH  29  30
ENDBRANCH  25  29
BRANCH  26  32
HETATM   32  O4  UNL     1      -2.444  51.039 -10.585  1.00  0.00    -0.390 OA
HETATM   33  H45 UNL     1      -2.540  51.992 -10.368  1.00  0.00     0.210 HD
ENDBRANCH  26  32
BRANCH  27  34
HETATM   34  O5  UNL     1      -1.452  53.368 -11.724  1.00  0.00    -0.390 OA
HETATM   35  H47 UNL     1      -0.767  54.026 -11.951  1.00  0.00     0.210 HD
ENDBRANCH  27  34
BRANCH  28  36
HETATM   36  O6  UNL     1       0.895  52.616 -13.609  1.00  0.00    -0.388 OA
HETATM   37  H49 UNL     1       1.460  51.874 -13.326  1.00  0.00     0.210 HD
ENDBRANCH  28  36
ENDBRANCH  22  23
ENDBRANCH  15  22
BRANCH   1  38
HETATM   38  C8  UNL     1      -2.916  50.349 -26.193  1.00  0.00     0.008 C 
HETATM   39  C9  UNL     1      -3.032  48.824 -26.223  1.00  0.00     0.014 C 
BRANCH  38  40
HETATM   40  C7  UNL     1      -1.556  50.726 -26.755  1.00  0.00    -0.026 C 
HETATM   41  C6  UNL     1      -1.069  51.977 -26.756  1.00  0.00    -0.026 C 
BRANCH  41  42
HETATM   42  C4  UNL     1       0.277  52.440 -27.287  1.00  0.00     0.007 C 
HETATM   43  C5  UNL     1       0.724  51.670 -28.539  1.00  0.00     0.014 C 
BRANCH  42  44
HETATM   44  C2  UNL     1       1.363  52.418 -26.171  1.00  0.00    -0.015 C 
HETATM   45  C1  UNL     1       0.748  52.463 -24.768  1.00  0.00     0.010 C 
HETATM   46  C3  UNL     1       2.274  51.185 -26.266  1.00  0.00     0.010 C 
ENDBRANCH  42  44
ENDBRANCH  41  42
ENDBRANCH  38  40
ENDBRANCH   1  38
TORSDOF 11
ENDMDL
MODEL 6
REMARK minimizedAffinity -10.4662008
REMARK CNNscore 0.315347612
REMARK CNNaffinity 6.93008614
REMARK  11 active torsions:
REMARK  status: ('A' for Active; 'I' for Inactive)
REMARK    1  A    between atoms: C2_2  and  C4_4 
REMARK    2  A    between atoms: C4_4  and  C6_6 
REMARK    3  A    between atoms: C7_7  and  C8_8 
REMARK    4  A    between atoms: C8_8  and  C10_10 
REMARK    5  A    between atoms: C24_24  and  O1_25 
REMARK    6  A    between atoms: O1_25  and  C25_26 
REMARK    7  A    between atoms: C26_28  and  C27_29 
REMARK    8  A    between atoms: C27_29  and  O3_30 
REMARK    9  A    between atoms: C28_31  and  O4_32 
REMARK   10  A    between atoms: C29_33  and  O5_34 
REMARK   11  A    between atoms: C30_35  and  O6_36 
ROOT
HETATM    1  C10 UNL     1      -0.513  50.675 -19.660  1.00  0.00     0.001 C 
HETATM    2  C11 UNL     1      -0.938  49.250 -19.192  1.00  0.00     0.006 C 
HETATM    3  C12 UNL     1      -1.848  48.668 -20.288  1.00  0.00     0.009 C 
HETATM    4  C13 UNL     1      -1.729  49.679 -21.421  1.00  0.00     0.032 C 
HETATM    5  C14 UNL     1      -1.618  51.048 -20.702  1.00  0.00    -0.033 C 
HETATM    6  C15 UNL     1      -2.898  51.515 -19.979  1.00  0.00     0.016 C 
HETATM    7  C16 UNL     1      -1.200  52.087 -21.762  1.00  0.00     0.010 C 
HETATM    8  C17 UNL     1      -2.150  52.096 -22.974  1.00  0.00     0.009 C 
HETATM    9  C18 UNL     1      -2.297  50.712 -23.633  1.00  0.00     0.035 C 
HETATM   10  C19 UNL     1      -2.672  49.581 -22.628  1.00  0.00     0.105 C 
HETATM   11  C20 UNL     1      -4.175  49.530 -22.341  1.00  0.00     0.045 C 
HETATM   12  C21 UNL     1      -4.894  49.092 -23.623  1.00  0.00     0.045 C 
HETATM   13  C22 UNL     1      -3.937  49.242 -24.821  1.00  0.00     0.106 C 
HETATM   14  C23 UNL     1      -4.661  48.875 -26.124  1.00  0.00     0.074 C 
HETATM   15  C24 UNL     1      -3.771  49.017 -27.364  1.00  0.00     0.127 C 
HETATM   16  C31 UNL     1      -3.162  50.419 -27.441  1.00  0.00     0.033 C 
HETATM   17  C32 UNL     1      -2.398  50.769 -26.166  1.00  0.00     0.015 C 
HETATM   18  C33 UNL     1      -3.261  50.648 -24.876  1.00  0.00    -0.003 C 
HETATM   19  C34 UNL     1      -4.313  51.779 -24.891  1.00  0.00     0.019 C 
HETATM   20  O7  UNL     1      -2.857  48.295 -24.651  1.00  0.00    -0.228 OA
HETATM   21  O8  UNL     1      -2.397  48.297 -23.248  1.00  0.00    -0.228 OA
ENDROOT
BRANCH  15  22
HETATM   22  O1  UNL     1      -4.594  48.714 -28.501  1.00  0.00    -0.353 OA
BRANCH  22  23
HETATM   23  C25 UNL     1      -5.428  47.573 -28.321  1.00  0.00     0.292 C 
HETATM   24  O2  UNL     1      -5.542  46.831 -29.532  1.00  0.00    -0.348 OA
HETATM   25  C26 UNL     1      -6.110  47.555 -30.646  1.00  0.00     0.179 C 
HETATM   26  C28 UNL     1      -7.060  48.691 -30.221  1.00  0.00     0.180 C 
HETATM   27  C29 UNL     1      -7.807  48.247 -28.970  1.00  0.00     0.183 C 
HETATM   28  C30 UNL     1      -6.827  48.007 -27.815  1.00  0.00     0.204 C 
BRANCH  25  29
HETATM   29  C27 UNL     1      -5.030  48.083 -31.605  1.00  0.00     0.198 C 
BRANCH  29  30
HETATM   30  O3  UNL     1      -4.510  49.328 -31.137  1.00  0.00    -0.398 OA
HETATM   31  H43 UNL     1      -3.619  49.427 -31.516  1.00  0.00     0.209 HD
ENDBRANCH  29  30
ENDBRANCH  25  29
BRANCH  26  32
HETATM   32  O4  UNL     1      -7.995  48.985 -31.265  1.00  0.00    -0.390 OA
HETATM   33  H45 UNL     1      -8.723  49.471 -30.821  1.00  0.00     0.210 HD
ENDBRANCH  26  32
BRANCH  27  34
HETATM   34  O5  UNL     1      -8.781  49.245 -28.615  1.00  0.00    -0.390 OA
HETATM   35  H47 UNL     1      -9.166  48.948 -27.768  1.00  0.00     0.210 HD
ENDBRANCH  27  34
BRANCH  28  36
HETATM   36  O6  UNL     1      -7.416  47.004 -26.961  1.00  0.00    -0.388 OA
HETATM   37  H49 UNL     1      -7.301  46.143 -27.405  1.00  0.00     0.210 HD
ENDBRANCH  28  36
ENDBRANCH  22  23
ENDBRANCH  15  22
BRANCH   1  38
HETATM   38  C8  UNL     1      -0.229  51.617 -18.461  1.00  0.00     0.008 C 
HETATM   39  C9  UNL     1       0.732  52.757 -18.805  1.00  0.00     0.014 C 
BRANCH  38  40
HETATM   40  C7  UNL     1       0.373  50.828 -17.312  1.00  0.00    -0.026 C 
HETATM   41  C6  UNL     1       1.065  51.386 -16.305  1.00  0.00    -0.026 C 
BRANCH  41  42
HETATM   42  C4  UNL     1       1.692  50.677 -15.117  1.00  0.00     0.007 C 
HETATM   43  C5  UNL     1       0.713  50.488 -13.947  1.00  0.00     0.014 C 
BRANCH  42  44
HETATM   44  C2  UNL     1       3.007  51.380 -14.667  1.00  0.00    -0.015 C 
HETATM   45  C1  UNL     1       4.048  50.379 -14.152  1.00  0.00     0.010 C 
HETATM   46  C3  UNL     1       3.642  52.208 -15.794  1.00  0.00     0.010 C 
ENDBRANCH  42  44
ENDBRANCH  41  42
ENDBRANCH  38  40
ENDBRANCH   1  38
TORSDOF 11
ENDMDL
MODEL 7
REMARK minimizedAffinity -7.91626024
REMARK CNNscore 0.301343054
REMARK CNNaffinity 6.6128335
REMARK  11 active torsions:
REMARK  status: ('A' for Active; 'I' for Inactive)
REMARK    1  A    between atoms: C2_2  and  C4_4 
REMARK    2  A    between atoms: C4_4  and  C6_6 
REMARK    3  A    between atoms: C7_7  and  C8_8 
REMARK    4  A    between atoms: C8_8  and  C10_10 
REMARK    5  A    between atoms: C24_24  and  O1_25 
REMARK    6  A    between atoms: O1_25  and  C25_26 
REMARK    7  A    between atoms: C26_28  and  C27_29 
REMARK    8  A    between atoms: C27_29  and  O3_30 
REMARK    9  A    between atoms: C28_31  and  O4_32 
REMARK   10  A    between atoms: C29_33  and  O5_34 
REMARK   11  A    between atoms: C30_35  and  O6_36 
ROOT
HETATM    1  C10 UNL     1       3.170  56.668  -9.209  1.00  0.00     0.001 C 
HETATM    2  C11 UNL     1       4.081  55.911 -10.223  1.00  0.00     0.006 C 
HETATM    3  C12 UNL     1       3.304  54.665 -10.683  1.00  0.00     0.009 C 
HETATM    4  C13 UNL     1       1.915  54.876 -10.095  1.00  0.00     0.032 C 
HETATM    5  C14 UNL     1       2.179  55.559  -8.728  1.00  0.00    -0.033 C 
HETATM    6  C15 UNL     1       2.852  54.664  -7.667  1.00  0.00     0.016 C 
HETATM    7  C16 UNL     1       0.822  56.069  -8.204  1.00  0.00     0.010 C 
HETATM    8  C17 UNL     1      -0.238  54.954  -8.147  1.00  0.00     0.009 C 
HETATM    9  C18 UNL     1      -0.437  54.244  -9.500  1.00  0.00     0.035 C 
HETATM   10  C19 UNL     1       0.892  53.733 -10.135  1.00  0.00     0.105 C 
HETATM   11  C20 UNL     1       1.327  52.380  -9.567  1.00  0.00     0.045 C 
HETATM   12  C21 UNL     1       0.312  51.321 -10.014  1.00  0.00     0.045 C 
HETATM   13  C22 UNL     1      -0.965  52.020 -10.518  1.00  0.00     0.106 C 
HETATM   14  C23 UNL     1      -2.021  50.975 -10.905  1.00  0.00     0.074 C 
HETATM   15  C24 UNL     1      -3.328  51.601 -11.402  1.00  0.00     0.127 C 
HETATM   16  C31 UNL     1      -3.879  52.599 -10.381  1.00  0.00     0.033 C 
HETATM   17  C32 UNL     1      -2.849  53.670 -10.032  1.00  0.00     0.015 C 
HETATM   18  C33 UNL     1      -1.502  53.086  -9.513  1.00  0.00    -0.003 C 
HETATM   19  C34 UNL     1      -1.750  52.469  -8.117  1.00  0.00     0.019 C 
HETATM   20  O7  UNL     1      -0.628  52.751 -11.720  1.00  0.00    -0.228 OA
HETATM   21  O8  UNL     1       0.658  53.454 -11.542  1.00  0.00    -0.228 OA
ENDROOT
BRANCH  15  22
HETATM   22  O1  UNL     1      -4.236  50.518 -11.654  1.00  0.00    -0.353 OA
BRANCH  22  23
HETATM   23  C25 UNL     1      -4.642  49.821 -10.479  1.00  0.00     0.292 C 
HETATM   24  O2  UNL     1      -4.064  48.519 -10.434  1.00  0.00    -0.348 OA
HETATM   25  C26 UNL     1      -4.411  47.655 -11.539  1.00  0.00     0.179 C 
HETATM   26  C28 UNL     1      -5.773  47.987 -12.176  1.00  0.00     0.180 C 
HETATM   27  C29 UNL     1      -6.717  48.451 -11.076  1.00  0.00     0.183 C 
HETATM   28  C30 UNL     1      -6.189  49.732 -10.418  1.00  0.00     0.204 C 
BRANCH  25  29
HETATM   29  C27 UNL     1      -3.307  47.611 -12.609  1.00  0.00     0.198 C 
BRANCH  29  30
HETATM   30  O3  UNL     1      -3.857  47.860 -13.903  1.00  0.00    -0.398 OA
HETATM   31  H43 UNL     1      -3.134  48.200 -14.460  1.00  0.00     0.209 HD
ENDBRANCH  29  30
ENDBRANCH  25  29
BRANCH  26  32
HETATM   32  O4  UNL     1      -6.320  46.836 -12.830  1.00  0.00    -0.390 OA
HETATM   33  H45 UNL     1      -7.276  47.035 -12.931  1.00  0.00     0.210 HD
ENDBRANCH  26  32
BRANCH  27  34
HETATM   34  O5  UNL     1      -8.029  48.663 -11.627  1.00  0.00    -0.390 OA
HETATM   35  H47 UNL     1      -8.564  49.036 -10.900  1.00  0.00     0.210 HD
ENDBRANCH  27  34
BRANCH  28  36
HETATM   36  O6  UNL     1      -6.666  49.738  -9.056  1.00  0.00    -0.388 OA
HETATM   37  H49 UNL     1      -6.119  49.105  -8.556  1.00  0.00     0.210 HD
ENDBRANCH  28  36
ENDBRANCH  22  23
ENDBRANCH  15  22
BRANCH   1  38
HETATM   38  C8  UNL     1       3.999  57.469  -8.171  1.00  0.00     0.008 C 
HETATM   39  C9  UNL     1       5.064  56.624  -7.469  1.00  0.00     0.014 C 
BRANCH  38  40
HETATM   40  C7  UNL     1       3.082  58.045  -7.107  1.00  0.00    -0.026 C 
HETATM   41  C6  UNL     1       3.181  57.756  -5.799  1.00  0.00    -0.026 C 
BRANCH  41  42
HETATM   42  C4  UNL     1       2.316  58.290  -4.671  1.00  0.00     0.007 C 
HETATM   43  C5  UNL     1       3.129  58.998  -3.576  1.00  0.00     0.014 C 
BRANCH  42  44
HETATM   44  C2  UNL     1       1.397  57.176  -4.085  1.00  0.00    -0.015 C 
HETATM   45  C1  UNL     1       1.212  57.321  -2.571  1.00  0.00     0.010 C 
HETATM   46  C3  UNL     1       0.012  57.152  -4.747  1.00  0.00     0.010 C 
ENDBRANCH  42  44
ENDBRANCH  41  42
ENDBRANCH  38  40
ENDBRANCH   1  38
TORSDOF 11
ENDMDL
MODEL 8
REMARK minimizedAffinity -9.41286469
REMARK CNNscore 0.263483524
REMARK CNNaffinity 6.43050575
REMARK  11 active torsions:
REMARK  status: ('A' for Active; 'I' for Inactive)
REMARK    1  A    between atoms: C2_2  and  C4_4 
REMARK    2  A    between atoms: C4_4  and  C6_6 
REMARK    3  A    between atoms: C7_7  and  C8_8 
REMARK    4  A    between atoms: C8_8  and  C10_10 
REMARK    5  A    between atoms: C24_24  and  O1_25 
REMARK    6  A    between atoms: O1_25  and  C25_26 
REMARK    7  A    between atoms: C26_28  and  C27_29 
REMARK    8  A    between atoms: C27_29  and  O3_30 
REMARK    9  A    between atoms: C28_31  and  O4_32 
REMARK   10  A    between atoms: C29_33  and  O5_34 
REMARK   11  A    between atoms: C30_35  and  O6_36 
ROOT
HETATM    1  C10 UNL     1      -2.396  47.445 -21.128  1.00  0.00     0.001 C 
HETATM    2  C11 UNL     1      -2.989  46.485 -20.051  1.00  0.00     0.006 C 
HETATM    3  C12 UNL     1      -4.472  46.275 -20.403  1.00  0.00     0.009 C 
HETATM    4  C13 UNL     1      -4.609  46.932 -21.769  1.00  0.00     0.032 C 
HETATM    5  C14 UNL     1      -3.664  48.159 -21.700  1.00  0.00    -0.033 C 
HETATM    6  C15 UNL     1      -4.119  49.284 -20.748  1.00  0.00     0.016 C 
HETATM    7  C16 UNL     1      -3.521  48.706 -23.134  1.00  0.00     0.010 C 
HETATM    8  C17 UNL     1      -4.885  49.008 -23.781  1.00  0.00     0.009 C 
HETATM    9  C18 UNL     1      -5.833  47.794 -23.780  1.00  0.00     0.035 C 
HETATM   10  C19 UNL     1      -6.003  47.139 -22.376  1.00  0.00     0.105 C 
HETATM   11  C20 UNL     1      -7.042  47.865 -21.516  1.00  0.00     0.045 C 
HETATM   12  C21 UNL     1      -8.422  47.658 -22.152  1.00  0.00     0.045 C 
HETATM   13  C22 UNL     1      -8.246  47.157 -23.599  1.00  0.00     0.106 C 
HETATM   14  C23 UNL     1      -9.616  47.012 -24.277  1.00  0.00     0.074 C 
HETATM   15  C24 UNL     1      -9.517  46.531 -25.729  1.00  0.00     0.127 C 
HETATM   16  C31 UNL     1      -8.586  47.434 -26.541  1.00  0.00     0.033 C 
HETATM   17  C32 UNL     1      -7.206  47.541 -25.897  1.00  0.00     0.015 C 
HETATM   18  C33 UNL     1      -7.250  48.034 -24.421  1.00  0.00    -0.003 C 
HETATM   19  C34 UNL     1      -7.676  49.521 -24.420  1.00  0.00     0.019 C 
HETATM   20  O7  UNL     1      -7.654  45.839 -23.546  1.00  0.00    -0.228 OA
HETATM   21  O8  UNL     1      -6.567  45.811 -22.547  1.00  0.00    -0.228 OA
ENDROOT
BRANCH  15  22
HETATM   22  O1  UNL     1     -10.855  46.512 -26.250  1.00  0.00    -0.353 OA
BRANCH  22  23
HETATM   23  C25 UNL     1     -11.183  47.655 -27.036  1.00  0.00     0.292 C 
HETATM   24  O2  UNL     1     -12.450  48.186 -26.658  1.00  0.00    -0.348 OA
HETATM   25  C26 UNL     1     -13.565  47.280 -26.804  1.00  0.00     0.179 C 
HETATM   26  C28 UNL     1     -13.353  46.215 -27.897  1.00  0.00     0.180 C 
HETATM   27  C29 UNL     1     -12.559  46.845 -29.033  1.00  0.00     0.183 C 
HETATM   28  C30 UNL     1     -11.175  47.287 -28.543  1.00  0.00     0.204 C 
BRANCH  25  29
HETATM   29  C27 UNL     1     -13.954  46.619 -25.471  1.00  0.00     0.198 C 
BRANCH  29  30
HETATM   30  O3  UNL     1     -14.776  47.497 -24.700  1.00  0.00    -0.398 OA
HETATM   31  H43 UNL     1     -15.296  46.941 -24.094  1.00  0.00     0.209 HD
ENDBRANCH  29  30
ENDBRANCH  25  29
BRANCH  26  32
HETATM   32  O4  UNL     1     -14.611  45.739 -28.390  1.00  0.00    -0.390 OA
HETATM   33  H45 UNL     1     -14.400  45.320 -29.253  1.00  0.00     0.210 HD
ENDBRANCH  26  32
BRANCH  27  34
HETATM   34  O5  UNL     1     -12.442  45.904 -30.115  1.00  0.00    -0.390 OA
HETATM   35  H47 UNL     1     -11.858  46.329 -30.773  1.00  0.00     0.210 HD
ENDBRANCH  27  34
BRANCH  28  36
HETATM   36  O6  UNL     1     -10.774  48.408 -29.358  1.00  0.00    -0.388 OA
HETATM   37  H49 UNL     1     -11.272  49.185 -29.047  1.00  0.00     0.210 HD
ENDBRANCH  28  36
ENDBRANCH  22  23
ENDBRANCH  15  22
BRANCH   1  38
HETATM   38  C8  UNL     1      -1.219  48.286 -20.569  1.00  0.00     0.008 C 
HETATM   39  C9  UNL     1      -1.338  48.569 -19.070  1.00  0.00     0.014 C 
BRANCH  38  40
HETATM   40  C7  UNL     1      -1.144  49.619 -21.293  1.00  0.00    -0.026 C 
HETATM   41  C6  UNL     1      -0.428  50.668 -20.855  1.00  0.00    -0.026 C 
BRANCH  41  42
HETATM   42  C4  UNL     1      -0.291  52.028 -21.515  1.00  0.00     0.007 C 
HETATM   43  C5  UNL     1      -0.033  51.937 -23.028  1.00  0.00     0.014 C 
BRANCH  42  44
HETATM   44  C2  UNL     1       0.779  52.902 -20.795  1.00  0.00    -0.015 C 
HETATM   45  C1  UNL     1       1.262  54.062 -21.674  1.00  0.00     0.010 C 
HETATM   46  C3  UNL     1       0.268  53.477 -19.466  1.00  0.00     0.010 C 
ENDBRANCH  42  44
ENDBRANCH  41  42
ENDBRANCH  38  40
ENDBRANCH   1  38
TORSDOF 11
ENDMDL
MODEL 9
REMARK minimizedAffinity -8.10050106
REMARK CNNscore 0.2606107
REMARK CNNaffinity 6.29318047
REMARK  11 active torsions:
REMARK  status: ('A' for Active; 'I' for Inactive)
REMARK    1  A    between atoms: C2_2  and  C4_4 
REMARK    2  A    between atoms: C4_4  and  C6_6 
REMARK    3  A    between atoms: C7_7  and  C8_8 
REMARK    4  A    between atoms: C8_8  and  C10_10 
REMARK    5  A    between atoms: C24_24  and  O1_25 
REMARK    6  A    between atoms: O1_25  and  C25_26 
REMARK    7  A    between atoms: C26_28  and  C27_29 
REMARK    8  A    between atoms: C27_29  and  O3_30 
REMARK    9  A    between atoms: C28_31  and  O4_32 
REMARK   10  A    between atoms: C29_33  and  O5_34 
REMARK   11  A    between atoms: C30_35  and  O6_36 
ROOT
HETATM    1  C10 UNL     1      -3.333  48.705 -24.824  1.00  0.00     0.001 C 
HETATM    2  C11 UNL     1      -2.234  49.182 -23.826  1.00  0.00     0.006 C 
HETATM    3  C12 UNL     1      -2.821  49.049 -22.410  1.00  0.00     0.009 C 
HETATM    4  C13 UNL     1      -4.130  48.305 -22.638  1.00  0.00     0.032 C 
HETATM    5  C14 UNL     1      -4.650  48.850 -23.992  1.00  0.00    -0.033 C 
HETATM    6  C15 UNL     1      -5.110  50.323 -23.973  1.00  0.00     0.016 C 
HETATM    7  C16 UNL     1      -5.812  47.940 -24.435  1.00  0.00     0.010 C 
HETATM    8  C17 UNL     1      -6.902  47.820 -23.354  1.00  0.00     0.009 C 
HETATM    9  C18 UNL     1      -6.353  47.339 -21.998  1.00  0.00     0.035 C 
HETATM   10  C19 UNL     1      -5.138  48.172 -21.488  1.00  0.00     0.105 C 
HETATM   11  C20 UNL     1      -5.569  49.459 -20.781  1.00  0.00     0.045 C 
HETATM   12  C21 UNL     1      -6.283  49.076 -19.479  1.00  0.00     0.045 C 
HETATM   13  C22 UNL     1      -6.667  47.585 -19.527  1.00  0.00     0.106 C 
HETATM   14  C23 UNL     1      -7.446  47.199 -18.262  1.00  0.00     0.074 C 
HETATM   15  C24 UNL     1      -7.875  45.728 -18.249  1.00  0.00     0.127 C 
HETATM   16  C31 UNL     1      -8.660  45.376 -19.516  1.00  0.00     0.033 C 
HETATM   17  C32 UNL     1      -7.868  45.712 -20.777  1.00  0.00     0.015 C 
HETATM   18  C33 UNL     1      -7.413  47.200 -20.843  1.00  0.00    -0.003 C 
HETATM   19  C34 UNL     1      -8.667  48.079 -21.057  1.00  0.00     0.019 C 
HETATM   20  O7  UNL     1      -5.446  46.810 -19.530  1.00  0.00    -0.228 OA
HETATM   21  O8  UNL     1      -4.461  47.419 -20.447  1.00  0.00    -0.228 OA
ENDROOT
BRANCH  15  22
HETATM   22  O1  UNL     1      -8.648  45.532 -17.055  1.00  0.00    -0.353 OA
BRANCH  22  23
HETATM   23  C25 UNL     1      -7.868  45.499 -15.863  1.00  0.00     0.292 C 
HETATM   24  O2  UNL     1      -7.647  44.157 -15.437  1.00  0.00    -0.348 OA
HETATM   25  C26 UNL     1      -8.842  43.402 -15.140  1.00  0.00     0.179 C 
HETATM   26  C28 UNL     1     -10.029  44.278 -14.697  1.00  0.00     0.180 C 
HETATM   27  C29 UNL     1      -9.486  45.445 -13.885  1.00  0.00     0.183 C 
HETATM   28  C30 UNL     1      -8.564  46.317 -14.745  1.00  0.00     0.204 C 
BRANCH  25  29
HETATM   29  C27 UNL     1      -9.250  42.483 -16.304  1.00  0.00     0.198 C 
BRANCH  29  30
HETATM   30  O3  UNL     1     -10.380  43.021 -16.993  1.00  0.00    -0.398 OA
HETATM   31  H43 UNL     1     -10.363  42.657 -17.895  1.00  0.00     0.209 HD
ENDBRANCH  29  30
ENDBRANCH  25  29
BRANCH  26  32
HETATM   32  O4  UNL     1     -10.948  43.519 -13.902  1.00  0.00    -0.390 OA
HETATM   33  H45 UNL     1     -11.481  44.192 -13.424  1.00  0.00     0.210 HD
ENDBRANCH  26  32
BRANCH  27  34
HETATM   34  O5  UNL     1     -10.583  46.219 -13.366  1.00  0.00    -0.390 OA
HETATM   35  H47 UNL     1     -10.177  46.993 -12.930  1.00  0.00     0.210 HD
ENDBRANCH  27  34
BRANCH  28  36
HETATM   36  O6  UNL     1      -7.602  46.923 -13.857  1.00  0.00    -0.388 OA
HETATM   37  H49 UNL     1      -6.949  46.237 -13.626  1.00  0.00     0.210 HD
ENDBRANCH  28  36
ENDBRANCH  22  23
ENDBRANCH  15  22
BRANCH   1  38
HETATM   38  C8  UNL     1      -3.206  49.403 -26.203  1.00  0.00     0.008 C 
HETATM   39  C9  UNL     1      -3.473  48.464 -27.381  1.00  0.00     0.014 C 
BRANCH  38  40
HETATM   40  C7  UNL     1      -1.810  49.975 -26.368  1.00  0.00    -0.026 C 
HETATM   41  C6  UNL     1      -1.559  51.224 -26.794  1.00  0.00    -0.026 C 
BRANCH  41  42
HETATM   42  C4  UNL     1      -0.201  51.878 -26.979  1.00  0.00     0.007 C 
HETATM   43  C5  UNL     1       0.374  51.676 -28.390  1.00  0.00     0.014 C 
BRANCH  42  44
HETATM   44  C2  UNL     1       0.800  51.427 -25.874  1.00  0.00    -0.015 C 
HETATM   45  C1  UNL     1       2.245  51.398 -26.383  1.00  0.00     0.010 C 
HETATM   46  C3  UNL     1       0.739  52.324 -24.628  1.00  0.00     0.010 C 
ENDBRANCH  42  44
ENDBRANCH  41  42
ENDBRANCH  38  40
ENDBRANCH   1  38
TORSDOF 11
ENDMDL
