MODEL 1
REMARK minimizedAffinity -9.66089725
REMARK CNNscore 0.755161583
REMARK CNNaffinity 7.71298361
REMARK  6 active torsions:
REMARK  status: ('A' for Active; 'I' for Inactive)
REMARK    1  A    between atoms: C2_2  and  C30_31 
REMARK    2  A    between atoms: C3_3  and  C4_4 
REMARK    3  A    between atoms: C4_4  and  C5_5 
REMARK    4  A    between atoms: C5_5  and  C6_6 
REMARK    5  A    between atoms: C6_6  and  C8_8 
REMARK    6  A    between atoms: C30_31  and  O2_32 
ROOT
HETATM    1  C8  UNL     1      -5.016   7.038  15.380  1.00  0.00    -0.002 C 
HETATM    2  C9  UNL     1      -5.367   8.501  14.972  1.00  0.00     0.007 C 
HETATM    3  C10 UNL     1      -4.224   9.023  14.079  1.00  0.00     0.015 C 
HETATM    4  C11 UNL     1      -3.090   7.997  14.260  1.00  0.00    -0.013 C 
HETATM    5  C12 UNL     1      -2.349   8.402  15.573  1.00  0.00     0.021 C 
HETATM    6  C13 UNL     1      -2.021   7.913  13.175  1.00  0.00    -0.070 C 
HETATM    7  C14 UNL     1      -1.633   8.978  12.448  1.00  0.00    -0.022 C 
HETATM    8  C15 UNL     1      -0.528   8.960  11.430  1.00  0.00     0.034 C 
HETATM    9  C16 UNL     1       0.015   7.547  11.116  1.00  0.00     0.013 C 
HETATM   10  C17 UNL     1       1.239   7.545  10.135  1.00  0.00     0.018 C 
HETATM   11  C18 UNL     1       2.401   8.476  10.515  1.00  0.00     0.023 C 
HETATM   12  C19 UNL     1       0.758   7.989   8.730  1.00  0.00     0.023 C 
HETATM   13  C20 UNL     1       1.801   6.122  10.014  1.00  0.00     0.135 C 
HETATM   14  O1  UNL     1       2.170   5.645   8.938  1.00  0.00    -0.297 OA
HETATM   15  C21 UNL     1       1.985   5.337  11.287  1.00  0.00     0.080 C 
HETATM   16  C22 UNL     1       0.680   5.283  12.062  1.00  0.00     0.017 C 
HETATM   17  C23 UNL     1       0.127   6.682  12.428  1.00  0.00    -0.031 C 
HETATM   18  C24 UNL     1       1.037   7.310  13.513  1.00  0.00     0.016 C 
HETATM   19  C25 UNL     1      -1.354   6.545  12.976  1.00  0.00     0.024 C 
HETATM   20  C26 UNL     1      -1.519   5.615  14.199  1.00  0.00     0.010 C 
HETATM   21  C27 UNL     1      -2.958   5.510  14.758  1.00  0.00     0.011 C 
HETATM   22  C28 UNL     1      -3.906   6.658  14.343  1.00  0.00    -0.029 C 
HETATM   23  C29 UNL     1      -4.605   6.281  12.997  1.00  0.00     0.016 C 
ENDROOT
BRANCH   1  24
HETATM   24  C6  UNL     1      -6.286   6.144  15.525  1.00  0.00    -0.014 C 
HETATM   25  C7  UNL     1      -7.217   6.655  16.631  1.00  0.00     0.010 C 
BRANCH  24  26
HETATM   26  C5  UNL     1      -7.054   6.079  14.174  1.00  0.00     0.008 C 
BRANCH  26  27
HETATM   27  C4  UNL     1      -7.345   4.652  13.688  1.00  0.00     0.028 C 
BRANCH  27  28
HETATM   28  C3  UNL     1      -6.430   4.259  12.558  1.00  0.00    -0.022 C 
HETATM   29  C2  UNL     1      -6.293   3.031  12.017  1.00  0.00    -0.064 C 
HETATM   30  C1  UNL     1      -5.386   2.807  10.836  1.00  0.00     0.045 C 
BRANCH  29  31
HETATM   31  C30 UNL     1      -7.018   1.806  12.507  1.00  0.00     0.197 C 
BRANCH  31  32
HETATM   32  O2  UNL     1      -8.418   2.051  12.553  1.00  0.00    -0.397 OA
HETATM   33  H48 UNL     1      -8.578   2.914  12.135  1.00  0.00     0.209 HD
ENDBRANCH  31  32
ENDBRANCH  29  31
ENDBRANCH  27  28
ENDBRANCH  26  27
ENDBRANCH  24  26
ENDBRANCH   1  24
TORSDOF 6
ENDMDL
MODEL 2
REMARK minimizedAffinity -6.75721407
REMARK CNNscore 0.592903197
REMARK CNNaffinity 6.05253601
REMARK  6 active torsions:
REMARK  status: ('A' for Active; 'I' for Inactive)
REMARK    1  A    between atoms: C2_2  and  C30_31 
REMARK    2  A    between atoms: C3_3  and  C4_4 
REMARK    3  A    between atoms: C4_4  and  C5_5 
REMARK    4  A    between atoms: C5_5  and  C6_6 
REMARK    5  A    between atoms: C6_6  and  C8_8 
REMARK    6  A    between atoms: C30_31  and  O2_32 
ROOT
HETATM    1  C8  UNL     1     -10.082  -7.892  -4.690  1.00  0.00    -0.002 C 
HETATM    2  C9  UNL     1     -11.193  -7.501  -3.668  1.00  0.00     0.007 C 
HETATM    3  C10 UNL     1     -10.759  -8.026  -2.285  1.00  0.00     0.015 C 
HETATM    4  C11 UNL     1      -9.596  -8.991  -2.583  1.00  0.00    -0.013 C 
HETATM    5  C12 UNL     1     -10.254 -10.351  -2.976  1.00  0.00     0.021 C 
HETATM    6  C13 UNL     1      -8.616  -9.301  -1.456  1.00  0.00    -0.070 C 
HETATM    7  C14 UNL     1      -8.980  -9.326  -0.159  1.00  0.00    -0.022 C 
HETATM    8  C15 UNL     1      -8.070  -9.707   0.974  1.00  0.00     0.034 C 
HETATM    9  C16 UNL     1      -6.589  -9.877   0.564  1.00  0.00     0.013 C 
HETATM   10  C17 UNL     1      -5.666 -10.379   1.728  1.00  0.00     0.018 C 
HETATM   11  C18 UNL     1      -6.147 -11.637   2.467  1.00  0.00     0.023 C 
HETATM   12  C19 UNL     1      -5.544  -9.259   2.792  1.00  0.00     0.023 C 
HETATM   13  C20 UNL     1      -4.260 -10.667   1.182  1.00  0.00     0.135 C 
HETATM   14  O1  UNL     1      -3.236 -10.361   1.797  1.00  0.00    -0.297 OA
HETATM   15  C21 UNL     1      -4.160 -11.439  -0.108  1.00  0.00     0.080 C 
HETATM   16  C22 UNL     1      -4.973 -10.753  -1.192  1.00  0.00     0.017 C 
HETATM   17  C23 UNL     1      -6.471 -10.602  -0.830  1.00  0.00    -0.031 C 
HETATM   18  C24 UNL     1      -7.137 -12.000  -0.865  1.00  0.00     0.016 C 
HETATM   19  C25 UNL     1      -7.179  -9.640  -1.872  1.00  0.00     0.024 C 
HETATM   20  C26 UNL     1      -7.071 -10.078  -3.350  1.00  0.00     0.010 C 
HETATM   21  C27 UNL     1      -7.793  -9.160  -4.364  1.00  0.00     0.011 C 
HETATM   22  C28 UNL     1      -8.874  -8.237  -3.757  1.00  0.00    -0.029 C 
HETATM   23  C29 UNL     1      -8.207  -6.897  -3.308  1.00  0.00     0.016 C 
ENDROOT
BRANCH   1  24
HETATM   24  C6  UNL     1      -9.918  -6.828  -5.819  1.00  0.00    -0.014 C 
HETATM   25  C7  UNL     1     -10.579  -7.279  -7.127  1.00  0.00     0.010 C 
BRANCH  24  26
HETATM   26  C5  UNL     1     -10.517  -5.466  -5.364  1.00  0.00     0.008 C 
BRANCH  26  27
HETATM   27  C4  UNL     1      -9.620  -4.257  -5.665  1.00  0.00     0.028 C 
BRANCH  27  28
HETATM   28  C3  UNL     1     -10.201  -2.987  -5.101  1.00  0.00    -0.022 C 
HETATM   29  C2  UNL     1      -9.583  -1.794  -4.988  1.00  0.00    -0.064 C 
HETATM   30  C1  UNL     1     -10.322  -0.590  -4.468  1.00  0.00     0.045 C 
BRANCH  29  31
HETATM   31  C30 UNL     1      -8.148  -1.546  -5.372  1.00  0.00     0.197 C 
BRANCH  31  32
HETATM   32  O2  UNL     1      -7.277  -2.240  -4.488  1.00  0.00    -0.397 OA
HETATM   33  H48 UNL     1      -7.827  -2.812  -3.925  1.00  0.00     0.209 HD
ENDBRANCH  31  32
ENDBRANCH  29  31
ENDBRANCH  27  28
ENDBRANCH  26  27
ENDBRANCH  24  26
ENDBRANCH   1  24
TORSDOF 6
ENDMDL
MODEL 3
REMARK minimizedAffinity -10.0591125
REMARK CNNscore 0.578380048
REMARK CNNaffinity 7.15754461
REMARK  6 active torsions:
REMARK  status: ('A' for Active; 'I' for Inactive)
REMARK    1  A    between atoms: C2_2  and  C30_31 
REMARK    2  A    between atoms: C3_3  and  C4_4 
REMARK    3  A    between atoms: C4_4  and  C5_5 
REMARK    4  A    between atoms: C5_5  and  C6_6 
REMARK    5  A    between atoms: C6_6  and  C8_8 
REMARK    6  A    between atoms: C30_31  and  O2_32 
ROOT
HETATM    1  C8  UNL     1      -3.473   6.822  14.442  1.00  0.00    -0.002 C 
HETATM    2  C9  UNL     1      -4.047   8.127  13.811  1.00  0.00     0.007 C 
HETATM    3  C10 UNL     1      -3.058   8.594  12.725  1.00  0.00     0.015 C 
HETATM    4  C11 UNL     1      -1.786   7.762  12.975  1.00  0.00    -0.013 C 
HETATM    5  C12 UNL     1      -1.005   8.498  14.109  1.00  0.00     0.021 C 
HETATM    6  C13 UNL     1      -0.803   7.593  11.820  1.00  0.00    -0.070 C 
HETATM    7  C14 UNL     1      -0.619   8.534  10.875  1.00  0.00    -0.022 C 
HETATM    8  C15 UNL     1       0.395   8.446   9.770  1.00  0.00     0.034 C 
HETATM    9  C16 UNL     1       1.096   7.072   9.665  1.00  0.00     0.013 C 
HETATM   10  C17 UNL     1       2.228   7.021   8.582  1.00  0.00     0.018 C 
HETATM   11  C18 UNL     1       3.282   8.136   8.665  1.00  0.00     0.023 C 
HETATM   12  C19 UNL     1       1.583   7.124   7.176  1.00  0.00     0.023 C 
HETATM   13  C20 UNL     1       2.963   5.675   8.667  1.00  0.00     0.135 C 
HETATM   14  O1  UNL     1       3.307   5.045   7.665  1.00  0.00    -0.297 OA
HETATM   15  C21 UNL     1       3.350   5.181  10.036  1.00  0.00     0.080 C 
HETATM   16  C22 UNL     1       2.128   5.127  10.938  1.00  0.00     0.017 C 
HETATM   17  C23 UNL     1       1.424   6.497  11.096  1.00  0.00    -0.031 C 
HETATM   18  C24 UNL     1       2.324   7.426  11.949  1.00  0.00     0.016 C 
HETATM   19  C25 UNL     1       0.022   6.299  11.808  1.00  0.00     0.024 C 
HETATM   20  C26 UNL     1       0.078   5.612  13.191  1.00  0.00     0.010 C 
HETATM   21  C27 UNL     1      -1.286   5.451  13.903  1.00  0.00     0.011 C 
HETATM   22  C28 UNL     1      -2.408   6.379  13.385  1.00  0.00    -0.029 C 
HETATM   23  C29 UNL     1      -3.154   5.669  12.209  1.00  0.00     0.016 C 
ENDROOT
BRANCH   1  24
HETATM   24  C6  UNL     1      -4.599   5.833  14.877  1.00  0.00    -0.014 C 
HETATM   25  C7  UNL     1      -5.627   6.509  15.791  1.00  0.00     0.010 C 
BRANCH  24  26
HETATM   26  C5  UNL     1      -5.309   5.242  13.625  1.00  0.00     0.008 C 
BRANCH  26  27
HETATM   27  C4  UNL     1      -6.799   4.945  13.834  1.00  0.00     0.028 C 
BRANCH  27  28
HETATM   28  C3  UNL     1      -7.586   5.160  12.568  1.00  0.00    -0.022 C 
HETATM   29  C2  UNL     1      -8.732   5.859  12.435  1.00  0.00    -0.064 C 
HETATM   30  C1  UNL     1      -9.366   6.048  11.082  1.00  0.00     0.045 C 
BRANCH  29  31
HETATM   31  C30 UNL     1      -9.460   6.514  13.579  1.00  0.00     0.197 C 
BRANCH  31  32
HETATM   32  O2  UNL     1      -9.079   5.913  14.810  1.00  0.00    -0.397 OA
HETATM   33  H48 UNL     1      -8.342   5.307  14.624  1.00  0.00     0.209 HD
ENDBRANCH  31  32
ENDBRANCH  29  31
ENDBRANCH  27  28
ENDBRANCH  26  27
ENDBRANCH  24  26
ENDBRANCH   1  24
TORSDOF 6
ENDMDL
MODEL 4
REMARK minimizedAffinity -7.57759523
REMARK CNNscore 0.52240479
REMARK CNNaffinity 6.85609293
REMARK  6 active torsions:
REMARK  status: ('A' for Active; 'I' for Inactive)
REMARK    1  A    between atoms: C2_2  and  C30_31 
REMARK    2  A    between atoms: C3_3  and  C4_4 
REMARK    3  A    between atoms: C4_4  and  C5_5 
REMARK    4  A    between atoms: C5_5  and  C6_6 
REMARK    5  A    between atoms: C6_6  and  C8_8 
REMARK    6  A    between atoms: C30_31  and  O2_32 
ROOT
HETATM    1  C8  UNL     1      -2.271   9.009  15.744  1.00  0.00    -0.002 C 
HETATM    2  C9  UNL     1      -1.176   8.447  16.701  1.00  0.00     0.007 C 
HETATM    3  C10 UNL     1      -0.041   7.878  15.827  1.00  0.00     0.015 C 
HETATM    4  C11 UNL     1      -0.639   7.811  14.409  1.00  0.00    -0.013 C 
HETATM    5  C12 UNL     1      -1.454   6.481  14.348  1.00  0.00     0.021 C 
HETATM    6  C13 UNL     1       0.324   7.776  13.227  1.00  0.00    -0.070 C 
HETATM    7  C14 UNL     1       1.542   7.204  13.294  1.00  0.00    -0.022 C 
HETATM    8  C15 UNL     1       2.488   7.073  12.135  1.00  0.00     0.034 C 
HETATM    9  C16 UNL     1       2.044   7.841  10.869  1.00  0.00     0.013 C 
HETATM   10  C17 UNL     1       2.978   7.612   9.631  1.00  0.00     0.018 C 
HETATM   11  C18 UNL     1       3.266   6.146   9.273  1.00  0.00     0.023 C 
HETATM   12  C19 UNL     1       4.350   8.278   9.907  1.00  0.00     0.023 C 
HETATM   13  C20 UNL     1       2.367   8.284   8.393  1.00  0.00     0.135 C 
HETATM   14  O1  UNL     1       3.048   8.906   7.574  1.00  0.00    -0.297 OA
HETATM   15  C21 UNL     1       0.896   8.076   8.145  1.00  0.00     0.080 C 
HETATM   16  C22 UNL     1       0.096   8.489   9.369  1.00  0.00     0.017 C 
HETATM   17  C23 UNL     1       0.489   7.709  10.647  1.00  0.00    -0.031 C 
HETATM   18  C24 UNL     1      -0.000   6.246  10.511  1.00  0.00     0.016 C 
HETATM   19  C25 UNL     1      -0.181   8.387  11.914  1.00  0.00     0.024 C 
HETATM   20  C26 UNL     1      -1.722   8.502  11.861  1.00  0.00     0.010 C 
HETATM   21  C27 UNL     1      -2.379   9.130  13.112  1.00  0.00     0.011 C 
HETATM   22  C28 UNL     1      -1.503   9.122  14.385  1.00  0.00    -0.029 C 
HETATM   23  C29 UNL     1      -0.642  10.425  14.419  1.00  0.00     0.016 C 
ENDROOT
BRANCH   1  24
HETATM   24  C6  UNL     1      -2.990  10.259  16.340  1.00  0.00    -0.014 C 
HETATM   25  C7  UNL     1      -4.434  10.378  15.837  1.00  0.00     0.010 C 
BRANCH  24  26
HETATM   26  C5  UNL     1      -2.973  10.198  17.895  1.00  0.00     0.008 C 
BRANCH  26  27
HETATM   27  C4  UNL     1      -2.321  11.417  18.561  1.00  0.00     0.028 C 
BRANCH  27  28
HETATM   28  C3  UNL     1      -1.460  12.180  17.590  1.00  0.00    -0.022 C 
HETATM   29  C2  UNL     1      -1.746  13.363  17.009  1.00  0.00    -0.064 C 
HETATM   30  C1  UNL     1      -0.747  14.042  16.110  1.00  0.00     0.045 C 
BRANCH  29  31
HETATM   31  C30 UNL     1      -3.039  14.110  17.205  1.00  0.00     0.197 C 
BRANCH  31  32
HETATM   32  O2  UNL     1      -3.302  14.938  16.079  1.00  0.00    -0.397 OA
HETATM   33  H48 UNL     1      -2.643  14.723  15.398  1.00  0.00     0.209 HD
ENDBRANCH  31  32
ENDBRANCH  29  31
ENDBRANCH  27  28
ENDBRANCH  26  27
ENDBRANCH  24  26
ENDBRANCH   1  24
TORSDOF 6
ENDMDL
MODEL 5
REMARK minimizedAffinity -8.64477062
REMARK CNNscore 0.403250337
REMARK CNNaffinity 6.66179657
REMARK  6 active torsions:
REMARK  status: ('A' for Active; 'I' for Inactive)
REMARK    1  A    between atoms: C2_2  and  C30_31 
REMARK    2  A    between atoms: C3_3  and  C4_4 
REMARK    3  A    between atoms: C4_4  and  C5_5 
REMARK    4  A    between atoms: C5_5  and  C6_6 
REMARK    5  A    between atoms: C6_6  and  C8_8 
REMARK    6  A    between atoms: C30_31  and  O2_32 
ROOT
HETATM    1  C8  UNL     1      -2.249   9.084  15.695  1.00  0.00    -0.002 C 
HETATM    2  C9  UNL     1      -1.176   8.490  16.658  1.00  0.00     0.007 C 
HETATM    3  C10 UNL     1      -0.050   7.894  15.791  1.00  0.00     0.015 C 
HETATM    4  C11 UNL     1      -0.640   7.846  14.369  1.00  0.00    -0.013 C 
HETATM    5  C12 UNL     1      -1.488   6.538  14.298  1.00  0.00     0.021 C 
HETATM    6  C13 UNL     1       0.331   7.788  13.193  1.00  0.00    -0.070 C 
HETATM    7  C14 UNL     1       1.533   7.185  13.268  1.00  0.00    -0.022 C 
HETATM    8  C15 UNL     1       2.483   7.032  12.114  1.00  0.00     0.034 C 
HETATM    9  C16 UNL     1       2.068   7.815  10.847  1.00  0.00     0.013 C 
HETATM   10  C17 UNL     1       3.005   7.564   9.615  1.00  0.00     0.018 C 
HETATM   11  C18 UNL     1       3.257   6.092   9.256  1.00  0.00     0.023 C 
HETATM   12  C19 UNL     1       4.392   8.194   9.903  1.00  0.00     0.023 C 
HETATM   13  C20 UNL     1       2.421   8.255   8.375  1.00  0.00     0.135 C 
HETATM   14  O1  UNL     1       3.123   8.861   7.562  1.00  0.00    -0.297 OA
HETATM   15  C21 UNL     1       0.947   8.086   8.116  1.00  0.00     0.080 C 
HETATM   16  C22 UNL     1       0.149   8.517   9.335  1.00  0.00     0.017 C 
HETATM   17  C23 UNL     1       0.512   7.724  10.614  1.00  0.00    -0.031 C 
HETATM   18  C24 UNL     1      -0.014   6.275  10.471  1.00  0.00     0.016 C 
HETATM   19  C25 UNL     1      -0.149   8.416  11.878  1.00  0.00     0.024 C 
HETATM   20  C26 UNL     1      -1.685   8.571  11.814  1.00  0.00     0.010 C 
HETATM   21  C27 UNL     1      -2.335   9.213  13.063  1.00  0.00     0.011 C 
HETATM   22  C28 UNL     1      -1.469   9.180  14.342  1.00  0.00    -0.029 C 
HETATM   23  C29 UNL     1      -0.574  10.460  14.385  1.00  0.00     0.016 C 
ENDROOT
BRANCH   1  24
HETATM   24  C6  UNL     1      -2.939  10.350  16.289  1.00  0.00    -0.014 C 
HETATM   25  C7  UNL     1      -4.458  10.322  16.078  1.00  0.00     0.010 C 
BRANCH  24  26
HETATM   26  C5  UNL     1      -2.617  10.476  17.806  1.00  0.00     0.008 C 
BRANCH  26  27
HETATM   27  C4  UNL     1      -1.618  11.591  18.142  1.00  0.00     0.028 C 
BRANCH  27  28
HETATM   28  C3  UNL     1      -0.756  11.221  19.320  1.00  0.00    -0.022 C 
HETATM   29  C2  UNL     1       0.551  10.887  19.295  1.00  0.00    -0.064 C 
HETATM   30  C1  UNL     1       1.300  10.612  20.572  1.00  0.00     0.045 C 
BRANCH  29  31
HETATM   31  C30 UNL     1       1.371  10.777  18.037  1.00  0.00     0.197 C 
BRANCH  31  32
HETATM   32  O2  UNL     1       2.304   9.710  18.152  1.00  0.00    -0.397 OA
HETATM   33  H48 UNL     1       2.097   9.228  18.971  1.00  0.00     0.209 HD
ENDBRANCH  31  32
ENDBRANCH  29  31
ENDBRANCH  27  28
ENDBRANCH  26  27
ENDBRANCH  24  26
ENDBRANCH   1  24
TORSDOF 6
ENDMDL
MODEL 6
REMARK minimizedAffinity -7.54184008
REMARK CNNscore 0.37130186
REMARK CNNaffinity 5.62453318
REMARK  6 active torsions:
REMARK  status: ('A' for Active; 'I' for Inactive)
REMARK    1  A    between atoms: C2_2  and  C30_31 
REMARK    2  A    between atoms: C3_3  and  C4_4 
REMARK    3  A    between atoms: C4_4  and  C5_5 
REMARK    4  A    between atoms: C5_5  and  C6_6 
REMARK    5  A    between atoms: C6_6  and  C8_8 
REMARK    6  A    between atoms: C30_31  and  O2_32 
ROOT
HETATM    1  C8  UNL     1       8.357   9.404  13.812  1.00  0.00    -0.002 C 
HETATM    2  C9  UNL     1       7.656  10.655  14.422  1.00  0.00     0.007 C 
HETATM    3  C10 UNL     1       6.194  10.654  13.935  1.00  0.00     0.015 C 
HETATM    4  C11 UNL     1       6.164   9.615  12.798  1.00  0.00    -0.013 C 
HETATM    5  C12 UNL     1       6.668  10.359  11.521  1.00  0.00     0.021 C 
HETATM    6  C13 UNL     1       4.819   8.997  12.429  1.00  0.00    -0.070 C 
HETATM    7  C14 UNL     1       3.654   9.662  12.542  1.00  0.00    -0.022 C 
HETATM    8  C15 UNL     1       2.319   9.123  12.112  1.00  0.00     0.034 C 
HETATM    9  C16 UNL     1       2.342   7.631  11.709  1.00  0.00     0.013 C 
HETATM   10  C17 UNL     1       0.971   7.105  11.159  1.00  0.00     0.018 C 
HETATM   11  C18 UNL     1       0.338   7.937  10.034  1.00  0.00     0.023 C 
HETATM   12  C19 UNL     1      -0.057   7.074  12.319  1.00  0.00     0.023 C 
HETATM   13  C20 UNL     1       1.140   5.669  10.641  1.00  0.00     0.135 C 
HETATM   14  O1  UNL     1       0.299   4.790  10.840  1.00  0.00    -0.297 OA
HETATM   15  C21 UNL     1       2.341   5.380   9.779  1.00  0.00     0.080 C 
HETATM   16  C22 UNL     1       3.614   5.792  10.499  1.00  0.00     0.017 C 
HETATM   17  C23 UNL     1       3.641   7.291  10.883  1.00  0.00    -0.031 C 
HETATM   18  C24 UNL     1       3.799   8.135   9.594  1.00  0.00     0.016 C 
HETATM   19  C25 UNL     1       4.854   7.570  11.864  1.00  0.00     0.024 C 
HETATM   20  C26 UNL     1       6.245   7.177  11.317  1.00  0.00     0.010 C 
HETATM   21  C27 UNL     1       7.434   7.483  12.258  1.00  0.00     0.011 C 
HETATM   22  C28 UNL     1       7.143   8.524  13.363  1.00  0.00    -0.029 C 
HETATM   23  C29 UNL     1       6.582   7.789  14.622  1.00  0.00     0.016 C 
ENDROOT
BRANCH   1  24
HETATM   24  C6  UNL     1       9.441   8.810  14.765  1.00  0.00    -0.014 C 
HETATM   25  C7  UNL     1      10.694   8.373  13.998  1.00  0.00     0.010 C 
BRANCH  24  26
HETATM   26  C5  UNL     1       9.822   9.850  15.858  1.00  0.00     0.008 C 
BRANCH  26  27
HETATM   27  C4  UNL     1       9.461   9.418  17.285  1.00  0.00     0.028 C 
BRANCH  27  28
HETATM   28  C3  UNL     1       9.222  10.608  18.176  1.00  0.00    -0.022 C 
HETATM   29  C2  UNL     1      10.118  11.205  18.989  1.00  0.00    -0.064 C 
HETATM   30  C1  UNL     1       9.748  12.438  19.769  1.00  0.00     0.045 C 
BRANCH  29  31
HETATM   31  C30 UNL     1      11.533  10.728  19.181  1.00  0.00     0.197 C 
BRANCH  31  32
HETATM   32  O2  UNL     1      12.096  11.320  20.346  1.00  0.00    -0.397 OA
HETATM   33  H48 UNL     1      11.382  11.792  20.807  1.00  0.00     0.209 HD
ENDBRANCH  31  32
ENDBRANCH  29  31
ENDBRANCH  27  28
ENDBRANCH  26  27
ENDBRANCH  24  26
ENDBRANCH   1  24
TORSDOF 6
ENDMDL
MODEL 7
REMARK minimizedAffinity -7.137537
REMARK CNNscore 0.327251077
REMARK CNNaffinity 6.59225225
REMARK  6 active torsions:
REMARK  status: ('A' for Active; 'I' for Inactive)
REMARK    1  A    between atoms: C2_2  and  C30_31 
REMARK    2  A    between atoms: C3_3  and  C4_4 
REMARK    3  A    between atoms: C4_4  and  C5_5 
REMARK    4  A    between atoms: C5_5  and  C6_6 
REMARK    5  A    between atoms: C6_6  and  C8_8 
REMARK    6  A    between atoms: C30_31  and  O2_32 
ROOT
HETATM    1  C8  UNL     1      -2.866   6.136  13.750  1.00  0.00    -0.002 C 
HETATM    2  C9  UNL     1      -2.360   6.106  15.224  1.00  0.00     0.007 C 
HETATM    3  C10 UNL     1      -0.835   6.329  15.198  1.00  0.00     0.015 C 
HETATM    4  C11 UNL     1      -0.441   6.145  13.721  1.00  0.00    -0.013 C 
HETATM    5  C12 UNL     1      -0.295   4.606  13.502  1.00  0.00     0.021 C 
HETATM    6  C13 UNL     1       0.868   6.769  13.247  1.00  0.00    -0.070 C 
HETATM    7  C14 UNL     1       1.942   6.910  14.047  1.00  0.00    -0.022 C 
HETATM    8  C15 UNL     1       3.275   7.441  13.601  1.00  0.00     0.034 C 
HETATM    9  C16 UNL     1       3.274   8.023  12.169  1.00  0.00     0.013 C 
HETATM   10  C17 UNL     1       4.690   8.475  11.671  1.00  0.00     0.018 C 
HETATM   11  C18 UNL     1       5.811   7.433  11.806  1.00  0.00     0.023 C 
HETATM   12  C19 UNL     1       5.137   9.715  12.486  1.00  0.00     0.023 C 
HETATM   13  C20 UNL     1       4.610   8.886  10.193  1.00  0.00     0.135 C 
HETATM   14  O1  UNL     1       5.202   9.871   9.747  1.00  0.00    -0.297 OA
HETATM   15  C21 UNL     1       3.851   7.978   9.261  1.00  0.00     0.080 C 
HETATM   16  C22 UNL     1       2.442   7.752   9.782  1.00  0.00     0.017 C 
HETATM   17  C23 UNL     1       2.406   7.132  11.200  1.00  0.00    -0.031 C 
HETATM   18  C24 UNL     1       2.880   5.660  11.114  1.00  0.00     0.016 C 
HETATM   19  C25 UNL     1       0.930   7.193  11.773  1.00  0.00     0.024 C 
HETATM   20  C26 UNL     1      -0.142   6.496  10.905  1.00  0.00     0.010 C 
HETATM   21  C27 UNL     1      -1.577   6.523  11.482  1.00  0.00     0.011 C 
HETATM   22  C28 UNL     1      -1.668   6.807  12.998  1.00  0.00    -0.029 C 
HETATM   23  C29 UNL     1      -1.753   8.351  13.224  1.00  0.00     0.016 C 
ENDROOT
BRANCH   1  24
HETATM   24  C6  UNL     1      -4.299   6.741  13.629  1.00  0.00    -0.014 C 
HETATM   25  C7  UNL     1      -4.285   8.097  12.914  1.00  0.00     0.010 C 
BRANCH  24  26
HETATM   26  C5  UNL     1      -5.237   5.754  12.877  1.00  0.00     0.008 C 
BRANCH  26  27
HETATM   27  C4  UNL     1      -6.696   5.794  13.351  1.00  0.00     0.028 C 
BRANCH  27  28
HETATM   28  C3  UNL     1      -6.797   6.234  14.787  1.00  0.00    -0.022 C 
HETATM   29  C2  UNL     1      -7.857   6.815  15.385  1.00  0.00    -0.064 C 
HETATM   30  C1  UNL     1      -7.834   7.133  16.856  1.00  0.00     0.045 C 
BRANCH  29  31
HETATM   31  C30 UNL     1      -9.134   7.176  14.673  1.00  0.00     0.197 C 
BRANCH  31  32
HETATM   32  O2  UNL     1     -10.256   6.700  15.407  1.00  0.00    -0.397 OA
HETATM   33  H48 UNL     1      -9.927   6.365  16.259  1.00  0.00     0.209 HD
ENDBRANCH  31  32
ENDBRANCH  29  31
ENDBRANCH  27  28
ENDBRANCH  26  27
ENDBRANCH  24  26
ENDBRANCH   1  24
TORSDOF 6
ENDMDL
MODEL 8
REMARK minimizedAffinity -9.14456558
REMARK CNNscore 0.312680304
REMARK CNNaffinity 6.90544081
REMARK  6 active torsions:
REMARK  status: ('A' for Active; 'I' for Inactive)
REMARK    1  A    between atoms: C2_2  and  C30_31 
REMARK    2  A    between atoms: C3_3  and  C4_4 
REMARK    3  A    between atoms: C4_4  and  C5_5 
REMARK    4  A    between atoms: C5_5  and  C6_6 
REMARK    5  A    between atoms: C6_6  and  C8_8 
REMARK    6  A    between atoms: C30_31  and  O2_32 
ROOT
HETATM    1  C8  UNL     1       1.088   7.184  12.464  1.00  0.00    -0.002 C 
HETATM    2  C9  UNL     1       1.439   5.693  12.172  1.00  0.00     0.007 C 
HETATM    3  C10 UNL     1       0.161   4.861  12.397  1.00  0.00     0.015 C 
HETATM    4  C11 UNL     1      -0.799   5.814  13.132  1.00  0.00    -0.013 C 
HETATM    5  C12 UNL     1      -0.401   5.748  14.640  1.00  0.00     0.021 C 
HETATM    6  C13 UNL     1      -2.293   5.512  13.072  1.00  0.00    -0.070 C 
HETATM    7  C14 UNL     1      -2.782   4.260  12.989  1.00  0.00    -0.022 C 
HETATM    8  C15 UNL     1      -4.243   3.912  13.012  1.00  0.00     0.034 C 
HETATM    9  C16 UNL     1      -5.184   5.136  12.927  1.00  0.00     0.013 C 
HETATM   10  C17 UNL     1      -6.704   4.774  13.060  1.00  0.00     0.018 C 
HETATM   11  C18 UNL     1      -7.082   3.911  14.274  1.00  0.00     0.023 C 
HETATM   12  C19 UNL     1      -7.144   3.983  11.801  1.00  0.00     0.023 C 
HETATM   13  C20 UNL     1      -7.537   6.062  13.124  1.00  0.00     0.135 C 
HETATM   14  O1  UNL     1      -8.610   6.186  12.530  1.00  0.00    -0.297 OA
HETATM   15  C21 UNL     1      -7.048   7.160  14.031  1.00  0.00     0.080 C 
HETATM   16  C22 UNL     1      -5.613   7.524  13.688  1.00  0.00     0.017 C 
HETATM   17  C23 UNL     1      -4.636   6.328  13.800  1.00  0.00    -0.031 C 
HETATM   18  C24 UNL     1      -4.452   5.972  15.297  1.00  0.00     0.016 C 
HETATM   19  C25 UNL     1      -3.239   6.717  13.161  1.00  0.00     0.024 C 
HETATM   20  C26 UNL     1      -2.562   7.966  13.771  1.00  0.00     0.010 C 
HETATM   21  C27 UNL     1      -1.181   8.325  13.173  1.00  0.00     0.011 C 
HETATM   22  C28 UNL     1      -0.476   7.175  12.418  1.00  0.00    -0.029 C 
HETATM   23  C29 UNL     1      -0.919   7.202  10.919  1.00  0.00     0.016 C 
ENDROOT
BRANCH   1  24
HETATM   24  C6  UNL     1       1.891   8.168  11.557  1.00  0.00    -0.014 C 
HETATM   25  C7  UNL     1       2.321   9.424  12.324  1.00  0.00     0.010 C 
BRANCH  24  26
HETATM   26  C5  UNL     1       3.139   7.454  10.964  1.00  0.00     0.008 C 
BRANCH  26  27
HETATM   27  C4  UNL     1       3.807   8.217   9.812  1.00  0.00     0.028 C 
BRANCH  27  28
HETATM   28  C3  UNL     1       3.004   8.111   8.543  1.00  0.00    -0.022 C 
HETATM   29  C2  UNL     1       2.574   6.979   7.949  1.00  0.00    -0.064 C 
HETATM   30  C1  UNL     1       1.713   7.036   6.715  1.00  0.00     0.045 C 
BRANCH  29  31
HETATM   31  C30 UNL     1       2.882   5.592   8.449  1.00  0.00     0.197 C 
BRANCH  31  32
HETATM   32  O2  UNL     1       3.333   4.774   7.377  1.00  0.00    -0.397 OA
HETATM   33  H48 UNL     1       3.454   5.348   6.602  1.00  0.00     0.209 HD
ENDBRANCH  31  32
ENDBRANCH  29  31
ENDBRANCH  27  28
ENDBRANCH  26  27
ENDBRANCH  24  26
ENDBRANCH   1  24
TORSDOF 6
ENDMDL
MODEL 9
REMARK minimizedAffinity -10.2185392
REMARK CNNscore 0.305191249
REMARK CNNaffinity 6.6952548
REMARK  6 active torsions:
REMARK  status: ('A' for Active; 'I' for Inactive)
REMARK    1  A    between atoms: C2_2  and  C30_31 
REMARK    2  A    between atoms: C3_3  and  C4_4 
REMARK    3  A    between atoms: C4_4  and  C5_5 
REMARK    4  A    between atoms: C5_5  and  C6_6 
REMARK    5  A    between atoms: C6_6  and  C8_8 
REMARK    6  A    between atoms: C30_31  and  O2_32 
ROOT
HETATM    1  C8  UNL     1      -3.311   7.025  14.396  1.00  0.00    -0.002 C 
HETATM    2  C9  UNL     1      -3.914   8.299  13.729  1.00  0.00     0.007 C 
HETATM    3  C10 UNL     1      -2.955   8.734  12.604  1.00  0.00     0.015 C 
HETATM    4  C11 UNL     1      -1.668   7.925  12.856  1.00  0.00    -0.013 C 
HETATM    5  C12 UNL     1      -0.870   8.712  13.943  1.00  0.00     0.021 C 
HETATM    6  C13 UNL     1      -0.710   7.722  11.687  1.00  0.00    -0.070 C 
HETATM    7  C14 UNL     1      -0.558   8.628  10.702  1.00  0.00    -0.022 C 
HETATM    8  C15 UNL     1       0.432   8.508   9.578  1.00  0.00     0.034 C 
HETATM    9  C16 UNL     1       1.146   7.138   9.510  1.00  0.00     0.013 C 
HETATM   10  C17 UNL     1       2.254   7.058   8.404  1.00  0.00     0.018 C 
HETATM   11  C18 UNL     1       3.297   8.186   8.420  1.00  0.00     0.023 C 
HETATM   12  C19 UNL     1       1.577   7.100   7.010  1.00  0.00     0.023 C 
HETATM   13  C20 UNL     1       3.006   5.725   8.523  1.00  0.00     0.135 C 
HETATM   14  O1  UNL     1       3.334   5.059   7.538  1.00  0.00    -0.297 OA
HETATM   15  C21 UNL     1       3.429   5.287   9.901  1.00  0.00     0.080 C 
HETATM   16  C22 UNL     1       2.228   5.255  10.832  1.00  0.00     0.017 C 
HETATM   17  C23 UNL     1       1.513   6.623  10.954  1.00  0.00    -0.031 C 
HETATM   18  C24 UNL     1       2.421   7.593  11.750  1.00  0.00     0.016 C 
HETATM   19  C25 UNL     1       0.130   6.438  11.705  1.00  0.00     0.024 C 
HETATM   20  C26 UNL     1       0.225   5.805  13.112  1.00  0.00     0.010 C 
HETATM   21  C27 UNL     1      -1.121   5.657  13.861  1.00  0.00     0.011 C 
HETATM   22  C28 UNL     1      -2.265   6.552  13.333  1.00  0.00    -0.029 C 
HETATM   23  C29 UNL     1      -3.029   5.790  12.203  1.00  0.00     0.016 C 
ENDROOT
BRANCH   1  24
HETATM   24  C6  UNL     1      -4.415   6.041  14.895  1.00  0.00    -0.014 C 
HETATM   25  C7  UNL     1      -5.747   6.759  15.140  1.00  0.00     0.010 C 
BRANCH  24  26
HETATM   26  C5  UNL     1      -4.614   4.890  13.867  1.00  0.00     0.008 C 
BRANCH  26  27
HETATM   27  C4  UNL     1      -5.985   4.897  13.178  1.00  0.00     0.028 C 
BRANCH  27  28
HETATM   28  C3  UNL     1      -6.425   3.504  12.814  1.00  0.00    -0.022 C 
HETATM   29  C2  UNL     1      -5.953   2.742  11.807  1.00  0.00    -0.064 C 
HETATM   30  C1  UNL     1      -6.443   1.332  11.612  1.00  0.00     0.045 C 
BRANCH  29  31
HETATM   31  C30 UNL     1      -4.912   3.198  10.819  1.00  0.00     0.197 C 
BRANCH  31  32
HETATM   32  O2  UNL     1      -5.416   3.095   9.493  1.00  0.00    -0.397 OA
HETATM   33  H48 UNL     1      -6.361   2.873   9.556  1.00  0.00     0.209 HD
ENDBRANCH  31  32
ENDBRANCH  29  31
ENDBRANCH  27  28
ENDBRANCH  26  27
ENDBRANCH  24  26
ENDBRANCH   1  24
TORSDOF 6
ENDMDL
