MODEL 1
REMARK minimizedAffinity -9.99547768
REMARK  8 active torsions:
REMARK  status: ('A' for Active; 'I' for Inactive)
REMARK    1  A    between atoms: C2_2  and  C30_33 
REMARK    2  A    between atoms: C3_3  and  C4_4 
REMARK    3  A    between atoms: C4_4  and  C5_5 
REMARK    4  A    between atoms: C5_5  and  C6_6 
REMARK    5  A    between atoms: C6_6  and  C8_8 
REMARK    6  A    between atoms: C15_15  and  O1_16 
REMARK    7  A    between atoms: C23_24  and  O2_25 
REMARK    8  A    between atoms: C30_33  and  O4_34 
ROOT
HETATM    1  C8  UNL     1      -1.537  49.793 -18.176  1.00  0.00    -0.002 C 
HETATM    2  C9  UNL     1      -2.533  48.640 -18.432  1.00  0.00     0.007 C 
HETATM    3  C10 UNL     1      -2.769  48.592 -19.960  1.00  0.00     0.015 C 
HETATM    4  C11 UNL     1      -1.634  49.441 -20.576  1.00  0.00    -0.005 C 
HETATM    5  C12 UNL     1      -0.376  48.523 -20.665  1.00  0.00     0.021 C 
HETATM    6  C13 UNL     1      -1.754  50.046 -21.969  1.00  0.00     0.002 C 
HETATM    7  C14 UNL     1      -1.129  51.215 -22.284  1.00  0.00    -0.032 C 
HETATM    8  C15 UNL     1      -0.319  51.985 -21.235  1.00  0.00     0.149 C 
HETATM    9  C16 UNL     1      -0.324  51.438 -19.788  1.00  0.00     0.047 C 
HETATM   10  C17 UNL     1      -1.571  50.601 -19.504  1.00  0.00    -0.026 C 
HETATM   11  C18 UNL     1      -2.816  51.535 -19.562  1.00  0.00     0.016 C 
HETATM   12  C19 UNL     1      -1.326  51.876 -23.681  1.00  0.00    -0.013 C 
HETATM   13  C20 UNL     1      -2.642  52.682 -23.534  1.00  0.00     0.021 C 
HETATM   14  C21 UNL     1      -0.192  52.826 -24.119  1.00  0.00     0.017 C 
HETATM   15  C22 UNL     1      -0.381  53.459 -25.499  1.00  0.00     0.033 C 
HETATM   16  C23 UNL     1      -1.128  52.602 -26.527  1.00  0.00     0.126 C 
HETATM   17  C24 UNL     1      -1.112  51.078 -26.247  1.00  0.00    -0.017 C 
HETATM   18  C25 UNL     1      -2.093  50.368 -27.210  1.00  0.00     0.018 C 
HETATM   19  C26 UNL     1       0.304  50.561 -26.635  1.00  0.00     0.018 C 
HETATM   20  C27 UNL     1      -1.366  50.707 -24.723  1.00  0.00     0.015 C 
HETATM   21  C28 UNL     1      -2.568  49.805 -24.436  1.00  0.00     0.090 C 
HETATM   22  C29 UNL     1      -2.565  49.316 -23.003  1.00  0.00     0.157 C 
HETATM   23  O3  UNL     1      -3.237  48.329 -22.701  1.00  0.00    -0.293 OA
ENDROOT
BRANCH   1  24
HETATM   24  C6  UNL     1      -1.570  50.495 -16.790  1.00  0.00    -0.014 C 
HETATM   25  C7  UNL     1      -0.220  50.293 -16.077  1.00  0.00     0.010 C 
BRANCH  24  26
HETATM   26  C5  UNL     1      -2.750  50.300 -15.806  1.00  0.00     0.008 C 
BRANCH  26  27
HETATM   27  C4  UNL     1      -2.557  50.425 -14.290  1.00  0.00     0.028 C 
BRANCH  27  28
HETATM   28  C3  UNL     1      -3.062  51.701 -13.679  1.00  0.00    -0.022 C 
HETATM   29  C2  UNL     1      -3.433  51.903 -12.398  1.00  0.00    -0.064 C 
HETATM   30  C1  UNL     1      -3.452  50.834 -11.338  1.00  0.00     0.045 C 
BRANCH  29  31
HETATM   31  C30 UNL     1      -3.900  53.259 -11.936  1.00  0.00     0.197 C 
BRANCH  31  32
HETATM   32  O4  UNL     1      -4.320  54.010 -13.064  1.00  0.00    -0.397 OA
HETATM   33  H48 UNL     1      -4.704  54.834 -12.722  1.00  0.00     0.209 HD
ENDBRANCH  31  32
ENDBRANCH  29  31
ENDBRANCH  27  28
ENDBRANCH  26  27
ENDBRANCH  24  26
ENDBRANCH   1  24
BRANCH   8  34
HETATM   34  O1  UNL     1       1.039  52.030 -21.660  1.00  0.00    -0.391 OA
HETATM   35  H22 UNL     1       1.515  52.610 -21.041  1.00  0.00     0.210 HD
ENDBRANCH   8  34
BRANCH  16  36
HETATM   36  O2  UNL     1      -2.465  53.091 -26.630  1.00  0.00    -0.395 OA
HETATM   37  H36 UNL     1      -2.811  52.838 -27.503  1.00  0.00     0.210 HD
ENDBRANCH  16  36
TORSDOF 8
ENDMDL
MODEL 2
REMARK minimizedAffinity -9.75084686
REMARK  8 active torsions:
REMARK  status: ('A' for Active; 'I' for Inactive)
REMARK    1  A    between atoms: C2_2  and  C30_33 
REMARK    2  A    between atoms: C3_3  and  C4_4 
REMARK    3  A    between atoms: C4_4  and  C5_5 
REMARK    4  A    between atoms: C5_5  and  C6_6 
REMARK    5  A    between atoms: C6_6  and  C8_8 
REMARK    6  A    between atoms: C15_15  and  O1_16 
REMARK    7  A    between atoms: C23_24  and  O2_25 
REMARK    8  A    between atoms: C30_33  and  O4_34 
ROOT
HETATM    1  C8  UNL     1      -2.407  48.996 -18.577  1.00  0.00    -0.002 C 
HETATM    2  C9  UNL     1      -3.368  47.904 -19.096  1.00  0.00     0.007 C 
HETATM    3  C10 UNL     1      -3.403  48.042 -20.636  1.00  0.00     0.015 C 
HETATM    4  C11 UNL     1      -2.192  48.932 -20.994  1.00  0.00    -0.005 C 
HETATM    5  C12 UNL     1      -0.939  48.004 -21.030  1.00  0.00     0.021 C 
HETATM    6  C13 UNL     1      -2.124  49.700 -22.309  1.00  0.00     0.002 C 
HETATM    7  C14 UNL     1      -1.456  50.884 -22.398  1.00  0.00    -0.032 C 
HETATM    8  C15 UNL     1      -0.786  51.507 -21.169  1.00  0.00     0.149 C 
HETATM    9  C16 UNL     1      -0.983  50.794 -19.811  1.00  0.00     0.047 C 
HETATM   10  C17 UNL     1      -2.262  49.956 -19.792  1.00  0.00    -0.026 C 
HETATM   11  C18 UNL     1      -3.483  50.917 -19.898  1.00  0.00     0.016 C 
HETATM   12  C19 UNL     1      -1.465  51.709 -23.720  1.00  0.00    -0.013 C 
HETATM   13  C20 UNL     1      -2.784  52.521 -23.648  1.00  0.00     0.021 C 
HETATM   14  C21 UNL     1      -0.278  52.679 -23.890  1.00  0.00     0.017 C 
HETATM   15  C22 UNL     1      -0.281  53.474 -25.198  1.00  0.00     0.033 C 
HETATM   16  C23 UNL     1      -0.892  52.762 -26.408  1.00  0.00     0.126 C 
HETATM   17  C24 UNL     1      -0.923  51.215 -26.313  1.00  0.00    -0.017 C 
HETATM   18  C25 UNL     1      -1.773  50.646 -27.473  1.00  0.00     0.018 C 
HETATM   19  C26 UNL     1       0.529  50.716 -26.575  1.00  0.00     0.018 C 
HETATM   20  C27 UNL     1      -1.376  50.673 -24.891  1.00  0.00     0.015 C 
HETATM   21  C28 UNL     1      -2.610  49.770 -24.872  1.00  0.00     0.090 C 
HETATM   22  C29 UNL     1      -2.798  49.115 -23.519  1.00  0.00     0.157 C 
HETATM   23  O3  UNL     1      -3.510  48.115 -23.426  1.00  0.00    -0.293 OA
ENDROOT
BRANCH   1  24
HETATM   24  C6  UNL     1      -2.617  49.531 -17.133  1.00  0.00    -0.014 C 
HETATM   25  C7  UNL     1      -2.618  51.071 -17.148  1.00  0.00     0.010 C 
BRANCH  24  26
HETATM   26  C5  UNL     1      -1.798  48.990 -15.936  1.00  0.00     0.008 C 
BRANCH  26  27
HETATM   27  C4  UNL     1      -0.280  48.798 -16.026  1.00  0.00     0.028 C 
BRANCH  27  28
HETATM   28  C3  UNL     1       0.479  49.939 -16.640  1.00  0.00    -0.022 C 
HETATM   29  C2  UNL     1       0.937  51.045 -16.019  1.00  0.00    -0.064 C 
HETATM   30  C1  UNL     1       0.715  51.358 -14.563  1.00  0.00     0.045 C 
BRANCH  29  31
HETATM   31  C30 UNL     1       1.705  52.095 -16.780  1.00  0.00     0.197 C 
BRANCH  31  32
HETATM   32  O4  UNL     1       1.464  53.361 -16.189  1.00  0.00    -0.397 OA
HETATM   33  H48 UNL     1       2.047  53.994 -16.638  1.00  0.00     0.209 HD
ENDBRANCH  31  32
ENDBRANCH  29  31
ENDBRANCH  27  28
ENDBRANCH  26  27
ENDBRANCH  24  26
ENDBRANCH   1  24
BRANCH   8  34
HETATM   34  O1  UNL     1       0.616  51.572 -21.406  1.00  0.00    -0.391 OA
HETATM   35  H22 UNL     1       1.011  52.064 -20.666  1.00  0.00     0.210 HD
ENDBRANCH   8  34
BRANCH  16  36
HETATM   36  O2  UNL     1      -2.201  53.288 -26.624  1.00  0.00    -0.395 OA
HETATM   37  H36 UNL     1      -2.431  53.148 -27.558  1.00  0.00     0.210 HD
ENDBRANCH  16  36
TORSDOF 8
ENDMDL
MODEL 3
REMARK minimizedAffinity -9.72074127
REMARK  8 active torsions:
REMARK  status: ('A' for Active; 'I' for Inactive)
REMARK    1  A    between atoms: C2_2  and  C30_33 
REMARK    2  A    between atoms: C3_3  and  C4_4 
REMARK    3  A    between atoms: C4_4  and  C5_5 
REMARK    4  A    between atoms: C5_5  and  C6_6 
REMARK    5  A    between atoms: C6_6  and  C8_8 
REMARK    6  A    between atoms: C15_15  and  O1_16 
REMARK    7  A    between atoms: C23_24  and  O2_25 
REMARK    8  A    between atoms: C30_33  and  O4_34 
ROOT
HETATM    1  C8  UNL     1      -3.992  48.535 -20.069  1.00  0.00    -0.002 C 
HETATM    2  C9  UNL     1      -4.692  47.601 -21.081  1.00  0.00     0.007 C 
HETATM    3  C10 UNL     1      -4.134  47.964 -22.477  1.00  0.00     0.015 C 
HETATM    4  C11 UNL     1      -2.869  48.809 -22.204  1.00  0.00    -0.005 C 
HETATM    5  C12 UNL     1      -1.707  47.809 -21.915  1.00  0.00     0.021 C 
HETATM    6  C13 UNL     1      -2.296  49.753 -23.253  1.00  0.00     0.002 C 
HETATM    7  C14 UNL     1      -1.633  50.887 -22.891  1.00  0.00    -0.032 C 
HETATM    8  C15 UNL     1      -1.478  51.275 -21.417  1.00  0.00     0.149 C 
HETATM    9  C16 UNL     1      -2.187  50.387 -20.367  1.00  0.00     0.047 C 
HETATM   10  C17 UNL     1      -3.384  49.649 -20.968  1.00  0.00    -0.026 C 
HETATM   11  C18 UNL     1      -4.462  50.700 -21.368  1.00  0.00     0.016 C 
HETATM   12  C19 UNL     1      -1.127  51.895 -23.967  1.00  0.00    -0.013 C 
HETATM   13  C20 UNL     1      -2.365  52.780 -24.265  1.00  0.00     0.021 C 
HETATM   14  C21 UNL     1       0.045  52.793 -23.518  1.00  0.00     0.017 C 
HETATM   15  C22 UNL     1       0.551  53.768 -24.583  1.00  0.00     0.033 C 
HETATM   16  C23 UNL     1       0.442  53.285 -26.033  1.00  0.00     0.126 C 
HETATM   17  C24 UNL     1       0.362  51.747 -26.209  1.00  0.00    -0.017 C 
HETATM   18  C25 UNL     1       0.015  51.415 -27.679  1.00  0.00     0.018 C 
HETATM   19  C26 UNL     1       1.798  51.190 -25.981  1.00  0.00     0.018 C 
HETATM   20  C27 UNL     1      -0.607  51.037 -25.169  1.00  0.00     0.015 C 
HETATM   21  C28 UNL     1      -1.763  50.231 -25.762  1.00  0.00     0.090 C 
HETATM   22  C29 UNL     1      -2.461  49.401 -24.705  1.00  0.00     0.157 C 
HETATM   23  O3  UNL     1      -3.164  48.451 -25.051  1.00  0.00    -0.293 OA
ENDROOT
BRANCH   1  24
HETATM   24  C6  UNL     1      -4.734  48.866 -18.744  1.00  0.00    -0.014 C 
HETATM   25  C7  UNL     1      -3.782  48.650 -17.553  1.00  0.00     0.010 C 
BRANCH  24  26
HETATM   26  C5  UNL     1      -6.143  48.303 -18.436  1.00  0.00     0.008 C 
BRANCH  26  27
HETATM   27  C4  UNL     1      -7.408  48.952 -19.006  1.00  0.00     0.028 C 
BRANCH  27  28
HETATM   28  C3  UNL     1      -7.340  49.330 -20.459  1.00  0.00    -0.022 C 
HETATM   29  C2  UNL     1      -8.001  48.756 -21.485  1.00  0.00    -0.064 C 
HETATM   30  C1  UNL     1      -8.913  47.567 -21.351  1.00  0.00     0.045 C 
BRANCH  29  31
HETATM   31  C30 UNL     1      -7.838  49.272 -22.891  1.00  0.00     0.197 C 
BRANCH  31  32
HETATM   32  O4  UNL     1      -7.506  50.650 -22.840  1.00  0.00    -0.397 OA
HETATM   33  H48 UNL     1      -7.312  50.924 -23.752  1.00  0.00     0.209 HD
ENDBRANCH  31  32
ENDBRANCH  29  31
ENDBRANCH  27  28
ENDBRANCH  26  27
ENDBRANCH  24  26
ENDBRANCH   1  24
BRANCH   8  34
HETATM   34  O1  UNL     1      -0.091  51.274 -21.095  1.00  0.00    -0.391 OA
HETATM   35  H22 UNL     1      -0.005  51.624 -20.192  1.00  0.00     0.210 HD
ENDBRANCH   8  34
BRANCH  16  36
HETATM   36  O2  UNL     1      -0.679  53.929 -26.637  1.00  0.00    -0.395 OA
HETATM   37  H36 UNL     1      -0.536  53.944 -27.598  1.00  0.00     0.210 HD
ENDBRANCH  16  36
TORSDOF 8
ENDMDL
MODEL 4
REMARK minimizedAffinity -9.60971546
REMARK  8 active torsions:
REMARK  status: ('A' for Active; 'I' for Inactive)
REMARK    1  A    between atoms: C2_2  and  C30_33 
REMARK    2  A    between atoms: C3_3  and  C4_4 
REMARK    3  A    between atoms: C4_4  and  C5_5 
REMARK    4  A    between atoms: C5_5  and  C6_6 
REMARK    5  A    between atoms: C6_6  and  C8_8 
REMARK    6  A    between atoms: C15_15  and  O1_16 
REMARK    7  A    between atoms: C23_24  and  O2_25 
REMARK    8  A    between atoms: C30_33  and  O4_34 
ROOT
HETATM    1  C8  UNL     1       0.021  51.186 -21.401  1.00  0.00    -0.002 C 
HETATM    2  C9  UNL     1       0.079  51.200 -19.857  1.00  0.00     0.007 C 
HETATM    3  C10 UNL     1      -1.147  50.397 -19.363  1.00  0.00     0.015 C 
HETATM    4  C11 UNL     1      -1.658  49.626 -20.601  1.00  0.00    -0.005 C 
HETATM    5  C12 UNL     1      -0.777  48.345 -20.734  1.00  0.00     0.021 C 
HETATM    6  C13 UNL     1      -3.088  49.106 -20.686  1.00  0.00     0.002 C 
HETATM    7  C14 UNL     1      -3.725  48.995 -21.885  1.00  0.00    -0.032 C 
HETATM    8  C15 UNL     1      -3.041  49.430 -23.186  1.00  0.00     0.149 C 
HETATM    9  C16 UNL     1      -1.646  50.090 -23.073  1.00  0.00     0.047 C 
HETATM   10  C17 UNL     1      -1.437  50.737 -21.703  1.00  0.00    -0.026 C 
HETATM   11  C18 UNL     1      -2.433  51.925 -21.562  1.00  0.00     0.016 C 
HETATM   12  C19 UNL     1      -5.216  48.549 -21.960  1.00  0.00    -0.013 C 
HETATM   13  C20 UNL     1      -6.013  49.857 -21.720  1.00  0.00     0.021 C 
HETATM   14  C21 UNL     1      -5.644  47.931 -23.307  1.00  0.00     0.017 C 
HETATM   15  C22 UNL     1      -7.104  47.477 -23.370  1.00  0.00     0.033 C 
HETATM   16  C23 UNL     1      -7.703  46.977 -22.051  1.00  0.00     0.126 C 
HETATM   17  C24 UNL     1      -6.669  46.490 -21.004  1.00  0.00    -0.017 C 
HETATM   18  C25 UNL     1      -7.382  46.247 -19.653  1.00  0.00     0.018 C 
HETATM   19  C26 UNL     1      -6.173  45.091 -21.473  1.00  0.00     0.018 C 
HETATM   20  C27 UNL     1      -5.401  47.438 -20.872  1.00  0.00     0.015 C 
HETATM   21  C28 UNL     1      -5.138  48.028 -19.486  1.00  0.00     0.090 C 
HETATM   22  C29 UNL     1      -3.782  48.699 -19.416  1.00  0.00     0.157 C 
HETATM   23  O3  UNL     1      -3.269  48.912 -18.317  1.00  0.00    -0.293 OA
ENDROOT
BRANCH   1  24
HETATM   24  C6  UNL     1       0.691  52.360 -22.169  1.00  0.00    -0.014 C 
HETATM   25  C7  UNL     1       0.916  53.542 -21.208  1.00  0.00     0.010 C 
BRANCH  24  26
HETATM   26  C5  UNL     1       0.156  52.852 -23.536  1.00  0.00     0.008 C 
BRANCH  26  27
HETATM   27  C4  UNL     1       0.001  51.899 -24.726  1.00  0.00     0.028 C 
BRANCH  27  28
HETATM   28  C3  UNL     1       1.121  51.930 -25.726  1.00  0.00    -0.022 C 
HETATM   29  C2  UNL     1       1.023  51.821 -27.067  1.00  0.00    -0.064 C 
HETATM   30  C1  UNL     1      -0.266  51.592 -27.811  1.00  0.00     0.045 C 
BRANCH  29  31
HETATM   31  C30 UNL     1       2.250  51.894 -27.938  1.00  0.00     0.197 C 
BRANCH  31  32
HETATM   32  O4  UNL     1       3.369  51.437 -27.196  1.00  0.00    -0.397 OA
HETATM   33  H48 UNL     1       4.118  51.404 -27.813  1.00  0.00     0.209 HD
ENDBRANCH  31  32
ENDBRANCH  29  31
ENDBRANCH  27  28
ENDBRANCH  26  27
ENDBRANCH  24  26
ENDBRANCH   1  24
BRANCH   8  34
HETATM   34  O1  UNL     1      -2.894  48.286 -24.021  1.00  0.00    -0.391 OA
HETATM   35  H22 UNL     1      -2.559  48.597 -24.879  1.00  0.00     0.210 HD
ENDBRANCH   8  34
BRANCH  16  36
HETATM   36  O2  UNL     1      -8.529  48.010 -21.515  1.00  0.00    -0.395 OA
HETATM   37  H36 UNL     1      -9.186  47.595 -20.930  1.00  0.00     0.210 HD
ENDBRANCH  16  36
TORSDOF 8
ENDMDL
MODEL 5
REMARK minimizedAffinity -9.60841846
REMARK  8 active torsions:
REMARK  status: ('A' for Active; 'I' for Inactive)
REMARK    1  A    between atoms: C2_2  and  C30_33 
REMARK    2  A    between atoms: C3_3  and  C4_4 
REMARK    3  A    between atoms: C4_4  and  C5_5 
REMARK    4  A    between atoms: C5_5  and  C6_6 
REMARK    5  A    between atoms: C6_6  and  C8_8 
REMARK    6  A    between atoms: C15_15  and  O1_16 
REMARK    7  A    between atoms: C23_24  and  O2_25 
REMARK    8  A    between atoms: C30_33  and  O4_34 
ROOT
HETATM    1  C8  UNL     1      -4.179  48.521 -20.196  1.00  0.00    -0.002 C 
HETATM    2  C9  UNL     1      -4.904  47.613 -21.214  1.00  0.00     0.007 C 
HETATM    3  C10 UNL     1      -4.340  47.975 -22.607  1.00  0.00     0.015 C 
HETATM    4  C11 UNL     1      -3.055  48.787 -22.331  1.00  0.00    -0.005 C 
HETATM    5  C12 UNL     1      -1.917  47.757 -22.055  1.00  0.00     0.021 C 
HETATM    6  C13 UNL     1      -2.463  49.727 -23.374  1.00  0.00     0.002 C 
HETATM    7  C14 UNL     1      -1.772  50.842 -23.004  1.00  0.00    -0.032 C 
HETATM    8  C15 UNL     1      -1.604  51.213 -21.527  1.00  0.00     0.149 C 
HETATM    9  C16 UNL     1      -2.331  50.332 -20.483  1.00  0.00     0.047 C 
HETATM   10  C17 UNL     1      -3.547  49.628 -21.086  1.00  0.00    -0.026 C 
HETATM   11  C18 UNL     1      -4.600  50.708 -21.473  1.00  0.00     0.016 C 
HETATM   12  C19 UNL     1      -1.245  51.847 -24.072  1.00  0.00    -0.013 C 
HETATM   13  C20 UNL     1      -2.462  52.763 -24.359  1.00  0.00     0.021 C 
HETATM   14  C21 UNL     1      -0.051  52.712 -23.619  1.00  0.00     0.017 C 
HETATM   15  C22 UNL     1       0.475  53.685 -24.677  1.00  0.00     0.033 C 
HETATM   16  C23 UNL     1       0.351  53.217 -26.131  1.00  0.00     0.126 C 
HETATM   17  C24 UNL     1       0.233  51.683 -26.320  1.00  0.00    -0.017 C 
HETATM   18  C25 UNL     1      -0.126  51.373 -27.792  1.00  0.00     0.018 C 
HETATM   19  C26 UNL     1       1.657  51.090 -26.102  1.00  0.00     0.018 C 
HETATM   20  C27 UNL     1      -0.749  50.987 -25.284  1.00  0.00     0.015 C 
HETATM   21  C28 UNL     1      -1.926  50.214 -25.880  1.00  0.00     0.090 C 
HETATM   22  C29 UNL     1      -2.641  49.391 -24.829  1.00  0.00     0.157 C 
HETATM   23  O3  UNL     1      -3.367  48.461 -25.180  1.00  0.00    -0.293 OA
ENDROOT
BRANCH   1  24
HETATM   24  C6  UNL     1      -4.909  48.858 -18.865  1.00  0.00    -0.014 C 
HETATM   25  C7  UNL     1      -3.888  48.895 -17.713  1.00  0.00     0.010 C 
BRANCH  24  26
HETATM   26  C5  UNL     1      -6.201  48.123 -18.436  1.00  0.00     0.008 C 
BRANCH  26  27
HETATM   27  C4  UNL     1      -7.589  48.700 -18.737  1.00  0.00     0.028 C 
BRANCH  27  28
HETATM   28  C3  UNL     1      -8.671  48.318 -17.768  1.00  0.00    -0.022 C 
HETATM   29  C2  UNL     1      -9.964  48.056 -18.047  1.00  0.00    -0.064 C 
HETATM   30  C1  UNL     1     -10.576  48.153 -19.419  1.00  0.00     0.045 C 
BRANCH  29  31
HETATM   31  C30 UNL     1     -10.924  47.663 -16.954  1.00  0.00     0.197 C 
BRANCH  31  32
HETATM   32  O4  UNL     1     -10.288  47.837 -15.698  1.00  0.00    -0.397 OA
HETATM   33  H48 UNL     1     -10.962  47.671 -15.019  1.00  0.00     0.209 HD
ENDBRANCH  31  32
ENDBRANCH  29  31
ENDBRANCH  27  28
ENDBRANCH  26  27
ENDBRANCH  24  26
ENDBRANCH   1  24
BRANCH   8  34
HETATM   34  O1  UNL     1      -0.216  51.175 -21.210  1.00  0.00    -0.391 OA
HETATM   35  H22 UNL     1      -0.119  51.515 -20.304  1.00  0.00     0.210 HD
ENDBRANCH   8  34
BRANCH  16  36
HETATM   36  O2  UNL     1      -0.757  53.893 -26.725  1.00  0.00    -0.395 OA
HETATM   37  H36 UNL     1      -0.616  53.913 -27.687  1.00  0.00     0.210 HD
ENDBRANCH  16  36
TORSDOF 8
ENDMDL
MODEL 6
REMARK minimizedAffinity -9.54432964
REMARK  8 active torsions:
REMARK  status: ('A' for Active; 'I' for Inactive)
REMARK    1  A    between atoms: C2_2  and  C30_33 
REMARK    2  A    between atoms: C3_3  and  C4_4 
REMARK    3  A    between atoms: C4_4  and  C5_5 
REMARK    4  A    between atoms: C5_5  and  C6_6 
REMARK    5  A    between atoms: C6_6  and  C8_8 
REMARK    6  A    between atoms: C15_15  and  O1_16 
REMARK    7  A    between atoms: C23_24  and  O2_25 
REMARK    8  A    between atoms: C30_33  and  O4_34 
ROOT
HETATM    1  C8  UNL     1      -1.076  52.081 -22.789  1.00  0.00    -0.002 C 
HETATM    2  C9  UNL     1      -0.429  51.667 -24.130  1.00  0.00     0.007 C 
HETATM    3  C10 UNL     1      -1.436  50.726 -24.832  1.00  0.00     0.015 C 
HETATM    4  C11 UNL     1      -2.772  50.922 -24.082  1.00  0.00    -0.005 C 
HETATM    5  C12 UNL     1      -3.441  52.202 -24.672  1.00  0.00     0.021 C 
HETATM    6  C13 UNL     1      -3.875  49.872 -24.123  1.00  0.00     0.002 C 
HETATM    7  C14 UNL     1      -4.729  49.707 -23.074  1.00  0.00    -0.032 C 
HETATM    8  C15 UNL     1      -4.582  50.543 -21.798  1.00  0.00     0.149 C 
HETATM    9  C16 UNL     1      -3.373  51.503 -21.709  1.00  0.00     0.047 C 
HETATM   10  C17 UNL     1      -2.221  51.046 -22.605  1.00  0.00    -0.026 C 
HETATM   11  C18 UNL     1      -1.675  49.695 -22.057  1.00  0.00     0.016 C 
HETATM   12  C19 UNL     1      -5.798  48.573 -23.084  1.00  0.00    -0.013 C 
HETATM   13  C20 UNL     1      -5.027  47.325 -22.582  1.00  0.00     0.021 C 
HETATM   14  C21 UNL     1      -7.017  48.820 -22.172  1.00  0.00     0.017 C 
HETATM   15  C22 UNL     1      -8.073  47.712 -22.198  1.00  0.00     0.033 C 
HETATM   16  C23 UNL     1      -8.226  46.970 -23.530  1.00  0.00     0.126 C 
HETATM   17  C24 UNL     1      -7.726  47.747 -24.775  1.00  0.00    -0.017 C 
HETATM   18  C25 UNL     1      -7.714  46.801 -25.999  1.00  0.00     0.018 C 
HETATM   19  C26 UNL     1      -8.799  48.830 -25.094  1.00  0.00     0.018 C 
HETATM   20  C27 UNL     1      -6.338  48.485 -24.551  1.00  0.00     0.015 C 
HETATM   21  C28 UNL     1      -5.201  48.091 -25.494  1.00  0.00     0.090 C 
HETATM   22  C29 UNL     1      -4.017  49.026 -25.358  1.00  0.00     0.157 C 
HETATM   23  O3  UNL     1      -3.179  49.075 -26.259  1.00  0.00    -0.293 OA
ENDROOT
BRANCH   1  24
HETATM   24  C6  UNL     1      -0.137  52.480 -21.616  1.00  0.00    -0.014 C 
HETATM   25  C7  UNL     1       1.063  53.276 -22.164  1.00  0.00     0.010 C 
BRANCH  24  26
HETATM   26  C5  UNL     1       0.321  51.452 -20.553  1.00  0.00     0.008 C 
BRANCH  26  27
HETATM   27  C4  UNL     1      -0.400  51.315 -19.208  1.00  0.00     0.028 C 
BRANCH  27  28
HETATM   28  C3  UNL     1       0.329  51.882 -18.024  1.00  0.00    -0.022 C 
HETATM   29  C2  UNL     1       0.677  51.236 -16.892  1.00  0.00    -0.064 C 
HETATM   30  C1  UNL     1       0.337  49.801 -16.591  1.00  0.00     0.045 C 
BRANCH  29  31
HETATM   31  C30 UNL     1       1.431  51.949 -15.799  1.00  0.00     0.197 C 
BRANCH  31  32
HETATM   32  O4  UNL     1       1.524  53.325 -16.126  1.00  0.00    -0.397 OA
HETATM   33  H48 UNL     1       1.925  53.768 -15.360  1.00  0.00     0.209 HD
ENDBRANCH  31  32
ENDBRANCH  29  31
ENDBRANCH  27  28
ENDBRANCH  26  27
ENDBRANCH  24  26
ENDBRANCH   1  24
BRANCH   8  34
HETATM   34  O1  UNL     1      -5.755  51.334 -21.642  1.00  0.00    -0.391 OA
HETATM   35  H22 UNL     1      -5.692  51.775 -20.777  1.00  0.00     0.210 HD
ENDBRANCH   8  34
BRANCH  16  36
HETATM   36  O2  UNL     1      -7.571  45.708 -23.416  1.00  0.00    -0.395 OA
HETATM   37  H36 UNL     1      -7.971  45.102 -24.063  1.00  0.00     0.210 HD
ENDBRANCH  16  36
TORSDOF 8
ENDMDL
MODEL 7
REMARK minimizedAffinity -9.52799988
REMARK  8 active torsions:
REMARK  status: ('A' for Active; 'I' for Inactive)
REMARK    1  A    between atoms: C2_2  and  C30_33 
REMARK    2  A    between atoms: C3_3  and  C4_4 
REMARK    3  A    between atoms: C4_4  and  C5_5 
REMARK    4  A    between atoms: C5_5  and  C6_6 
REMARK    5  A    between atoms: C6_6  and  C8_8 
REMARK    6  A    between atoms: C15_15  and  O1_16 
REMARK    7  A    between atoms: C23_24  and  O2_25 
REMARK    8  A    between atoms: C30_33  and  O4_34 
ROOT
HETATM    1  C8  UNL     1      -1.312  50.393 -22.222  1.00  0.00    -0.002 C 
HETATM    2  C9  UNL     1      -1.463  50.152 -20.703  1.00  0.00     0.007 C 
HETATM    3  C10 UNL     1      -2.765  49.340 -20.513  1.00  0.00     0.015 C 
HETATM    4  C11 UNL     1      -3.123  48.806 -21.918  1.00  0.00    -0.005 C 
HETATM    5  C12 UNL     1      -2.266  47.522 -22.149  1.00  0.00     0.021 C 
HETATM    6  C13 UNL     1      -4.541  48.375 -22.273  1.00  0.00     0.002 C 
HETATM    7  C14 UNL     1      -5.012  48.492 -23.547  1.00  0.00    -0.032 C 
HETATM    8  C15 UNL     1      -4.148  49.099 -24.656  1.00  0.00     0.149 C 
HETATM    9  C16 UNL     1      -2.765  49.664 -24.255  1.00  0.00     0.047 C 
HETATM   10  C17 UNL     1      -2.726  50.069 -22.781  1.00  0.00    -0.026 C 
HETATM   11  C18 UNL     1      -3.701  51.265 -22.572  1.00  0.00     0.016 C 
HETATM   12  C19 UNL     1      -6.491  48.135 -23.886  1.00  0.00    -0.013 C 
HETATM   13  C20 UNL     1      -7.279  49.423 -23.536  1.00  0.00     0.021 C 
HETATM   14  C21 UNL     1      -6.748  47.766 -25.362  1.00  0.00     0.017 C 
HETATM   15  C22 UNL     1      -8.198  47.399 -25.688  1.00  0.00     0.033 C 
HETATM   16  C23 UNL     1      -8.982  46.720 -24.561  1.00  0.00     0.126 C 
HETATM   17  C24 UNL     1      -8.113  46.020 -23.485  1.00  0.00    -0.017 C 
HETATM   18  C25 UNL     1      -9.008  45.595 -22.298  1.00  0.00     0.018 C 
HETATM   19  C26 UNL     1      -7.594  44.694 -24.115  1.00  0.00     0.018 C 
HETATM   20  C27 UNL     1      -6.850  46.872 -23.034  1.00  0.00     0.015 C 
HETATM   21  C28 UNL     1      -6.762  47.216 -21.546  1.00  0.00     0.090 C 
HETATM   22  C29 UNL     1      -5.411  47.801 -21.190  1.00  0.00     0.157 C 
HETATM   23  O3  UNL     1      -5.046  47.807 -20.014  1.00  0.00    -0.293 OA
ENDROOT
BRANCH   1  24
HETATM   24  C6  UNL     1      -0.513  51.642 -22.689  1.00  0.00    -0.014 C 
HETATM   25  C7  UNL     1       0.144  52.318 -21.471  1.00  0.00     0.010 C 
BRANCH  24  26
HETATM   26  C5  UNL     1      -1.131  52.696 -23.640  1.00  0.00     0.008 C 
BRANCH  26  27
HETATM   27  C4  UNL     1      -0.336  53.282 -24.811  1.00  0.00     0.028 C 
BRANCH  27  28
HETATM   28  C3  UNL     1       0.945  52.571 -25.141  1.00  0.00    -0.022 C 
HETATM   29  C2  UNL     1       1.207  51.823 -26.232  1.00  0.00    -0.064 C 
HETATM   30  C1  UNL     1       0.210  51.522 -27.319  1.00  0.00     0.045 C 
BRANCH  29  31
HETATM   31  C30 UNL     1       2.561  51.190 -26.425  1.00  0.00     0.197 C 
BRANCH  31  32
HETATM   32  O4  UNL     1       3.297  51.955 -27.365  1.00  0.00    -0.397 OA
HETATM   33  H48 UNL     1       4.193  51.579 -27.390  1.00  0.00     0.209 HD
ENDBRANCH  31  32
ENDBRANCH  29  31
ENDBRANCH  27  28
ENDBRANCH  26  27
ENDBRANCH  24  26
ENDBRANCH   1  24
BRANCH   8  34
HETATM   34  O1  UNL     1      -3.919  48.100 -25.645  1.00  0.00    -0.391 OA
HETATM   35  H22 UNL     1      -3.463  48.530 -26.388  1.00  0.00     0.210 HD
ENDBRANCH   8  34
BRANCH  16  36
HETATM   36  O2  UNL     1      -9.846  47.690 -23.970  1.00  0.00    -0.395 OA
HETATM   37  H36 UNL     1     -10.587  47.218 -23.553  1.00  0.00     0.210 HD
ENDBRANCH  16  36
TORSDOF 8
ENDMDL
MODEL 8
REMARK minimizedAffinity -8.98085117
REMARK  8 active torsions:
REMARK  status: ('A' for Active; 'I' for Inactive)
REMARK    1  A    between atoms: C2_2  and  C30_33 
REMARK    2  A    between atoms: C3_3  and  C4_4 
REMARK    3  A    between atoms: C4_4  and  C5_5 
REMARK    4  A    between atoms: C5_5  and  C6_6 
REMARK    5  A    between atoms: C6_6  and  C8_8 
REMARK    6  A    between atoms: C15_15  and  O1_16 
REMARK    7  A    between atoms: C23_24  and  O2_25 
REMARK    8  A    between atoms: C30_33  and  O4_34 
ROOT
HETATM    1  C8  UNL     1      -0.543  51.712 -24.279  1.00  0.00    -0.002 C 
HETATM    2  C9  UNL     1       0.124  53.097 -24.122  1.00  0.00     0.007 C 
HETATM    3  C10 UNL     1       0.346  53.309 -22.606  1.00  0.00     0.015 C 
HETATM    4  C11 UNL     1       0.166  51.914 -21.967  1.00  0.00    -0.005 C 
HETATM    5  C12 UNL     1       1.520  51.157 -22.136  1.00  0.00     0.021 C 
HETATM    6  C13 UNL     1      -0.171  51.748 -20.490  1.00  0.00     0.002 C 
HETATM    7  C14 UNL     1      -0.901  50.685 -20.050  1.00  0.00    -0.032 C 
HETATM    8  C15 UNL     1      -1.447  49.642 -21.032  1.00  0.00     0.149 C 
HETATM    9  C16 UNL     1      -1.222  49.897 -22.541  1.00  0.00     0.047 C 
HETATM   10  C17 UNL     1      -1.039  51.385 -22.842  1.00  0.00    -0.026 C 
HETATM   11  C18 UNL     1      -2.374  52.120 -22.526  1.00  0.00     0.016 C 
HETATM   12  C19 UNL     1      -1.320  50.566 -18.554  1.00  0.00    -0.013 C 
HETATM   13  C20 UNL     1      -2.608  51.422 -18.455  1.00  0.00     0.021 C 
HETATM   14  C21 UNL     1      -1.623  49.132 -18.075  1.00  0.00     0.017 C 
HETATM   15  C22 UNL     1      -2.016  49.017 -16.600  1.00  0.00     0.033 C 
HETATM   16  C23 UNL     1      -1.371  50.040 -15.659  1.00  0.00     0.126 C 
HETATM   17  C24 UNL     1      -0.054  50.671 -16.177  1.00  0.00    -0.017 C 
HETATM   18  C25 UNL     1       0.352  51.844 -15.255  1.00  0.00     0.018 C 
HETATM   19  C26 UNL     1       1.061  49.597 -16.003  1.00  0.00     0.018 C 
HETATM   20  C27 UNL     1      -0.103  51.079 -17.711  1.00  0.00     0.015 C 
HETATM   21  C28 UNL     1       0.157  52.552 -18.029  1.00  0.00     0.090 C 
HETATM   22  C29 UNL     1       0.335  52.776 -19.517  1.00  0.00     0.157 C 
HETATM   23  O3  UNL     1       0.885  53.805 -19.910  1.00  0.00    -0.293 OA
ENDROOT
BRANCH   1  24
HETATM   24  C6  UNL     1      -1.436  51.467 -25.528  1.00  0.00    -0.014 C 
HETATM   25  C7  UNL     1      -2.831  52.076 -25.291  1.00  0.00     0.010 C 
BRANCH  24  26
HETATM   26  C5  UNL     1      -1.546  50.073 -26.191  1.00  0.00     0.008 C 
BRANCH  26  27
HETATM   27  C4  UNL     1      -2.669  49.098 -25.824  1.00  0.00     0.028 C 
BRANCH  27  28
HETATM   28  C3  UNL     1      -3.548  48.667 -26.964  1.00  0.00    -0.022 C 
HETATM   29  C2  UNL     1      -4.828  48.250 -26.897  1.00  0.00    -0.064 C 
HETATM   30  C1  UNL     1      -5.607  48.093 -25.618  1.00  0.00     0.045 C 
BRANCH  29  31
HETATM   31  C30 UNL     1      -5.582  47.870 -28.145  1.00  0.00     0.197 C 
BRANCH  31  32
HETATM   32  O4  UNL     1      -5.333  48.844 -29.147  1.00  0.00    -0.397 OA
HETATM   33  H48 UNL     1      -5.750  48.518 -29.961  1.00  0.00     0.209 HD
ENDBRANCH  31  32
ENDBRANCH  29  31
ENDBRANCH  27  28
ENDBRANCH  26  27
ENDBRANCH  24  26
ENDBRANCH   1  24
BRANCH   8  34
HETATM   34  O1  UNL     1      -0.851  48.385 -20.728  1.00  0.00    -0.391 OA
HETATM   35  H22 UNL     1      -1.285  47.718 -21.287  1.00  0.00     0.210 HD
ENDBRANCH   8  34
BRANCH  16  36
HETATM   36  O2  UNL     1      -2.339  51.045 -15.361  1.00  0.00    -0.395 OA
HETATM   37  H36 UNL     1      -2.097  51.453 -14.512  1.00  0.00     0.210 HD
ENDBRANCH  16  36
TORSDOF 8
ENDMDL
MODEL 9
REMARK minimizedAffinity -8.83285618
REMARK  8 active torsions:
REMARK  status: ('A' for Active; 'I' for Inactive)
REMARK    1  A    between atoms: C2_2  and  C30_33 
REMARK    2  A    between atoms: C3_3  and  C4_4 
REMARK    3  A    between atoms: C4_4  and  C5_5 
REMARK    4  A    between atoms: C5_5  and  C6_6 
REMARK    5  A    between atoms: C6_6  and  C8_8 
REMARK    6  A    between atoms: C15_15  and  O1_16 
REMARK    7  A    between atoms: C23_24  and  O2_25 
REMARK    8  A    between atoms: C30_33  and  O4_34 
ROOT
HETATM    1  C8  UNL     1      -1.934  51.022 -22.348  1.00  0.00    -0.002 C 
HETATM    2  C9  UNL     1      -3.173  50.099 -22.370  1.00  0.00     0.007 C 
HETATM    3  C10 UNL     1      -3.438  49.682 -20.905  1.00  0.00     0.015 C 
HETATM    4  C11 UNL     1      -2.607  50.660 -20.044  1.00  0.00    -0.005 C 
HETATM    5  C12 UNL     1      -3.446  51.968 -19.904  1.00  0.00     0.021 C 
HETATM    6  C13 UNL     1      -2.202  50.322 -18.615  1.00  0.00     0.002 C 
HETATM    7  C14 UNL     1      -1.047  50.807 -18.078  1.00  0.00    -0.032 C 
HETATM    8  C15 UNL     1      -0.094  51.674 -18.907  1.00  0.00     0.149 C 
HETATM    9  C16 UNL     1      -0.443  51.891 -20.399  1.00  0.00     0.047 C 
HETATM   10  C17 UNL     1      -1.313  50.760 -20.946  1.00  0.00    -0.026 C 
HETATM   11  C18 UNL     1      -0.478  49.446 -20.939  1.00  0.00     0.016 C 
HETATM   12  C19 UNL     1      -0.593  50.386 -16.648  1.00  0.00    -0.013 C 
HETATM   13  C20 UNL     1       0.140  49.038 -16.867  1.00  0.00     0.021 C 
HETATM   14  C21 UNL     1       0.362  51.378 -15.951  1.00  0.00     0.017 C 
HETATM   15  C22 UNL     1       0.792  50.970 -14.540  1.00  0.00     0.033 C 
HETATM   16  C23 UNL     1      -0.240  50.175 -13.734  1.00  0.00     0.126 C 
HETATM   17  C24 UNL     1      -1.709  50.348 -14.195  1.00  0.00    -0.017 C 
HETATM   18  C25 UNL     1      -2.603  49.318 -13.465  1.00  0.00     0.018 C 
HETATM   19  C26 UNL     1      -2.181  51.744 -13.690  1.00  0.00     0.018 C 
HETATM   20  C27 UNL     1      -1.889  50.314 -15.773  1.00  0.00     0.015 C 
HETATM   21  C28 UNL     1      -2.821  49.234 -16.326  1.00  0.00     0.090 C 
HETATM   22  C29 UNL     1      -3.114  49.452 -17.795  1.00  0.00     0.157 C 
HETATM   23  O3  UNL     1      -4.093  48.904 -18.303  1.00  0.00    -0.293 OA
ENDROOT
BRANCH   1  24
HETATM   24  C6  UNL     1      -1.057  51.102 -23.629  1.00  0.00    -0.014 C 
HETATM   25  C7  UNL     1      -0.031  52.241 -23.481  1.00  0.00     0.010 C 
BRANCH  24  26
HETATM   26  C5  UNL     1      -1.682  51.101 -25.046  1.00  0.00     0.008 C 
BRANCH  26  27
HETATM   27  C4  UNL     1      -0.981  50.426 -26.230  1.00  0.00     0.028 C 
BRANCH  27  28
HETATM   28  C3  UNL     1       0.484  50.728 -26.370  1.00  0.00    -0.022 C 
HETATM   29  C2  UNL     1       1.064  51.573 -27.246  1.00  0.00    -0.064 C 
HETATM   30  C1  UNL     1       0.322  52.347 -28.302  1.00  0.00     0.045 C 
BRANCH  29  31
HETATM   31  C30 UNL     1       2.557  51.781 -27.243  1.00  0.00     0.197 C 
BRANCH  31  32
HETATM   32  O4  UNL     1       3.134  50.957 -26.243  1.00  0.00    -0.397 OA
HETATM   33  H48 UNL     1       4.098  51.041 -26.335  1.00  0.00     0.209 HD
ENDBRANCH  31  32
ENDBRANCH  29  31
ENDBRANCH  27  28
ENDBRANCH  26  27
ENDBRANCH  24  26
ENDBRANCH   1  24
BRANCH   8  34
HETATM   34  O1  UNL     1      -0.019  52.962 -18.305  1.00  0.00    -0.391 OA
HETATM   35  H22 UNL     1       0.668  53.461 -18.779  1.00  0.00     0.210 HD
ENDBRANCH   8  34
BRANCH  16  36
HETATM   36  O2  UNL     1       0.144  48.800 -13.748  1.00  0.00    -0.395 OA
HETATM   37  H36 UNL     1      -0.245  48.372 -12.967  1.00  0.00     0.210 HD
ENDBRANCH  16  36
TORSDOF 8
ENDMDL
