MODEL 1
REMARK minimizedAffinity -9.56412506
REMARK CNNscore 0.532408416
REMARK CNNaffinity 6.84855127
REMARK  6 active torsions:
REMARK  status: ('A' for Active; 'I' for Inactive)
REMARK    1  A    between atoms: C2_2  and  O2_4 
REMARK    2  A    between atoms: O2_4  and  C3_5 
REMARK    3  A    between atoms: C13_15  and  C14_16 
REMARK    4  A    between atoms: C14_16  and  C16_18 
REMARK    5  A    between atoms: C17_19  and  C18_20 
REMARK    6  A    between atoms: C18_20  and  C20_22 
ROOT
HETATM    1  C3  UNL     1       2.597   7.392  10.320  1.00  0.00     0.135 C 
HETATM    2  C4  UNL     1       2.456   5.992  10.925  1.00  0.00     0.034 C 
HETATM    3  C5  UNL     1       1.114   5.790  11.634  1.00  0.00     0.015 C 
HETATM    4  C6  UNL     1       0.842   6.854  12.727  1.00  0.00     0.001 C 
HETATM    5  C7  UNL     1       1.849   6.647  13.888  1.00  0.00     0.019 C 
HETATM    6  C8  UNL     1      -0.643   6.729  13.235  1.00  0.00     0.039 C 
HETATM    7  C9  UNL     1      -0.919   5.865  14.471  1.00  0.00     0.010 C 
HETATM    8  C10 UNL     1      -2.437   5.677  14.716  1.00  0.00     0.010 C 
HETATM    9  C11 UNL     1      -3.320   6.887  14.298  1.00  0.00    -0.033 C 
HETATM   10  C12 UNL     1      -3.971   6.633  12.918  1.00  0.00     0.016 C 
HETATM   11  C13 UNL     1      -4.405   7.290  15.352  1.00  0.00     0.001 C 
HETATM   12  C23 UNL     1      -4.667   8.792  15.035  1.00  0.00     0.006 C 
HETATM   13  C24 UNL     1      -3.430   9.321  14.294  1.00  0.00     0.009 C 
HETATM   14  C25 UNL     1      -2.445   8.160  14.338  1.00  0.00     0.036 C 
HETATM   15  C26 UNL     1      -1.230   8.171  13.395  1.00  0.00     0.123 C 
HETATM   16  C27 UNL     1      -1.388   8.702  11.989  1.00  0.00     0.014 C 
HETATM   17  C28 UNL     1      -0.240   8.704  11.290  1.00  0.00     0.014 C 
HETATM   18  C29 UNL     1       0.979   8.296  12.106  1.00  0.00     0.124 C 
HETATM   19  C30 UNL     1       2.299   8.495  11.344  1.00  0.00     0.079 C 
HETATM   20  O3  UNL     1       0.958   9.244  13.201  1.00  0.00    -0.223 OA
HETATM   21  O4  UNL     1      -0.225   8.982  14.074  1.00  0.00    -0.224 OA
ENDROOT
BRANCH  11  22
HETATM   22  C14 UNL     1      -5.713   6.459  15.442  1.00  0.00     0.008 C 
HETATM   23  C15 UNL     1      -6.928   7.300  15.855  1.00  0.00     0.014 C 
BRANCH  22  24
HETATM   24  C16 UNL     1      -5.951   5.702  14.143  1.00  0.00    -0.026 C 
HETATM   25  C17 UNL     1      -6.741   4.630  13.964  1.00  0.00    -0.026 C 
BRANCH  25  26
HETATM   26  C18 UNL     1      -6.912   3.920  12.636  1.00  0.00     0.007 C 
HETATM   27  C19 UNL     1      -8.270   3.210  12.647  1.00  0.00     0.014 C 
BRANCH  26  28
HETATM   28  C20 UNL     1      -5.729   2.946  12.365  1.00  0.00    -0.015 C 
HETATM   29  C21 UNL     1      -4.606   3.625  11.568  1.00  0.00     0.010 C 
HETATM   30  C22 UNL     1      -6.174   1.687  11.611  1.00  0.00     0.010 C 
ENDBRANCH  26  28
ENDBRANCH  25  26
ENDBRANCH  22  24
ENDBRANCH  11  22
BRANCH   1  31
HETATM   31  O2  UNL     1       1.693   7.469   9.199  1.00  0.00    -0.316 OA
BRANCH  31  32
HETATM   32  C2  UNL     1       2.257   7.727   7.987  1.00  0.00     0.255 C 
HETATM   33  C1  UNL     1       2.244   6.491   7.142  1.00  0.00     0.126 C 
HETATM   34  O1  UNL     1       2.728   8.798   7.635  1.00  0.00    -0.266 OA
ENDBRANCH  31  32
ENDBRANCH   1  31
TORSDOF 6
ENDMDL
MODEL 2
REMARK minimizedAffinity -8.19063282
REMARK CNNscore 0.493358105
REMARK CNNaffinity 7.16164351
REMARK  6 active torsions:
REMARK  status: ('A' for Active; 'I' for Inactive)
REMARK    1  A    between atoms: C2_2  and  O2_4 
REMARK    2  A    between atoms: O2_4  and  C3_5 
REMARK    3  A    between atoms: C13_15  and  C14_16 
REMARK    4  A    between atoms: C14_16  and  C16_18 
REMARK    5  A    between atoms: C17_19  and  C18_20 
REMARK    6  A    between atoms: C18_20  and  C20_22 
ROOT
HETATM    1  C3  UNL     1       2.767   6.924   9.802  1.00  0.00     0.135 C 
HETATM    2  C4  UNL     1       1.649   5.923   9.491  1.00  0.00     0.034 C 
HETATM    3  C5  UNL     1       0.385   6.178  10.317  1.00  0.00     0.015 C 
HETATM    4  C6  UNL     1       0.655   6.192  11.843  1.00  0.00     0.001 C 
HETATM    5  C7  UNL     1       1.048   4.761  12.295  1.00  0.00     0.019 C 
HETATM    6  C8  UNL     1      -0.627   6.696  12.606  1.00  0.00     0.039 C 
HETATM    7  C9  UNL     1      -1.623   5.651  13.123  1.00  0.00     0.010 C 
HETATM    8  C10 UNL     1      -2.919   6.307  13.661  1.00  0.00     0.010 C 
HETATM    9  C11 UNL     1      -2.721   7.704  14.314  1.00  0.00    -0.033 C 
HETATM   10  C12 UNL     1      -3.102   8.827  13.322  1.00  0.00     0.016 C 
HETATM   11  C13 UNL     1      -3.472   7.894  15.675  1.00  0.00     0.001 C 
HETATM   12  C23 UNL     1      -2.644   9.005  16.385  1.00  0.00     0.006 C 
HETATM   13  C24 UNL     1      -1.243   8.999  15.756  1.00  0.00     0.009 C 
HETATM   14  C25 UNL     1      -1.262   7.800  14.817  1.00  0.00     0.036 C 
HETATM   15  C26 UNL     1      -0.171   7.671  13.741  1.00  0.00     0.123 C 
HETATM   16  C27 UNL     1       0.322   8.913  13.034  1.00  0.00     0.014 C 
HETATM   17  C28 UNL     1       1.311   8.667  12.157  1.00  0.00     0.014 C 
HETATM   18  C29 UNL     1       1.800   7.226  12.168  1.00  0.00     0.124 C 
HETATM   19  C30 UNL     1       3.055   7.017  11.306  1.00  0.00     0.079 C 
HETATM   20  O3  UNL     1       2.181   7.030  13.551  1.00  0.00    -0.223 OA
HETATM   21  O4  UNL     1       0.966   7.057  14.419  1.00  0.00    -0.224 OA
ENDROOT
BRANCH  11  22
HETATM   22  C14 UNL     1      -4.994   8.198  15.659  1.00  0.00     0.008 C 
HETATM   23  C15 UNL     1      -5.308   9.659  15.313  1.00  0.00     0.014 C 
BRANCH  22  24
HETATM   24  C16 UNL     1      -5.720   7.222  14.744  1.00  0.00    -0.026 C 
HETATM   25  C17 UNL     1      -6.779   6.455  15.055  1.00  0.00    -0.026 C 
BRANCH  25  26
HETATM   26  C18 UNL     1      -7.436   5.491  14.088  1.00  0.00     0.007 C 
HETATM   27  C19 UNL     1      -6.331   4.742  13.338  1.00  0.00     0.014 C 
BRANCH  26  28
HETATM   28  C20 UNL     1      -8.411   6.235  13.131  1.00  0.00    -0.015 C 
HETATM   29  C21 UNL     1      -9.769   6.499  13.797  1.00  0.00     0.010 C 
HETATM   30  C22 UNL     1      -8.646   5.465  11.826  1.00  0.00     0.010 C 
ENDBRANCH  26  28
ENDBRANCH  25  26
ENDBRANCH  22  24
ENDBRANCH  11  22
BRANCH   1  31
HETATM   31  O2  UNL     1       2.359   8.202   9.273  1.00  0.00    -0.316 OA
BRANCH  31  32
HETATM   32  C2  UNL     1       2.704   8.457   7.981  1.00  0.00     0.255 C 
HETATM   33  C1  UNL     1       2.017   7.490   7.067  1.00  0.00     0.126 C 
HETATM   34  O1  UNL     1       3.475   9.329   7.609  1.00  0.00    -0.266 OA
ENDBRANCH  31  32
ENDBRANCH   1  31
TORSDOF 6
ENDMDL
MODEL 3
REMARK minimizedAffinity -6.91124153
REMARK CNNscore 0.488293499
REMARK CNNaffinity 6.52169085
REMARK  6 active torsions:
REMARK  status: ('A' for Active; 'I' for Inactive)
REMARK    1  A    between atoms: C2_2  and  O2_4 
REMARK    2  A    between atoms: O2_4  and  C3_5 
REMARK    3  A    between atoms: C13_15  and  C14_16 
REMARK    4  A    between atoms: C14_16  and  C16_18 
REMARK    5  A    between atoms: C17_19  and  C18_20 
REMARK    6  A    between atoms: C18_20  and  C20_22 
ROOT
HETATM    1  C3  UNL     1       2.295  11.351  19.613  1.00  0.00     0.135 C 
HETATM    2  C4  UNL     1       0.891  11.351  20.226  1.00  0.00     0.034 C 
HETATM    3  C5  UNL     1      -0.131  10.619  19.353  1.00  0.00     0.015 C 
HETATM    4  C6  UNL     1      -0.199  11.175  17.908  1.00  0.00     0.001 C 
HETATM    5  C7  UNL     1      -0.787  12.609  17.950  1.00  0.00     0.019 C 
HETATM    6  C8  UNL     1      -1.081  10.226  17.013  1.00  0.00     0.039 C 
HETATM    7  C9  UNL     1      -2.571  10.552  16.857  1.00  0.00     0.010 C 
HETATM    8  C10 UNL     1      -3.336   9.421  16.125  1.00  0.00     0.010 C 
HETATM    9  C11 UNL     1      -2.505   8.661  15.053  1.00  0.00    -0.033 C 
HETATM   10  C12 UNL     1      -1.981   7.321  15.622  1.00  0.00     0.016 C 
HETATM   11  C13 UNL     1      -3.257   8.426  13.700  1.00  0.00     0.001 C 
HETATM   12  C23 UNL     1      -2.097   8.274  12.672  1.00  0.00     0.006 C 
HETATM   13  C24 UNL     1      -0.861   8.955  13.279  1.00  0.00     0.009 C 
HETATM   14  C25 UNL     1      -1.381   9.599  14.558  1.00  0.00     0.036 C 
HETATM   15  C26 UNL     1      -0.377  10.066  15.624  1.00  0.00     0.123 C 
HETATM   16  C27 UNL     1       0.859   9.239  15.891  1.00  0.00     0.014 C 
HETATM   17  C28 UNL     1       1.677   9.786  16.807  1.00  0.00     0.014 C 
HETATM   18  C29 UNL     1       1.244  11.170  17.271  1.00  0.00     0.124 C 
HETATM   19  C30 UNL     1       2.292  11.853  18.164  1.00  0.00     0.079 C 
HETATM   20  O3  UNL     1       1.173  11.913  16.031  1.00  0.00    -0.223 OA
HETATM   21  O4  UNL     1       0.051  11.393  15.193  1.00  0.00    -0.224 OA
ENDROOT
BRANCH  11  22
HETATM   22  C14 UNL     1      -4.297   7.278  13.605  1.00  0.00     0.008 C 
HETATM   23  C15 UNL     1      -3.862   6.014  14.358  1.00  0.00     0.014 C 
BRANCH  22  24
HETATM   24  C16 UNL     1      -5.669   7.768  14.046  1.00  0.00    -0.026 C 
HETATM   25  C17 UNL     1      -6.789   7.035  14.170  1.00  0.00    -0.026 C 
BRANCH  25  26
HETATM   26  C18 UNL     1      -8.126   7.604  14.600  1.00  0.00     0.007 C 
HETATM   27  C19 UNL     1      -7.901   9.045  15.070  1.00  0.00     0.014 C 
BRANCH  26  28
HETATM   28  C20 UNL     1      -8.788   6.714  15.691  1.00  0.00    -0.015 C 
HETATM   29  C21 UNL     1      -8.875   7.442  17.040  1.00  0.00     0.010 C 
HETATM   30  C22 UNL     1      -8.040   5.391  15.895  1.00  0.00     0.010 C 
ENDBRANCH  26  28
ENDBRANCH  25  26
ENDBRANCH  22  24
ENDBRANCH  11  22
BRANCH   1  31
HETATM   31  O2  UNL     1       2.799  10.003  19.693  1.00  0.00    -0.316 OA
BRANCH  31  32
HETATM   32  C2  UNL     1       3.158   9.566  20.931  1.00  0.00     0.255 C 
HETATM   33  C1  UNL     1       4.307  10.375  21.448  1.00  0.00     0.126 C 
HETATM   34  O1  UNL     1       2.642   8.638  21.536  1.00  0.00    -0.266 OA
ENDBRANCH  31  32
ENDBRANCH   1  31
TORSDOF 6
ENDMDL
MODEL 4
REMARK minimizedAffinity -8.91177273
REMARK CNNscore 0.467076361
REMARK CNNaffinity 6.86490011
REMARK  6 active torsions:
REMARK  status: ('A' for Active; 'I' for Inactive)
REMARK    1  A    between atoms: C2_2  and  O2_4 
REMARK    2  A    between atoms: O2_4  and  C3_5 
REMARK    3  A    between atoms: C13_15  and  C14_16 
REMARK    4  A    between atoms: C14_16  and  C16_18 
REMARK    5  A    between atoms: C17_19  and  C18_20 
REMARK    6  A    between atoms: C18_20  and  C20_22 
ROOT
HETATM    1  C3  UNL     1       3.959   6.649  10.157  1.00  0.00     0.135 C 
HETATM    2  C4  UNL     1       3.543   8.115  10.003  1.00  0.00     0.034 C 
HETATM    3  C5  UNL     1       2.351   8.485  10.891  1.00  0.00     0.015 C 
HETATM    4  C6  UNL     1       1.120   7.572  10.659  1.00  0.00     0.001 C 
HETATM    5  C7  UNL     1       0.556   7.842   9.241  1.00  0.00     0.019 C 
HETATM    6  C8  UNL     1       0.035   7.851  11.765  1.00  0.00     0.039 C 
HETATM    7  C9  UNL     1      -1.072   8.866  11.457  1.00  0.00     0.010 C 
HETATM    8  C10 UNL     1      -1.930   9.180  12.708  1.00  0.00     0.010 C 
HETATM    9  C11 UNL     1      -2.104   7.992  13.695  1.00  0.00    -0.033 C 
HETATM   10  C12 UNL     1      -1.128   8.130  14.888  1.00  0.00     0.016 C 
HETATM   11  C13 UNL     1      -3.569   7.783  14.205  1.00  0.00     0.001 C 
HETATM   12  C23 UNL     1      -3.599   6.276  14.594  1.00  0.00     0.006 C 
HETATM   13  C24 UNL     1      -2.468   5.585  13.817  1.00  0.00     0.009 C 
HETATM   14  C25 UNL     1      -1.923   6.676  12.904  1.00  0.00     0.036 C 
HETATM   15  C26 UNL     1      -0.554   6.478  12.233  1.00  0.00     0.123 C 
HETATM   16  C27 UNL     1       0.558   5.803  13.002  1.00  0.00     0.014 C 
HETATM   17  C28 UNL     1       1.682   5.646  12.283  1.00  0.00     0.014 C 
HETATM   18  C29 UNL     1       1.544   6.062  10.824  1.00  0.00     0.124 C 
HETATM   19  C30 UNL     1       2.774   5.692   9.981  1.00  0.00     0.079 C 
HETATM   20  O3  UNL     1       0.437   5.249  10.367  1.00  0.00    -0.223 OA
HETATM   21  O4  UNL     1      -0.824   5.685  11.038  1.00  0.00    -0.224 OA
ENDROOT
BRANCH  11  22
HETATM   22  C14 UNL     1      -4.114   8.703  15.330  1.00  0.00     0.008 C 
HETATM   23  C15 UNL     1      -3.807  10.187  15.089  1.00  0.00     0.014 C 
BRANCH  22  24
HETATM   24  C16 UNL     1      -5.598   8.451  15.550  1.00  0.00    -0.026 C 
HETATM   25  C17 UNL     1      -6.393   7.628  14.845  1.00  0.00    -0.026 C 
BRANCH  25  26
HETATM   26  C18 UNL     1      -7.872   7.444  15.118  1.00  0.00     0.007 C 
HETATM   27  C19 UNL     1      -8.053   7.208  16.622  1.00  0.00     0.014 C 
BRANCH  26  28
HETATM   28  C20 UNL     1      -8.462   6.292  14.256  1.00  0.00    -0.015 C 
HETATM   29  C21 UNL     1      -7.472   5.824  13.180  1.00  0.00     0.010 C 
HETATM   30  C22 UNL     1      -9.776   6.690  13.574  1.00  0.00     0.010 C 
ENDBRANCH  26  28
ENDBRANCH  25  26
ENDBRANCH  22  24
ENDBRANCH  11  22
BRANCH   1  31
HETATM   31  O2  UNL     1       4.550   6.506  11.464  1.00  0.00    -0.316 OA
BRANCH  31  32
HETATM   32  C2  UNL     1       5.911   6.527  11.516  1.00  0.00     0.255 C 
HETATM   33  C1  UNL     1       6.366   6.871  12.901  1.00  0.00     0.126 C 
HETATM   34  O1  UNL     1       6.662   6.319  10.575  1.00  0.00    -0.266 OA
ENDBRANCH  31  32
ENDBRANCH   1  31
TORSDOF 6
ENDMDL
MODEL 5
REMARK minimizedAffinity -8.60746765
REMARK CNNscore 0.458002299
REMARK CNNaffinity 6.84628296
REMARK  6 active torsions:
REMARK  status: ('A' for Active; 'I' for Inactive)
REMARK    1  A    between atoms: C2_2  and  O2_4 
REMARK    2  A    between atoms: O2_4  and  C3_5 
REMARK    3  A    between atoms: C13_15  and  C14_16 
REMARK    4  A    between atoms: C14_16  and  C16_18 
REMARK    5  A    between atoms: C17_19  and  C18_20 
REMARK    6  A    between atoms: C18_20  and  C20_22 
ROOT
HETATM    1  C3  UNL     1       1.529   7.782  10.623  1.00  0.00     0.135 C 
HETATM    2  C4  UNL     1       1.024   6.344  10.469  1.00  0.00     0.034 C 
HETATM    3  C5  UNL     1      -0.377   6.148  11.057  1.00  0.00     0.015 C 
HETATM    4  C6  UNL     1      -0.471   6.572  12.545  1.00  0.00     0.001 C 
HETATM    5  C7  UNL     1       0.374   5.592  13.400  1.00  0.00     0.019 C 
HETATM    6  C8  UNL     1      -1.977   6.573  13.004  1.00  0.00     0.039 C 
HETATM    7  C9  UNL     1      -2.535   5.309  13.670  1.00  0.00     0.010 C 
HETATM    8  C10 UNL     1      -4.068   5.392  13.872  1.00  0.00     0.010 C 
HETATM    9  C11 UNL     1      -4.613   6.822  14.149  1.00  0.00    -0.033 C 
HETATM   10  C12 UNL     1      -5.204   7.438  12.859  1.00  0.00     0.016 C 
HETATM   11  C13 UNL     1      -5.647   6.904  15.321  1.00  0.00     0.001 C 
HETATM   12  C23 UNL     1      -5.529   8.382  15.797  1.00  0.00     0.006 C 
HETATM   13  C24 UNL     1      -4.153   8.894  15.346  1.00  0.00     0.009 C 
HETATM   14  C25 UNL     1      -3.470   7.664  14.762  1.00  0.00     0.036 C 
HETATM   15  C26 UNL     1      -2.222   7.844  13.883  1.00  0.00     0.123 C 
HETATM   16  C27 UNL     1      -2.150   9.015  12.929  1.00  0.00     0.014 C 
HETATM   17  C28 UNL     1      -0.987   9.084  12.260  1.00  0.00     0.014 C 
HETATM   18  C29 UNL     1       0.042   8.054  12.706  1.00  0.00     0.124 C 
HETATM   19  C30 UNL     1       1.423   8.279  12.070  1.00  0.00     0.079 C 
HETATM   20  O3  UNL     1       0.164   8.320  14.124  1.00  0.00    -0.223 OA
HETATM   21  O4  UNL     1      -1.107   7.955  14.818  1.00  0.00    -0.224 OA
ENDROOT
BRANCH  11  22
HETATM   22  C14 UNL     1      -7.116   6.473  15.062  1.00  0.00     0.008 C 
HETATM   23  C15 UNL     1      -7.551   5.284  15.927  1.00  0.00     0.014 C 
BRANCH  22  24
HETATM   24  C16 UNL     1      -8.052   7.664  15.208  1.00  0.00    -0.026 C 
HETATM   25  C17 UNL     1      -9.270   7.809  14.660  1.00  0.00    -0.026 C 
BRANCH  25  26
HETATM   26  C18 UNL     1     -10.136   9.039  14.841  1.00  0.00     0.007 C 
HETATM   27  C19 UNL     1     -10.111   9.425  16.324  1.00  0.00     0.014 C 
BRANCH  26  28
HETATM   28  C20 UNL     1     -11.578   8.792  14.311  1.00  0.00    -0.015 C 
HETATM   29  C21 UNL     1     -11.598   8.598  12.789  1.00  0.00     0.010 C 
HETATM   30  C22 UNL     1     -12.535   9.934  14.674  1.00  0.00     0.010 C 
ENDBRANCH  26  28
ENDBRANCH  25  26
ENDBRANCH  22  24
ENDBRANCH  11  22
BRANCH   1  31
HETATM   31  O2  UNL     1       0.752   8.609   9.733  1.00  0.00    -0.316 OA
BRANCH  31  32
HETATM   32  C2  UNL     1       0.879   8.349   8.403  1.00  0.00     0.255 C 
HETATM   33  C1  UNL     1       2.322   8.402   8.007  1.00  0.00     0.126 C 
HETATM   34  O1  UNL     1      -0.040   8.124   7.630  1.00  0.00    -0.266 OA
ENDBRANCH  31  32
ENDBRANCH   1  31
TORSDOF 6
ENDMDL
MODEL 6
REMARK minimizedAffinity -7.76603508
REMARK CNNscore 0.432167441
REMARK CNNaffinity 6.67224264
REMARK  6 active torsions:
REMARK  status: ('A' for Active; 'I' for Inactive)
REMARK    1  A    between atoms: C2_2  and  O2_4 
REMARK    2  A    between atoms: O2_4  and  C3_5 
REMARK    3  A    between atoms: C13_15  and  C14_16 
REMARK    4  A    between atoms: C14_16  and  C16_18 
REMARK    5  A    between atoms: C17_19  and  C18_20 
REMARK    6  A    between atoms: C18_20  and  C20_22 
ROOT
HETATM    1  C3  UNL     1       4.633   7.086  10.557  1.00  0.00     0.135 C 
HETATM    2  C4  UNL     1       4.118   8.528  10.515  1.00  0.00     0.034 C 
HETATM    3  C5  UNL     1       2.751   8.684  11.187  1.00  0.00     0.015 C 
HETATM    4  C6  UNL     1       1.677   7.735  10.598  1.00  0.00     0.001 C 
HETATM    5  C7  UNL     1       1.367   8.171   9.143  1.00  0.00     0.019 C 
HETATM    6  C8  UNL     1       0.381   7.777  11.492  1.00  0.00     0.039 C 
HETATM    7  C9  UNL     1      -0.738   8.751  11.104  1.00  0.00     0.010 C 
HETATM    8  C10 UNL     1      -1.842   8.821  12.188  1.00  0.00     0.010 C 
HETATM    9  C11 UNL     1      -2.086   7.493  12.958  1.00  0.00    -0.033 C 
HETATM   10  C12 UNL     1      -1.370   7.520  14.329  1.00  0.00     0.016 C 
HETATM   11  C13 UNL     1      -3.596   7.115  13.133  1.00  0.00     0.001 C 
HETATM   12  C23 UNL     1      -3.557   5.569  13.309  1.00  0.00     0.006 C 
HETATM   13  C24 UNL     1      -2.240   5.075  12.691  1.00  0.00     0.009 C 
HETATM   14  C25 UNL     1      -1.637   6.321  12.055  1.00  0.00     0.036 C 
HETATM   15  C26 UNL     1      -0.154   6.315  11.650  1.00  0.00     0.123 C 
HETATM   16  C27 UNL     1       0.851   5.610  12.531  1.00  0.00     0.014 C 
HETATM   17  C28 UNL     1       2.101   5.635  12.036  1.00  0.00     0.014 C 
HETATM   18  C29 UNL     1       2.201   6.249  10.647  1.00  0.00     0.124 C 
HETATM   19  C30 UNL     1       3.597   6.088  10.025  1.00  0.00     0.079 C 
HETATM   20  O3  UNL     1       1.281   5.439   9.875  1.00  0.00    -0.223 OA
HETATM   21  O4  UNL     1      -0.118   5.688  10.333  1.00  0.00    -0.224 OA
ENDROOT
BRANCH  11  22
HETATM   22  C14 UNL     1      -4.426   7.823  14.237  1.00  0.00     0.008 C 
HETATM   23  C15 UNL     1      -4.546   6.992  15.520  1.00  0.00     0.014 C 
BRANCH  22  24
HETATM   24  C16 UNL     1      -3.874   9.217  14.504  1.00  0.00    -0.026 C 
HETATM   25  C17 UNL     1      -3.762   9.829  15.695  1.00  0.00    -0.026 C 
BRANCH  25  26
HETATM   26  C18 UNL     1      -3.215  11.231  15.875  1.00  0.00     0.007 C 
HETATM   27  C19 UNL     1      -2.150  11.468  14.799  1.00  0.00     0.014 C 
BRANCH  26  28
HETATM   28  C20 UNL     1      -2.668  11.438  17.316  1.00  0.00    -0.015 C 
HETATM   29  C21 UNL     1      -3.478  10.645  18.350  1.00  0.00     0.010 C 
HETATM   30  C22 UNL     1      -2.658  12.915  17.728  1.00  0.00     0.010 C 
ENDBRANCH  26  28
ENDBRANCH  25  26
ENDBRANCH  22  24
ENDBRANCH  11  22
BRANCH   1  31
HETATM   31  O2  UNL     1       4.978   6.793  11.926  1.00  0.00    -0.316 OA
BRANCH  31  32
HETATM   32  C2  UNL     1       6.263   7.057  12.293  1.00  0.00     0.255 C 
HETATM   33  C1  UNL     1       6.315   7.425  13.744  1.00  0.00     0.126 C 
HETATM   34  O1  UNL     1       7.236   7.022  11.555  1.00  0.00    -0.266 OA
ENDBRANCH  31  32
ENDBRANCH   1  31
TORSDOF 6
ENDMDL
MODEL 7
REMARK minimizedAffinity -8.47805405
REMARK CNNscore 0.390847087
REMARK CNNaffinity 6.89498138
REMARK  6 active torsions:
REMARK  status: ('A' for Active; 'I' for Inactive)
REMARK    1  A    between atoms: C2_2  and  O2_4 
REMARK    2  A    between atoms: O2_4  and  C3_5 
REMARK    3  A    between atoms: C13_15  and  C14_16 
REMARK    4  A    between atoms: C14_16  and  C16_18 
REMARK    5  A    between atoms: C17_19  and  C18_20 
REMARK    6  A    between atoms: C18_20  and  C20_22 
ROOT
HETATM    1  C3  UNL     1      -6.747   5.270  14.263  1.00  0.00     0.135 C 
HETATM    2  C4  UNL     1      -6.861   6.471  13.320  1.00  0.00     0.034 C 
HETATM    3  C5  UNL     1      -5.495   7.011  12.886  1.00  0.00     0.015 C 
HETATM    4  C6  UNL     1      -4.584   7.381  14.084  1.00  0.00     0.001 C 
HETATM    5  C7  UNL     1      -5.192   8.605  14.816  1.00  0.00     0.019 C 
HETATM    6  C8  UNL     1      -3.129   7.691  13.571  1.00  0.00     0.039 C 
HETATM    7  C9  UNL     1      -2.761   9.147  13.265  1.00  0.00     0.010 C 
HETATM    8  C10 UNL     1      -1.377   9.260  12.579  1.00  0.00     0.010 C 
HETATM    9  C11 UNL     1      -0.342   8.186  13.017  1.00  0.00    -0.033 C 
HETATM   10  C12 UNL     1      -0.263   7.049  11.971  1.00  0.00     0.016 C 
HETATM   11  C13 UNL     1       1.086   8.750  13.324  1.00  0.00     0.001 C 
HETATM   12  C23 UNL     1       1.683   7.694  14.299  1.00  0.00     0.006 C 
HETATM   13  C24 UNL     1       0.503   6.950  14.941  1.00  0.00     0.009 C 
HETATM   14  C25 UNL     1      -0.726   7.693  14.431  1.00  0.00     0.036 C 
HETATM   15  C26 UNL     1      -2.109   7.033  14.559  1.00  0.00     0.123 C 
HETATM   16  C27 UNL     1      -2.242   5.543  14.344  1.00  0.00     0.014 C 
HETATM   17  C28 UNL     1      -3.491   5.087  14.537  1.00  0.00     0.014 C 
HETATM   18  C29 UNL     1      -4.459   6.143  15.054  1.00  0.00     0.124 C 
HETATM   19  C30 UNL     1      -5.822   5.557  15.452  1.00  0.00     0.079 C 
HETATM   20  O3  UNL     1      -3.809   6.604  16.263  1.00  0.00    -0.223 OA
HETATM   21  O4  UNL     1      -2.554   7.335  15.916  1.00  0.00    -0.224 OA
ENDROOT
BRANCH  11  22
HETATM   22  C14 UNL     1       2.036   9.079  12.141  1.00  0.00     0.008 C 
HETATM   23  C15 UNL     1       3.510   9.146  12.560  1.00  0.00     0.014 C 
BRANCH  22  24
HETATM   24  C16 UNL     1       1.808   8.108  10.992  1.00  0.00    -0.026 C 
HETATM   25  C17 UNL     1       2.743   7.547  10.207  1.00  0.00    -0.026 C 
BRANCH  25  26
HETATM   26  C18 UNL     1       2.432   6.599   9.067  1.00  0.00     0.007 C 
HETATM   27  C19 UNL     1       3.249   5.319   9.276  1.00  0.00     0.014 C 
BRANCH  26  28
HETATM   28  C20 UNL     1       2.708   7.268   7.690  1.00  0.00    -0.015 C 
HETATM   29  C21 UNL     1       2.993   8.769   7.836  1.00  0.00     0.010 C 
HETATM   30  C22 UNL     1       1.543   7.082   6.710  1.00  0.00     0.010 C 
ENDBRANCH  26  28
ENDBRANCH  25  26
ENDBRANCH  22  24
ENDBRANCH  11  22
BRANCH   1  31
HETATM   31  O2  UNL     1      -6.259   4.158  13.485  1.00  0.00    -0.316 OA
BRANCH  31  32
HETATM   32  C2  UNL     1      -7.204   3.323  12.971  1.00  0.00     0.255 C 
HETATM   33  C1  UNL     1      -6.588   2.426  11.941  1.00  0.00     0.126 C 
HETATM   34  O1  UNL     1      -8.386   3.309  13.279  1.00  0.00    -0.266 OA
ENDBRANCH  31  32
ENDBRANCH   1  31
TORSDOF 6
ENDMDL
MODEL 8
REMARK minimizedAffinity -6.22198343
REMARK CNNscore 0.353440672
REMARK CNNaffinity 6.28443527
REMARK  6 active torsions:
REMARK  status: ('A' for Active; 'I' for Inactive)
REMARK    1  A    between atoms: C2_2  and  O2_4 
REMARK    2  A    between atoms: O2_4  and  C3_5 
REMARK    3  A    between atoms: C13_15  and  C14_16 
REMARK    4  A    between atoms: C14_16  and  C16_18 
REMARK    5  A    between atoms: C17_19  and  C18_20 
REMARK    6  A    between atoms: C18_20  and  C20_22 
ROOT
HETATM    1  C3  UNL     1     -14.917   2.829  26.402  1.00  0.00     0.135 C 
HETATM    2  C4  UNL     1     -14.373   2.486  25.012  1.00  0.00     0.034 C 
HETATM    3  C5  UNL     1     -13.729   3.690  24.319  1.00  0.00     0.015 C 
HETATM    4  C6  UNL     1     -14.684   4.907  24.215  1.00  0.00     0.001 C 
HETATM    5  C7  UNL     1     -15.836   4.558  23.238  1.00  0.00     0.019 C 
HETATM    6  C8  UNL     1     -13.884   6.170  23.720  1.00  0.00     0.039 C 
HETATM    7  C9  UNL     1     -13.862   6.474  22.217  1.00  0.00     0.010 C 
HETATM    8  C10 UNL     1     -12.873   7.615  21.874  1.00  0.00     0.010 C 
HETATM    9  C11 UNL     1     -12.726   8.704  22.973  1.00  0.00    -0.033 C 
HETATM   10  C12 UNL     1     -11.449   8.460  23.812  1.00  0.00     0.016 C 
HETATM   11  C13 UNL     1     -12.759  10.174  22.436  1.00  0.00     0.001 C 
HETATM   12  C23 UNL     1     -13.236  10.993  23.671  1.00  0.00     0.006 C 
HETATM   13  C24 UNL     1     -13.970  10.019  24.605  1.00  0.00     0.009 C 
HETATM   14  C25 UNL     1     -14.021   8.716  23.818  1.00  0.00     0.036 C 
HETATM   15  C26 UNL     1     -14.356   7.408  24.553  1.00  0.00     0.123 C 
HETATM   16  C27 UNL     1     -13.820   7.184  25.948  1.00  0.00     0.014 C 
HETATM   17  C28 UNL     1     -14.230   6.027  26.495  1.00  0.00     0.014 C 
HETATM   18  C29 UNL     1     -15.240   5.267  25.645  1.00  0.00     0.124 C 
HETATM   19  C30 UNL     1     -15.838   4.054  26.375  1.00  0.00     0.079 C 
HETATM   20  O3  UNL     1     -16.299   6.239  25.467  1.00  0.00    -0.223 OA
HETATM   21  O4  UNL     1     -15.813   7.366  24.616  1.00  0.00    -0.224 OA
ENDROOT
BRANCH  11  22
HETATM   22  C14 UNL     1     -11.481  10.766  21.782  1.00  0.00     0.008 C 
HETATM   23  C15 UNL     1     -11.689  11.156  20.313  1.00  0.00     0.014 C 
BRANCH  22  24
HETATM   24  C16 UNL     1     -10.945  11.921  22.614  1.00  0.00    -0.026 C 
HETATM   25  C17 UNL     1      -9.776  11.969  23.276  1.00  0.00    -0.026 C 
BRANCH  25  26
HETATM   26  C18 UNL     1      -9.320  13.155  24.100  1.00  0.00     0.007 C 
HETATM   27  C19 UNL     1     -10.557  13.984  24.465  1.00  0.00     0.014 C 
BRANCH  26  28
HETATM   28  C20 UNL     1      -8.246  13.986  23.342  1.00  0.00    -0.015 C 
HETATM   29  C21 UNL     1      -7.159  13.087  22.735  1.00  0.00     0.010 C 
HETATM   30  C22 UNL     1      -7.574  15.029  24.243  1.00  0.00     0.010 C 
ENDBRANCH  26  28
ENDBRANCH  25  26
ENDBRANCH  22  24
ENDBRANCH  11  22
BRANCH   1  31
HETATM   31  O2  UNL     1     -13.783   3.053  27.264  1.00  0.00    -0.316 OA
BRANCH  31  32
HETATM   32  C2  UNL     1     -13.510   2.072  28.168  1.00  0.00     0.255 C 
HETATM   33  C1  UNL     1     -12.352   2.476  29.028  1.00  0.00     0.126 C 
HETATM   34  O1  UNL     1     -14.100   1.006  28.262  1.00  0.00    -0.266 OA
ENDBRANCH  31  32
ENDBRANCH   1  31
TORSDOF 6
ENDMDL
MODEL 9
REMARK minimizedAffinity -6.51863241
REMARK CNNscore 0.352073073
REMARK CNNaffinity 6.4675045
REMARK  6 active torsions:
REMARK  status: ('A' for Active; 'I' for Inactive)
REMARK    1  A    between atoms: C2_2  and  O2_4 
REMARK    2  A    between atoms: O2_4  and  C3_5 
REMARK    3  A    between atoms: C13_15  and  C14_16 
REMARK    4  A    between atoms: C14_16  and  C16_18 
REMARK    5  A    between atoms: C17_19  and  C18_20 
REMARK    6  A    between atoms: C18_20  and  C20_22 
ROOT
HETATM    1  C3  UNL     1     -19.977   7.159  13.867  1.00  0.00     0.135 C 
HETATM    2  C4  UNL     1     -19.320   6.001  14.624  1.00  0.00     0.034 C 
HETATM    3  C5  UNL     1     -17.822   6.222  14.853  1.00  0.00     0.015 C 
HETATM    4  C6  UNL     1     -17.044   6.488  13.539  1.00  0.00     0.001 C 
HETATM    5  C7  UNL     1     -17.047   5.194  12.685  1.00  0.00     0.019 C 
HETATM    6  C8  UNL     1     -15.574   6.944  13.874  1.00  0.00     0.039 C 
HETATM    7  C9  UNL     1     -14.475   5.876  13.923  1.00  0.00     0.010 C 
HETATM    8  C10 UNL     1     -13.141   6.446  14.464  1.00  0.00     0.010 C 
HETATM    9  C11 UNL     1     -12.876   7.936  14.107  1.00  0.00    -0.033 C 
HETATM   10  C12 UNL     1     -13.230   8.852  15.302  1.00  0.00     0.016 C 
HETATM   11  C13 UNL     1     -11.426   8.232  13.597  1.00  0.00     0.001 C 
HETATM   12  C23 UNL     1     -11.604   9.522  12.746  1.00  0.00     0.006 C 
HETATM   13  C24 UNL     1     -13.081   9.589  12.328  1.00  0.00     0.009 C 
HETATM   14  C25 UNL     1     -13.667   8.273  12.822  1.00  0.00     0.036 C 
HETATM   15  C26 UNL     1     -15.194   8.119  12.913  1.00  0.00     0.123 C 
HETATM   16  C27 UNL     1     -16.032   9.295  13.362  1.00  0.00     0.014 C 
HETATM   17  C28 UNL     1     -17.352   9.042  13.347  1.00  0.00     0.014 C 
HETATM   18  C29 UNL     1     -17.713   7.684  12.761  1.00  0.00     0.124 C 
HETATM   19  C30 UNL     1     -19.228   7.501  12.574  1.00  0.00     0.079 C 
HETATM   20  O3  UNL     1     -17.112   7.737  11.445  1.00  0.00    -0.223 OA
HETATM   21  O4  UNL     1     -15.623   7.746  11.569  1.00  0.00    -0.224 OA
ENDROOT
BRANCH  11  22
HETATM   22  C14 UNL     1     -10.274   8.350  14.632  1.00  0.00     0.008 C 
HETATM   23  C15 UNL     1     -10.749   8.859  15.998  1.00  0.00     0.014 C 
BRANCH  22  24
HETATM   24  C16 UNL     1      -9.520   7.032  14.738  1.00  0.00    -0.026 C 
HETATM   25  C17 UNL     1      -8.233   6.808  14.423  1.00  0.00    -0.026 C 
BRANCH  25  26
HETATM   26  C18 UNL     1      -7.558   5.456  14.542  1.00  0.00     0.007 C 
HETATM   27  C19 UNL     1      -6.043   5.672  14.457  1.00  0.00     0.014 C 
BRANCH  26  28
HETATM   28  C20 UNL     1      -8.084   4.470  13.460  1.00  0.00    -0.015 C 
HETATM   29  C21 UNL     1      -7.112   3.302  13.237  1.00  0.00     0.010 C 
HETATM   30  C22 UNL     1      -8.337   5.161  12.116  1.00  0.00     0.010 C 
ENDBRANCH  26  28
ENDBRANCH  25  26
ENDBRANCH  22  24
ENDBRANCH  11  22
BRANCH   1  31
HETATM   31  O2  UNL     1     -20.012   8.291  14.760  1.00  0.00    -0.316 OA
BRANCH  31  32
HETATM   32  C2  UNL     1     -21.168   9.009  14.778  1.00  0.00     0.255 C 
HETATM   33  C1  UNL     1     -21.013  10.209  15.661  1.00  0.00     0.126 C 
HETATM   34  O1  UNL     1     -22.196   8.719  14.184  1.00  0.00    -0.266 OA
ENDBRANCH  31  32
ENDBRANCH   1  31
TORSDOF 6
ENDMDL
