MODEL 1
REMARK minimizedAffinity -6.21945143
REMARK CNNscore 0.592755258
REMARK CNNaffinity 5.40374422
REMARK  4 active torsions:
REMARK  status: ('A' for Active; 'I' for Inactive)
REMARK    1  A    between atoms: C2_2  and  C3_3 
REMARK    2  A    between atoms: C2_2  and  C9_9 
REMARK    3  A    between atoms: C3_3  and  C4_4 
REMARK    4  A    between atoms: C4_4  and  C5_5 
ROOT
HETATM    1  C9  UNL     1      -5.349 -10.432   9.024  1.00  0.00     0.018 C 
HETATM    2  C10 UNL     1      -4.347 -10.117  10.184  1.00  0.00     0.010 C 
HETATM    3  C11 UNL     1      -5.175  -9.642  11.388  1.00  0.00     0.011 C 
HETATM    4  C12 UNL     1      -6.544 -10.309  11.199  1.00  0.00    -0.032 C 
HETATM    5  C13 UNL     1      -6.355 -11.829  11.543  1.00  0.00     0.016 C 
HETATM    6  C14 UNL     1      -6.727 -10.086   9.667  1.00  0.00     0.002 C 
HETATM    7  C15 UNL     1      -7.975 -10.829   9.194  1.00  0.00     0.006 C 
HETATM    8  C16 UNL     1      -9.217 -10.305   9.931  1.00  0.00     0.006 C 
HETATM    9  C17 UNL     1      -9.105 -10.333  11.479  1.00  0.00     0.003 C 
HETATM   10  C18 UNL     1     -10.453  -9.921  12.247  1.00  0.00    -0.035 C 
HETATM   11  C19 UNL     1     -11.184  -8.788  11.487  1.00  0.00     0.016 C 
HETATM   12  C20 UNL     1     -11.362 -11.191  12.223  1.00  0.00     0.017 C 
HETATM   13  C21 UNL     1     -12.613 -11.107  13.072  1.00  0.00     0.080 C 
HETATM   14  C22 UNL     1     -12.248 -10.793  14.501  1.00  0.00     0.135 C 
HETATM   15  O1  UNL     1     -12.698 -11.478  15.422  1.00  0.00    -0.297 OA
HETATM   16  C23 UNL     1     -11.397  -9.545  14.747  1.00  0.00     0.017 C 
HETATM   17  C24 UNL     1     -10.948  -9.531  16.229  1.00  0.00     0.023 C 
HETATM   18  C25 UNL     1     -12.320  -8.314  14.588  1.00  0.00     0.023 C 
HETATM   19  C26 UNL     1     -10.163  -9.496  13.751  1.00  0.00     0.009 C 
HETATM   20  C27 UNL     1      -8.935 -10.287  14.253  1.00  0.00     0.007 C 
HETATM   21  C28 UNL     1      -7.637  -9.909  13.527  1.00  0.00     0.011 C 
HETATM   22  C29 UNL     1      -7.776  -9.664  11.997  1.00  0.00    -0.032 C 
HETATM   23  C30 UNL     1      -7.823  -8.124  11.779  1.00  0.00     0.016 C 
ENDROOT
BRANCH   1  24
HETATM   24  C2  UNL     1      -5.023  -9.770   7.674  1.00  0.00    -0.084 C 
HETATM   25  C1  UNL     1      -5.758  -8.786   7.118  1.00  0.00     0.014 C 
BRANCH  24  26
HETATM   26  C3  UNL     1      -3.766 -10.198   6.934  1.00  0.00     0.037 C 
BRANCH  26  27
HETATM   27  C4  UNL     1      -3.306  -9.161   5.904  1.00  0.00     0.031 C 
BRANCH  27  28
HETATM   28  C5  UNL     1      -2.561  -9.809   4.766  1.00  0.00    -0.024 C 
HETATM   29  C6  UNL     1      -2.968  -9.964   3.492  1.00  0.00    -0.091 C 
HETATM   30  C7  UNL     1      -4.306  -9.537   2.954  1.00  0.00     0.042 C 
HETATM   31  C8  UNL     1      -2.074 -10.623   2.475  1.00  0.00     0.042 C 
ENDBRANCH  27  28
ENDBRANCH  26  27
ENDBRANCH  24  26
ENDBRANCH   1  24
TORSDOF 4
ENDMDL
MODEL 2
REMARK minimizedAffinity -7.60352087
REMARK CNNscore 0.499631792
REMARK CNNaffinity 6.68622446
REMARK  4 active torsions:
REMARK  status: ('A' for Active; 'I' for Inactive)
REMARK    1  A    between atoms: C2_2  and  C3_3 
REMARK    2  A    between atoms: C2_2  and  C9_9 
REMARK    3  A    between atoms: C3_3  and  C4_4 
REMARK    4  A    between atoms: C4_4  and  C5_5 
ROOT
HETATM    1  C9  UNL     1      -2.000   6.404  12.573  1.00  0.00     0.018 C 
HETATM    2  C10 UNL     1      -3.146   5.707  13.378  1.00  0.00     0.010 C 
HETATM    3  C11 UNL     1      -3.468   6.603  14.584  1.00  0.00     0.011 C 
HETATM    4  C12 UNL     1      -3.076   8.014  14.128  1.00  0.00    -0.032 C 
HETATM    5  C13 UNL     1      -4.173   8.479  13.106  1.00  0.00     0.016 C 
HETATM    6  C14 UNL     1      -1.729   7.687  13.416  1.00  0.00     0.002 C 
HETATM    7  C15 UNL     1      -1.210   8.941  12.714  1.00  0.00     0.006 C 
HETATM    8  C16 UNL     1      -0.979  10.065  13.736  1.00  0.00     0.006 C 
HETATM    9  C17 UNL     1      -2.212  10.391  14.623  1.00  0.00     0.003 C 
HETATM   10  C18 UNL     1      -2.014  11.657  15.589  1.00  0.00    -0.035 C 
HETATM   11  C19 UNL     1      -0.565  11.705  16.130  1.00  0.00     0.016 C 
HETATM   12  C20 UNL     1      -2.243  12.916  14.692  1.00  0.00     0.017 C 
HETATM   13  C21 UNL     1      -2.310  14.235  15.433  1.00  0.00     0.080 C 
HETATM   14  C22 UNL     1      -3.390  14.181  16.486  1.00  0.00     0.135 C 
HETATM   15  O1  UNL     1      -4.237  15.075  16.554  1.00  0.00    -0.297 OA
HETATM   16  C23 UNL     1      -3.317  13.042  17.504  1.00  0.00     0.017 C 
HETATM   17  C24 UNL     1      -4.621  13.033  18.339  1.00  0.00     0.023 C 
HETATM   18  C25 UNL     1      -2.192  13.387  18.509  1.00  0.00     0.023 C 
HETATM   19  C26 UNL     1      -3.063  11.652  16.782  1.00  0.00     0.009 C 
HETATM   20  C27 UNL     1      -4.358  10.969  16.291  1.00  0.00     0.007 C 
HETATM   21  C28 UNL     1      -4.173   9.477  15.982  1.00  0.00     0.011 C 
HETATM   22  C29 UNL     1      -2.835   9.103  15.281  1.00  0.00    -0.032 C 
HETATM   23  C30 UNL     1      -1.883   8.539  16.376  1.00  0.00     0.016 C 
ENDROOT
BRANCH   1  24
HETATM   24  C2  UNL     1      -0.788   5.514  12.247  1.00  0.00    -0.084 C 
HETATM   25  C1  UNL     1      -0.281   4.591  13.089  1.00  0.00     0.014 C 
BRANCH  24  26
HETATM   26  C3  UNL     1      -0.145   5.627  10.874  1.00  0.00     0.037 C 
BRANCH  26  27
HETATM   27  C4  UNL     1       1.133   6.472  10.889  1.00  0.00     0.031 C 
BRANCH  27  28
HETATM   28  C5  UNL     1       1.697   6.643   9.502  1.00  0.00    -0.024 C 
HETATM   29  C6  UNL     1       1.288   7.493   8.541  1.00  0.00    -0.091 C 
HETATM   30  C7  UNL     1       0.128   8.443   8.663  1.00  0.00     0.042 C 
HETATM   31  C8  UNL     1       1.990   7.541   7.210  1.00  0.00     0.042 C 
ENDBRANCH  27  28
ENDBRANCH  26  27
ENDBRANCH  24  26
ENDBRANCH   1  24
TORSDOF 4
ENDMDL
MODEL 3
REMARK minimizedAffinity -6.47631693
REMARK CNNscore 0.459161907
REMARK CNNaffinity 6.49803209
REMARK  4 active torsions:
REMARK  status: ('A' for Active; 'I' for Inactive)
REMARK    1  A    between atoms: C2_2  and  C3_3 
REMARK    2  A    between atoms: C2_2  and  C9_9 
REMARK    3  A    between atoms: C3_3  and  C4_4 
REMARK    4  A    between atoms: C4_4  and  C5_5 
ROOT
HETATM    1  C9  UNL     1     -15.094   5.903  23.656  1.00  0.00     0.018 C 
HETATM    2  C10 UNL     1     -14.782   5.951  25.189  1.00  0.00     0.010 C 
HETATM    3  C11 UNL     1     -13.690   7.011  25.401  1.00  0.00     0.011 C 
HETATM    4  C12 UNL     1     -13.872   7.988  24.232  1.00  0.00    -0.032 C 
HETATM    5  C13 UNL     1     -15.166   8.823  24.540  1.00  0.00     0.016 C 
HETATM    6  C14 UNL     1     -14.110   6.966  23.080  1.00  0.00     0.002 C 
HETATM    7  C15 UNL     1     -14.492   7.718  21.806  1.00  0.00     0.006 C 
HETATM    8  C16 UNL     1     -13.367   8.682  21.400  1.00  0.00     0.006 C 
HETATM    9  C17 UNL     1     -12.927   9.666  22.519  1.00  0.00     0.003 C 
HETATM   10  C18 UNL     1     -11.854  10.763  22.050  1.00  0.00    -0.035 C 
HETATM   11  C19 UNL     1     -10.852  10.146  21.045  1.00  0.00     0.016 C 
HETATM   12  C20 UNL     1     -12.673  11.868  21.309  1.00  0.00     0.017 C 
HETATM   13  C21 UNL     1     -11.896  13.118  20.952  1.00  0.00     0.080 C 
HETATM   14  C22 UNL     1     -11.279  13.715  22.193  1.00  0.00     0.135 C 
HETATM   15  O1  UNL     1     -11.431  14.912  22.448  1.00  0.00    -0.297 OA
HETATM   16  C23 UNL     1     -10.390  12.803  23.040  1.00  0.00     0.017 C 
HETATM   17  C24 UNL     1     -10.050  13.527  24.366  1.00  0.00     0.023 C 
HETATM   18  C25 UNL     1      -9.040  12.651  22.299  1.00  0.00     0.023 C 
HETATM   19  C26 UNL     1     -11.091  11.402  23.290  1.00  0.00     0.009 C 
HETATM   20  C27 UNL     1     -12.045  11.399  24.504  1.00  0.00     0.007 C 
HETATM   21  C28 UNL     1     -12.390   9.987  24.996  1.00  0.00     0.011 C 
HETATM   22  C29 UNL     1     -12.624   8.930  23.879  1.00  0.00    -0.032 C 
HETATM   23  C30 UNL     1     -11.319   8.089  23.761  1.00  0.00     0.016 C 
ENDROOT
BRANCH   1  24
HETATM   24  C2  UNL     1     -15.059   4.502  23.021  1.00  0.00    -0.084 C 
HETATM   25  C1  UNL     1     -14.868   4.274  21.707  1.00  0.00     0.014 C 
BRANCH  24  26
HETATM   26  C3  UNL     1     -15.189   3.286  23.924  1.00  0.00     0.037 C 
BRANCH  26  27
HETATM   27  C4  UNL     1     -13.893   2.473  24.010  1.00  0.00     0.031 C 
BRANCH  27  28
HETATM   28  C5  UNL     1     -13.455   2.283  25.438  1.00  0.00    -0.024 C 
HETATM   29  C6  UNL     1     -12.313   1.728  25.887  1.00  0.00    -0.091 C 
HETATM   30  C7  UNL     1     -11.237   1.140  25.016  1.00  0.00     0.042 C 
HETATM   31  C8  UNL     1     -12.031   1.640  27.363  1.00  0.00     0.042 C 
ENDBRANCH  27  28
ENDBRANCH  26  27
ENDBRANCH  24  26
ENDBRANCH   1  24
TORSDOF 4
ENDMDL
MODEL 4
REMARK minimizedAffinity -6.36838961
REMARK CNNscore 0.43846485
REMARK CNNaffinity 6.26526022
REMARK  4 active torsions:
REMARK  status: ('A' for Active; 'I' for Inactive)
REMARK    1  A    between atoms: C2_2  and  C3_3 
REMARK    2  A    between atoms: C2_2  and  C9_9 
REMARK    3  A    between atoms: C3_3  and  C4_4 
REMARK    4  A    between atoms: C4_4  and  C5_5 
ROOT
HETATM    1  C9  UNL     1     -14.968   6.835  20.804  1.00  0.00     0.018 C 
HETATM    2  C10 UNL     1     -15.500   8.005  21.697  1.00  0.00     0.010 C 
HETATM    3  C11 UNL     1     -15.660   7.455  23.122  1.00  0.00     0.011 C 
HETATM    4  C12 UNL     1     -14.641   6.311  23.209  1.00  0.00    -0.032 C 
HETATM    5  C13 UNL     1     -13.222   6.978  23.302  1.00  0.00     0.016 C 
HETATM    6  C14 UNL     1     -14.876   5.654  21.816  1.00  0.00     0.002 C 
HETATM    7  C15 UNL     1     -13.832   4.561  21.590  1.00  0.00     0.006 C 
HETATM    8  C16 UNL     1     -13.944   3.484  22.680  1.00  0.00     0.006 C 
HETATM    9  C17 UNL     1     -13.875   4.030  24.132  1.00  0.00     0.003 C 
HETATM   10  C18 UNL     1     -13.849   2.893  25.265  1.00  0.00    -0.035 C 
HETATM   11  C19 UNL     1     -14.761   1.709  24.865  1.00  0.00     0.016 C 
HETATM   12  C20 UNL     1     -12.375   2.379  25.317  1.00  0.00     0.017 C 
HETATM   13  C21 UNL     1     -12.058   1.439  26.462  1.00  0.00     0.080 C 
HETATM   14  C22 UNL     1     -12.394   2.096  27.777  1.00  0.00     0.135 C 
HETATM   15  O1  UNL     1     -11.565   2.117  28.690  1.00  0.00    -0.297 OA
HETATM   16  C23 UNL     1     -13.819   2.626  27.950  1.00  0.00     0.017 C 
HETATM   17  C24 UNL     1     -13.889   3.453  29.257  1.00  0.00     0.023 C 
HETATM   18  C25 UNL     1     -14.743   1.408  28.188  1.00  0.00     0.023 C 
HETATM   19  C26 UNL     1     -14.265   3.473  26.685  1.00  0.00     0.009 C 
HETATM   20  C27 UNL     1     -13.834   4.954  26.753  1.00  0.00     0.007 C 
HETATM   21  C28 UNL     1     -14.601   5.850  25.772  1.00  0.00     0.011 C 
HETATM   22  C29 UNL     1     -14.869   5.229  24.371  1.00  0.00    -0.032 C 
HETATM   23  C30 UNL     1     -16.341   4.722  24.366  1.00  0.00     0.016 C 
ENDROOT
BRANCH   1  24
HETATM   24  C2  UNL     1     -15.760   6.585  19.508  1.00  0.00    -0.084 C 
HETATM   25  C1  UNL     1     -16.833   5.774  19.424  1.00  0.00     0.014 C 
BRANCH  24  26
HETATM   26  C3  UNL     1     -15.357   7.334  18.248  1.00  0.00     0.037 C 
BRANCH  26  27
HETATM   27  C4  UNL     1     -15.782   6.607  16.968  1.00  0.00     0.031 C 
BRANCH  27  28
HETATM   28  C5  UNL     1     -14.751   6.758  15.880  1.00  0.00    -0.024 C 
HETATM   29  C6  UNL     1     -14.818   6.315  14.610  1.00  0.00    -0.091 C 
HETATM   30  C7  UNL     1     -15.958   5.526  14.027  1.00  0.00     0.042 C 
HETATM   31  C8  UNL     1     -13.692   6.579  13.646  1.00  0.00     0.042 C 
ENDBRANCH  27  28
ENDBRANCH  26  27
ENDBRANCH  24  26
ENDBRANCH   1  24
TORSDOF 4
ENDMDL
MODEL 5
REMARK minimizedAffinity -8.49717426
REMARK CNNscore 0.417299211
REMARK CNNaffinity 6.67886972
REMARK  4 active torsions:
REMARK  status: ('A' for Active; 'I' for Inactive)
REMARK    1  A    between atoms: C2_2  and  C3_3 
REMARK    2  A    between atoms: C2_2  and  C9_9 
REMARK    3  A    between atoms: C3_3  and  C4_4 
REMARK    4  A    between atoms: C4_4  and  C5_5 
ROOT
HETATM    1  C9  UNL     1      -3.852   6.673  14.257  1.00  0.00     0.018 C 
HETATM    2  C10 UNL     1      -3.784   5.120  14.434  1.00  0.00     0.010 C 
HETATM    3  C11 UNL     1      -2.746   4.590  13.433  1.00  0.00     0.011 C 
HETATM    4  C12 UNL     1      -1.786   5.767  13.216  1.00  0.00    -0.032 C 
HETATM    5  C13 UNL     1      -0.916   5.883  14.518  1.00  0.00     0.016 C 
HETATM    6  C14 UNL     1      -2.823   6.926  13.114  1.00  0.00     0.002 C 
HETATM    7  C15 UNL     1      -2.084   8.263  13.062  1.00  0.00     0.006 C 
HETATM    8  C16 UNL     1      -1.154   8.309  11.840  1.00  0.00     0.006 C 
HETATM    9  C17 UNL     1      -0.162   7.119  11.741  1.00  0.00     0.003 C 
HETATM   10  C18 UNL     1       0.901   7.242  10.545  1.00  0.00    -0.035 C 
HETATM   11  C19 UNL     1       0.243   7.881   9.299  1.00  0.00     0.016 C 
HETATM   12  C20 UNL     1       2.012   8.211  11.062  1.00  0.00     0.017 C 
HETATM   13  C21 UNL     1       3.237   8.322  10.178  1.00  0.00     0.080 C 
HETATM   14  C22 UNL     1       3.841   6.957   9.960  1.00  0.00     0.135 C 
HETATM   15  O1  UNL     1       5.045   6.773  10.150  1.00  0.00    -0.297 OA
HETATM   16  C23 UNL     1       2.923   5.867   9.402  1.00  0.00     0.017 C 
HETATM   17  C24 UNL     1       3.662   4.508   9.469  1.00  0.00     0.023 C 
HETATM   18  C25 UNL     1       2.726   6.151   7.894  1.00  0.00     0.023 C 
HETATM   19  C26 UNL     1       1.544   5.834  10.185  1.00  0.00     0.009 C 
HETATM   20  C27 UNL     1       1.585   4.975  11.468  1.00  0.00     0.007 C 
HETATM   21  C28 UNL     1       0.191   4.600  11.988  1.00  0.00     0.011 C 
HETATM   22  C29 UNL     1      -0.880   5.725  11.894  1.00  0.00    -0.032 C 
HETATM   23  C30 UNL     1      -1.754   5.425  10.641  1.00  0.00     0.016 C 
ENDROOT
BRANCH   1  24
HETATM   24  C2  UNL     1      -5.264   7.252  14.067  1.00  0.00    -0.084 C 
HETATM   25  C1  UNL     1      -5.589   8.540  14.298  1.00  0.00     0.014 C 
BRANCH  24  26
HETATM   26  C3  UNL     1      -6.361   6.346  13.532  1.00  0.00     0.037 C 
BRANCH  26  27
HETATM   27  C4  UNL     1      -7.142   5.643  14.647  1.00  0.00     0.031 C 
BRANCH  27  28
HETATM   28  C5  UNL     1      -7.796   6.636  15.572  1.00  0.00    -0.024 C 
HETATM   29  C6  UNL     1      -9.006   7.215  15.443  1.00  0.00    -0.091 C 
HETATM   30  C7  UNL     1      -9.950   6.999  14.292  1.00  0.00     0.042 C 
HETATM   31  C8  UNL     1      -9.510   8.177  16.485  1.00  0.00     0.042 C 
ENDBRANCH  27  28
ENDBRANCH  26  27
ENDBRANCH  24  26
ENDBRANCH   1  24
TORSDOF 4
ENDMDL
MODEL 6
REMARK minimizedAffinity -6.52255058
REMARK CNNscore 0.413065881
REMARK CNNaffinity 6.14780951
REMARK  4 active torsions:
REMARK  status: ('A' for Active; 'I' for Inactive)
REMARK    1  A    between atoms: C2_2  and  C3_3 
REMARK    2  A    between atoms: C2_2  and  C9_9 
REMARK    3  A    between atoms: C3_3  and  C4_4 
REMARK    4  A    between atoms: C4_4  and  C5_5 
ROOT
HETATM    1  C9  UNL     1       0.715   8.734  12.815  1.00  0.00     0.018 C 
HETATM    2  C10 UNL     1       0.227   9.414  14.137  1.00  0.00     0.010 C 
HETATM    3  C11 UNL     1       1.424   9.456  15.098  1.00  0.00     0.011 C 
HETATM    4  C12 UNL     1       2.654   9.472  14.180  1.00  0.00    -0.032 C 
HETATM    5  C13 UNL     1       2.725  10.908  13.550  1.00  0.00     0.016 C 
HETATM    6  C14 UNL     1       2.205   8.408  13.135  1.00  0.00     0.002 C 
HETATM    7  C15 UNL     1       3.218   8.364  11.992  1.00  0.00     0.006 C 
HETATM    8  C16 UNL     1       4.609   7.990  12.527  1.00  0.00     0.006 C 
HETATM    9  C17 UNL     1       5.115   8.890  13.686  1.00  0.00     0.003 C 
HETATM   10  C18 UNL     1       6.622   8.588  14.147  1.00  0.00    -0.035 C 
HETATM   11  C19 UNL     1       6.914   7.070  14.086  1.00  0.00     0.016 C 
HETATM   12  C20 UNL     1       7.537   9.305  13.103  1.00  0.00     0.017 C 
HETATM   13  C21 UNL     1       9.012   9.333  13.447  1.00  0.00     0.080 C 
HETATM   14  C22 UNL     1       9.215   9.974  14.798  1.00  0.00     0.135 C 
HETATM   15  O1  UNL     1      10.038  10.882  14.937  1.00  0.00    -0.297 OA
HETATM   16  C23 UNL     1       8.441   9.380  15.977  1.00  0.00     0.017 C 
HETATM   17  C24 UNL     1       8.609  10.310  17.204  1.00  0.00     0.023 C 
HETATM   18  C25 UNL     1       9.137   8.056  16.370  1.00  0.00     0.023 C 
HETATM   19  C26 UNL     1       6.916   9.162  15.600  1.00  0.00     0.009 C 
HETATM   20  C27 UNL     1       6.043  10.417  15.815  1.00  0.00     0.007 C 
HETATM   21  C28 UNL     1       4.541  10.107  15.859  1.00  0.00     0.011 C 
HETATM   22  C29 UNL     1       4.050   9.039  14.838  1.00  0.00    -0.032 C 
HETATM   23  C30 UNL     1       3.898   7.698  15.613  1.00  0.00     0.016 C 
ENDROOT
BRANCH   1  24
HETATM   24  C2  UNL     1      -0.161   7.574  12.310  1.00  0.00    -0.084 C 
HETATM   25  C1  UNL     1      -0.971   6.840  13.100  1.00  0.00     0.014 C 
BRANCH  24  26
HETATM   26  C3  UNL     1      -0.170   7.257  10.823  1.00  0.00     0.037 C 
BRANCH  26  27
HETATM   27  C4  UNL     1       0.835   6.164  10.446  1.00  0.00     0.031 C 
BRANCH  27  28
HETATM   28  C5  UNL     1       1.712   6.593   9.300  1.00  0.00    -0.024 C 
HETATM   29  C6  UNL     1       1.483   7.572   8.403  1.00  0.00    -0.091 C 
HETATM   30  C7  UNL     1       0.247   8.427   8.354  1.00  0.00     0.042 C 
HETATM   31  C8  UNL     1       2.490   7.878   7.328  1.00  0.00     0.042 C 
ENDBRANCH  27  28
ENDBRANCH  26  27
ENDBRANCH  24  26
ENDBRANCH   1  24
TORSDOF 4
ENDMDL
MODEL 7
REMARK minimizedAffinity -6.97393847
REMARK CNNscore 0.354486078
REMARK CNNaffinity 6.27722168
REMARK  4 active torsions:
REMARK  status: ('A' for Active; 'I' for Inactive)
REMARK    1  A    between atoms: C2_2  and  C3_3 
REMARK    2  A    between atoms: C2_2  and  C9_9 
REMARK    3  A    between atoms: C3_3  and  C4_4 
REMARK    4  A    between atoms: C4_4  and  C5_5 
ROOT
HETATM    1  C9  UNL     1       1.851   7.373  10.266  1.00  0.00     0.018 C 
HETATM    2  C10 UNL     1       2.705   7.586   8.973  1.00  0.00     0.010 C 
HETATM    3  C11 UNL     1       3.999   8.301   9.391  1.00  0.00     0.011 C 
HETATM    4  C12 UNL     1       4.208   7.889  10.855  1.00  0.00    -0.032 C 
HETATM    5  C13 UNL     1       4.684   6.393  10.837  1.00  0.00     0.016 C 
HETATM    6  C14 UNL     1       2.743   8.020  11.369  1.00  0.00     0.002 C 
HETATM    7  C15 UNL     1       2.660   7.489  12.799  1.00  0.00     0.006 C 
HETATM    8  C16 UNL     1       3.590   8.292  13.720  1.00  0.00     0.006 C 
HETATM    9  C17 UNL     1       5.064   8.367  13.238  1.00  0.00     0.003 C 
HETATM   10  C18 UNL     1       6.062   9.084  14.270  1.00  0.00    -0.035 C 
HETATM   11  C19 UNL     1       5.356  10.269  14.972  1.00  0.00     0.016 C 
HETATM   12  C20 UNL     1       6.400   8.008  15.351  1.00  0.00     0.017 C 
HETATM   13  C21 UNL     1       7.494   8.392  16.326  1.00  0.00     0.080 C 
HETATM   14  C22 UNL     1       8.754   8.745  15.575  1.00  0.00     0.135 C 
HETATM   15  O1  UNL     1       9.830   8.232  15.891  1.00  0.00    -0.297 OA
HETATM   16  C23 UNL     1       8.646   9.827  14.499  1.00  0.00     0.017 C 
HETATM   17  C24 UNL     1       9.974   9.875  13.704  1.00  0.00     0.023 C 
HETATM   18  C25 UNL     1       8.552  11.193  15.219  1.00  0.00     0.023 C 
HETATM   19  C26 UNL     1       7.398   9.565  13.556  1.00  0.00     0.009 C 
HETATM   20  C27 UNL     1       7.700   8.602  12.388  1.00  0.00     0.007 C 
HETATM   21  C28 UNL     1       6.658   8.672  11.264  1.00  0.00     0.011 C 
HETATM   22  C29 UNL     1       5.181   8.815  11.731  1.00  0.00    -0.032 C 
HETATM   23  C30 UNL     1       4.793  10.315  11.580  1.00  0.00     0.016 C 
ENDROOT
BRANCH   1  24
HETATM   24  C2  UNL     1       0.392   7.852  10.178  1.00  0.00    -0.084 C 
HETATM   25  C1  UNL     1      -0.107   8.570   9.151  1.00  0.00     0.014 C 
BRANCH  24  26
HETATM   26  C3  UNL     1      -0.577   7.453  11.279  1.00  0.00     0.037 C 
BRANCH  26  27
HETATM   27  C4  UNL     1      -0.888   8.607  12.239  1.00  0.00     0.031 C 
BRANCH  27  28
HETATM   28  C5  UNL     1      -2.373   8.801  12.404  1.00  0.00    -0.024 C 
HETATM   29  C6  UNL     1      -3.243   8.008  13.058  1.00  0.00    -0.091 C 
HETATM   30  C7  UNL     1      -2.891   6.715  13.740  1.00  0.00     0.042 C 
HETATM   31  C8  UNL     1      -4.701   8.374  13.139  1.00  0.00     0.042 C 
ENDBRANCH  27  28
ENDBRANCH  26  27
ENDBRANCH  24  26
ENDBRANCH   1  24
TORSDOF 4
ENDMDL
MODEL 8
REMARK minimizedAffinity -6.36206341
REMARK CNNscore 0.319737345
REMARK CNNaffinity 6.27951956
REMARK  4 active torsions:
REMARK  status: ('A' for Active; 'I' for Inactive)
REMARK    1  A    between atoms: C2_2  and  C3_3 
REMARK    2  A    between atoms: C2_2  and  C9_9 
REMARK    3  A    between atoms: C3_3  and  C4_4 
REMARK    4  A    between atoms: C4_4  and  C5_5 
ROOT
HETATM    1  C9  UNL     1      -3.121   8.197  15.180  1.00  0.00     0.018 C 
HETATM    2  C10 UNL     1      -1.707   7.653  15.570  1.00  0.00     0.010 C 
HETATM    3  C11 UNL     1      -0.923   8.821  16.189  1.00  0.00     0.011 C 
HETATM    4  C12 UNL     1      -2.003   9.742  16.771  1.00  0.00    -0.032 C 
HETATM    5  C13 UNL     1      -2.553   9.033  18.060  1.00  0.00     0.016 C 
HETATM    6  C14 UNL     1      -3.035   9.694  15.605  1.00  0.00     0.002 C 
HETATM    7  C15 UNL     1      -4.310  10.422  16.027  1.00  0.00     0.006 C 
HETATM    8  C16 UNL     1      -3.999  11.888  16.365  1.00  0.00     0.006 C 
HETATM    9  C17 UNL     1      -2.873  12.081  17.416  1.00  0.00     0.003 C 
HETATM   10  C18 UNL     1      -2.648  13.603  17.871  1.00  0.00    -0.035 C 
HETATM   11  C19 UNL     1      -2.837  14.561  16.672  1.00  0.00     0.016 C 
HETATM   12  C20 UNL     1      -3.767  13.903  18.919  1.00  0.00     0.017 C 
HETATM   13  C21 UNL     1      -3.634  15.224  19.648  1.00  0.00     0.080 C 
HETATM   14  C22 UNL     1      -2.291  15.304  20.331  1.00  0.00     0.135 C 
HETATM   15  O1  UNL     1      -2.217  15.614  21.522  1.00  0.00    -0.297 OA
HETATM   16  C23 UNL     1      -1.051  15.089  19.460  1.00  0.00     0.017 C 
HETATM   17  C24 UNL     1       0.192  14.984  20.379  1.00  0.00     0.023 C 
HETATM   18  C25 UNL     1      -0.837  16.377  18.630  1.00  0.00     0.023 C 
HETATM   19  C26 UNL     1      -1.220  13.809  18.539  1.00  0.00     0.009 C 
HETATM   20  C27 UNL     1      -0.812  12.492  19.235  1.00  0.00     0.007 C 
HETATM   21  C28 UNL     1      -0.575  11.339  18.251  1.00  0.00     0.011 C 
HETATM   22  C29 UNL     1      -1.575  11.260  17.062  1.00  0.00    -0.032 C 
HETATM   23  C30 UNL     1      -0.865  11.876  15.821  1.00  0.00     0.016 C 
ENDROOT
BRANCH   1  24
HETATM   24  C2  UNL     1      -3.563   7.904  13.736  1.00  0.00    -0.084 C 
HETATM   25  C1  UNL     1      -2.716   7.591  12.736  1.00  0.00     0.014 C 
BRANCH  24  26
HETATM   26  C3  UNL     1      -5.048   7.908  13.410  1.00  0.00     0.037 C 
BRANCH  26  27
HETATM   27  C4  UNL     1      -5.783   6.697  13.995  1.00  0.00     0.031 C 
BRANCH  27  28
HETATM   28  C5  UNL     1      -5.427   5.430  13.263  1.00  0.00    -0.024 C 
HETATM   29  C6  UNL     1      -6.238   4.403  12.943  1.00  0.00    -0.091 C 
HETATM   30  C7  UNL     1      -7.695   4.308  13.301  1.00  0.00     0.042 C 
HETATM   31  C8  UNL     1      -5.709   3.216  12.184  1.00  0.00     0.042 C 
ENDBRANCH  27  28
ENDBRANCH  26  27
ENDBRANCH  24  26
ENDBRANCH   1  24
TORSDOF 4
ENDMDL
MODEL 9
REMARK minimizedAffinity -9.13823223
REMARK CNNscore 0.30670023
REMARK CNNaffinity 6.60323763
REMARK  4 active torsions:
REMARK  status: ('A' for Active; 'I' for Inactive)
REMARK    1  A    between atoms: C2_2  and  C3_3 
REMARK    2  A    between atoms: C2_2  and  C9_9 
REMARK    3  A    between atoms: C3_3  and  C4_4 
REMARK    4  A    between atoms: C4_4  and  C5_5 
ROOT
HETATM    1  C9  UNL     1      -3.566   7.288  14.680  1.00  0.00     0.018 C 
HETATM    2  C10 UNL     1      -3.460   5.768  15.034  1.00  0.00     0.010 C 
HETATM    3  C11 UNL     1      -2.483   5.132  14.034  1.00  0.00     0.011 C 
HETATM    4  C12 UNL     1      -1.559   6.283  13.615  1.00  0.00    -0.032 C 
HETATM    5  C13 UNL     1      -0.606   6.561  14.831  1.00  0.00     0.016 C 
HETATM    6  C14 UNL     1      -2.620   7.412  13.447  1.00  0.00     0.002 C 
HETATM    7  C15 UNL     1      -1.909   8.739  13.187  1.00  0.00     0.006 C 
HETATM    8  C16 UNL     1      -1.063   8.648  11.907  1.00  0.00     0.006 C 
HETATM    9  C17 UNL     1      -0.060   7.463  11.883  1.00  0.00     0.003 C 
HETATM   10  C18 UNL     1       0.919   7.453  10.611  1.00  0.00    -0.035 C 
HETATM   11  C19 UNL     1       0.169   7.933   9.346  1.00  0.00     0.016 C 
HETATM   12  C20 UNL     1       2.045   8.487  10.933  1.00  0.00     0.017 C 
HETATM   13  C21 UNL     1       3.207   8.502   9.961  1.00  0.00     0.080 C 
HETATM   14  C22 UNL     1       3.818   7.126   9.865  1.00  0.00     0.135 C 
HETATM   15  O1  UNL     1       5.035   6.977   9.993  1.00  0.00    -0.297 OA
HETATM   16  C23 UNL     1       2.883   5.969   9.504  1.00  0.00     0.017 C 
HETATM   17  C24 UNL     1       3.648   4.635   9.681  1.00  0.00     0.023 C 
HETATM   18  C25 UNL     1       2.582   6.070   7.990  1.00  0.00     0.023 C 
HETATM   19  C26 UNL     1       1.560   6.017  10.378  1.00  0.00     0.009 C 
HETATM   20  C27 UNL     1       1.701   5.318  11.747  1.00  0.00     0.007 C 
HETATM   21  C28 UNL     1       0.351   4.995  12.401  1.00  0.00     0.011 C 
HETATM   22  C29 UNL     1      -0.743   6.091  12.248  1.00  0.00    -0.032 C 
HETATM   23  C30 UNL     1      -1.693   5.636  11.102  1.00  0.00     0.016 C 
ENDROOT
BRANCH   1  24
HETATM   24  C2  UNL     1      -4.997   7.828  14.519  1.00  0.00    -0.084 C 
HETATM   25  C1  UNL     1      -5.523   8.812  15.276  1.00  0.00     0.014 C 
BRANCH  24  26
HETATM   26  C3  UNL     1      -5.869   7.271  13.405  1.00  0.00     0.037 C 
BRANCH  26  27
HETATM   27  C4  UNL     1      -6.529   5.941  13.781  1.00  0.00     0.031 C 
BRANCH  27  28
HETATM   28  C5  UNL     1      -6.003   4.807  12.941  1.00  0.00    -0.024 C 
HETATM   29  C6  UNL     1      -6.642   3.677  12.581  1.00  0.00    -0.091 C 
HETATM   30  C7  UNL     1      -8.039   3.305  12.993  1.00  0.00     0.042 C 
HETATM   31  C8  UNL     1      -5.960   2.654  11.712  1.00  0.00     0.042 C 
ENDBRANCH  27  28
ENDBRANCH  26  27
ENDBRANCH  24  26
ENDBRANCH   1  24
TORSDOF 4
ENDMDL
