MODEL 1
REMARK minimizedAffinity -8.78078079
REMARK CNNscore 0.416966259
REMARK CNNaffinity 6.90313387
REMARK  10 active torsions:
REMARK  status: ('A' for Active; 'I' for Inactive)
REMARK    1  A    between atoms: C14_14  and  C15_15 
REMARK    2  A    between atoms: C15_15  and  C17_17 
REMARK    3  A    between atoms: C17_17  and  C18_18 
REMARK    4  A    between atoms: C18_18  and  C19_19 
REMARK    5  A    between atoms: C20_20  and  C22_22 
REMARK    6  A    between atoms: C22_22  and  O2_24 
REMARK    7  A    between atoms: C27_29  and  C28_30 
REMARK    8  A    between atoms: C28_30  and  C29_31 
REMARK    9  A    between atoms: C29_31  and  C30_32 
REMARK   10  A    between atoms: C30_32  and  O4_34 
ROOT
HETATM    1  C1  UNL     1      -7.434  47.200 -22.574  1.00  0.00     0.043 C 
HETATM    2  C2  UNL     1      -6.404  48.176 -23.111  1.00  0.00    -0.085 C 
HETATM    3  C3  UNL     1      -7.056  49.205 -23.999  1.00  0.00     0.043 C 
HETATM    4  C4  UNL     1      -5.088  48.116 -22.762  1.00  0.00    -0.073 C 
HETATM    5  C5  UNL     1      -4.679  47.217 -21.602  1.00  0.00     0.035 C 
HETATM    6  C6  UNL     1      -3.348  47.602 -20.956  1.00  0.00     0.010 C 
HETATM    7  C7  UNL     1      -3.134  49.134 -20.813  1.00  0.00     0.003 C 
HETATM    8  C8  UNL     1      -3.442  49.956 -22.164  1.00  0.00    -0.032 C 
HETATM    9  C9  UNL     1      -4.611  50.957 -21.953  1.00  0.00     0.016 C 
HETATM   10  C10 UNL     1      -2.222  50.818 -22.615  1.00  0.00     0.011 C 
HETATM   11  C11 UNL     1      -1.433  51.581 -21.529  1.00  0.00     0.011 C 
HETATM   12  C12 UNL     1      -1.495  50.992 -20.108  1.00  0.00    -0.032 C 
HETATM   13  C13 UNL     1      -2.601  51.727 -19.281  1.00  0.00     0.016 C 
HETATM   14  C14 UNL     1      -0.170  51.073 -19.270  1.00  0.00    -0.002 C 
HETATM   15  C23 UNL     1      -0.362  49.917 -18.238  1.00  0.00     0.006 C 
HETATM   16  C24 UNL     1      -1.525  49.036 -18.736  1.00  0.00     0.011 C 
HETATM   17  C25 UNL     1      -1.718  49.444 -20.210  1.00  0.00    -0.032 C 
HETATM   18  C26 UNL     1      -0.608  48.674 -21.007  1.00  0.00     0.016 C 
HETATM   19  C27 UNL     1      -3.881  48.924 -23.291  1.00  0.00     0.024 C 
ENDROOT
BRANCH  14  20
HETATM   20  C15 UNL     1       0.238  52.422 -18.599  1.00  0.00    -0.014 C 
HETATM   21  C16 UNL     1       0.518  53.501 -19.653  1.00  0.00     0.010 C 
BRANCH  20  22
HETATM   22  C17 UNL     1       1.492  52.238 -17.697  1.00  0.00     0.008 C 
BRANCH  22  23
HETATM   23  C18 UNL     1       1.256  52.572 -16.214  1.00  0.00     0.028 C 
BRANCH  23  24
HETATM   24  C19 UNL     1       1.990  51.682 -15.253  1.00  0.00    -0.013 C 
HETATM   25  C20 UNL     1       3.323  51.562 -15.088  1.00  0.00     0.008 C 
HETATM   26  C21 UNL     1       4.377  52.273 -15.880  1.00  0.00     0.055 C 
BRANCH  25  27
HETATM   27  C22 UNL     1       3.775  50.613 -14.037  1.00  0.00     0.171 C 
HETATM   28  O1  UNL     1       4.804  49.960 -14.036  1.00  0.00    -0.646 OA
BRANCH  27  29
HETATM   29  O2  UNL     1       2.900  50.520 -13.022  1.00  0.00    -0.773 OA
HETATM   30  H35 UNL     1       3.317  49.866 -12.423  1.00  0.00     0.167 HD
ENDBRANCH  27  29
ENDBRANCH  25  27
ENDBRANCH  23  24
ENDBRANCH  22  23
ENDBRANCH  20  22
ENDBRANCH  14  20
BRANCH  19  31
HETATM   31  C28 UNL     1      -3.938  49.454 -24.752  1.00  0.00     0.020 C 
BRANCH  31  32
HETATM   32  C29 UNL     1      -3.783  48.348 -25.804  1.00  0.00     0.110 C 
BRANCH  32  33
HETATM   33  C30 UNL     1      -3.528  48.834 -27.200  1.00  0.00     0.139 C 
HETATM   34  O3  UNL     1      -3.760  48.223 -28.230  1.00  0.00    -0.650 OA
BRANCH  33  35
HETATM   35  O4  UNL     1      -2.964  50.055 -27.235  1.00  0.00    -0.776 OA
HETATM   36  H48 UNL     1      -2.886  50.242 -28.194  1.00  0.00     0.167 HD
ENDBRANCH  33  35
ENDBRANCH  32  33
ENDBRANCH  31  32
ENDBRANCH  19  31
TORSDOF 10
ENDMDL
MODEL 2
REMARK minimizedAffinity -8.58270741
REMARK CNNscore 0.19897227
REMARK CNNaffinity 6.70064974
REMARK  10 active torsions:
REMARK  status: ('A' for Active; 'I' for Inactive)
REMARK    1  A    between atoms: C14_14  and  C15_15 
REMARK    2  A    between atoms: C15_15  and  C17_17 
REMARK    3  A    between atoms: C17_17  and  C18_18 
REMARK    4  A    between atoms: C18_18  and  C19_19 
REMARK    5  A    between atoms: C20_20  and  C22_22 
REMARK    6  A    between atoms: C22_22  and  O2_24 
REMARK    7  A    between atoms: C27_29  and  C28_30 
REMARK    8  A    between atoms: C28_30  and  C29_31 
REMARK    9  A    between atoms: C29_31  and  C30_32 
REMARK   10  A    between atoms: C30_32  and  O4_34 
ROOT
HETATM    1  C1  UNL     1       0.806  51.257 -26.197  1.00  0.00     0.043 C 
HETATM    2  C2  UNL     1      -0.435  51.285 -25.325  1.00  0.00    -0.085 C 
HETATM    3  C3  UNL     1      -1.520  50.419 -25.913  1.00  0.00     0.043 C 
HETATM    4  C4  UNL     1      -0.489  51.975 -24.151  1.00  0.00    -0.073 C 
HETATM    5  C5  UNL     1       0.807  52.516 -23.560  1.00  0.00     0.035 C 
HETATM    6  C6  UNL     1       0.740  52.783 -22.057  1.00  0.00     0.010 C 
HETATM    7  C7  UNL     1      -0.042  51.707 -21.256  1.00  0.00     0.003 C 
HETATM    8  C8  UNL     1      -1.474  51.343 -21.897  1.00  0.00    -0.032 C 
HETATM    9  C9  UNL     1      -1.531  49.849 -22.321  1.00  0.00     0.016 C 
HETATM   10  C10 UNL     1      -2.638  51.539 -20.875  1.00  0.00     0.011 C 
HETATM   11  C11 UNL     1      -2.413  51.069 -19.421  1.00  0.00     0.011 C 
HETATM   12  C12 UNL     1      -0.950  51.023 -18.945  1.00  0.00    -0.032 C 
HETATM   13  C13 UNL     1      -0.393  49.569 -19.097  1.00  0.00     0.016 C 
HETATM   14  C14 UNL     1      -0.697  51.455 -17.457  1.00  0.00    -0.002 C 
HETATM   15  C23 UNL     1       0.804  51.885 -17.490  1.00  0.00     0.006 C 
HETATM   16  C24 UNL     1       1.211  52.040 -18.969  1.00  0.00     0.011 C 
HETATM   17  C25 UNL     1      -0.124  52.094 -19.737  1.00  0.00    -0.032 C 
HETATM   18  C26 UNL     1      -0.640  53.566 -19.579  1.00  0.00     0.016 C 
HETATM   19  C27 UNL     1      -1.681  52.228 -23.201  1.00  0.00     0.024 C 
ENDROOT
BRANCH  14  20
HETATM   20  C15 UNL     1      -1.014  50.457 -16.298  1.00  0.00    -0.014 C 
HETATM   21  C16 UNL     1      -2.503  50.083 -16.285  1.00  0.00     0.010 C 
BRANCH  20  22
HETATM   22  C17 UNL     1      -0.618  51.061 -14.921  1.00  0.00     0.008 C 
BRANCH  22  23
HETATM   23  C18 UNL     1       0.753  51.760 -14.910  1.00  0.00     0.028 C 
BRANCH  23  24
HETATM   24  C19 UNL     1       1.830  51.004 -14.188  1.00  0.00    -0.013 C 
HETATM   25  C20 UNL     1       3.165  51.116 -14.343  1.00  0.00     0.008 C 
HETATM   26  C21 UNL     1       3.869  52.004 -15.323  1.00  0.00     0.055 C 
BRANCH  25  27
HETATM   27  C22 UNL     1       4.005  50.253 -13.471  1.00  0.00     0.171 C 
HETATM   28  O1  UNL     1       4.892  49.498 -13.828  1.00  0.00    -0.646 OA
BRANCH  27  29
HETATM   29  O2  UNL     1       3.684  50.372 -12.172  1.00  0.00    -0.773 OA
HETATM   30  H35 UNL     1       4.299  49.752 -11.729  1.00  0.00     0.167 HD
ENDBRANCH  27  29
ENDBRANCH  25  27
ENDBRANCH  23  24
ENDBRANCH  22  23
ENDBRANCH  20  22
ENDBRANCH  14  20
BRANCH  19  31
HETATM   31  C28 UNL     1      -3.111  52.264 -23.812  1.00  0.00     0.020 C 
BRANCH  31  32
HETATM   32  C29 UNL     1      -4.219  52.044 -22.774  1.00  0.00     0.110 C 
BRANCH  32  33
HETATM   33  C30 UNL     1      -5.180  50.938 -23.098  1.00  0.00     0.139 C 
HETATM   34  O3  UNL     1      -5.224  49.841 -22.566  1.00  0.00    -0.650 OA
BRANCH  33  35
HETATM   35  O4  UNL     1      -6.021  51.252 -24.100  1.00  0.00    -0.776 OA
HETATM   36  H48 UNL     1      -6.591  50.458 -24.176  1.00  0.00     0.167 HD
ENDBRANCH  33  35
ENDBRANCH  32  33
ENDBRANCH  31  32
ENDBRANCH  19  31
TORSDOF 10
ENDMDL
MODEL 3
REMARK minimizedAffinity -7.98677492
REMARK CNNscore 0.170326293
REMARK CNNaffinity 5.60456324
REMARK  10 active torsions:
REMARK  status: ('A' for Active; 'I' for Inactive)
REMARK    1  A    between atoms: C14_14  and  C15_15 
REMARK    2  A    between atoms: C15_15  and  C17_17 
REMARK    3  A    between atoms: C17_17  and  C18_18 
REMARK    4  A    between atoms: C18_18  and  C19_19 
REMARK    5  A    between atoms: C20_20  and  C22_22 
REMARK    6  A    between atoms: C22_22  and  O2_24 
REMARK    7  A    between atoms: C27_29  and  C28_30 
REMARK    8  A    between atoms: C28_30  and  C29_31 
REMARK    9  A    between atoms: C29_31  and  C30_32 
REMARK   10  A    between atoms: C30_32  and  O4_34 
ROOT
HETATM    1  C1  UNL     1       0.121  52.107 -21.347  1.00  0.00     0.043 C 
HETATM    2  C2  UNL     1      -1.007  51.787 -22.310  1.00  0.00    -0.085 C 
HETATM    3  C3  UNL     1      -0.482  51.645 -23.716  1.00  0.00     0.043 C 
HETATM    4  C4  UNL     1      -2.293  51.610 -21.898  1.00  0.00    -0.073 C 
HETATM    5  C5  UNL     1      -2.571  51.467 -20.407  1.00  0.00     0.035 C 
HETATM    6  C6  UNL     1      -3.888  50.763 -20.085  1.00  0.00     0.010 C 
HETATM    7  C7  UNL     1      -4.207  49.558 -21.013  1.00  0.00     0.003 C 
HETATM    8  C8  UNL     1      -4.035  49.891 -22.580  1.00  0.00    -0.032 C 
HETATM    9  C9  UNL     1      -2.933  49.003 -23.220  1.00  0.00     0.016 C 
HETATM   10  C10 UNL     1      -5.338  49.597 -23.386  1.00  0.00     0.011 C 
HETATM   11  C11 UNL     1      -6.120  48.306 -23.054  1.00  0.00     0.011 C 
HETATM   12  C12 UNL     1      -5.936  47.753 -21.630  1.00  0.00    -0.032 C 
HETATM   13  C13 UNL     1      -4.843  46.633 -21.638  1.00  0.00     0.016 C 
HETATM   14  C14 UNL     1      -7.216  47.136 -20.960  1.00  0.00    -0.002 C 
HETATM   15  C23 UNL     1      -6.882  47.257 -19.440  1.00  0.00     0.006 C 
HETATM   16  C24 UNL     1      -5.687  48.221 -19.301  1.00  0.00     0.011 C 
HETATM   17  C25 UNL     1      -5.606  48.940 -20.661  1.00  0.00    -0.032 C 
HETATM   18  C26 UNL     1      -6.698  50.064 -20.608  1.00  0.00     0.016 C 
HETATM   19  C27 UNL     1      -3.584  51.408 -22.725  1.00  0.00     0.024 C 
ENDROOT
BRANCH  14  20
HETATM   20  C15 UNL     1      -7.683  45.702 -21.364  1.00  0.00    -0.014 C 
HETATM   21  C16 UNL     1      -6.551  44.924 -22.047  1.00  0.00     0.010 C 
BRANCH  20  22
HETATM   22  C17 UNL     1      -8.916  45.766 -22.312  1.00  0.00     0.008 C 
BRANCH  22  23
HETATM   23  C18 UNL     1      -8.563  46.022 -23.787  1.00  0.00     0.028 C 
BRANCH  23  24
HETATM   24  C19 UNL     1      -9.365  47.112 -24.437  1.00  0.00    -0.013 C 
HETATM   25  C20 UNL     1      -9.069  47.802 -25.557  1.00  0.00     0.008 C 
HETATM   26  C21 UNL     1      -7.826  47.655 -26.382  1.00  0.00     0.055 C 
BRANCH  25  27
HETATM   27  C22 UNL     1     -10.065  48.818 -25.990  1.00  0.00     0.171 C 
HETATM   28  O1  UNL     1     -11.238  48.624 -26.254  1.00  0.00    -0.646 OA
BRANCH  27  29
HETATM   29  O2  UNL     1      -9.533  50.048 -26.079  1.00  0.00    -0.773 OA
HETATM   30  H35 UNL     1     -10.287  50.599 -26.377  1.00  0.00     0.167 HD
ENDBRANCH  27  29
ENDBRANCH  25  27
ENDBRANCH  23  24
ENDBRANCH  22  23
ENDBRANCH  20  22
ENDBRANCH  14  20
BRANCH  19  31
HETATM   31  C28 UNL     1      -3.647  52.031 -24.148  1.00  0.00     0.020 C 
BRANCH  31  32
HETATM   32  C29 UNL     1      -3.212  51.061 -25.254  1.00  0.00     0.110 C 
BRANCH  32  33
HETATM   33  C30 UNL     1      -3.046  51.681 -26.611  1.00  0.00     0.139 C 
HETATM   34  O3  UNL     1      -3.165  51.111 -27.683  1.00  0.00    -0.650 OA
BRANCH  33  35
HETATM   35  O4  UNL     1      -2.709  52.982 -26.555  1.00  0.00    -0.776 OA
HETATM   36  H48 UNL     1      -2.665  53.246 -27.497  1.00  0.00     0.167 HD
ENDBRANCH  33  35
ENDBRANCH  32  33
ENDBRANCH  31  32
ENDBRANCH  19  31
TORSDOF 10
ENDMDL
MODEL 4
REMARK minimizedAffinity -9.25260258
REMARK CNNscore 0.166991502
REMARK CNNaffinity 6.28859949
REMARK  10 active torsions:
REMARK  status: ('A' for Active; 'I' for Inactive)
REMARK    1  A    between atoms: C14_14  and  C15_15 
REMARK    2  A    between atoms: C15_15  and  C17_17 
REMARK    3  A    between atoms: C17_17  and  C18_18 
REMARK    4  A    between atoms: C18_18  and  C19_19 
REMARK    5  A    between atoms: C20_20  and  C22_22 
REMARK    6  A    between atoms: C22_22  and  O2_24 
REMARK    7  A    between atoms: C27_29  and  C28_30 
REMARK    8  A    between atoms: C28_30  and  C29_31 
REMARK    9  A    between atoms: C29_31  and  C30_32 
REMARK   10  A    between atoms: C30_32  and  O4_34 
ROOT
HETATM    1  C1  UNL     1      -8.858  47.231 -22.299  1.00  0.00     0.043 C 
HETATM    2  C2  UNL     1      -7.764  47.875 -23.129  1.00  0.00    -0.085 C 
HETATM    3  C3  UNL     1      -8.349  48.847 -24.121  1.00  0.00     0.043 C 
HETATM    4  C4  UNL     1      -6.442  47.613 -22.926  1.00  0.00    -0.073 C 
HETATM    5  C5  UNL     1      -6.030  46.862 -21.667  1.00  0.00     0.035 C 
HETATM    6  C6  UNL     1      -4.571  47.078 -21.263  1.00  0.00     0.010 C 
HETATM    7  C7  UNL     1      -4.073  48.538 -21.448  1.00  0.00     0.003 C 
HETATM    8  C8  UNL     1      -4.429  49.162 -22.890  1.00  0.00    -0.032 C 
HETATM    9  C9  UNL     1      -5.360  50.397 -22.747  1.00  0.00     0.016 C 
HETATM   10  C10 UNL     1      -3.157  49.673 -23.635  1.00  0.00     0.011 C 
HETATM   11  C11 UNL     1      -2.094  50.438 -22.815  1.00  0.00     0.011 C 
HETATM   12  C12 UNL     1      -2.048  50.123 -21.309  1.00  0.00    -0.032 C 
HETATM   13  C13 UNL     1      -2.873  51.195 -20.523  1.00  0.00     0.016 C 
HETATM   14  C14 UNL     1      -0.619  50.080 -20.659  1.00  0.00    -0.002 C 
HETATM   15  C23 UNL     1      -0.856  49.179 -19.405  1.00  0.00     0.006 C 
HETATM   16  C24 UNL     1      -2.216  48.476 -19.588  1.00  0.00     0.011 C 
HETATM   17  C25 UNL     1      -2.551  48.656 -21.081  1.00  0.00    -0.032 C 
HETATM   18  C26 UNL     1      -1.724  47.556 -21.833  1.00  0.00     0.016 C 
HETATM   19  C27 UNL     1      -5.204  48.062 -23.736  1.00  0.00     0.024 C 
ENDROOT
BRANCH  14  20
HETATM   20  C15 UNL     1       0.113  51.415 -20.314  1.00  0.00    -0.014 C 
HETATM   21  C16 UNL     1      -0.363  51.974 -18.967  1.00  0.00     0.010 C 
BRANCH  20  22
HETATM   22  C17 UNL     1      -0.115  52.477 -21.428  1.00  0.00     0.008 C 
BRANCH  22  23
HETATM   23  C18 UNL     1       0.854  52.362 -22.617  1.00  0.00     0.028 C 
BRANCH  23  24
HETATM   24  C19 UNL     1       0.528  53.262 -23.774  1.00  0.00    -0.013 C 
HETATM   25  C20 UNL     1       0.278  52.909 -25.051  1.00  0.00     0.008 C 
HETATM   26  C21 UNL     1       0.320  51.519 -25.608  1.00  0.00     0.055 C 
BRANCH  25  27
HETATM   27  C22 UNL     1      -0.042  54.017 -25.990  1.00  0.00     0.171 C 
HETATM   28  O1  UNL     1      -0.488  53.911 -27.119  1.00  0.00    -0.646 OA
BRANCH  27  29
HETATM   29  O2  UNL     1       0.222  55.225 -25.465  1.00  0.00    -0.773 OA
HETATM   30  H35 UNL     1      -0.024  55.843 -26.184  1.00  0.00     0.167 HD
ENDBRANCH  27  29
ENDBRANCH  25  27
ENDBRANCH  23  24
ENDBRANCH  22  23
ENDBRANCH  20  22
ENDBRANCH  14  20
BRANCH  19  31
HETATM   31  C28 UNL     1      -5.383  48.336 -25.256  1.00  0.00     0.020 C 
BRANCH  31  32
HETATM   32  C29 UNL     1      -4.055  48.385 -26.023  1.00  0.00     0.110 C 
BRANCH  32  33
HETATM   33  C30 UNL     1      -4.171  48.793 -27.462  1.00  0.00     0.139 C 
HETATM   34  O3  UNL     1      -3.273  49.231 -28.162  1.00  0.00    -0.650 OA
BRANCH  33  35
HETATM   35  O4  UNL     1      -5.419  48.660 -27.946  1.00  0.00    -0.776 OA
HETATM   36  H48 UNL     1      -5.331  48.934 -28.882  1.00  0.00     0.167 HD
ENDBRANCH  33  35
ENDBRANCH  32  33
ENDBRANCH  31  32
ENDBRANCH  19  31
TORSDOF 10
ENDMDL
MODEL 5
REMARK minimizedAffinity -6.99367905
REMARK CNNscore 0.166912079
REMARK CNNaffinity 6.10529327
REMARK  10 active torsions:
REMARK  status: ('A' for Active; 'I' for Inactive)
REMARK    1  A    between atoms: C14_14  and  C15_15 
REMARK    2  A    between atoms: C15_15  and  C17_17 
REMARK    3  A    between atoms: C17_17  and  C18_18 
REMARK    4  A    between atoms: C18_18  and  C19_19 
REMARK    5  A    between atoms: C20_20  and  C22_22 
REMARK    6  A    between atoms: C22_22  and  O2_24 
REMARK    7  A    between atoms: C27_29  and  C28_30 
REMARK    8  A    between atoms: C28_30  and  C29_31 
REMARK    9  A    between atoms: C29_31  and  C30_32 
REMARK   10  A    between atoms: C30_32  and  O4_34 
ROOT
HETATM    1  C1  UNL     1       0.359  52.799 -25.452  1.00  0.00     0.043 C 
HETATM    2  C2  UNL     1      -0.694  51.798 -25.889  1.00  0.00    -0.085 C 
HETATM    3  C3  UNL     1      -0.119  50.819 -26.880  1.00  0.00     0.043 C 
HETATM    4  C4  UNL     1      -1.958  51.797 -25.382  1.00  0.00    -0.073 C 
HETATM    5  C5  UNL     1      -2.255  52.649 -24.154  1.00  0.00     0.035 C 
HETATM    6  C6  UNL     1      -3.482  52.195 -23.364  1.00  0.00     0.010 C 
HETATM    7  C7  UNL     1      -3.622  50.653 -23.242  1.00  0.00     0.003 C 
HETATM    8  C8  UNL     1      -3.452  49.879 -24.645  1.00  0.00    -0.032 C 
HETATM    9  C9  UNL     1      -2.230  48.920 -24.607  1.00  0.00     0.016 C 
HETATM   10  C10 UNL     1      -4.686  48.981 -24.971  1.00  0.00     0.011 C 
HETATM   11  C11 UNL     1      -5.308  48.159 -23.821  1.00  0.00     0.011 C 
HETATM   12  C12 UNL     1      -5.094  48.714 -22.401  1.00  0.00    -0.032 C 
HETATM   13  C13 UNL     1      -3.870  48.002 -21.737  1.00  0.00     0.016 C 
HETATM   14  C14 UNL     1      -6.303  48.559 -21.411  1.00  0.00    -0.002 C 
HETATM   15  C23 UNL     1      -6.028  49.695 -20.375  1.00  0.00     0.006 C 
HETATM   16  C24 UNL     1      -4.967  50.633 -20.984  1.00  0.00     0.011 C 
HETATM   17  C25 UNL     1      -4.942  50.272 -22.482  1.00  0.00    -0.032 C 
HETATM   18  C26 UNL     1      -6.167  51.018 -23.115  1.00  0.00     0.016 C 
HETATM   19  C27 UNL     1      -3.191  50.956 -25.785  1.00  0.00     0.024 C 
ENDROOT
BRANCH  14  20
HETATM   20  C15 UNL     1      -6.576  47.178 -20.737  1.00  0.00    -0.014 C 
HETATM   21  C16 UNL     1      -7.217  47.356 -19.354  1.00  0.00     0.010 C 
BRANCH  20  22
HETATM   22  C17 UNL     1      -5.262  46.357 -20.599  1.00  0.00     0.008 C 
BRANCH  22  23
HETATM   23  C18 UNL     1      -5.449  44.838 -20.756  1.00  0.00     0.028 C 
BRANCH  23  24
HETATM   24  C19 UNL     1      -4.985  44.030 -19.578  1.00  0.00    -0.013 C 
HETATM   25  C20 UNL     1      -4.122  44.400 -18.610  1.00  0.00     0.008 C 
HETATM   26  C21 UNL     1      -3.393  45.707 -18.528  1.00  0.00     0.055 C 
BRANCH  25  27
HETATM   27  C22 UNL     1      -3.860  43.398 -17.543  1.00  0.00     0.171 C 
HETATM   28  O1  UNL     1      -4.551  43.176 -16.564  1.00  0.00    -0.646 OA
BRANCH  27  29
HETATM   29  O2  UNL     1      -2.722  42.716 -17.751  1.00  0.00    -0.773 OA
HETATM   30  H35 UNL     1      -2.676  42.112 -16.981  1.00  0.00     0.167 HD
ENDBRANCH  27  29
ENDBRANCH  25  27
ENDBRANCH  23  24
ENDBRANCH  22  23
ENDBRANCH  20  22
ENDBRANCH  14  20
BRANCH  19  31
HETATM   31  C28 UNL     1      -3.294  50.467 -27.257  1.00  0.00     0.020 C 
BRANCH  31  32
HETATM   32  C29 UNL     1      -3.548  48.958 -27.378  1.00  0.00     0.110 C 
BRANCH  32  33
HETATM   33  C30 UNL     1      -4.562  48.568 -28.413  1.00  0.00     0.139 C 
HETATM   34  O3  UNL     1      -5.380  47.668 -28.319  1.00  0.00    -0.650 OA
BRANCH  33  35
HETATM   35  O4  UNL     1      -4.480  49.311 -29.532  1.00  0.00    -0.776 OA
HETATM   36  H48 UNL     1      -5.207  48.962 -30.090  1.00  0.00     0.167 HD
ENDBRANCH  33  35
ENDBRANCH  32  33
ENDBRANCH  31  32
ENDBRANCH  19  31
TORSDOF 10
ENDMDL
MODEL 6
REMARK minimizedAffinity -7.07845736
REMARK CNNscore 0.166825786
REMARK CNNaffinity 6.20118904
REMARK  10 active torsions:
REMARK  status: ('A' for Active; 'I' for Inactive)
REMARK    1  A    between atoms: C14_14  and  C15_15 
REMARK    2  A    between atoms: C15_15  and  C17_17 
REMARK    3  A    between atoms: C17_17  and  C18_18 
REMARK    4  A    between atoms: C18_18  and  C19_19 
REMARK    5  A    between atoms: C20_20  and  C22_22 
REMARK    6  A    between atoms: C22_22  and  O2_24 
REMARK    7  A    between atoms: C27_29  and  C28_30 
REMARK    8  A    between atoms: C28_30  and  C29_31 
REMARK    9  A    between atoms: C29_31  and  C30_32 
REMARK   10  A    between atoms: C30_32  and  O4_34 
ROOT
HETATM    1  C1  UNL     1      -6.156  43.621 -16.764  1.00  0.00     0.043 C 
HETATM    2  C2  UNL     1      -6.891  44.828 -17.315  1.00  0.00    -0.085 C 
HETATM    3  C3  UNL     1      -7.718  45.485 -16.239  1.00  0.00     0.043 C 
HETATM    4  C4  UNL     1      -6.746  45.249 -18.602  1.00  0.00    -0.073 C 
HETATM    5  C5  UNL     1      -5.620  44.659 -19.442  1.00  0.00     0.035 C 
HETATM    6  C6  UNL     1      -5.205  45.532 -20.626  1.00  0.00     0.010 C 
HETATM    7  C7  UNL     1      -5.172  47.052 -20.312  1.00  0.00     0.003 C 
HETATM    8  C8  UNL     1      -6.498  47.585 -19.569  1.00  0.00    -0.032 C 
HETATM    9  C9  UNL     1      -6.159  48.150 -18.162  1.00  0.00     0.016 C 
HETATM   10  C10 UNL     1      -7.172  48.758 -20.346  1.00  0.00     0.011 C 
HETATM   11  C11 UNL     1      -6.258  49.846 -20.952  1.00  0.00     0.011 C 
HETATM   12  C12 UNL     1      -4.818  49.413 -21.279  1.00  0.00    -0.032 C 
HETATM   13  C13 UNL     1      -3.868  49.811 -20.102  1.00  0.00     0.016 C 
HETATM   14  C14 UNL     1      -4.198  50.018 -22.589  1.00  0.00    -0.002 C 
HETATM   15  C23 UNL     1      -3.093  48.972 -22.943  1.00  0.00     0.006 C 
HETATM   16  C24 UNL     1      -3.364  47.707 -22.105  1.00  0.00     0.011 C 
HETATM   17  C25 UNL     1      -4.809  47.878 -21.597  1.00  0.00    -0.032 C 
HETATM   18  C26 UNL     1      -5.728  47.452 -22.794  1.00  0.00     0.016 C 
HETATM   19  C27 UNL     1      -7.492  46.360 -19.376  1.00  0.00     0.024 C 
ENDROOT
BRANCH  14  20
HETATM   20  C15 UNL     1      -3.663  51.484 -22.585  1.00  0.00    -0.014 C 
HETATM   21  C16 UNL     1      -4.663  52.438 -23.252  1.00  0.00     0.010 C 
BRANCH  20  22
HETATM   22  C17 UNL     1      -2.291  51.578 -23.311  1.00  0.00     0.008 C 
BRANCH  22  23
HETATM   23  C18 UNL     1      -1.085  51.216 -22.428  1.00  0.00     0.028 C 
BRANCH  23  24
HETATM   24  C19 UNL     1      -0.196  52.376 -22.084  1.00  0.00    -0.013 C 
HETATM   25  C20 UNL     1       0.342  52.678 -20.885  1.00  0.00     0.008 C 
HETATM   26  C21 UNL     1       0.124  51.930 -19.605  1.00  0.00     0.055 C 
BRANCH  25  27
HETATM   27  C22 UNL     1       1.210  53.884 -20.837  1.00  0.00     0.171 C 
HETATM   28  O1  UNL     1       1.565  54.567 -21.782  1.00  0.00    -0.646 OA
BRANCH  27  29
HETATM   29  O2  UNL     1       1.607  54.179 -19.588  1.00  0.00    -0.773 OA
HETATM   30  H35 UNL     1       2.168  54.974 -19.710  1.00  0.00     0.167 HD
ENDBRANCH  27  29
ENDBRANCH  25  27
ENDBRANCH  23  24
ENDBRANCH  22  23
ENDBRANCH  20  22
ENDBRANCH  14  20
BRANCH  19  31
HETATM   31  C28 UNL     1      -8.951  46.693 -18.953  1.00  0.00     0.020 C 
BRANCH  31  32
HETATM   32  C29 UNL     1      -9.037  47.792 -17.887  1.00  0.00     0.110 C 
BRANCH  32  33
HETATM   33  C30 UNL     1     -10.292  47.780 -17.064  1.00  0.00     0.139 C 
HETATM   34  O3  UNL     1     -11.337  47.219 -17.351  1.00  0.00    -0.650 OA
BRANCH  33  35
HETATM   35  O4  UNL     1     -10.183  48.499 -15.933  1.00  0.00    -0.776 OA
HETATM   36  H48 UNL     1     -11.054  48.376 -15.500  1.00  0.00     0.167 HD
ENDBRANCH  33  35
ENDBRANCH  32  33
ENDBRANCH  31  32
ENDBRANCH  19  31
TORSDOF 10
ENDMDL
MODEL 7
REMARK minimizedAffinity -9.28135777
REMARK CNNscore 0.166303337
REMARK CNNaffinity 5.88563681
REMARK  10 active torsions:
REMARK  status: ('A' for Active; 'I' for Inactive)
REMARK    1  A    between atoms: C14_14  and  C15_15 
REMARK    2  A    between atoms: C15_15  and  C17_17 
REMARK    3  A    between atoms: C17_17  and  C18_18 
REMARK    4  A    between atoms: C18_18  and  C19_19 
REMARK    5  A    between atoms: C20_20  and  C22_22 
REMARK    6  A    between atoms: C22_22  and  O2_24 
REMARK    7  A    between atoms: C27_29  and  C28_30 
REMARK    8  A    between atoms: C28_30  and  C29_31 
REMARK    9  A    between atoms: C29_31  and  C30_32 
REMARK   10  A    between atoms: C30_32  and  O4_34 
ROOT
HETATM    1  C1  UNL     1      -1.947  50.149 -16.210  1.00  0.00     0.043 C 
HETATM    2  C2  UNL     1      -1.164  50.524 -17.455  1.00  0.00    -0.085 C 
HETATM    3  C3  UNL     1       0.286  50.140 -17.308  1.00  0.00     0.043 C 
HETATM    4  C4  UNL     1      -1.753  51.081 -18.550  1.00  0.00    -0.073 C 
HETATM    5  C5  UNL     1      -3.274  51.088 -18.639  1.00  0.00     0.035 C 
HETATM    6  C6  UNL     1      -3.813  51.225 -20.062  1.00  0.00     0.010 C 
HETATM    7  C7  UNL     1      -3.016  50.415 -21.122  1.00  0.00     0.003 C 
HETATM    8  C8  UNL     1      -1.422  50.625 -21.027  1.00  0.00    -0.032 C 
HETATM    9  C9  UNL     1      -0.703  49.286 -20.702  1.00  0.00     0.016 C 
HETATM   10  C10 UNL     1      -0.815  51.115 -22.379  1.00  0.00     0.011 C 
HETATM   11  C11 UNL     1      -1.332  50.467 -23.682  1.00  0.00     0.011 C 
HETATM   12  C12 UNL     1      -2.753  49.878 -23.627  1.00  0.00    -0.032 C 
HETATM   13  C13 UNL     1      -2.676  48.342 -23.345  1.00  0.00     0.016 C 
HETATM   14  C14 UNL     1      -3.625  50.061 -24.921  1.00  0.00    -0.002 C 
HETATM   15  C23 UNL     1      -5.077  49.950 -24.357  1.00  0.00     0.006 C 
HETATM   16  C24 UNL     1      -4.993  50.090 -22.824  1.00  0.00     0.011 C 
HETATM   17  C25 UNL     1      -3.589  50.668 -22.562  1.00  0.00    -0.032 C 
HETATM   18  C26 UNL     1      -3.711  52.207 -22.834  1.00  0.00     0.016 C 
HETATM   19  C27 UNL     1      -1.118  51.641 -19.843  1.00  0.00     0.024 C 
ENDROOT
BRANCH  14  20
HETATM   20  C15 UNL     1      -3.382  49.133 -26.152  1.00  0.00    -0.014 C 
HETATM   21  C16 UNL     1      -2.996  49.951 -27.392  1.00  0.00     0.010 C 
BRANCH  20  22
HETATM   22  C17 UNL     1      -4.646  48.281 -26.464  1.00  0.00     0.008 C 
BRANCH  22  23
HETATM   23  C18 UNL     1      -4.803  47.907 -27.948  1.00  0.00     0.028 C 
BRANCH  23  24
HETATM   24  C19 UNL     1      -6.195  48.069 -28.486  1.00  0.00    -0.013 C 
HETATM   25  C20 UNL     1      -7.359  47.767 -27.875  1.00  0.00     0.008 C 
HETATM   26  C21 UNL     1      -7.509  47.147 -26.519  1.00  0.00     0.055 C 
BRANCH  25  27
HETATM   27  C22 UNL     1      -8.600  48.057 -28.640  1.00  0.00     0.171 C 
HETATM   28  O1  UNL     1      -9.427  47.248 -29.025  1.00  0.00    -0.646 OA
BRANCH  27  29
HETATM   29  O2  UNL     1      -8.748  49.367 -28.897  1.00  0.00    -0.773 OA
HETATM   30  H35 UNL     1      -9.586  49.405 -29.404  1.00  0.00     0.167 HD
ENDBRANCH  27  29
ENDBRANCH  25  27
ENDBRANCH  23  24
ENDBRANCH  22  23
ENDBRANCH  20  22
ENDBRANCH  14  20
BRANCH  19  31
HETATM   31  C28 UNL     1       0.323  52.220 -19.761  1.00  0.00     0.020 C 
BRANCH  31  32
HETATM   32  C29 UNL     1       0.415  53.682 -20.216  1.00  0.00     0.110 C 
BRANCH  32  33
HETATM   33  C30 UNL     1       1.302  53.921 -21.402  1.00  0.00     0.139 C 
HETATM   34  O3  UNL     1       2.213  54.730 -21.471  1.00  0.00    -0.650 OA
BRANCH  33  35
HETATM   35  O4  UNL     1       0.983  53.152 -22.459  1.00  0.00    -0.776 OA
HETATM   36  H48 UNL     1       1.652  53.398 -23.130  1.00  0.00     0.167 HD
ENDBRANCH  33  35
ENDBRANCH  32  33
ENDBRANCH  31  32
ENDBRANCH  19  31
TORSDOF 10
ENDMDL
MODEL 8
REMARK minimizedAffinity -7.65207386
REMARK CNNscore 0.161491796
REMARK CNNaffinity 6.12873983
REMARK  10 active torsions:
REMARK  status: ('A' for Active; 'I' for Inactive)
REMARK    1  A    between atoms: C14_14  and  C15_15 
REMARK    2  A    between atoms: C15_15  and  C17_17 
REMARK    3  A    between atoms: C17_17  and  C18_18 
REMARK    4  A    between atoms: C18_18  and  C19_19 
REMARK    5  A    between atoms: C20_20  and  C22_22 
REMARK    6  A    between atoms: C22_22  and  O2_24 
REMARK    7  A    between atoms: C27_29  and  C28_30 
REMARK    8  A    between atoms: C28_30  and  C29_31 
REMARK    9  A    between atoms: C29_31  and  C30_32 
REMARK   10  A    between atoms: C30_32  and  O4_34 
ROOT
HETATM    1  C1  UNL     1      -8.766  47.079 -22.686  1.00  0.00     0.043 C 
HETATM    2  C2  UNL     1      -7.710  47.817 -23.487  1.00  0.00    -0.085 C 
HETATM    3  C3  UNL     1      -8.351  48.740 -24.492  1.00  0.00     0.043 C 
HETATM    4  C4  UNL     1      -6.377  47.668 -23.252  1.00  0.00    -0.073 C 
HETATM    5  C5  UNL     1      -5.933  46.949 -21.984  1.00  0.00     0.035 C 
HETATM    6  C6  UNL     1      -4.509  47.287 -21.544  1.00  0.00     0.010 C 
HETATM    7  C7  UNL     1      -4.131  48.784 -21.712  1.00  0.00     0.003 C 
HETATM    8  C8  UNL     1      -4.503  49.382 -23.161  1.00  0.00    -0.032 C 
HETATM    9  C9  UNL     1      -5.539  50.533 -23.040  1.00  0.00     0.016 C 
HETATM   10  C10 UNL     1      -3.261  50.002 -23.874  1.00  0.00     0.011 C 
HETATM   11  C11 UNL     1      -2.288  50.851 -23.026  1.00  0.00     0.011 C 
HETATM   12  C12 UNL     1      -2.253  50.535 -21.520  1.00  0.00    -0.032 C 
HETATM   13  C13 UNL     1      -3.185  51.529 -20.752  1.00  0.00     0.016 C 
HETATM   14  C14 UNL     1      -0.842  50.610 -20.834  1.00  0.00    -0.002 C 
HETATM   15  C23 UNL     1      -1.033  49.687 -19.588  1.00  0.00     0.006 C 
HETATM   16  C24 UNL     1      -2.323  48.872 -19.806  1.00  0.00     0.011 C 
HETATM   17  C25 UNL     1      -2.635  49.030 -21.307  1.00  0.00    -0.032 C 
HETATM   18  C26 UNL     1      -1.699  48.007 -22.040  1.00  0.00     0.016 C 
HETATM   19  C27 UNL     1      -5.161  48.224 -24.029  1.00  0.00     0.024 C 
ENDROOT
BRANCH  14  20
HETATM   20  C15 UNL     1      -0.235  52.001 -20.468  1.00  0.00    -0.014 C 
HETATM   21  C16 UNL     1       0.489  52.620 -21.671  1.00  0.00     0.010 C 
BRANCH  20  22
HETATM   22  C17 UNL     1       0.754  51.879 -19.273  1.00  0.00     0.008 C 
BRANCH  22  23
HETATM   23  C18 UNL     1       0.113  52.128 -17.897  1.00  0.00     0.028 C 
BRANCH  23  24
HETATM   24  C19 UNL     1       0.854  51.512 -16.746  1.00  0.00    -0.013 C 
HETATM   25  C20 UNL     1       0.380  50.650 -15.823  1.00  0.00     0.008 C 
HETATM   26  C21 UNL     1      -1.029  50.151 -15.723  1.00  0.00     0.055 C 
BRANCH  25  27
HETATM   27  C22 UNL     1       1.351  50.179 -14.801  1.00  0.00     0.171 C 
HETATM   28  O1  UNL     1       1.500  49.035 -14.408  1.00  0.00    -0.646 OA
BRANCH  27  29
HETATM   29  O2  UNL     1       2.097  51.179 -14.305  1.00  0.00    -0.773 OA
HETATM   30  H35 UNL     1       2.672  50.730 -13.650  1.00  0.00     0.167 HD
ENDBRANCH  27  29
ENDBRANCH  25  27
ENDBRANCH  23  24
ENDBRANCH  22  23
ENDBRANCH  20  22
ENDBRANCH  14  20
BRANCH  19  31
HETATM   31  C28 UNL     1      -5.325  48.488 -25.553  1.00  0.00     0.020 C 
BRANCH  31  32
HETATM   32  C29 UNL     1      -4.028  48.282 -26.346  1.00  0.00     0.110 C 
BRANCH  32  33
HETATM   33  C30 UNL     1      -3.938  49.061 -27.625  1.00  0.00     0.139 C 
HETATM   34  O3  UNL     1      -3.068  49.862 -27.923  1.00  0.00    -0.650 OA
BRANCH  33  35
HETATM   35  O4  UNL     1      -4.966  48.817 -28.460  1.00  0.00    -0.776 OA
HETATM   36  H48 UNL     1      -4.757  49.366 -29.244  1.00  0.00     0.167 HD
ENDBRANCH  33  35
ENDBRANCH  32  33
ENDBRANCH  31  32
ENDBRANCH  19  31
TORSDOF 10
ENDMDL
MODEL 9
REMARK minimizedAffinity -7.59442997
REMARK CNNscore 0.156443089
REMARK CNNaffinity 6.34313631
REMARK  10 active torsions:
REMARK  status: ('A' for Active; 'I' for Inactive)
REMARK    1  A    between atoms: C14_14  and  C15_15 
REMARK    2  A    between atoms: C15_15  and  C17_17 
REMARK    3  A    between atoms: C17_17  and  C18_18 
REMARK    4  A    between atoms: C18_18  and  C19_19 
REMARK    5  A    between atoms: C20_20  and  C22_22 
REMARK    6  A    between atoms: C22_22  and  O2_24 
REMARK    7  A    between atoms: C27_29  and  C28_30 
REMARK    8  A    between atoms: C28_30  and  C29_31 
REMARK    9  A    between atoms: C29_31  and  C30_32 
REMARK   10  A    between atoms: C30_32  and  O4_34 
ROOT
HETATM    1  C1  UNL     1       2.276  51.657 -26.193  1.00  0.00     0.043 C 
HETATM    2  C2  UNL     1       0.774  51.591 -26.404  1.00  0.00    -0.085 C 
HETATM    3  C3  UNL     1       0.453  51.132 -27.803  1.00  0.00     0.043 C 
HETATM    4  C4  UNL     1      -0.117  51.870 -25.412  1.00  0.00    -0.073 C 
HETATM    5  C5  UNL     1       0.395  51.993 -23.982  1.00  0.00     0.035 C 
HETATM    6  C6  UNL     1      -0.679  51.773 -22.916  1.00  0.00     0.010 C 
HETATM    7  C7  UNL     1      -1.674  50.627 -23.247  1.00  0.00     0.003 C 
HETATM    8  C8  UNL     1      -2.273  50.706 -24.740  1.00  0.00    -0.032 C 
HETATM    9  C9  UNL     1      -1.874  49.452 -25.567  1.00  0.00     0.016 C 
HETATM   10  C10 UNL     1      -3.833  50.737 -24.744  1.00  0.00     0.011 C 
HETATM   11  C11 UNL     1      -4.578  49.799 -23.769  1.00  0.00     0.011 C 
HETATM   12  C12 UNL     1      -3.804  49.384 -22.505  1.00  0.00    -0.032 C 
HETATM   13  C13 UNL     1      -3.134  47.989 -22.732  1.00  0.00     0.016 C 
HETATM   14  C14 UNL     1      -4.648  49.275 -21.185  1.00  0.00    -0.002 C 
HETATM   15  C23 UNL     1      -3.559  49.463 -20.082  1.00  0.00     0.006 C 
HETATM   16  C24 UNL     1      -2.295  50.020 -20.766  1.00  0.00     0.011 C 
HETATM   17  C25 UNL     1      -2.783  50.516 -22.141  1.00  0.00    -0.032 C 
HETATM   18  C26 UNL     1      -3.428  51.921 -21.877  1.00  0.00     0.016 C 
HETATM   19  C27 UNL     1      -1.658  51.982 -25.462  1.00  0.00     0.024 C 
ENDROOT
BRANCH  14  20
HETATM   20  C15 UNL     1      -5.544  48.019 -20.943  1.00  0.00    -0.014 C 
HETATM   21  C16 UNL     1      -4.693  46.747 -20.835  1.00  0.00     0.010 C 
BRANCH  20  22
HETATM   22  C17 UNL     1      -6.587  47.852 -22.085  1.00  0.00     0.008 C 
BRANCH  22  23
HETATM   23  C18 UNL     1      -7.898  48.624 -21.859  1.00  0.00     0.028 C 
BRANCH  23  24
HETATM   24  C19 UNL     1      -8.944  47.861 -21.098  1.00  0.00    -0.013 C 
HETATM   25  C20 UNL     1      -9.262  47.971 -19.792  1.00  0.00     0.008 C 
HETATM   26  C21 UNL     1      -8.591  48.863 -18.792  1.00  0.00     0.055 C 
BRANCH  25  27
HETATM   27  C22 UNL     1     -10.366  47.102 -19.306  1.00  0.00     0.171 C 
HETATM   28  O1  UNL     1     -11.380  47.460 -18.734  1.00  0.00    -0.646 OA
BRANCH  27  29
HETATM   29  O2  UNL     1     -10.140  45.802 -19.557  1.00  0.00    -0.773 OA
HETATM   30  H35 UNL     1     -10.929  45.358 -19.181  1.00  0.00     0.167 HD
ENDBRANCH  27  29
ENDBRANCH  25  27
ENDBRANCH  23  24
ENDBRANCH  22  23
ENDBRANCH  20  22
ENDBRANCH  14  20
BRANCH  19  31
HETATM   31  C28 UNL     1      -2.317  52.424 -26.799  1.00  0.00     0.020 C 
BRANCH  31  32
HETATM   32  C29 UNL     1      -1.302  52.898 -27.847  1.00  0.00     0.110 C 
BRANCH  32  33
HETATM   33  C30 UNL     1      -1.192  54.388 -27.992  1.00  0.00     0.139 C 
HETATM   34  O3  UNL     1      -0.346  55.102 -27.480  1.00  0.00    -0.650 OA
BRANCH  33  35
HETATM   35  O4  UNL     1      -2.170  54.913 -28.753  1.00  0.00    -0.776 OA
HETATM   36  H48 UNL     1      -1.952  55.868 -28.775  1.00  0.00     0.167 HD
ENDBRANCH  33  35
ENDBRANCH  32  33
ENDBRANCH  31  32
ENDBRANCH  19  31
TORSDOF 10
ENDMDL
