MODEL 1
REMARK minimizedAffinity -9.96383953
REMARK  8 active torsions:
REMARK  status: ('A' for Active; 'I' for Inactive)
REMARK    1  A    between atoms: C4_4  and  C5_5 
REMARK    2  A    between atoms: C5_5  and  C6_6 
REMARK    3  A    between atoms: C6_6  and  C7_7 
REMARK    4  A    between atoms: C7_7  and  C9_9 
REMARK    5  A    between atoms: C22_22  and  O1_23 
REMARK    6  A    between atoms: C24_25  and  O2_26 
REMARK    7  A    between atoms: C25_27  and  C27_29 
REMARK    8  A    between atoms: C27_29  and  O4_31 
ROOT
HETATM    1  C9  UNL     1      -2.226  48.777 -18.520  1.00  0.00    -0.002 C 
HETATM    2  C10 UNL     1      -3.263  47.811 -19.130  1.00  0.00     0.007 C 
HETATM    3  C11 UNL     1      -3.274  48.079 -20.657  1.00  0.00     0.015 C 
HETATM    4  C12 UNL     1      -1.987  48.883 -20.937  1.00  0.00    -0.005 C 
HETATM    5  C13 UNL     1      -0.820  47.850 -21.035  1.00  0.00     0.021 C 
HETATM    6  C14 UNL     1      -1.833  49.739 -22.193  1.00  0.00    -0.000 C 
HETATM    7  C15 UNL     1      -1.084  50.875 -22.188  1.00  0.00    -0.058 C 
HETATM    8  C16 UNL     1      -0.414  51.366 -20.888  1.00  0.00     0.036 C 
HETATM    9  C17 UNL     1      -0.642  50.540 -19.605  1.00  0.00     0.015 C 
HETATM   10  C18 UNL     1      -1.987  49.814 -19.656  1.00  0.00    -0.028 C 
HETATM   11  C19 UNL     1      -3.122  50.884 -19.696  1.00  0.00     0.016 C 
HETATM   12  C20 UNL     1      -0.926  51.797 -23.440  1.00  0.00     0.011 C 
HETATM   13  C21 UNL     1      -2.014  52.882 -23.269  1.00  0.00     0.023 C 
HETATM   14  C22 UNL     1       0.515  52.424 -23.514  1.00  0.00     0.133 C 
HETATM   15  C23 UNL     1       1.011  52.858 -24.899  1.00  0.00     0.065 C 
HETATM   16  C24 UNL     1      -0.089  52.990 -25.944  1.00  0.00     0.139 C 
HETATM   17  C25 UNL     1      -0.933  51.695 -26.108  1.00  0.00     0.072 C 
HETATM   18  C26 UNL     1      -0.233  50.731 -27.105  1.00  0.00     0.030 C 
HETATM   19  C28 UNL     1      -1.118  50.938 -24.733  1.00  0.00     0.029 C 
HETATM   20  C29 UNL     1      -2.411  50.125 -24.685  1.00  0.00     0.090 C 
HETATM   21  C30 UNL     1      -2.540  49.294 -23.433  1.00  0.00     0.157 C 
HETATM   22  O5  UNL     1      -3.264  48.297 -23.440  1.00  0.00    -0.293 OA
ENDROOT
BRANCH   1  23
HETATM   23  C7  UNL     1      -2.421  49.195 -17.036  1.00  0.00    -0.014 C 
HETATM   24  C8  UNL     1      -2.605  50.721 -16.952  1.00  0.00     0.010 C 
BRANCH  23  25
HETATM   25  C6  UNL     1      -1.470  48.699 -15.920  1.00  0.00     0.008 C 
BRANCH  25  26
HETATM   26  C5  UNL     1       0.033  49.006 -15.961  1.00  0.00     0.028 C 
BRANCH  26  27
HETATM   27  C4  UNL     1       0.393  50.300 -16.633  1.00  0.00    -0.025 C 
HETATM   28  C2  UNL     1       1.279  51.231 -16.217  1.00  0.00    -0.091 C 
HETATM   29  C1  UNL     1       1.525  52.475 -17.033  1.00  0.00     0.042 C 
HETATM   30  C3  UNL     1       2.092  51.161 -14.952  1.00  0.00     0.042 C 
ENDBRANCH  26  27
ENDBRANCH  25  26
ENDBRANCH  23  25
ENDBRANCH   1  23
BRANCH  14  31
HETATM   31  O1  UNL     1       0.653  53.534 -22.616  1.00  0.00    -0.394 OA
HETATM   32  H35 UNL     1       0.222  54.310 -23.005  1.00  0.00     0.210 HD
ENDBRANCH  14  31
BRANCH  17  33
HETATM   33  C27 UNL     1      -2.284  52.135 -26.686  1.00  0.00     0.151 C 
HETATM   34  O3  UNL     1      -3.030  52.965 -26.194  1.00  0.00    -0.649 OA
BRANCH  33  35
HETATM   35  O4  UNL     1      -2.668  51.464 -27.788  1.00  0.00    -0.776 OA
HETATM   36  H43 UNL     1      -3.553  51.823 -28.020  1.00  0.00     0.167 HD
ENDBRANCH  33  35
ENDBRANCH  17  33
BRANCH  16  37
HETATM   37  O2  UNL     1       0.533  53.370 -27.178  1.00  0.00    -0.394 OA
HETATM   38  H39 UNL     1      -0.085  53.946 -27.659  1.00  0.00     0.210 HD
ENDBRANCH  16  37
TORSDOF 8
ENDMDL
MODEL 2
REMARK minimizedAffinity -9.45115376
REMARK  8 active torsions:
REMARK  status: ('A' for Active; 'I' for Inactive)
REMARK    1  A    between atoms: C4_4  and  C5_5 
REMARK    2  A    between atoms: C5_5  and  C6_6 
REMARK    3  A    between atoms: C6_6  and  C7_7 
REMARK    4  A    between atoms: C7_7  and  C9_9 
REMARK    5  A    between atoms: C22_22  and  O1_23 
REMARK    6  A    between atoms: C24_25  and  O2_26 
REMARK    7  A    between atoms: C25_27  and  C27_29 
REMARK    8  A    between atoms: C27_29  and  O4_31 
ROOT
HETATM    1  C9  UNL     1      -4.696  47.850 -19.725  1.00  0.00    -0.002 C 
HETATM    2  C10 UNL     1      -5.469  47.052 -20.797  1.00  0.00     0.007 C 
HETATM    3  C11 UNL     1      -4.929  47.520 -22.173  1.00  0.00     0.015 C 
HETATM    4  C12 UNL     1      -3.608  48.257 -21.861  1.00  0.00    -0.005 C 
HETATM    5  C13 UNL     1      -2.507  47.161 -21.699  1.00  0.00     0.021 C 
HETATM    6  C14 UNL     1      -2.997  49.257 -22.840  1.00  0.00    -0.000 C 
HETATM    7  C15 UNL     1      -2.274  50.323 -22.403  1.00  0.00    -0.058 C 
HETATM    8  C16 UNL     1      -2.101  50.587 -20.894  1.00  0.00     0.036 C 
HETATM    9  C17 UNL     1      -2.790  49.617 -19.911  1.00  0.00     0.015 C 
HETATM   10  C18 UNL     1      -4.045  49.007 -20.537  1.00  0.00    -0.028 C 
HETATM   11  C19 UNL     1      -5.066  50.154 -20.809  1.00  0.00     0.016 C 
HETATM   12  C20 UNL     1      -1.659  51.388 -23.368  1.00  0.00     0.011 C 
HETATM   13  C21 UNL     1      -2.711  52.520 -23.427  1.00  0.00     0.023 C 
HETATM   14  C22 UNL     1      -0.272  51.910 -22.839  1.00  0.00     0.133 C 
HETATM   15  C23 UNL     1       0.695  52.485 -23.881  1.00  0.00     0.065 C 
HETATM   16  C24 UNL     1       0.043  52.836 -25.212  1.00  0.00     0.139 C 
HETATM   17  C25 UNL     1      -0.716  51.641 -25.854  1.00  0.00     0.072 C 
HETATM   18  C26 UNL     1       0.271  50.767 -26.676  1.00  0.00     0.030 C 
HETATM   19  C28 UNL     1      -1.396  50.724 -24.760  1.00  0.00     0.029 C 
HETATM   20  C29 UNL     1      -2.640  50.011 -25.289  1.00  0.00     0.090 C 
HETATM   21  C30 UNL     1      -3.225  49.033 -24.301  1.00  0.00     0.157 C 
HETATM   22  O5  UNL     1      -3.922  48.103 -24.710  1.00  0.00    -0.293 OA
ENDROOT
BRANCH   1  23
HETATM   23  C7  UNL     1      -5.397  48.081 -18.358  1.00  0.00    -0.014 C 
HETATM   24  C8  UNL     1      -4.639  47.319 -17.256  1.00  0.00     0.010 C 
BRANCH  23  25
HETATM   25  C6  UNL     1      -6.926  47.908 -18.188  1.00  0.00     0.008 C 
BRANCH  25  26
HETATM   26  C5  UNL     1      -7.908  48.971 -18.697  1.00  0.00     0.028 C 
BRANCH  26  27
HETATM   27  C4  UNL     1      -9.230  48.434 -19.167  1.00  0.00    -0.025 C 
HETATM   28  C2  UNL     1     -10.261  47.995 -18.415  1.00  0.00    -0.091 C 
HETATM   29  C1  UNL     1     -11.528  47.498 -19.063  1.00  0.00     0.042 C 
HETATM   30  C3  UNL     1     -10.283  47.938 -16.910  1.00  0.00     0.042 C 
ENDBRANCH  26  27
ENDBRANCH  25  26
ENDBRANCH  23  25
ENDBRANCH   1  23
BRANCH  14  31
HETATM   31  O1  UNL     1      -0.438  52.879 -21.793  1.00  0.00    -0.394 OA
HETATM   32  H35 UNL     1      -0.684  53.729 -22.187  1.00  0.00     0.210 HD
ENDBRANCH  14  31
BRANCH  17  33
HETATM   33  C27 UNL     1      -1.762  52.253 -26.793  1.00  0.00     0.151 C 
HETATM   34  O3  UNL     1      -2.634  53.041 -26.469  1.00  0.00    -0.649 OA
BRANCH  33  35
HETATM   35  O4  UNL     1      -1.718  51.790 -28.057  1.00  0.00    -0.776 OA
HETATM   36  H43 UNL     1      -2.456  52.238 -28.527  1.00  0.00     0.167 HD
ENDBRANCH  33  35
ENDBRANCH  17  33
BRANCH  16  37
HETATM   37  O2  UNL     1       1.073  53.329 -26.079  1.00  0.00    -0.394 OA
HETATM   38  H39 UNL     1       0.681  54.008 -26.653  1.00  0.00     0.210 HD
ENDBRANCH  16  37
TORSDOF 8
ENDMDL
MODEL 3
REMARK minimizedAffinity -9.4287796
REMARK  8 active torsions:
REMARK  status: ('A' for Active; 'I' for Inactive)
REMARK    1  A    between atoms: C4_4  and  C5_5 
REMARK    2  A    between atoms: C5_5  and  C6_6 
REMARK    3  A    between atoms: C6_6  and  C7_7 
REMARK    4  A    between atoms: C7_7  and  C9_9 
REMARK    5  A    between atoms: C22_22  and  O1_23 
REMARK    6  A    between atoms: C24_25  and  O2_26 
REMARK    7  A    between atoms: C25_27  and  C27_29 
REMARK    8  A    between atoms: C27_29  and  O4_31 
ROOT
HETATM    1  C9  UNL     1      -3.513  47.699 -19.451  1.00  0.00    -0.002 C 
HETATM    2  C10 UNL     1      -4.453  46.903 -20.380  1.00  0.00     0.007 C 
HETATM    3  C11 UNL     1      -4.204  47.426 -21.817  1.00  0.00     0.015 C 
HETATM    4  C12 UNL     1      -2.872  48.202 -21.742  1.00  0.00    -0.005 C 
HETATM    5  C13 UNL     1      -1.726  47.144 -21.831  1.00  0.00     0.021 C 
HETATM    6  C14 UNL     1      -2.493  49.249 -22.786  1.00  0.00    -0.000 C 
HETATM    7  C15 UNL     1      -1.732  50.330 -22.462  1.00  0.00    -0.058 C 
HETATM    8  C16 UNL     1      -1.278  50.559 -21.006  1.00  0.00     0.036 C 
HETATM    9  C17 UNL     1      -1.734  49.539 -19.942  1.00  0.00     0.015 C 
HETATM   10  C18 UNL     1      -3.067  48.900 -20.334  1.00  0.00    -0.028 C 
HETATM   11  C19 UNL     1      -4.156  50.016 -20.367  1.00  0.00     0.016 C 
HETATM   12  C20 UNL     1      -1.348  51.442 -23.491  1.00  0.00     0.011 C 
HETATM   13  C21 UNL     1      -2.426  52.535 -23.309  1.00  0.00     0.023 C 
HETATM   14  C22 UNL     1       0.097  52.000 -23.221  1.00  0.00     0.133 C 
HETATM   15  C23 UNL     1       0.827  52.638 -24.411  1.00  0.00     0.065 C 
HETATM   16  C24 UNL     1      -0.081  53.000 -25.580  1.00  0.00     0.139 C 
HETATM   17  C25 UNL     1      -0.913  51.795 -26.102  1.00  0.00     0.072 C 
HETATM   18  C26 UNL     1      -0.077  50.980 -27.127  1.00  0.00     0.030 C 
HETATM   19  C28 UNL     1      -1.340  50.825 -24.928  1.00  0.00     0.029 C 
HETATM   20  C29 UNL     1      -2.640  50.081 -25.232  1.00  0.00     0.090 C 
HETATM   21  C30 UNL     1      -2.993  49.057 -24.183  1.00  0.00     0.157 C 
HETATM   22  O5  UNL     1      -3.726  48.113 -24.481  1.00  0.00    -0.293 OA
ENDROOT
BRANCH   1  23
HETATM   23  C7  UNL     1      -3.943  47.868 -17.967  1.00  0.00    -0.014 C 
HETATM   24  C8  UNL     1      -5.378  48.424 -17.909  1.00  0.00     0.010 C 
BRANCH  23  25
HETATM   25  C6  UNL     1      -3.038  48.582 -16.935  1.00  0.00     0.008 C 
BRANCH  25  26
HETATM   26  C5  UNL     1      -3.081  50.107 -16.761  1.00  0.00     0.028 C 
BRANCH  26  27
HETATM   27  C4  UNL     1      -2.169  50.644 -15.695  1.00  0.00    -0.025 C 
HETATM   28  C2  UNL     1      -0.836  50.847 -15.769  1.00  0.00    -0.091 C 
HETATM   29  C1  UNL     1      -0.079  51.411 -14.595  1.00  0.00     0.042 C 
HETATM   30  C3  UNL     1       0.028  50.548 -16.965  1.00  0.00     0.042 C 
ENDBRANCH  26  27
ENDBRANCH  25  26
ENDBRANCH  23  25
ENDBRANCH   1  23
BRANCH  14  31
HETATM   31  O1  UNL     1       0.107  52.934 -22.132  1.00  0.00    -0.394 OA
HETATM   32  H35 UNL     1      -0.236  53.785 -22.443  1.00  0.00     0.210 HD
ENDBRANCH  14  31
BRANCH  17  33
HETATM   33  C27 UNL     1      -2.139  52.393 -26.802  1.00  0.00     0.151 C 
HETATM   34  O3  UNL     1      -3.031  53.022 -26.258  1.00  0.00    -0.649 OA
BRANCH  33  35
HETATM   35  O4  UNL     1      -2.230  52.106 -28.114  1.00  0.00    -0.776 OA
HETATM   36  H43 UNL     1      -3.070  52.519 -28.416  1.00  0.00     0.167 HD
ENDBRANCH  33  35
ENDBRANCH  17  33
BRANCH  16  37
HETATM   37  O2  UNL     1       0.746  53.553 -26.611  1.00  0.00    -0.394 OA
HETATM   38  H39 UNL     1       0.229  54.232 -27.076  1.00  0.00     0.210 HD
ENDBRANCH  16  37
TORSDOF 8
ENDMDL
MODEL 4
REMARK minimizedAffinity -9.35998631
REMARK  8 active torsions:
REMARK  status: ('A' for Active; 'I' for Inactive)
REMARK    1  A    between atoms: C4_4  and  C5_5 
REMARK    2  A    between atoms: C5_5  and  C6_6 
REMARK    3  A    between atoms: C6_6  and  C7_7 
REMARK    4  A    between atoms: C7_7  and  C9_9 
REMARK    5  A    between atoms: C22_22  and  O1_23 
REMARK    6  A    between atoms: C24_25  and  O2_26 
REMARK    7  A    between atoms: C25_27  and  C27_29 
REMARK    8  A    between atoms: C27_29  and  O4_31 
ROOT
HETATM    1  C9  UNL     1      -0.086  50.680 -20.910  1.00  0.00    -0.002 C 
HETATM    2  C10 UNL     1      -0.260  50.236 -19.442  1.00  0.00     0.007 C 
HETATM    3  C11 UNL     1      -1.585  49.434 -19.375  1.00  0.00     0.015 C 
HETATM    4  C12 UNL     1      -1.927  49.092 -20.841  1.00  0.00    -0.005 C 
HETATM    5  C13 UNL     1      -1.081  47.837 -21.223  1.00  0.00     0.021 C 
HETATM    6  C14 UNL     1      -3.347  48.728 -21.269  1.00  0.00    -0.000 C 
HETATM    7  C15 UNL     1      -3.812  49.032 -22.511  1.00  0.00    -0.058 C 
HETATM    8  C16 UNL     1      -2.931  49.813 -23.508  1.00  0.00     0.036 C 
HETATM    9  C17 UNL     1      -1.528  50.249 -23.038  1.00  0.00     0.015 C 
HETATM   10  C18 UNL     1      -1.499  50.456 -21.523  1.00  0.00    -0.028 C 
HETATM   11  C19 UNL     1      -2.464  51.630 -21.170  1.00  0.00     0.016 C 
HETATM   12  C20 UNL     1      -5.268  48.707 -22.979  1.00  0.00     0.011 C 
HETATM   13  C21 UNL     1      -6.068  50.000 -22.701  1.00  0.00     0.023 C 
HETATM   14  C22 UNL     1      -5.307  48.315 -24.502  1.00  0.00     0.133 C 
HETATM   15  C23 UNL     1      -6.486  47.448 -24.963  1.00  0.00     0.065 C 
HETATM   16  C24 UNL     1      -7.655  47.412 -23.988  1.00  0.00     0.139 C 
HETATM   17  C25 UNL     1      -7.244  46.961 -22.558  1.00  0.00     0.072 C 
HETATM   18  C26 UNL     1      -7.247  45.409 -22.472  1.00  0.00     0.030 C 
HETATM   19  C28 UNL     1      -5.798  47.475 -22.175  1.00  0.00     0.029 C 
HETATM   20  C29 UNL     1      -5.629  47.667 -20.668  1.00  0.00     0.090 C 
HETATM   21  C30 UNL     1      -4.220  48.031 -20.274  1.00  0.00     0.157 C 
HETATM   22  O5  UNL     1      -3.832  47.796 -19.129  1.00  0.00    -0.293 OA
ENDROOT
BRANCH   1  23
HETATM   23  C7  UNL     1       0.746  51.964 -21.179  1.00  0.00    -0.014 C 
HETATM   24  C8  UNL     1       0.576  52.942 -20.002  1.00  0.00     0.010 C 
BRANCH  23  25
HETATM   25  C6  UNL     1       0.669  52.715 -22.529  1.00  0.00     0.008 C 
BRANCH  25  26
HETATM   26  C5  UNL     1       0.234  51.998 -23.814  1.00  0.00     0.028 C 
BRANCH  26  27
HETATM   27  C4  UNL     1       1.207  52.103 -24.954  1.00  0.00    -0.025 C 
HETATM   28  C2  UNL     1       1.107  51.551 -26.182  1.00  0.00    -0.091 C 
HETATM   29  C1  UNL     1       2.183  51.775 -27.214  1.00  0.00     0.042 C 
HETATM   30  C3  UNL     1      -0.024  50.681 -26.660  1.00  0.00     0.042 C 
ENDBRANCH  26  27
ENDBRANCH  25  26
ENDBRANCH  23  25
ENDBRANCH   1  23
BRANCH  14  31
HETATM   31  O1  UNL     1      -5.240  49.473 -25.346  1.00  0.00    -0.394 OA
HETATM   32  H35 UNL     1      -6.109  49.901 -25.365  1.00  0.00     0.210 HD
ENDBRANCH  14  31
BRANCH  17  33
HETATM   33  C27 UNL     1      -8.305  47.528 -21.608  1.00  0.00     0.151 C 
HETATM   34  O3  UNL     1      -8.244  48.604 -21.036  1.00  0.00    -0.649 OA
BRANCH  33  35
HETATM   35  O4  UNL     1      -9.335  46.698 -21.358  1.00  0.00    -0.776 OA
HETATM   36  H43 UNL     1      -9.907  47.175 -20.717  1.00  0.00     0.167 HD
ENDBRANCH  33  35
ENDBRANCH  17  33
BRANCH  16  37
HETATM   37  O2  UNL     1      -8.653  46.547 -24.544  1.00  0.00    -0.394 OA
HETATM   38  H39 UNL     1      -9.524  46.891 -24.286  1.00  0.00     0.210 HD
ENDBRANCH  16  37
TORSDOF 8
ENDMDL
MODEL 5
REMARK minimizedAffinity -9.29122448
REMARK  8 active torsions:
REMARK  status: ('A' for Active; 'I' for Inactive)
REMARK    1  A    between atoms: C4_4  and  C5_5 
REMARK    2  A    between atoms: C5_5  and  C6_6 
REMARK    3  A    between atoms: C6_6  and  C7_7 
REMARK    4  A    between atoms: C7_7  and  C9_9 
REMARK    5  A    between atoms: C22_22  and  O1_23 
REMARK    6  A    between atoms: C24_25  and  O2_26 
REMARK    7  A    between atoms: C25_27  and  C27_29 
REMARK    8  A    between atoms: C27_29  and  O4_31 
ROOT
HETATM    1  C9  UNL     1      -0.904  51.329 -17.041  1.00  0.00    -0.002 C 
HETATM    2  C10 UNL     1       0.622  51.556 -16.998  1.00  0.00     0.007 C 
HETATM    3  C11 UNL     1       1.066  51.862 -18.452  1.00  0.00     0.015 C 
HETATM    4  C12 UNL     1      -0.235  52.200 -19.211  1.00  0.00    -0.005 C 
HETATM    5  C13 UNL     1      -0.565  53.694 -18.901  1.00  0.00     0.021 C 
HETATM    6  C14 UNL     1      -0.323  52.107 -20.733  1.00  0.00    -0.000 C 
HETATM    7  C15 UNL     1      -1.487  51.779 -21.356  1.00  0.00    -0.058 C 
HETATM    8  C16 UNL     1      -2.744  51.429 -20.534  1.00  0.00     0.036 C 
HETATM    9  C17 UNL     1      -2.624  51.445 -18.996  1.00  0.00     0.015 C 
HETATM   10  C18 UNL     1      -1.195  51.124 -18.556  1.00  0.00    -0.028 C 
HETATM   11  C19 UNL     1      -0.858  49.669 -19.007  1.00  0.00     0.016 C 
HETATM   12  C20 UNL     1      -1.613  51.642 -22.908  1.00  0.00     0.011 C 
HETATM   13  C21 UNL     1      -1.398  50.136 -23.188  1.00  0.00     0.023 C 
HETATM   14  C22 UNL     1      -3.018  52.134 -23.416  1.00  0.00     0.133 C 
HETATM   15  C23 UNL     1      -3.103  52.596 -24.876  1.00  0.00     0.065 C 
HETATM   16  C24 UNL     1      -1.931  52.153 -25.742  1.00  0.00     0.139 C 
HETATM   17  C25 UNL     1      -0.552  52.585 -25.170  1.00  0.00     0.072 C 
HETATM   18  C26 UNL     1      -0.220  54.032 -25.628  1.00  0.00     0.030 C 
HETATM   19  C28 UNL     1      -0.537  52.550 -23.589  1.00  0.00     0.029 C 
HETATM   20  C29 UNL     1       0.861  52.290 -23.027  1.00  0.00     0.090 C 
HETATM   21  C30 UNL     1       0.918  52.382 -21.522  1.00  0.00     0.157 C 
HETATM   22  O5  UNL     1       1.991  52.629 -20.971  1.00  0.00    -0.293 OA
ENDROOT
BRANCH   1  23
HETATM   23  C7  UNL     1      -1.527  50.426 -15.942  1.00  0.00    -0.014 C 
HETATM   24  C8  UNL     1      -2.816  49.777 -16.480  1.00  0.00     0.010 C 
BRANCH  23  25
HETATM   25  C6  UNL     1      -1.735  50.932 -14.494  1.00  0.00     0.008 C 
BRANCH  25  26
HETATM   26  C5  UNL     1      -3.139  51.212 -13.943  1.00  0.00     0.028 C 
BRANCH  26  27
HETATM   27  C4  UNL     1      -3.240  52.422 -13.058  1.00  0.00    -0.025 C 
HETATM   28  C2  UNL     1      -3.650  52.477 -11.774  1.00  0.00    -0.091 C 
HETATM   29  C1  UNL     1      -3.674  53.788 -11.031  1.00  0.00     0.042 C 
HETATM   30  C3  UNL     1      -4.119  51.304 -10.954  1.00  0.00     0.042 C 
ENDBRANCH  26  27
ENDBRANCH  25  26
ENDBRANCH  23  25
ENDBRANCH   1  23
BRANCH  14  31
HETATM   31  O1  UNL     1      -4.034  51.145 -23.195  1.00  0.00    -0.394 OA
HETATM   32  H35 UNL     1      -3.956  50.455 -23.872  1.00  0.00     0.210 HD
ENDBRANCH  14  31
BRANCH  17  33
HETATM   33  C27 UNL     1       0.479  51.613 -25.757  1.00  0.00     0.151 C 
HETATM   34  O3  UNL     1       1.682  51.805 -25.818  1.00  0.00    -0.649 OA
BRANCH  33  35
HETATM   35  O4  UNL     1      -0.048  50.504 -26.308  1.00  0.00    -0.776 OA
HETATM   36  H43 UNL     1       0.716  50.001 -26.668  1.00  0.00     0.167 HD
ENDBRANCH  33  35
ENDBRANCH  17  33
BRANCH  16  37
HETATM   37  O2  UNL     1      -2.143  52.682 -27.057  1.00  0.00    -0.394 OA
HETATM   38  H39 UNL     1      -1.783  52.046 -27.697  1.00  0.00     0.210 HD
ENDBRANCH  16  37
TORSDOF 8
ENDMDL
MODEL 6
REMARK minimizedAffinity -9.27912426
REMARK  8 active torsions:
REMARK  status: ('A' for Active; 'I' for Inactive)
REMARK    1  A    between atoms: C4_4  and  C5_5 
REMARK    2  A    between atoms: C5_5  and  C6_6 
REMARK    3  A    between atoms: C6_6  and  C7_7 
REMARK    4  A    between atoms: C7_7  and  C9_9 
REMARK    5  A    between atoms: C22_22  and  O1_23 
REMARK    6  A    between atoms: C24_25  and  O2_26 
REMARK    7  A    between atoms: C25_27  and  C27_29 
REMARK    8  A    between atoms: C27_29  and  O4_31 
ROOT
HETATM    1  C9  UNL     1      -1.392  50.784 -22.894  1.00  0.00    -0.002 C 
HETATM    2  C10 UNL     1      -0.914  52.251 -22.952  1.00  0.00     0.007 C 
HETATM    3  C11 UNL     1      -0.393  52.603 -21.535  1.00  0.00     0.015 C 
HETATM    4  C12 UNL     1      -0.207  51.247 -20.822  1.00  0.00    -0.005 C 
HETATM    5  C13 UNL     1       1.171  50.678 -21.286  1.00  0.00     0.021 C 
HETATM    6  C14 UNL     1      -0.160  51.142 -19.299  1.00  0.00    -0.000 C 
HETATM    7  C15 UNL     1      -0.617  50.036 -18.651  1.00  0.00    -0.058 C 
HETATM    8  C16 UNL     1      -1.256  48.875 -19.440  1.00  0.00     0.036 C 
HETATM    9  C17 UNL     1      -1.374  49.025 -20.971  1.00  0.00     0.015 C 
HETATM   10  C18 UNL     1      -1.490  50.497 -21.368  1.00  0.00    -0.028 C 
HETATM   11  C19 UNL     1      -2.814  51.065 -20.768  1.00  0.00     0.016 C 
HETATM   12  C20 UNL     1      -0.618  49.899 -17.094  1.00  0.00     0.011 C 
HETATM   13  C21 UNL     1      -2.029  50.358 -16.660  1.00  0.00     0.023 C 
HETATM   14  C22 UNL     1      -0.323  48.420 -16.648  1.00  0.00     0.133 C 
HETATM   15  C23 UNL     1       0.262  48.225 -15.243  1.00  0.00     0.065 C 
HETATM   16  C24 UNL     1       0.114  49.435 -14.330  1.00  0.00     0.139 C 
HETATM   17  C25 UNL     1       0.714  50.734 -14.936  1.00  0.00     0.072 C 
HETATM   18  C26 UNL     1       2.235  50.807 -14.627  1.00  0.00     0.030 C 
HETATM   19  C28 UNL     1       0.523  50.791 -16.504  1.00  0.00     0.029 C 
HETATM   20  C29 UNL     1       0.450  52.225 -17.030  1.00  0.00     0.090 C 
HETATM   21  C30 UNL     1       0.399  52.300 -18.535  1.00  0.00     0.157 C 
HETATM   22  O5  UNL     1       0.769  53.329 -19.102  1.00  0.00    -0.293 OA
ENDROOT
BRANCH   1  23
HETATM   23  C7  UNL     1      -2.494  50.348 -23.899  1.00  0.00    -0.014 C 
HETATM   24  C8  UNL     1      -3.439  49.341 -23.218  1.00  0.00     0.010 C 
BRANCH  23  25
HETATM   25  C6  UNL     1      -2.148  49.887 -25.335  1.00  0.00     0.008 C 
BRANCH  25  26
HETATM   26  C5  UNL     1      -1.398  50.808 -26.306  1.00  0.00     0.028 C 
BRANCH  26  27
HETATM   27  C4  UNL     1       0.090  50.857 -26.105  1.00  0.00    -0.025 C 
HETATM   28  C2  UNL     1       1.018  51.409 -26.915  1.00  0.00    -0.091 C 
HETATM   29  C1  UNL     1       2.479  51.376 -26.544  1.00  0.00     0.042 C 
HETATM   30  C3  UNL     1       0.738  52.090 -28.229  1.00  0.00     0.042 C 
ENDBRANCH  26  27
ENDBRANCH  25  26
ENDBRANCH  23  25
ENDBRANCH   1  23
BRANCH  14  31
HETATM   31  O1  UNL     1      -1.488  47.590 -16.772  1.00  0.00    -0.394 OA
HETATM   32  H35 UNL     1      -2.082  47.768 -16.027  1.00  0.00     0.210 HD
ENDBRANCH  14  31
BRANCH  17  33
HETATM   33  C27 UNL     1      -0.004  51.900 -14.246  1.00  0.00     0.151 C 
HETATM   34  O3  UNL     1      -1.192  51.940 -13.972  1.00  0.00    -0.649 OA
BRANCH  33  35
HETATM   35  O4  UNL     1       0.770  52.976 -14.013  1.00  0.00    -0.776 OA
HETATM   36  H43 UNL     1       0.176  53.645 -13.606  1.00  0.00     0.167 HD
ENDBRANCH  33  35
ENDBRANCH  17  33
BRANCH  16  37
HETATM   37  O2  UNL     1       0.728  49.106 -13.078  1.00  0.00    -0.394 OA
HETATM   38  H39 UNL     1       0.230  49.554 -12.373  1.00  0.00     0.210 HD
ENDBRANCH  16  37
TORSDOF 8
ENDMDL
MODEL 7
REMARK minimizedAffinity -9.16210079
REMARK  8 active torsions:
REMARK  status: ('A' for Active; 'I' for Inactive)
REMARK    1  A    between atoms: C4_4  and  C5_5 
REMARK    2  A    between atoms: C5_5  and  C6_6 
REMARK    3  A    between atoms: C6_6  and  C7_7 
REMARK    4  A    between atoms: C7_7  and  C9_9 
REMARK    5  A    between atoms: C22_22  and  O1_23 
REMARK    6  A    between atoms: C24_25  and  O2_26 
REMARK    7  A    between atoms: C25_27  and  C27_29 
REMARK    8  A    between atoms: C27_29  and  O4_31 
ROOT
HETATM    1  C9  UNL     1      -2.302  50.256 -21.815  1.00  0.00    -0.002 C 
HETATM    2  C10 UNL     1      -1.901  51.719 -22.099  1.00  0.00     0.007 C 
HETATM    3  C11 UNL     1      -1.062  52.193 -20.885  1.00  0.00     0.015 C 
HETATM    4  C12 UNL     1      -0.663  50.902 -20.138  1.00  0.00    -0.005 C 
HETATM    5  C13 UNL     1       0.578  50.314 -20.882  1.00  0.00     0.021 C 
HETATM    6  C14 UNL     1      -0.243  50.922 -18.670  1.00  0.00    -0.000 C 
HETATM    7  C15 UNL     1      -0.492  49.867 -17.848  1.00  0.00    -0.058 C 
HETATM    8  C16 UNL     1      -1.266  48.637 -18.365  1.00  0.00     0.036 C 
HETATM    9  C17 UNL     1      -1.759  48.660 -19.827  1.00  0.00     0.015 C 
HETATM   10  C18 UNL     1      -2.016  50.094 -20.294  1.00  0.00    -0.028 C 
HETATM   11  C19 UNL     1      -3.171  50.691 -19.432  1.00  0.00     0.016 C 
HETATM   12  C20 UNL     1      -0.108  49.858 -16.333  1.00  0.00     0.011 C 
HETATM   13  C21 UNL     1      -1.385  50.332 -15.601  1.00  0.00     0.023 C 
HETATM   14  C22 UNL     1       0.334  48.424 -15.861  1.00  0.00     0.133 C 
HETATM   15  C23 UNL     1       1.250  48.351 -14.633  1.00  0.00     0.065 C 
HETATM   16  C24 UNL     1       1.290  49.630 -13.806  1.00  0.00     0.139 C 
HETATM   17  C25 UNL     1       1.682  50.883 -14.637  1.00  0.00     0.072 C 
HETATM   18  C26 UNL     1       3.229  51.000 -14.719  1.00  0.00     0.030 C 
HETATM   19  C28 UNL     1       1.113  50.809 -16.111  1.00  0.00     0.029 C 
HETATM   20  C29 UNL     1       0.867  52.194 -16.709  1.00  0.00     0.090 C 
HETATM   21  C30 UNL     1       0.448  52.146 -18.157  1.00  0.00     0.157 C 
HETATM   22  O5  UNL     1       0.634  53.130 -18.875  1.00  0.00    -0.293 OA
ENDROOT
BRANCH   1  23
HETATM   23  C7  UNL     1      -3.601  49.725 -22.481  1.00  0.00    -0.014 C 
HETATM   24  C8  UNL     1      -3.905  48.310 -21.957  1.00  0.00     0.010 C 
BRANCH  23  25
HETATM   25  C6  UNL     1      -3.818  49.798 -24.012  1.00  0.00     0.008 C 
BRANCH  25  26
HETATM   26  C5  UNL     1      -3.040  48.885 -24.970  1.00  0.00     0.028 C 
BRANCH  26  27
HETATM   27  C4  UNL     1      -3.834  48.376 -26.139  1.00  0.00    -0.025 C 
HETATM   28  C2  UNL     1      -3.924  48.909 -27.375  1.00  0.00    -0.091 C 
HETATM   29  C1  UNL     1      -4.766  48.250 -28.437  1.00  0.00     0.042 C 
HETATM   30  C3  UNL     1      -3.237  50.168 -27.836  1.00  0.00     0.042 C 
ENDBRANCH  26  27
ENDBRANCH  25  26
ENDBRANCH  23  25
ENDBRANCH   1  23
BRANCH  14  31
HETATM   31  O1  UNL     1      -0.798  47.572 -15.632  1.00  0.00    -0.394 OA
HETATM   32  H35 UNL     1      -1.198  47.803 -14.780  1.00  0.00     0.210 HD
ENDBRANCH  14  31
BRANCH  17  33
HETATM   33  C27 UNL     1       1.116  52.092 -13.883  1.00  0.00     0.151 C 
HETATM   34  O3  UNL     1       0.008  52.575 -14.045  1.00  0.00    -0.649 OA
BRANCH  33  35
HETATM   35  O4  UNL     1       1.982  52.679 -13.036  1.00  0.00    -0.776 OA
HETATM   36  H43 UNL     1       1.500  53.447 -12.657  1.00  0.00     0.167 HD
ENDBRANCH  33  35
ENDBRANCH  17  33
BRANCH  16  37
HETATM   37  O2  UNL     1       2.202  49.413 -12.722  1.00  0.00    -0.394 OA
HETATM   38  H39 UNL     1       1.876  49.910 -11.953  1.00  0.00     0.210 HD
ENDBRANCH  16  37
TORSDOF 8
ENDMDL
MODEL 8
REMARK minimizedAffinity -9.05028534
REMARK  8 active torsions:
REMARK  status: ('A' for Active; 'I' for Inactive)
REMARK    1  A    between atoms: C4_4  and  C5_5 
REMARK    2  A    between atoms: C5_5  and  C6_6 
REMARK    3  A    between atoms: C6_6  and  C7_7 
REMARK    4  A    between atoms: C7_7  and  C9_9 
REMARK    5  A    between atoms: C22_22  and  O1_23 
REMARK    6  A    between atoms: C24_25  and  O2_26 
REMARK    7  A    between atoms: C25_27  and  C27_29 
REMARK    8  A    between atoms: C27_29  and  O4_31 
ROOT
HETATM    1  C9  UNL     1      -4.328  49.564 -24.926  1.00  0.00    -0.002 C 
HETATM    2  C10 UNL     1      -5.432  48.585 -24.476  1.00  0.00     0.007 C 
HETATM    3  C11 UNL     1      -5.294  48.438 -22.939  1.00  0.00     0.015 C 
HETATM    4  C12 UNL     1      -4.402  49.618 -22.496  1.00  0.00    -0.005 C 
HETATM    5  C13 UNL     1      -5.330  50.869 -22.385  1.00  0.00     0.021 C 
HETATM    6  C14 UNL     1      -3.644  49.598 -21.171  1.00  0.00    -0.000 C 
HETATM    7  C15 UNL     1      -2.448  50.232 -21.030  1.00  0.00    -0.058 C 
HETATM    8  C16 UNL     1      -1.792  50.943 -22.231  1.00  0.00     0.036 C 
HETATM    9  C17 UNL     1      -2.526  50.888 -23.587  1.00  0.00     0.015 C 
HETATM   10  C18 UNL     1      -3.372  49.619 -23.699  1.00  0.00    -0.028 C 
HETATM   11  C19 UNL     1      -2.416  48.387 -23.668  1.00  0.00     0.016 C 
HETATM   12  C20 UNL     1      -1.624  50.210 -19.702  1.00  0.00     0.011 C 
HETATM   13  C21 UNL     1      -0.631  49.037 -19.876  1.00  0.00     0.023 C 
HETATM   14  C22 UNL     1      -0.878  51.574 -19.467  1.00  0.00     0.133 C 
HETATM   15  C23 UNL     1      -0.518  51.926 -18.017  1.00  0.00     0.065 C 
HETATM   16  C24 UNL     1      -0.573  50.745 -17.056  1.00  0.00     0.139 C 
HETATM   17  C25 UNL     1      -1.948  50.021 -17.059  1.00  0.00     0.072 C 
HETATM   18  C26 UNL     1      -2.925  50.737 -16.086  1.00  0.00     0.030 C 
HETATM   19  C28 UNL     1      -2.602  50.010 -18.498  1.00  0.00     0.029 C 
HETATM   20  C29 UNL     1      -3.522  48.807 -18.711  1.00  0.00     0.090 C 
HETATM   21  C30 UNL     1      -4.254  48.850 -20.029  1.00  0.00     0.157 C 
HETATM   22  O5  UNL     1      -5.309  48.227 -20.155  1.00  0.00    -0.293 OA
ENDROOT
BRANCH   1  23
HETATM   23  C7  UNL     1      -3.807  49.437 -26.385  1.00  0.00    -0.014 C 
HETATM   24  C8  UNL     1      -4.490  48.241 -27.072  1.00  0.00     0.010 C 
BRANCH  23  25
HETATM   25  C6  UNL     1      -2.295  49.465 -26.713  1.00  0.00     0.008 C 
BRANCH  25  26
HETATM   26  C5  UNL     1      -1.554  50.790 -26.940  1.00  0.00     0.028 C 
BRANCH  26  27
HETATM   27  C4  UNL     1      -0.144  50.820 -26.425  1.00  0.00    -0.025 C 
HETATM   28  C2  UNL     1       0.946  51.345 -27.024  1.00  0.00    -0.091 C 
HETATM   29  C1  UNL     1       2.293  51.295 -26.348  1.00  0.00     0.042 C 
HETATM   30  C3  UNL     1       0.967  52.009 -28.375  1.00  0.00     0.042 C 
ENDBRANCH  26  27
ENDBRANCH  25  26
ENDBRANCH  23  25
ENDBRANCH   1  23
BRANCH  14  31
HETATM   31  O1  UNL     1       0.312  51.669 -20.264  1.00  0.00    -0.394 OA
HETATM   32  H35 UNL     1       1.011  51.138 -19.852  1.00  0.00     0.210 HD
ENDBRANCH  14  31
BRANCH  17  33
HETATM   33  C27 UNL     1      -1.682  48.596 -16.558  1.00  0.00     0.151 C 
HETATM   34  O3  UNL     1      -2.512  47.848 -16.070  1.00  0.00    -0.649 OA
BRANCH  33  35
HETATM   35  O4  UNL     1      -0.392  48.214 -16.616  1.00  0.00    -0.776 OA
HETATM   36  H43 UNL     1      -0.369  47.307 -16.236  1.00  0.00     0.167 HD
ENDBRANCH  33  35
ENDBRANCH  17  33
BRANCH  16  37
HETATM   37  O2  UNL     1      -0.242  51.238 -15.751  1.00  0.00    -0.394 OA
HETATM   38  H39 UNL     1       0.233  50.534 -15.278  1.00  0.00     0.210 HD
ENDBRANCH  16  37
TORSDOF 8
ENDMDL
MODEL 9
REMARK minimizedAffinity -8.93514347
REMARK  8 active torsions:
REMARK  status: ('A' for Active; 'I' for Inactive)
REMARK    1  A    between atoms: C4_4  and  C5_5 
REMARK    2  A    between atoms: C5_5  and  C6_6 
REMARK    3  A    between atoms: C6_6  and  C7_7 
REMARK    4  A    between atoms: C7_7  and  C9_9 
REMARK    5  A    between atoms: C22_22  and  O1_23 
REMARK    6  A    between atoms: C24_25  and  O2_26 
REMARK    7  A    between atoms: C25_27  and  C27_29 
REMARK    8  A    between atoms: C27_29  and  O4_31 
ROOT
HETATM    1  C9  UNL     1      -0.112  51.271 -21.717  1.00  0.00    -0.002 C 
HETATM    2  C10 UNL     1       0.114  51.675 -20.245  1.00  0.00     0.007 C 
HETATM    3  C11 UNL     1      -1.030  51.025 -19.425  1.00  0.00     0.015 C 
HETATM    4  C12 UNL     1      -1.637  49.953 -20.356  1.00  0.00    -0.005 C 
HETATM    5  C13 UNL     1      -0.722  48.692 -20.252  1.00  0.00     0.021 C 
HETATM    6  C14 UNL     1      -3.047  49.409 -20.139  1.00  0.00    -0.000 C 
HETATM    7  C15 UNL     1      -3.818  49.002 -21.184  1.00  0.00    -0.058 C 
HETATM    8  C16 UNL     1      -3.306  49.137 -22.633  1.00  0.00     0.036 C 
HETATM    9  C17 UNL     1      -1.913  49.764 -22.848  1.00  0.00     0.015 C 
HETATM   10  C18 UNL     1      -1.578  50.746 -21.725  1.00  0.00    -0.028 C 
HETATM   11  C19 UNL     1      -2.601  51.922 -21.779  1.00  0.00     0.016 C 
HETATM   12  C20 UNL     1      -5.277  48.469 -21.011  1.00  0.00     0.011 C 
HETATM   13  C21 UNL     1      -6.176  49.707 -21.232  1.00  0.00     0.023 C 
HETATM   14  C22 UNL     1      -5.597  47.326 -22.043  1.00  0.00     0.133 C 
HETATM   15  C23 UNL     1      -6.708  46.339 -21.661  1.00  0.00     0.065 C 
HETATM   16  C24 UNL     1      -7.612  46.822 -20.533  1.00  0.00     0.139 C 
HETATM   17  C25 UNL     1      -6.830  47.203 -19.246  1.00  0.00     0.072 C 
HETATM   18  C26 UNL     1      -6.586  45.936 -18.381  1.00  0.00     0.030 C 
HETATM   19  C28 UNL     1      -5.427  47.850 -19.582  1.00  0.00     0.029 C 
HETATM   20  C29 UNL     1      -4.956  48.817 -18.495  1.00  0.00     0.090 C 
HETATM   21  C30 UNL     1      -3.563  49.343 -18.737  1.00  0.00     0.157 C 
HETATM   22  O5  UNL     1      -2.899  49.756 -17.785  1.00  0.00    -0.293 OA
ENDROOT
BRANCH   1  23
HETATM   23  C7  UNL     1       0.441  52.219 -22.816  1.00  0.00    -0.014 C 
HETATM   24  C8  UNL     1       1.009  53.490 -22.159  1.00  0.00     0.010 C 
BRANCH  23  25
HETATM   25  C6  UNL     1      -0.387  52.578 -24.073  1.00  0.00     0.008 C 
BRANCH  25  26
HETATM   26  C5  UNL     1       0.141  53.572 -25.116  1.00  0.00     0.028 C 
BRANCH  26  27
HETATM   27  C4  UNL     1       0.205  53.038 -26.519  1.00  0.00    -0.025 C 
HETATM   28  C2  UNL     1       1.082  52.147 -27.027  1.00  0.00    -0.091 C 
HETATM   29  C1  UNL     1       0.987  51.712 -28.468  1.00  0.00     0.042 C 
HETATM   30  C3  UNL     1       2.215  51.506 -26.271  1.00  0.00     0.042 C 
ENDBRANCH  26  27
ENDBRANCH  25  26
ENDBRANCH  23  25
ENDBRANCH   1  23
BRANCH  14  31
HETATM   31  O1  UNL     1      -5.891  47.857 -23.343  1.00  0.00    -0.394 OA
HETATM   32  H35 UNL     1      -6.796  48.204 -23.345  1.00  0.00     0.210 HD
ENDBRANCH  14  31
BRANCH  17  33
HETATM   33  C27 UNL     1      -7.724  48.183 -18.477  1.00  0.00     0.151 C 
HETATM   34  O3  UNL     1      -8.411  49.059 -18.975  1.00  0.00    -0.649 OA
BRANCH  33  35
HETATM   35  O4  UNL     1      -7.649  48.076 -17.137  1.00  0.00    -0.776 OA
HETATM   36  H43 UNL     1      -8.239  48.778 -16.783  1.00  0.00     0.167 HD
ENDBRANCH  33  35
ENDBRANCH  17  33
BRANCH  16  37
HETATM   37  O2  UNL     1      -8.570  45.787 -20.278  1.00  0.00    -0.394 OA
HETATM   38  H39 UNL     1      -9.403  46.211 -20.011  1.00  0.00     0.210 HD
ENDBRANCH  16  37
TORSDOF 8
ENDMDL
