MODEL 1
REMARK minimizedAffinity -8.04128551
REMARK CNNscore 0.813982427
REMARK CNNaffinity 6.7645402
REMARK  7 active torsions:
REMARK  status: ('A' for Active; 'I' for Inactive)
REMARK    1  A    between atoms: C2_2  and  C30_32 
REMARK    2  A    between atoms: C3_3  and  C4_4 
REMARK    3  A    between atoms: C4_4  and  O1_5 
REMARK    4  A    between atoms: C4_4  and  C5_6 
REMARK    5  A    between atoms: C5_6  and  C6_7 
REMARK    6  A    between atoms: C6_7  and  C8_9 
REMARK    7  A    between atoms: C30_32  and  O4_34 
ROOT
HETATM    1  C8  UNL     1       5.851  55.590  -8.029  1.00  0.00    -0.002 C 
HETATM    2  C9  UNL     1       6.628  54.530  -8.842  1.00  0.00     0.006 C 
HETATM    3  C10 UNL     1       5.586  53.764  -9.686  1.00  0.00     0.011 C 
HETATM    4  C11 UNL     1       4.293  54.604  -9.605  1.00  0.00    -0.032 C 
HETATM    5  C12 UNL     1       4.404  55.714 -10.696  1.00  0.00     0.016 C 
HETATM    6  C13 UNL     1       2.977  53.803  -9.805  1.00  0.00     0.004 C 
HETATM    7  C14 UNL     1       2.711  53.377 -11.257  1.00  0.00     0.007 C 
HETATM    8  C15 UNL     1       1.457  52.508 -11.327  1.00  0.00     0.007 C 
HETATM    9  C16 UNL     1       0.204  53.344 -11.032  1.00  0.00     0.010 C 
HETATM   10  C17 UNL     1      -1.132  52.530 -10.995  1.00  0.00     0.018 C 
HETATM   11  C18 UNL     1      -1.604  52.218 -12.428  1.00  0.00     0.023 C 
HETATM   12  C19 UNL     1      -1.027  51.203 -10.225  1.00  0.00     0.023 C 
HETATM   13  C20 UNL     1      -2.229  53.386 -10.341  1.00  0.00     0.135 C 
HETATM   14  O2  UNL     1      -3.264  52.894  -9.889  1.00  0.00    -0.297 OA
HETATM   15  C21 UNL     1      -2.048  54.883 -10.372  1.00  0.00     0.080 C 
HETATM   16  C22 UNL     1      -0.728  55.310  -9.741  1.00  0.00     0.018 C 
HETATM   17  C23 UNL     1       0.342  54.227  -9.792  1.00  0.00    -0.026 A 
HETATM   18  C24 UNL     1       0.758  53.620  -8.476  1.00  0.00     0.021 A 
HETATM   19  C25 UNL     1       1.746  54.528  -9.197  1.00  0.00    -0.027 A 
HETATM   20  C26 UNL     1       1.965  55.919  -8.584  1.00  0.00     0.011 C 
HETATM   21  C27 UNL     1       3.329  56.224  -7.939  1.00  0.00     0.011 C 
HETATM   22  C28 UNL     1       4.369  55.117  -8.118  1.00  0.00    -0.032 C 
HETATM   23  C29 UNL     1       4.076  54.015  -7.067  1.00  0.00     0.016 C 
ENDROOT
BRANCH   1  24
HETATM   24  C6  UNL     1       6.483  56.104  -6.706  1.00  0.00    -0.011 C 
HETATM   25  C7  UNL     1       6.051  57.566  -6.470  1.00  0.00     0.010 C 
BRANCH  24  26
HETATM   26  C5  UNL     1       7.989  55.938  -6.386  1.00  0.00     0.040 C 
BRANCH  26  27
HETATM   27  C4  UNL     1       8.443  55.675  -4.946  1.00  0.00     0.142 C 
BRANCH  27  28
HETATM   28  C3  UNL     1       9.924  55.915  -4.819  1.00  0.00     0.018 C 
HETATM   29  C2  UNL     1      10.582  57.092  -4.780  1.00  0.00     0.010 C 
HETATM   30  C1  UNL     1       9.965  58.458  -4.863  1.00  0.00     0.055 C 
BRANCH  29  31
HETATM   31  C30 UNL     1      12.066  57.124  -4.644  1.00  0.00     0.171 C 
HETATM   32  O3  UNL     1      12.696  57.975  -4.041  1.00  0.00    -0.646 OA
BRANCH  31  33
HETATM   33  O4  UNL     1      12.693  56.103  -5.249  1.00  0.00    -0.773 OA
HETATM   34  H46 UNL     1      13.640  56.267  -5.059  1.00  0.00     0.167 HD
ENDBRANCH  31  33
ENDBRANCH  29  31
ENDBRANCH  27  28
BRANCH  27  35
HETATM   35  O1  UNL     1       8.221  54.313  -4.600  1.00  0.00    -0.392 OA
HETATM   36  H6  UNL     1       8.666  54.151  -3.752  1.00  0.00     0.210 HD
ENDBRANCH  27  35
ENDBRANCH  26  27
ENDBRANCH  24  26
ENDBRANCH   1  24
TORSDOF 7
ENDMDL
MODEL 2
REMARK minimizedAffinity -7.37403822
REMARK CNNscore 0.715589404
REMARK CNNaffinity 6.75231218
REMARK  7 active torsions:
REMARK  status: ('A' for Active; 'I' for Inactive)
REMARK    1  A    between atoms: C2_2  and  C30_32 
REMARK    2  A    between atoms: C3_3  and  C4_4 
REMARK    3  A    between atoms: C4_4  and  O1_5 
REMARK    4  A    between atoms: C4_4  and  C5_6 
REMARK    5  A    between atoms: C5_6  and  C6_7 
REMARK    6  A    between atoms: C6_7  and  C8_9 
REMARK    7  A    between atoms: C30_32  and  O4_34 
ROOT
HETATM    1  C8  UNL     1      -1.496  52.774 -10.996  1.00  0.00    -0.002 C 
HETATM    2  C9  UNL     1      -0.388  52.888 -12.067  1.00  0.00     0.006 C 
HETATM    3  C10 UNL     1       0.790  53.641 -11.411  1.00  0.00     0.011 C 
HETATM    4  C11 UNL     1       0.483  53.647  -9.898  1.00  0.00    -0.032 C 
HETATM    5  C12 UNL     1       0.994  52.287  -9.326  1.00  0.00     0.016 C 
HETATM    6  C13 UNL     1       1.120  54.820  -9.104  1.00  0.00     0.004 C 
HETATM    7  C14 UNL     1       2.634  54.686  -8.882  1.00  0.00     0.007 C 
HETATM    8  C15 UNL     1       3.175  55.936  -8.192  1.00  0.00     0.007 C 
HETATM    9  C16 UNL     1       2.674  56.013  -6.744  1.00  0.00     0.010 C 
HETATM   10  C17 UNL     1       3.103  57.303  -5.971  1.00  0.00     0.018 C 
HETATM   11  C18 UNL     1       4.571  57.189  -5.518  1.00  0.00     0.023 C 
HETATM   12  C19 UNL     1       2.953  58.595  -6.790  1.00  0.00     0.023 C 
HETATM   13  C20 UNL     1       2.253  57.436  -4.696  1.00  0.00     0.135 C 
HETATM   14  O2  UNL     1       2.145  58.501  -4.086  1.00  0.00    -0.297 OA
HETATM   15  C21 UNL     1       1.638  56.176  -4.140  1.00  0.00     0.080 C 
HETATM   16  C22 UNL     1       0.769  55.465  -5.171  1.00  0.00     0.018 C 
HETATM   17  C23 UNL     1       1.170  55.768  -6.609  1.00  0.00    -0.026 A 
HETATM   18  C24 UNL     1       0.198  56.574  -7.431  1.00  0.00     0.021 A 
HETATM   19  C25 UNL     1       0.379  55.100  -7.769  1.00  0.00    -0.027 A 
HETATM   20  C26 UNL     1      -0.778  54.166  -7.382  1.00  0.00     0.011 C 
HETATM   21  C27 UNL     1      -1.612  53.535  -8.511  1.00  0.00     0.011 C 
HETATM   22  C28 UNL     1      -1.082  53.819  -9.916  1.00  0.00    -0.032 C 
HETATM   23  C29 UNL     1      -1.543  55.243 -10.321  1.00  0.00     0.016 C 
ENDROOT
BRANCH   1  24
HETATM   24  C6  UNL     1      -2.964  52.610 -11.476  1.00  0.00    -0.011 C 
HETATM   25  C7  UNL     1      -3.893  53.449 -10.574  1.00  0.00     0.010 C 
BRANCH  24  26
HETATM   26  C5  UNL     1      -3.600  51.223 -11.746  1.00  0.00     0.040 C 
BRANCH  26  27
HETATM   27  C4  UNL     1      -4.001  50.323 -10.573  1.00  0.00     0.142 C 
BRANCH  27  28
HETATM   28  C3  UNL     1      -5.490  50.385 -10.361  1.00  0.00     0.018 C 
HETATM   29  C2  UNL     1      -6.311  49.425  -9.883  1.00  0.00     0.010 C 
HETATM   30  C1  UNL     1      -5.906  48.044  -9.453  1.00  0.00     0.055 C 
BRANCH  29  31
HETATM   31  C30 UNL     1      -7.772  49.682  -9.739  1.00  0.00     0.171 C 
HETATM   32  O3  UNL     1      -8.328  50.004  -8.704  1.00  0.00    -0.646 OA
BRANCH  31  33
HETATM   33  O4  UNL     1      -8.467  49.538 -10.878  1.00  0.00    -0.773 OA
HETATM   34  H46 UNL     1      -9.388  49.747 -10.617  1.00  0.00     0.167 HD
ENDBRANCH  31  33
ENDBRANCH  29  31
ENDBRANCH  27  28
BRANCH  27  35
HETATM   35  O1  UNL     1      -3.401  50.783  -9.369  1.00  0.00    -0.392 OA
HETATM   36  H6  UNL     1      -3.805  50.293  -8.634  1.00  0.00     0.210 HD
ENDBRANCH  27  35
ENDBRANCH  26  27
ENDBRANCH  24  26
ENDBRANCH   1  24
TORSDOF 7
ENDMDL
MODEL 3
REMARK minimizedAffinity -7.92261696
REMARK CNNscore 0.626019716
REMARK CNNaffinity 6.84629488
REMARK  7 active torsions:
REMARK  status: ('A' for Active; 'I' for Inactive)
REMARK    1  A    between atoms: C2_2  and  C30_32 
REMARK    2  A    between atoms: C3_3  and  C4_4 
REMARK    3  A    between atoms: C4_4  and  O1_5 
REMARK    4  A    between atoms: C4_4  and  C5_6 
REMARK    5  A    between atoms: C5_6  and  C6_7 
REMARK    6  A    between atoms: C6_7  and  C8_9 
REMARK    7  A    between atoms: C30_32  and  O4_34 
ROOT
HETATM    1  C8  UNL     1       1.830  53.528 -11.210  1.00  0.00    -0.002 C 
HETATM    2  C9  UNL     1       0.654  54.491 -10.932  1.00  0.00     0.006 C 
HETATM    3  C10 UNL     1       1.123  55.461  -9.826  1.00  0.00     0.011 C 
HETATM    4  C11 UNL     1       2.651  55.262  -9.727  1.00  0.00    -0.032 C 
HETATM    5  C12 UNL     1       3.298  56.159 -10.830  1.00  0.00     0.016 C 
HETATM    6  C13 UNL     1       3.270  55.607  -8.344  1.00  0.00     0.004 C 
HETATM    7  C14 UNL     1       3.361  57.112  -8.050  1.00  0.00     0.007 C 
HETATM    8  C15 UNL     1       3.877  57.338  -6.630  1.00  0.00     0.007 C 
HETATM    9  C16 UNL     1       5.353  56.929  -6.522  1.00  0.00     0.010 C 
HETATM   10  C17 UNL     1       5.959  57.041  -5.084  1.00  0.00     0.018 C 
HETATM   11  C18 UNL     1       6.281  58.511  -4.756  1.00  0.00     0.023 C 
HETATM   12  C19 UNL     1       5.040  56.493  -3.980  1.00  0.00     0.023 C 
HETATM   13  C20 UNL     1       7.290  56.272  -5.034  1.00  0.00     0.135 C 
HETATM   14  O2  UNL     1       7.805  55.919  -3.972  1.00  0.00    -0.297 OA
HETATM   15  C21 UNL     1       8.015  56.059  -6.339  1.00  0.00     0.080 C 
HETATM   16  C22 UNL     1       7.141  55.350  -7.367  1.00  0.00     0.018 C 
HETATM   17  C23 UNL     1       5.650  55.560  -7.137  1.00  0.00    -0.026 A 
HETATM   18  C24 UNL     1       4.850  54.354  -6.714  1.00  0.00     0.021 A 
HETATM   19  C25 UNL     1       4.636  54.906  -8.118  1.00  0.00    -0.027 A 
HETATM   20  C26 UNL     1       5.215  54.074  -9.272  1.00  0.00     0.011 C 
HETATM   21  C27 UNL     1       4.233  53.370 -10.226  1.00  0.00     0.011 C 
HETATM   22  C28 UNL     1       2.763  53.712  -9.976  1.00  0.00    -0.032 C 
HETATM   23  C29 UNL     1       2.272  52.856  -8.779  1.00  0.00     0.016 C 
ENDROOT
BRANCH   1  24
HETATM   24  C6  UNL     1       1.505  52.130 -11.808  1.00  0.00    -0.011 C 
HETATM   25  C7  UNL     1       0.259  51.553 -11.106  1.00  0.00     0.010 C 
BRANCH  24  26
HETATM   26  C5  UNL     1       2.580  51.027 -11.970  1.00  0.00     0.040 C 
BRANCH  26  27
HETATM   27  C4  UNL     1       3.316  50.864 -13.305  1.00  0.00     0.142 C 
BRANCH  27  28
HETATM   28  C3  UNL     1       2.404  51.234 -14.444  1.00  0.00     0.018 C 
HETATM   29  C2  UNL     1       2.690  51.961 -15.546  1.00  0.00     0.010 C 
HETATM   30  C1  UNL     1       4.014  52.583 -15.880  1.00  0.00     0.055 C 
BRANCH  29  31
HETATM   31  C30 UNL     1       1.643  52.217 -16.575  1.00  0.00     0.171 C 
HETATM   32  O3  UNL     1       0.527  51.726 -16.577  1.00  0.00    -0.646 OA
BRANCH  31  33
HETATM   33  O4  UNL     1       2.021  53.068 -17.541  1.00  0.00    -0.773 OA
HETATM   34  H46 UNL     1       1.231  53.132 -18.117  1.00  0.00     0.167 HD
ENDBRANCH  31  33
ENDBRANCH  29  31
ENDBRANCH  27  28
BRANCH  27  35
HETATM   35  O1  UNL     1       3.683  49.505 -13.504  1.00  0.00    -0.392 OA
HETATM   36  H6  UNL     1       3.994  49.417 -14.420  1.00  0.00     0.210 HD
ENDBRANCH  27  35
ENDBRANCH  26  27
ENDBRANCH  24  26
ENDBRANCH   1  24
TORSDOF 7
ENDMDL
MODEL 4
REMARK minimizedAffinity -7.50590849
REMARK CNNscore 0.500410676
REMARK CNNaffinity 6.93656301
REMARK  7 active torsions:
REMARK  status: ('A' for Active; 'I' for Inactive)
REMARK    1  A    between atoms: C2_2  and  C30_32 
REMARK    2  A    between atoms: C3_3  and  C4_4 
REMARK    3  A    between atoms: C4_4  and  O1_5 
REMARK    4  A    between atoms: C4_4  and  C5_6 
REMARK    5  A    between atoms: C5_6  and  C6_7 
REMARK    6  A    between atoms: C6_7  and  C8_9 
REMARK    7  A    between atoms: C30_32  and  O4_34 
ROOT
HETATM    1  C8  UNL     1      -1.444  52.440 -11.226  1.00  0.00    -0.002 C 
HETATM    2  C9  UNL     1      -2.571  52.435 -10.169  1.00  0.00     0.006 C 
HETATM    3  C10 UNL     1      -2.106  53.354  -9.018  1.00  0.00     0.011 C 
HETATM    4  C11 UNL     1      -0.893  54.129  -9.576  1.00  0.00    -0.032 C 
HETATM    5  C12 UNL     1      -1.459  55.351 -10.364  1.00  0.00     0.016 C 
HETATM    6  C13 UNL     1       0.120  54.621  -8.505  1.00  0.00     0.004 C 
HETATM    7  C14 UNL     1      -0.369  55.816  -7.674  1.00  0.00     0.007 C 
HETATM    8  C15 UNL     1       0.648  56.148  -6.585  1.00  0.00     0.007 C 
HETATM    9  C16 UNL     1       1.929  56.726  -7.202  1.00  0.00     0.010 C 
HETATM   10  C17 UNL     1       3.073  57.023  -6.176  1.00  0.00     0.018 C 
HETATM   11  C18 UNL     1       2.779  58.330  -5.416  1.00  0.00     0.023 C 
HETATM   12  C19 UNL     1       3.285  55.904  -5.144  1.00  0.00     0.023 C 
HETATM   13  C20 UNL     1       4.393  57.238  -6.937  1.00  0.00     0.135 C 
HETATM   14  O2  UNL     1       5.490  57.159  -6.384  1.00  0.00    -0.297 OA
HETATM   15  C21 UNL     1       4.297  57.667  -8.380  1.00  0.00     0.080 C 
HETATM   16  C22 UNL     1       3.469  56.693  -9.210  1.00  0.00     0.018 C 
HETATM   17  C23 UNL     1       2.453  55.912  -8.386  1.00  0.00    -0.026 A 
HETATM   18  C24 UNL     1       2.692  54.432  -8.237  1.00  0.00     0.021 A 
HETATM   19  C25 UNL     1       1.527  54.890  -9.104  1.00  0.00    -0.027 A 
HETATM   20  C26 UNL     1       1.703  54.729 -10.621  1.00  0.00     0.011 C 
HETATM   21  C27 UNL     1       0.837  53.685 -11.348  1.00  0.00     0.011 C 
HETATM   22  C28 UNL     1      -0.216  53.018 -10.461  1.00  0.00    -0.032 C 
HETATM   23  C29 UNL     1       0.490  51.912  -9.634  1.00  0.00     0.016 C 
ENDROOT
BRANCH   1  24
HETATM   24  C6  UNL     1      -1.332  51.219 -12.181  1.00  0.00    -0.011 C 
HETATM   25  C7  UNL     1      -2.111  50.030 -11.582  1.00  0.00     0.010 C 
BRANCH  24  26
HETATM   26  C5  UNL     1       0.024  50.732 -12.749  1.00  0.00     0.040 C 
BRANCH  26  27
HETATM   27  C4  UNL     1       0.078  50.037 -14.114  1.00  0.00     0.142 C 
BRANCH  27  28
HETATM   28  C3  UNL     1       0.447  51.030 -15.184  1.00  0.00     0.018 C 
HETATM   29  C2  UNL     1       1.654  51.577 -15.441  1.00  0.00     0.010 C 
HETATM   30  C1  UNL     1       2.927  51.313 -14.690  1.00  0.00     0.055 C 
BRANCH  29  31
HETATM   31  C30 UNL     1       1.821  52.547 -16.560  1.00  0.00     0.171 C 
HETATM   32  O3  UNL     1       1.083  52.637 -17.526  1.00  0.00    -0.646 OA
BRANCH  31  33
HETATM   33  O4  UNL     1       2.881  53.359 -16.427  1.00  0.00    -0.773 OA
HETATM   34  H46 UNL     1       2.841  53.927 -17.224  1.00  0.00     0.167 HD
ENDBRANCH  31  33
ENDBRANCH  29  31
ENDBRANCH  27  28
BRANCH  27  35
HETATM   35  O1  UNL     1      -1.203  49.525 -14.459  1.00  0.00    -0.392 OA
HETATM   36  H6  UNL     1      -1.165  49.243 -15.388  1.00  0.00     0.210 HD
ENDBRANCH  27  35
ENDBRANCH  26  27
ENDBRANCH  24  26
ENDBRANCH   1  24
TORSDOF 7
ENDMDL
MODEL 5
REMARK minimizedAffinity -9.847085
REMARK CNNscore 0.488087505
REMARK CNNaffinity 7.18334055
REMARK  7 active torsions:
REMARK  status: ('A' for Active; 'I' for Inactive)
REMARK    1  A    between atoms: C2_2  and  C30_32 
REMARK    2  A    between atoms: C3_3  and  C4_4 
REMARK    3  A    between atoms: C4_4  and  O1_5 
REMARK    4  A    between atoms: C4_4  and  C5_6 
REMARK    5  A    between atoms: C5_6  and  C6_7 
REMARK    6  A    between atoms: C6_7  and  C8_9 
REMARK    7  A    between atoms: C30_32  and  O4_34 
ROOT
HETATM    1  C8  UNL     1      -1.108  49.525 -18.143  1.00  0.00    -0.002 C 
HETATM    2  C9  UNL     1      -2.297  48.543 -18.240  1.00  0.00     0.006 C 
HETATM    3  C10 UNL     1      -2.748  48.534 -19.717  1.00  0.00     0.011 C 
HETATM    4  C11 UNL     1      -1.616  49.236 -20.497  1.00  0.00    -0.032 C 
HETATM    5  C12 UNL     1      -0.529  48.155 -20.790  1.00  0.00     0.016 C 
HETATM    6  C13 UNL     1      -2.054  49.911 -21.826  1.00  0.00     0.004 C 
HETATM    7  C14 UNL     1      -2.347  48.926 -22.968  1.00  0.00     0.007 C 
HETATM    8  C15 UNL     1      -2.872  49.680 -24.188  1.00  0.00     0.007 C 
HETATM    9  C16 UNL     1      -1.762  50.534 -24.814  1.00  0.00     0.010 C 
HETATM   10  C17 UNL     1      -2.218  51.415 -26.024  1.00  0.00     0.018 C 
HETATM   11  C18 UNL     1      -2.349  50.550 -27.292  1.00  0.00     0.023 C 
HETATM   12  C19 UNL     1      -3.555  52.137 -25.795  1.00  0.00     0.023 C 
HETATM   13  C20 UNL     1      -1.139  52.472 -26.316  1.00  0.00     0.135 C 
HETATM   14  O2  UNL     1      -1.373  53.484 -26.978  1.00  0.00    -0.297 OA
HETATM   15  C21 UNL     1       0.266  52.172 -25.856  1.00  0.00     0.080 C 
HETATM   16  C22 UNL     1       0.327  51.889 -24.359  1.00  0.00     0.018 C 
HETATM   17  C23 UNL     1      -0.986  51.366 -23.791  1.00  0.00    -0.026 A 
HETATM   18  C24 UNL     1      -1.726  52.274 -22.842  1.00  0.00     0.021 A 
HETATM   19  C25 UNL     1      -1.068  51.021 -22.278  1.00  0.00    -0.027 A 
HETATM   20  C26 UNL     1       0.201  51.236 -21.440  1.00  0.00     0.011 C 
HETATM   21  C27 UNL     1       0.132  50.954 -19.928  1.00  0.00     0.011 C 
HETATM   22  C28 UNL     1      -1.192  50.347 -19.464  1.00  0.00    -0.032 C 
HETATM   23  C29 UNL     1      -2.225  51.497 -19.334  1.00  0.00     0.016 C 
ENDROOT
BRANCH   1  24
HETATM   24  C6  UNL     1      -0.816  50.187 -16.767  1.00  0.00    -0.011 C 
HETATM   25  C7  UNL     1      -2.016  49.956 -15.826  1.00  0.00     0.010 C 
BRANCH  24  26
HETATM   26  C5  UNL     1      -0.317  51.648 -16.639  1.00  0.00     0.040 C 
BRANCH  26  27
HETATM   27  C4  UNL     1       1.187  51.944 -16.610  1.00  0.00     0.142 C 
BRANCH  27  28
HETATM   28  C3  UNL     1       1.830  51.234 -15.448  1.00  0.00     0.018 C 
HETATM   29  C2  UNL     1       3.117  51.281 -15.045  1.00  0.00     0.010 C 
HETATM   30  C1  UNL     1       4.222  52.067 -15.690  1.00  0.00     0.055 C 
BRANCH  29  31
HETATM   31  C30 UNL     1       3.565  50.504 -13.855  1.00  0.00     0.171 C 
HETATM   32  O3  UNL     1       2.879  50.263 -12.877  1.00  0.00    -0.646 OA
BRANCH  31  33
HETATM   33  O4  UNL     1       4.829  50.059 -13.936  1.00  0.00    -0.773 OA
HETATM   34  H46 UNL     1       4.958  49.572 -13.095  1.00  0.00     0.167 HD
ENDBRANCH  31  33
ENDBRANCH  29  31
ENDBRANCH  27  28
BRANCH  27  35
HETATM   35  O1  UNL     1       1.413  53.333 -16.412  1.00  0.00    -0.392 OA
HETATM   36  H6  UNL     1       2.361  53.453 -16.238  1.00  0.00     0.210 HD
ENDBRANCH  27  35
ENDBRANCH  26  27
ENDBRANCH  24  26
ENDBRANCH   1  24
TORSDOF 7
ENDMDL
MODEL 6
REMARK minimizedAffinity -7.38410616
REMARK CNNscore 0.456313968
REMARK CNNaffinity 6.45685339
REMARK  7 active torsions:
REMARK  status: ('A' for Active; 'I' for Inactive)
REMARK    1  A    between atoms: C2_2  and  C30_32 
REMARK    2  A    between atoms: C3_3  and  C4_4 
REMARK    3  A    between atoms: C4_4  and  O1_5 
REMARK    4  A    between atoms: C4_4  and  C5_6 
REMARK    5  A    between atoms: C5_6  and  C6_7 
REMARK    6  A    between atoms: C6_7  and  C8_9 
REMARK    7  A    between atoms: C30_32  and  O4_34 
ROOT
HETATM    1  C8  UNL     1       2.013  53.370 -11.005  1.00  0.00    -0.002 C 
HETATM    2  C9  UNL     1       0.911  54.449 -10.906  1.00  0.00     0.006 C 
HETATM    3  C10 UNL     1       1.420  55.515  -9.911  1.00  0.00     0.011 C 
HETATM    4  C11 UNL     1       2.922  55.213  -9.717  1.00  0.00    -0.032 C 
HETATM    5  C12 UNL     1       3.679  55.907 -10.893  1.00  0.00     0.016 C 
HETATM    6  C13 UNL     1       3.516  55.685  -8.362  1.00  0.00     0.004 C 
HETATM    7  C14 UNL     1       3.720  57.204  -8.255  1.00  0.00     0.007 C 
HETATM    8  C15 UNL     1       4.203  57.571  -6.853  1.00  0.00     0.007 C 
HETATM    9  C16 UNL     1       5.634  57.066  -6.626  1.00  0.00     0.010 C 
HETATM   10  C17 UNL     1       6.196  57.317  -5.188  1.00  0.00     0.018 C 
HETATM   11  C18 UNL     1       6.626  58.787  -5.033  1.00  0.00     0.023 C 
HETATM   12  C19 UNL     1       5.196  56.989  -4.067  1.00  0.00     0.023 C 
HETATM   13  C20 UNL     1       7.456  56.460  -4.979  1.00  0.00     0.135 C 
HETATM   14  O2  UNL     1       7.902  56.208  -3.859  1.00  0.00    -0.297 OA
HETATM   15  C21 UNL     1       8.208  56.024  -6.213  1.00  0.00     0.080 C 
HETATM   16  C22 UNL     1       7.315  55.258  -7.182  1.00  0.00     0.018 C 
HETATM   17  C23 UNL     1       5.839  55.611  -7.049  1.00  0.00    -0.026 A 
HETATM   18  C24 UNL     1       4.928  54.535  -6.515  1.00  0.00     0.021 A 
HETATM   19  C25 UNL     1       4.811  54.916  -7.986  1.00  0.00    -0.027 A 
HETATM   20  C26 UNL     1       5.360  53.899  -8.998  1.00  0.00     0.011 C 
HETATM   21  C27 UNL     1       4.358  53.156  -9.900  1.00  0.00     0.011 C 
HETATM   22  C28 UNL     1       2.914  53.640  -9.763  1.00  0.00    -0.032 C 
HETATM   23  C29 UNL     1       2.311  52.987  -8.492  1.00  0.00     0.016 C 
ENDROOT
BRANCH   1  24
HETATM   24  C6  UNL     1       1.596  51.937 -11.437  1.00  0.00    -0.011 C 
HETATM   25  C7  UNL     1       2.699  51.332 -12.330  1.00  0.00     0.010 C 
BRANCH  24  26
HETATM   26  C5  UNL     1       0.201  51.622 -12.032  1.00  0.00     0.040 C 
BRANCH  26  27
HETATM   27  C4  UNL     1      -0.076  51.886 -13.516  1.00  0.00     0.142 C 
BRANCH  27  28
HETATM   28  C3  UNL     1       0.334  50.693 -14.338  1.00  0.00     0.018 C 
HETATM   29  C2  UNL     1      -0.455  49.806 -14.982  1.00  0.00     0.010 C 
HETATM   30  C1  UNL     1      -1.956  49.812 -15.013  1.00  0.00     0.055 C 
BRANCH  29  31
HETATM   31  C30 UNL     1       0.145  48.683 -15.756  1.00  0.00     0.171 C 
HETATM   32  O3  UNL     1       1.074  47.990 -15.379  1.00  0.00    -0.646 OA
BRANCH  31  33
HETATM   33  O4  UNL     1      -0.434  48.468 -16.947  1.00  0.00    -0.773 OA
HETATM   34  H46 UNL     1       0.063  47.708 -17.314  1.00  0.00     0.167 HD
ENDBRANCH  31  33
ENDBRANCH  29  31
ENDBRANCH  27  28
BRANCH  27  35
HETATM   35  O1  UNL     1       0.703  52.983 -13.977  1.00  0.00    -0.392 OA
HETATM   36  H6  UNL     1       0.624  53.012 -14.945  1.00  0.00     0.210 HD
ENDBRANCH  27  35
ENDBRANCH  26  27
ENDBRANCH  24  26
ENDBRANCH   1  24
TORSDOF 7
ENDMDL
MODEL 7
REMARK minimizedAffinity -7.76925611
REMARK CNNscore 0.440315425
REMARK CNNaffinity 6.34584379
REMARK  7 active torsions:
REMARK  status: ('A' for Active; 'I' for Inactive)
REMARK    1  A    between atoms: C2_2  and  C30_32 
REMARK    2  A    between atoms: C3_3  and  C4_4 
REMARK    3  A    between atoms: C4_4  and  O1_5 
REMARK    4  A    between atoms: C4_4  and  C5_6 
REMARK    5  A    between atoms: C5_6  and  C6_7 
REMARK    6  A    between atoms: C6_7  and  C8_9 
REMARK    7  A    between atoms: C30_32  and  O4_34 
ROOT
HETATM    1  C8  UNL     1       5.180  64.162 -35.370  1.00  0.00    -0.002 C 
HETATM    2  C9  UNL     1       4.031  64.882 -34.630  1.00  0.00     0.006 C 
HETATM    3  C10 UNL     1       4.140  66.380 -34.990  1.00  0.00     0.011 C 
HETATM    4  C11 UNL     1       5.121  66.447 -36.180  1.00  0.00    -0.032 C 
HETATM    5  C12 UNL     1       4.290  66.166 -37.470  1.00  0.00     0.016 C 
HETATM    6  C13 UNL     1       5.880  67.794 -36.330  1.00  0.00     0.004 C 
HETATM    7  C14 UNL     1       5.020  68.949 -36.865  1.00  0.00     0.007 C 
HETATM    8  C15 UNL     1       5.827  70.245 -36.870  1.00  0.00     0.007 C 
HETATM    9  C16 UNL     1       6.933  70.188 -37.933  1.00  0.00     0.010 C 
HETATM   10  C17 UNL     1       7.875  71.436 -37.965  1.00  0.00     0.018 C 
HETATM   11  C18 UNL     1       7.175  72.612 -38.672  1.00  0.00     0.023 C 
HETATM   12  C19 UNL     1       8.321  71.911 -36.572  1.00  0.00     0.023 C 
HETATM   13  C20 UNL     1       9.129  71.104 -38.790  1.00  0.00     0.135 C 
HETATM   14  O2  UNL     1      10.165  71.765 -38.707  1.00  0.00    -0.297 OA
HETATM   15  C21 UNL     1       9.015  69.993 -39.805  1.00  0.00     0.080 C 
HETATM   16  C22 UNL     1       8.552  68.687 -39.170  1.00  0.00     0.018 C 
HETATM   17  C23 UNL     1       7.743  68.891 -37.896  1.00  0.00    -0.026 A 
HETATM   18  C24 UNL     1       8.378  68.435 -36.607  1.00  0.00     0.021 A 
HETATM   19  C25 UNL     1       7.192  67.645 -37.146  1.00  0.00    -0.027 A 
HETATM   20  C26 UNL     1       7.509  66.268 -37.748  1.00  0.00     0.011 C 
HETATM   21  C27 UNL     1       7.022  65.016 -36.996  1.00  0.00     0.011 C 
HETATM   22  C28 UNL     1       6.142  65.316 -35.783  1.00  0.00    -0.032 C 
HETATM   23  C29 UNL     1       7.072  65.707 -34.605  1.00  0.00     0.016 C 
ENDROOT
BRANCH   1  24
HETATM   24  C6  UNL     1       5.695  62.816 -34.787  1.00  0.00    -0.011 C 
HETATM   25  C7  UNL     1       4.615  62.213 -33.865  1.00  0.00     0.010 C 
BRANCH  24  26
HETATM   26  C5  UNL     1       7.091  62.677 -34.129  1.00  0.00     0.040 C 
BRANCH  26  27
HETATM   27  C4  UNL     1       7.884  61.375 -34.284  1.00  0.00     0.142 C 
BRANCH  27  28
HETATM   28  C3  UNL     1       8.974  61.309 -33.247  1.00  0.00     0.018 C 
HETATM   29  C2  UNL     1       9.931  62.222 -32.977  1.00  0.00     0.010 C 
HETATM   30  C1  UNL     1      10.128  63.536 -33.676  1.00  0.00     0.055 C 
BRANCH  29  31
HETATM   31  C30 UNL     1      10.927  61.975 -31.896  1.00  0.00     0.171 C 
HETATM   32  O3  UNL     1      10.944  60.998 -31.168  1.00  0.00    -0.646 OA
BRANCH  31  33
HETATM   33  O4  UNL     1      11.853  62.939 -31.774  1.00  0.00    -0.773 OA
HETATM   34  H46 UNL     1      12.422  62.624 -31.042  1.00  0.00     0.167 HD
ENDBRANCH  31  33
ENDBRANCH  29  31
ENDBRANCH  27  28
BRANCH  27  35
HETATM   35  O1  UNL     1       8.528  61.336 -35.551  1.00  0.00    -0.392 OA
HETATM   36  H6  UNL     1       9.143  60.584 -35.544  1.00  0.00     0.210 HD
ENDBRANCH  27  35
ENDBRANCH  26  27
ENDBRANCH  24  26
ENDBRANCH   1  24
TORSDOF 7
ENDMDL
MODEL 8
REMARK minimizedAffinity -7.67123508
REMARK CNNscore 0.397384644
REMARK CNNaffinity 6.59851694
REMARK  7 active torsions:
REMARK  status: ('A' for Active; 'I' for Inactive)
REMARK    1  A    between atoms: C2_2  and  C30_32 
REMARK    2  A    between atoms: C3_3  and  C4_4 
REMARK    3  A    between atoms: C4_4  and  O1_5 
REMARK    4  A    between atoms: C4_4  and  C5_6 
REMARK    5  A    between atoms: C5_6  and  C6_7 
REMARK    6  A    between atoms: C6_7  and  C8_9 
REMARK    7  A    between atoms: C30_32  and  O4_34 
ROOT
HETATM    1  C8  UNL     1      -3.599  49.034 -22.827  1.00  0.00    -0.002 C 
HETATM    2  C9  UNL     1      -4.166  48.530 -24.173  1.00  0.00     0.006 C 
HETATM    3  C10 UNL     1      -5.614  48.068 -23.902  1.00  0.00     0.011 C 
HETATM    4  C11 UNL     1      -5.966  48.621 -22.504  1.00  0.00    -0.032 C 
HETATM    5  C12 UNL     1      -6.442  50.093 -22.705  1.00  0.00     0.016 C 
HETATM    6  C13 UNL     1      -7.055  47.820 -21.737  1.00  0.00     0.004 C 
HETATM    7  C14 UNL     1      -8.481  48.021 -22.270  1.00  0.00     0.007 C 
HETATM    8  C15 UNL     1      -9.454  47.111 -21.522  1.00  0.00     0.007 C 
HETATM    9  C16 UNL     1      -9.617  47.575 -20.068  1.00  0.00     0.010 C 
HETATM   10  C17 UNL     1     -10.529  46.659 -19.188  1.00  0.00     0.018 C 
HETATM   11  C18 UNL     1     -12.013  46.927 -19.502  1.00  0.00     0.023 C 
HETATM   12  C19 UNL     1     -10.263  45.156 -19.376  1.00  0.00     0.023 C 
HETATM   13  C20 UNL     1     -10.318  47.008 -17.705  1.00  0.00     0.135 C 
HETATM   14  O2  UNL     1     -10.645  46.243 -16.797  1.00  0.00    -0.297 OA
HETATM   15  C21 UNL     1      -9.793  48.386 -17.387  1.00  0.00     0.080 C 
HETATM   16  C22 UNL     1      -8.473  48.670 -18.094  1.00  0.00     0.018 C 
HETATM   17  C23 UNL     1      -8.286  47.857 -19.369  1.00  0.00    -0.026 A 
HETATM   18  C24 UNL     1      -7.204  46.808 -19.354  1.00  0.00     0.021 A 
HETATM   19  C25 UNL     1      -6.989  48.054 -20.204  1.00  0.00    -0.027 A 
HETATM   20  C26 UNL     1      -5.963  49.068 -19.677  1.00  0.00     0.011 C 
HETATM   21  C27 UNL     1      -4.646  49.242 -20.455  1.00  0.00     0.011 C 
HETATM   22  C28 UNL     1      -4.585  48.459 -21.767  1.00  0.00    -0.032 C 
HETATM   23  C29 UNL     1      -4.233  46.987 -21.427  1.00  0.00     0.016 C 
ENDROOT
BRANCH   1  24
HETATM   24  C6  UNL     1      -2.058  49.014 -22.629  1.00  0.00    -0.011 C 
HETATM   25  C7  UNL     1      -1.730  48.413 -21.246  1.00  0.00     0.010 C 
BRANCH  24  26
HETATM   26  C5  UNL     1      -1.171  50.257 -22.890  1.00  0.00     0.040 C 
BRANCH  26  27
HETATM   27  C4  UNL     1      -1.778  51.662 -22.812  1.00  0.00     0.142 C 
BRANCH  27  28
HETATM   28  C3  UNL     1      -0.689  52.684 -22.623  1.00  0.00     0.018 C 
HETATM   29  C2  UNL     1       0.171  52.813 -21.590  1.00  0.00     0.010 C 
HETATM   30  C1  UNL     1       0.224  51.945 -20.366  1.00  0.00     0.055 C 
BRANCH  29  31
HETATM   31  C30 UNL     1       1.193  53.897 -21.588  1.00  0.00     0.171 C 
HETATM   32  O3  UNL     1       1.773  54.312 -20.600  1.00  0.00    -0.646 OA
BRANCH  31  33
HETATM   33  O4  UNL     1       1.454  54.406 -22.802  1.00  0.00    -0.773 OA
HETATM   34  H46 UNL     1       2.138  55.085 -22.628  1.00  0.00     0.167 HD
ENDBRANCH  31  33
ENDBRANCH  29  31
ENDBRANCH  27  28
BRANCH  27  35
HETATM   35  O1  UNL     1      -2.634  51.768 -21.682  1.00  0.00    -0.392 OA
HETATM   36  H6  UNL     1      -2.865  52.706 -21.577  1.00  0.00     0.210 HD
ENDBRANCH  27  35
ENDBRANCH  26  27
ENDBRANCH  24  26
ENDBRANCH   1  24
TORSDOF 7
ENDMDL
MODEL 9
REMARK minimizedAffinity -9.55935192
REMARK CNNscore 0.368880957
REMARK CNNaffinity 6.86425829
REMARK  7 active torsions:
REMARK  status: ('A' for Active; 'I' for Inactive)
REMARK    1  A    between atoms: C2_2  and  C30_32 
REMARK    2  A    between atoms: C3_3  and  C4_4 
REMARK    3  A    between atoms: C4_4  and  O1_5 
REMARK    4  A    between atoms: C4_4  and  C5_6 
REMARK    5  A    between atoms: C5_6  and  C6_7 
REMARK    6  A    between atoms: C6_7  and  C8_9 
REMARK    7  A    between atoms: C30_32  and  O4_34 
ROOT
HETATM    1  C8  UNL     1      -0.318  51.672 -17.740  1.00  0.00    -0.002 C 
HETATM    2  C9  UNL     1       1.168  52.090 -17.810  1.00  0.00     0.006 C 
HETATM    3  C10 UNL     1       1.476  52.394 -19.292  1.00  0.00     0.011 C 
HETATM    4  C11 UNL     1       0.101  52.475 -19.990  1.00  0.00    -0.032 C 
HETATM    5  C12 UNL     1      -0.434  53.925 -19.772  1.00  0.00     0.016 C 
HETATM    6  C13 UNL     1       0.115  52.145 -21.508  1.00  0.00     0.004 C 
HETATM    7  C14 UNL     1       0.722  53.247 -22.389  1.00  0.00     0.007 C 
HETATM    8  C15 UNL     1       0.787  52.780 -23.842  1.00  0.00     0.007 C 
HETATM    9  C16 UNL     1      -0.623  52.672 -24.438  1.00  0.00     0.010 C 
HETATM   10  C17 UNL     1      -0.674  52.119 -25.900  1.00  0.00     0.018 C 
HETATM   11  C18 UNL     1      -0.272  53.220 -26.900  1.00  0.00     0.023 C 
HETATM   12  C19 UNL     1       0.236  50.902 -26.134  1.00  0.00     0.023 C 
HETATM   13  C20 UNL     1      -2.119  51.716 -26.239  1.00  0.00     0.135 C 
HETATM   14  O2  UNL     1      -2.389  50.962 -27.175  1.00  0.00    -0.297 OA
HETATM   15  C21 UNL     1      -3.224  52.375 -25.450  1.00  0.00     0.080 C 
HETATM   16  C22 UNL     1      -3.054  52.166 -23.950  1.00  0.00     0.018 C 
HETATM   17  C23 UNL     1      -1.608  51.927 -23.535  1.00  0.00    -0.026 A 
HETATM   18  C24 UNL     1      -1.266  50.553 -23.019  1.00  0.00     0.021 A 
HETATM   19  C25 UNL     1      -1.281  51.712 -22.031  1.00  0.00    -0.027 A 
HETATM   20  C26 UNL     1      -2.459  51.751 -21.045  1.00  0.00     0.011 C 
HETATM   21  C27 UNL     1      -2.171  51.487 -19.556  1.00  0.00     0.011 C 
HETATM   22  C28 UNL     1      -0.686  51.350 -19.220  1.00  0.00    -0.032 C 
HETATM   23  C29 UNL     1      -0.242  49.913 -19.599  1.00  0.00     0.016 C 
ENDROOT
BRANCH   1  24
HETATM   24  C6  UNL     1      -0.770  50.774 -16.555  1.00  0.00    -0.011 C 
HETATM   25  C7  UNL     1      -2.288  50.518 -16.660  1.00  0.00     0.010 C 
BRANCH  24  26
HETATM   26  C5  UNL     1      -0.385  51.082 -15.086  1.00  0.00     0.040 C 
BRANCH  26  27
HETATM   27  C4  UNL     1       0.933  51.798 -14.774  1.00  0.00     0.142 C 
BRANCH  27  28
HETATM   28  C3  UNL     1       1.910  50.833 -14.155  1.00  0.00     0.018 C 
HETATM   29  C2  UNL     1       3.241  50.740 -14.360  1.00  0.00     0.010 C 
HETATM   30  C1  UNL     1       4.060  51.597 -15.282  1.00  0.00     0.055 C 
BRANCH  29  31
HETATM   31  C30 UNL     1       4.046  49.712 -13.643  1.00  0.00     0.171 C 
HETATM   32  O3  UNL     1       5.047  49.939 -12.985  1.00  0.00    -0.646 OA
BRANCH  31  33
HETATM   33  O4  UNL     1       3.572  48.462 -13.764  1.00  0.00    -0.773 OA
HETATM   34  H46 UNL     1       4.198  47.923 -13.238  1.00  0.00     0.167 HD
ENDBRANCH  31  33
ENDBRANCH  29  31
ENDBRANCH  27  28
BRANCH  27  35
HETATM   35  O1  UNL     1       0.721  52.829 -13.817  1.00  0.00    -0.392 OA
HETATM   36  H6  UNL     1       1.593  53.143 -13.528  1.00  0.00     0.210 HD
ENDBRANCH  27  35
ENDBRANCH  26  27
ENDBRANCH  24  26
ENDBRANCH   1  24
TORSDOF 7
ENDMDL
