MODEL 1
REMARK minimizedAffinity -7.34795523
REMARK CNNscore 0.683130443
REMARK CNNaffinity 6.91558838
REMARK  10 active torsions:
REMARK  status: ('A' for Active; 'I' for Inactive)
REMARK    1  A    between atoms: C3_3  and  O1_4 
REMARK    2  A    between atoms: N1_14  and  O2_16 
REMARK    3  A    between atoms: O2_16  and  C13_17 
REMARK    4  A    between atoms: C13_17  and  C14_18 
REMARK       I    between atoms: C14_18  and  N2_20 
REMARK    5  A    between atoms: N2_20  and  C15_21 
REMARK    6  A    between atoms: C15_21  and  C16_22 
REMARK    7  A    between atoms: C15_21  and  C19_29 
REMARK       I    between atoms: C16_22  and  N3_24 
REMARK    8  A    between atoms: N3_24  and  C17_25 
REMARK    9  A    between atoms: C17_25  and  C18_26 
REMARK   10  A    between atoms: C18_26  and  O6_28 
ROOT
HETATM    1  C1  UNL     1      -5.612  17.515   6.362  1.00  0.00     0.015 C 
HETATM    2  C2  UNL     1      -4.544  17.515   5.808  1.00  0.00    -0.078 C 
HETATM    3  C3  UNL     1      -3.251  17.469   5.105  1.00  0.00     0.128 C 
HETATM    4  C4  UNL     1      -2.732  18.862   4.752  1.00  0.00     0.052 C 
HETATM    5  C5  UNL     1      -1.282  18.595   4.368  1.00  0.00     0.010 C 
HETATM    6  C6  UNL     1      -0.788  17.487   5.325  1.00  0.00     0.002 C 
HETATM    7  C7  UNL     1       0.187  16.508   4.633  1.00  0.00    -0.004 C 
HETATM    8  C8  UNL     1       1.153  15.844   5.643  1.00  0.00     0.010 C 
HETATM    9  C9  UNL     1       1.702  14.489   5.183  1.00  0.00     0.035 C 
HETATM   10  C10 UNL     1       1.797  14.429   3.683  1.00  0.00    -0.069 C 
HETATM   11  C11 UNL     1       2.990  14.309   3.077  1.00  0.00     0.030 C 
HETATM   12  C12 UNL     1       3.118  14.343   1.599  1.00  0.00     0.032 C 
HETATM   13  N1  UNL     1       4.266  14.004   1.085  1.00  0.00    -0.271 N 
ATOM     14  H1  UNL     1       5.086  13.748   1.634  1.00  0.00     0.194 HD
HETATM   15  C22 UNL     1       1.910  14.743   0.770  1.00  0.00     0.060 C 
HETATM   16  C23 UNL     1       0.810  15.387   1.611  1.00  0.00     0.020 C 
HETATM   17  C24 UNL     1       0.485  14.608   2.919  1.00  0.00    -0.016 C 
HETATM   18  C25 UNL     1      -0.086  13.224   2.536  1.00  0.00     0.020 C 
HETATM   19  C26 UNL     1      -0.545  15.458   3.770  1.00  0.00     0.002 C 
HETATM   20  C27 UNL     1      -1.540  14.635   4.619  1.00  0.00     0.007 C 
HETATM   21  C28 UNL     1      -2.061  15.305   5.895  1.00  0.00     0.014 C 
HETATM   22  C29 UNL     1      -2.079  16.844   5.930  1.00  0.00     0.003 C 
HETATM   23  C30 UNL     1      -2.153  17.270   7.425  1.00  0.00     0.020 C 
ENDROOT
BRANCH   3  24
HETATM   24  O1  UNL     1      -3.449  16.763   3.880  1.00  0.00    -0.377 OA
HETATM   25  H2  UNL     1      -4.260  17.115   3.478  1.00  0.00     0.211 HD
ENDBRANCH   3  24
BRANCH  13  26
HETATM   26  O2  UNL     1       4.235  14.036  -0.316  1.00  0.00    -0.271 OA
BRANCH  26  27
HETATM   27  C13 UNL     1       5.519  13.658  -0.801  1.00  0.00     0.303 C 
BRANCH  27  28
HETATM   28  C14 UNL     1       5.354  12.746  -2.007  1.00  0.00     0.244 C 
HETATM   29  O3  UNL     1       5.727  11.575  -2.017  1.00  0.00    -0.271 OA
HETATM   30  N2  UNL     1       4.828  13.357  -3.126  1.00  0.00    -0.346 N 
HETATM   31  H16 UNL     1       4.633  14.351  -3.070  1.00  0.00     0.163 HD
BRANCH  30  32
HETATM   32  C15 UNL     1       4.495  12.630  -4.360  1.00  0.00     0.180 C 
BRANCH  32  33
HETATM   33  C16 UNL     1       5.503  12.900  -5.514  1.00  0.00     0.241 C 
HETATM   34  O4  UNL     1       5.721  14.019  -5.976  1.00  0.00    -0.271 OA
HETATM   35  N3  UNL     1       6.043  11.771  -6.087  1.00  0.00    -0.349 N 
HETATM   36  H18 UNL     1       5.617  10.877  -5.856  1.00  0.00     0.163 HD
BRANCH  35  37
HETATM   37  C17 UNL     1       6.844  11.835  -7.295  1.00  0.00     0.232 C 
BRANCH  37  38
HETATM   38  C18 UNL     1       7.752  10.623  -7.381  1.00  0.00     0.158 C 
HETATM   39  O5  UNL     1       7.432   9.492  -7.716  1.00  0.00    -0.649 OA
BRANCH  38  40
HETATM   40  O6  UNL     1       9.029  10.904  -7.053  1.00  0.00    -0.775 OA
HETATM   41  H21 UNL     1       9.500  10.052  -7.161  1.00  0.00     0.167 HD
ENDBRANCH  38  40
ENDBRANCH  37  38
ENDBRANCH  35  37
ENDBRANCH  32  33
BRANCH  32  42
HETATM   42  C19 UNL     1       3.017  12.896  -4.736  1.00  0.00     0.009 C 
HETATM   43  C20 UNL     1       2.244  13.656  -3.653  1.00  0.00     0.012 C 
HETATM   44  C21 UNL     1       2.871  13.600  -6.088  1.00  0.00     0.012 C 
ENDBRANCH  32  42
ENDBRANCH  30  32
ENDBRANCH  27  28
ENDBRANCH  26  27
ENDBRANCH  13  26
TORSDOF 10
ENDMDL
MODEL 2
REMARK minimizedAffinity -8.36602306
REMARK CNNscore 0.541695952
REMARK CNNaffinity 6.80645514
REMARK  10 active torsions:
REMARK  status: ('A' for Active; 'I' for Inactive)
REMARK    1  A    between atoms: C3_3  and  O1_4 
REMARK    2  A    between atoms: N1_14  and  O2_16 
REMARK    3  A    between atoms: O2_16  and  C13_17 
REMARK    4  A    between atoms: C13_17  and  C14_18 
REMARK       I    between atoms: C14_18  and  N2_20 
REMARK    5  A    between atoms: N2_20  and  C15_21 
REMARK    6  A    between atoms: C15_21  and  C16_22 
REMARK    7  A    between atoms: C15_21  and  C19_29 
REMARK       I    between atoms: C16_22  and  N3_24 
REMARK    8  A    between atoms: N3_24  and  C17_25 
REMARK    9  A    between atoms: C17_25  and  C18_26 
REMARK   10  A    between atoms: C18_26  and  O6_28 
ROOT
HETATM    1  C1  UNL     1      -7.800   6.344  15.473  1.00  0.00     0.015 C 
HETATM    2  C2  UNL     1      -6.631   6.351  15.190  1.00  0.00    -0.078 C 
HETATM    3  C3  UNL     1      -5.189   6.381  14.892  1.00  0.00     0.128 C 
HETATM    4  C4  UNL     1      -4.745   5.189  14.046  1.00  0.00     0.052 C 
HETATM    5  C5  UNL     1      -3.354   5.602  13.584  1.00  0.00     0.010 C 
HETATM    6  C6  UNL     1      -3.429   7.123  13.321  1.00  0.00     0.002 C 
HETATM    7  C7  UNL     1      -2.121   7.848  13.709  1.00  0.00    -0.004 C 
HETATM    8  C8  UNL     1      -1.921   9.151  12.899  1.00  0.00     0.010 C 
HETATM    9  C9  UNL     1      -1.039  10.192  13.597  1.00  0.00     0.035 C 
HETATM   10  C10 UNL     1      -0.022   9.526  14.484  1.00  0.00    -0.069 C 
HETATM   11  C11 UNL     1       1.291   9.640  14.226  1.00  0.00     0.030 C 
HETATM   12  C12 UNL     1       2.307   8.915  15.029  1.00  0.00     0.032 C 
HETATM   13  N1  UNL     1       3.556   9.243  14.860  1.00  0.00    -0.271 N 
ATOM     14  H1  UNL     1       3.879   9.943  14.191  1.00  0.00     0.194 HD
HETATM   15  C22 UNL     1       1.841   7.857  16.013  1.00  0.00     0.060 C 
HETATM   16  C23 UNL     1       0.386   7.450  15.791  1.00  0.00     0.020 C 
HETATM   17  C24 UNL     1      -0.581   8.656  15.610  1.00  0.00    -0.016 C 
HETATM   18  C25 UNL     1      -0.607   9.464  16.928  1.00  0.00     0.020 C 
HETATM   19  C26 UNL     1      -2.015   8.100  15.228  1.00  0.00     0.002 C 
HETATM   20  C27 UNL     1      -3.207   8.941  15.739  1.00  0.00     0.007 C 
HETATM   21  C28 UNL     1      -4.489   8.878  14.903  1.00  0.00     0.014 C 
HETATM   22  C29 UNL     1      -4.720   7.616  14.053  1.00  0.00     0.003 C 
HETATM   23  C30 UNL     1      -5.764   7.981  12.958  1.00  0.00     0.020 C 
ENDROOT
BRANCH   3  24
HETATM   24  O1  UNL     1      -4.489   6.310  16.134  1.00  0.00    -0.377 OA
HETATM   25  H2  UNL     1      -4.909   5.606  16.656  1.00  0.00     0.211 HD
ENDBRANCH   3  24
BRANCH  13  26
HETATM   26  O2  UNL     1       4.402   8.517  15.709  1.00  0.00    -0.271 OA
BRANCH  26  27
HETATM   27  C13 UNL     1       5.306   7.766  14.906  1.00  0.00     0.303 C 
BRANCH  27  28
HETATM   28  C14 UNL     1       6.650   8.477  14.860  1.00  0.00     0.244 C 
HETATM   29  O3  UNL     1       6.857   9.472  14.168  1.00  0.00    -0.271 OA
HETATM   30  N2  UNL     1       7.650   7.871  15.590  1.00  0.00    -0.346 N 
HETATM   31  H16 UNL     1       7.427   7.000  16.059  1.00  0.00     0.163 HD
BRANCH  30  32
HETATM   32  C15 UNL     1       8.991   8.453  15.759  1.00  0.00     0.180 C 
BRANCH  32  33
HETATM   33  C16 UNL     1       9.010   9.653  16.749  1.00  0.00     0.241 C 
HETATM   34  O4  UNL     1       8.095  10.468  16.845  1.00  0.00    -0.271 OA
HETATM   35  N3  UNL     1      10.197   9.824  17.426  1.00  0.00    -0.349 N 
HETATM   36  H18 UNL     1      11.004   9.297  17.102  1.00  0.00     0.163 HD
BRANCH  35  37
HETATM   37  C17 UNL     1      10.451  11.000  18.236  1.00  0.00     0.232 C 
BRANCH  37  38
HETATM   38  C18 UNL     1      11.744  10.828  19.012  1.00  0.00     0.158 C 
HETATM   39  O5  UNL     1      11.859  10.707  20.222  1.00  0.00    -0.649 OA
BRANCH  38  40
HETATM   40  O6  UNL     1      12.830  10.799  18.214  1.00  0.00    -0.775 OA
HETATM   41  H21 UNL     1      13.580  10.674  18.832  1.00  0.00     0.167 HD
ENDBRANCH  38  40
ENDBRANCH  37  38
ENDBRANCH  35  37
ENDBRANCH  32  33
BRANCH  32  42
HETATM   42  C19 UNL     1       9.597   8.768  14.370  1.00  0.00     0.009 C 
HETATM   43  C20 UNL     1       9.981  10.241  14.197  1.00  0.00     0.012 C 
HETATM   44  C21 UNL     1      10.785   7.864  14.028  1.00  0.00     0.012 C 
ENDBRANCH  32  42
ENDBRANCH  30  32
ENDBRANCH  27  28
ENDBRANCH  26  27
ENDBRANCH  13  26
TORSDOF 10
ENDMDL
MODEL 3
REMARK minimizedAffinity -8.28762436
REMARK CNNscore 0.400874138
REMARK CNNaffinity 7.16819239
REMARK  10 active torsions:
REMARK  status: ('A' for Active; 'I' for Inactive)
REMARK    1  A    between atoms: C3_3  and  O1_4 
REMARK    2  A    between atoms: N1_14  and  O2_16 
REMARK    3  A    between atoms: O2_16  and  C13_17 
REMARK    4  A    between atoms: C13_17  and  C14_18 
REMARK       I    between atoms: C14_18  and  N2_20 
REMARK    5  A    between atoms: N2_20  and  C15_21 
REMARK    6  A    between atoms: C15_21  and  C16_22 
REMARK    7  A    between atoms: C15_21  and  C19_29 
REMARK       I    between atoms: C16_22  and  N3_24 
REMARK    8  A    between atoms: N3_24  and  C17_25 
REMARK    9  A    between atoms: C17_25  and  C18_26 
REMARK   10  A    between atoms: C18_26  and  O6_28 
ROOT
HETATM    1  C1  UNL     1     -10.943   7.348  13.698  1.00  0.00     0.015 C 
HETATM    2  C2  UNL     1      -9.857   7.110  14.159  1.00  0.00    -0.078 C 
HETATM    3  C3  UNL     1      -8.510   6.865  14.701  1.00  0.00     0.128 C 
HETATM    4  C4  UNL     1      -8.549   6.177  16.064  1.00  0.00     0.052 C 
HETATM    5  C5  UNL     1      -7.107   5.723  16.255  1.00  0.00     0.010 C 
HETATM    6  C6  UNL     1      -6.612   5.287  14.858  1.00  0.00     0.002 C 
HETATM    7  C7  UNL     1      -5.126   5.638  14.628  1.00  0.00    -0.004 C 
HETATM    8  C8  UNL     1      -4.461   4.694  13.599  1.00  0.00     0.010 C 
HETATM    9  C9  UNL     1      -3.250   5.302  12.884  1.00  0.00     0.035 C 
HETATM   10  C10 UNL     1      -2.547   6.297  13.768  1.00  0.00    -0.069 C 
HETATM   11  C11 UNL     1      -1.288   6.076  14.180  1.00  0.00     0.030 C 
HETATM   12  C12 UNL     1      -0.609   6.994  15.128  1.00  0.00     0.032 C 
HETATM   13  N1  UNL     1       0.671   6.836  15.309  1.00  0.00    -0.271 N 
ATOM     14  H1  UNL     1       1.226   6.104  14.864  1.00  0.00     0.194 HD
HETATM   15  C22 UNL     1      -1.428   8.074  15.813  1.00  0.00     0.060 C 
HETATM   16  C23 UNL     1      -2.932   7.844  15.676  1.00  0.00     0.020 C 
HETATM   17  C24 UNL     1      -3.381   7.492  14.228  1.00  0.00    -0.016 C 
HETATM   18  C25 UNL     1      -3.095   8.707  13.317  1.00  0.00     0.020 C 
HETATM   19  C26 UNL     1      -4.922   7.122  14.254  1.00  0.00     0.002 C 
HETATM   20  C27 UNL     1      -5.711   7.489  12.977  1.00  0.00     0.007 C 
HETATM   21  C28 UNL     1      -6.931   6.618  12.659  1.00  0.00     0.014 C 
HETATM   22  C29 UNL     1      -7.622   5.909  13.838  1.00  0.00     0.003 C 
HETATM   23  C30 UNL     1      -8.463   4.741  13.246  1.00  0.00     0.020 C 
ENDROOT
BRANCH   3  24
HETATM   24  O1  UNL     1      -7.877   8.132  14.878  1.00  0.00    -0.377 OA
HETATM   25  H2  UNL     1      -8.526   8.714  15.308  1.00  0.00     0.211 HD
ENDBRANCH   3  24
BRANCH  13  26
HETATM   26  O2  UNL     1       1.192   7.793  16.190  1.00  0.00    -0.271 OA
BRANCH  26  27
HETATM   27  C13 UNL     1       2.538   8.063  15.814  1.00  0.00     0.303 C 
BRANCH  27  28
HETATM   28  C14 UNL     1       2.621   8.195  14.300  1.00  0.00     0.244 C 
HETATM   29  O3  UNL     1       2.325   9.226  13.701  1.00  0.00    -0.271 OA
HETATM   30  N2  UNL     1       2.975   7.038  13.639  1.00  0.00    -0.346 N 
HETATM   31  H16 UNL     1       3.113   6.201  14.196  1.00  0.00     0.163 HD
BRANCH  30  32
HETATM   32  C15 UNL     1       3.210   6.979  12.187  1.00  0.00     0.180 C 
BRANCH  32  33
HETATM   33  C16 UNL     1       4.654   7.400  11.790  1.00  0.00     0.241 C 
HETATM   34  O4  UNL     1       5.412   6.688  11.132  1.00  0.00    -0.271 OA
HETATM   35  N3  UNL     1       5.085   8.584  12.346  1.00  0.00    -0.349 N 
HETATM   36  H18 UNL     1       4.526   8.981  13.097  1.00  0.00     0.163 HD
BRANCH  35  37
HETATM   37  C17 UNL     1       6.464   9.022  12.238  1.00  0.00     0.232 C 
BRANCH  37  38
HETATM   38  C18 UNL     1       6.603  10.024  11.108  1.00  0.00     0.158 C 
HETATM   39  O5  UNL     1       7.376   9.958  10.164  1.00  0.00    -0.649 OA
BRANCH  38  40
HETATM   40  O6  UNL     1       5.744  11.057  11.219  1.00  0.00    -0.775 OA
HETATM   41  H21 UNL     1       5.930  11.611  10.433  1.00  0.00     0.167 HD
ENDBRANCH  38  40
ENDBRANCH  37  38
ENDBRANCH  35  37
ENDBRANCH  32  33
BRANCH  32  42
HETATM   42  C19 UNL     1       2.097   7.761  11.450  1.00  0.00     0.009 C 
HETATM   43  C20 UNL     1       2.468   8.130  10.010  1.00  0.00     0.012 C 
HETATM   44  C21 UNL     1       0.748   7.038  11.484  1.00  0.00     0.012 C 
ENDBRANCH  32  42
ENDBRANCH  30  32
ENDBRANCH  27  28
ENDBRANCH  26  27
ENDBRANCH  13  26
TORSDOF 10
ENDMDL
MODEL 4
REMARK minimizedAffinity -7.5578537
REMARK CNNscore 0.38447094
REMARK CNNaffinity 6.11417961
REMARK  10 active torsions:
REMARK  status: ('A' for Active; 'I' for Inactive)
REMARK    1  A    between atoms: C3_3  and  O1_4 
REMARK    2  A    between atoms: N1_14  and  O2_16 
REMARK    3  A    between atoms: O2_16  and  C13_17 
REMARK    4  A    between atoms: C13_17  and  C14_18 
REMARK       I    between atoms: C14_18  and  N2_20 
REMARK    5  A    between atoms: N2_20  and  C15_21 
REMARK    6  A    between atoms: C15_21  and  C16_22 
REMARK    7  A    between atoms: C15_21  and  C19_29 
REMARK       I    between atoms: C16_22  and  N3_24 
REMARK    8  A    between atoms: N3_24  and  C17_25 
REMARK    9  A    between atoms: C17_25  and  C18_26 
REMARK   10  A    between atoms: C18_26  and  O6_28 
ROOT
HETATM    1  C1  UNL     1      -4.312   5.125  13.679  1.00  0.00     0.015 C 
HETATM    2  C2  UNL     1      -3.523   5.889  14.169  1.00  0.00    -0.078 C 
HETATM    3  C3  UNL     1      -2.594   6.835  14.808  1.00  0.00     0.128 C 
HETATM    4  C4  UNL     1      -1.138   6.385  14.698  1.00  0.00     0.052 C 
HETATM    5  C5  UNL     1      -0.365   7.637  15.095  1.00  0.00     0.010 C 
HETATM    6  C6  UNL     1      -1.158   8.827  14.509  1.00  0.00     0.002 C 
HETATM    7  C7  UNL     1      -1.126  10.063  15.434  1.00  0.00    -0.004 C 
HETATM    8  C8  UNL     1      -1.313  11.381  14.646  1.00  0.00     0.010 C 
HETATM    9  C9  UNL     1      -1.883  12.533  15.481  1.00  0.00     0.035 C 
HETATM   10  C10 UNL     1      -1.473  12.405  16.923  1.00  0.00    -0.069 C 
HETATM   11  C11 UNL     1      -0.686  13.331  17.495  1.00  0.00     0.030 C 
HETATM   12  C12 UNL     1      -0.191  13.178  18.886  1.00  0.00     0.032 C 
HETATM   13  N1  UNL     1       0.380  14.209  19.440  1.00  0.00    -0.271 N 
ATOM     14  H1  UNL     1       0.535  15.100  18.968  1.00  0.00     0.194 HD
HETATM   15  C22 UNL     1      -0.396  11.849  19.592  1.00  0.00     0.060 C 
HETATM   16  C23 UNL     1      -0.795  10.731  18.632  1.00  0.00     0.020 C 
HETATM   17  C24 UNL     1      -1.925  11.132  17.639  1.00  0.00    -0.016 C 
HETATM   18  C25 UNL     1      -3.210  11.419  18.448  1.00  0.00     0.020 C 
HETATM   19  C26 UNL     1      -2.129   9.951  16.603  1.00  0.00     0.002 C 
HETATM   20  C27 UNL     1      -3.573   9.770  16.083  1.00  0.00     0.007 C 
HETATM   21  C28 UNL     1      -3.719   9.168  14.682  1.00  0.00     0.014 C 
HETATM   22  C29 UNL     1      -2.579   8.266  14.175  1.00  0.00     0.003 C 
HETATM   23  C30 UNL     1      -2.699   8.197  12.625  1.00  0.00     0.020 C 
ENDROOT
BRANCH   3  24
HETATM   24  O1  UNL     1      -2.920   6.893  16.196  1.00  0.00    -0.377 OA
HETATM   25  H2  UNL     1      -3.036   5.976  16.498  1.00  0.00     0.211 HD
ENDBRANCH   3  24
BRANCH  13  26
HETATM   26  O2  UNL     1       0.757  13.943  20.763  1.00  0.00    -0.271 OA
BRANCH  26  27
HETATM   27  C13 UNL     1       1.755  14.885  21.143  1.00  0.00     0.303 C 
BRANCH  27  28
HETATM   28  C14 UNL     1       2.762  14.210  22.061  1.00  0.00     0.244 C 
HETATM   29  O3  UNL     1       3.415  14.821  22.904  1.00  0.00    -0.271 OA
HETATM   30  N2  UNL     1       2.953  12.865  21.821  1.00  0.00    -0.346 N 
HETATM   31  H16 UNL     1       2.447  12.450  21.046  1.00  0.00     0.163 HD
BRANCH  30  32
HETATM   32  C15 UNL     1       3.805  12.009  22.661  1.00  0.00     0.180 C 
BRANCH  32  33
HETATM   33  C16 UNL     1       5.294  12.008  22.211  1.00  0.00     0.241 C 
HETATM   34  O4  UNL     1       5.651  11.834  21.047  1.00  0.00    -0.271 OA
HETATM   35  N3  UNL     1       6.208  12.081  23.238  1.00  0.00    -0.349 N 
HETATM   36  H18 UNL     1       5.864  11.940  24.185  1.00  0.00     0.163 HD
BRANCH  35  37
HETATM   37  C17 UNL     1       7.629  11.896  23.011  1.00  0.00     0.232 C 
BRANCH  37  38
HETATM   38  C18 UNL     1       8.314  13.244  22.882  1.00  0.00     0.158 C 
HETATM   39  O5  UNL     1       8.906  13.850  23.762  1.00  0.00    -0.649 OA
BRANCH  38  40
HETATM   40  O6  UNL     1       8.231  13.753  21.636  1.00  0.00    -0.775 OA
HETATM   41  H21 UNL     1       8.716  14.602  21.690  1.00  0.00     0.167 HD
ENDBRANCH  38  40
ENDBRANCH  37  38
ENDBRANCH  35  37
ENDBRANCH  32  33
BRANCH  32  42
HETATM   42  C19 UNL     1       3.176  10.598  22.769  1.00  0.00     0.009 C 
HETATM   43  C20 UNL     1       2.500  10.136  21.474  1.00  0.00     0.012 C 
HETATM   44  C21 UNL     1       4.175   9.544  23.254  1.00  0.00     0.012 C 
ENDBRANCH  32  42
ENDBRANCH  30  32
ENDBRANCH  27  28
ENDBRANCH  26  27
ENDBRANCH  13  26
TORSDOF 10
ENDMDL
MODEL 5
REMARK minimizedAffinity -7.84124088
REMARK CNNscore 0.376098543
REMARK CNNaffinity 6.63479233
REMARK  10 active torsions:
REMARK  status: ('A' for Active; 'I' for Inactive)
REMARK    1  A    between atoms: C3_3  and  O1_4 
REMARK    2  A    between atoms: N1_14  and  O2_16 
REMARK    3  A    between atoms: O2_16  and  C13_17 
REMARK    4  A    between atoms: C13_17  and  C14_18 
REMARK       I    between atoms: C14_18  and  N2_20 
REMARK    5  A    between atoms: N2_20  and  C15_21 
REMARK    6  A    between atoms: C15_21  and  C16_22 
REMARK    7  A    between atoms: C15_21  and  C19_29 
REMARK       I    between atoms: C16_22  and  N3_24 
REMARK    8  A    between atoms: N3_24  and  C17_25 
REMARK    9  A    between atoms: C17_25  and  C18_26 
REMARK   10  A    between atoms: C18_26  and  O6_28 
ROOT
HETATM    1  C1  UNL     1      -8.899   5.927  12.481  1.00  0.00     0.015 C 
HETATM    2  C2  UNL     1      -8.048   6.149  13.302  1.00  0.00    -0.078 C 
HETATM    3  C3  UNL     1      -7.004   6.471  14.289  1.00  0.00     0.128 C 
HETATM    4  C4  UNL     1      -7.212   5.741  15.615  1.00  0.00     0.052 C 
HETATM    5  C5  UNL     1      -5.878   5.941  16.324  1.00  0.00     0.010 C 
HETATM    6  C6  UNL     1      -4.797   5.858  15.223  1.00  0.00     0.002 C 
HETATM    7  C7  UNL     1      -3.625   6.832  15.479  1.00  0.00    -0.004 C 
HETATM    8  C8  UNL     1      -2.311   6.340  14.827  1.00  0.00     0.010 C 
HETATM    9  C9  UNL     1      -1.312   7.459  14.514  1.00  0.00     0.035 C 
HETATM   10  C10 UNL     1      -1.454   8.595  15.490  1.00  0.00    -0.069 C 
HETATM   11  C11 UNL     1      -0.449   8.910  16.323  1.00  0.00     0.030 C 
HETATM   12  C12 UNL     1      -0.600   9.963  17.358  1.00  0.00     0.032 C 
HETATM   13  N1  UNL     1       0.476  10.360  17.976  1.00  0.00    -0.271 N 
ATOM     14  H1  UNL     1       1.406   9.972  17.814  1.00  0.00     0.194 HD
HETATM   15  C22 UNL     1      -1.982  10.534  17.624  1.00  0.00     0.060 C 
HETATM   16  C23 UNL     1      -3.093   9.689  17.006  1.00  0.00     0.020 C 
HETATM   17  C24 UNL     1      -2.820   9.279  15.529  1.00  0.00    -0.016 C 
HETATM   18  C25 UNL     1      -2.786  10.559  14.664  1.00  0.00     0.020 C 
HETATM   19  C26 UNL     1      -3.959   8.281  15.064  1.00  0.00     0.002 C 
HETATM   20  C27 UNL     1      -4.337   8.358  13.568  1.00  0.00     0.007 C 
HETATM   21  C28 UNL     1      -4.875   7.071  12.935  1.00  0.00     0.014 C 
HETATM   22  C29 UNL     1      -5.556   6.054  13.869  1.00  0.00     0.003 C 
HETATM   23  C30 UNL     1      -5.556   4.682  13.135  1.00  0.00     0.020 C 
ENDROOT
BRANCH   3  24
HETATM   24  O1  UNL     1      -7.077   7.871  14.555  1.00  0.00    -0.377 OA
HETATM   25  H2  UNL     1      -8.016   8.086  14.685  1.00  0.00     0.211 HD
ENDBRANCH   3  24
BRANCH  13  26
HETATM   26  O2  UNL     1       0.199  11.385  18.891  1.00  0.00    -0.271 OA
BRANCH  26  27
HETATM   27  C13 UNL     1       0.632  10.963  20.181  1.00  0.00     0.303 C 
BRANCH  27  28
HETATM   28  C14 UNL     1       2.139  10.758  20.165  1.00  0.00     0.244 C 
HETATM   29  O3  UNL     1       2.664   9.674  19.921  1.00  0.00    -0.271 OA
HETATM   30  N2  UNL     1       2.876  11.865  20.530  1.00  0.00    -0.346 N 
HETATM   31  H16 UNL     1       2.368  12.697  20.809  1.00  0.00     0.163 HD
BRANCH  30  32
HETATM   32  C15 UNL     1       4.346  11.906  20.481  1.00  0.00     0.180 C 
BRANCH  32  33
HETATM   33  C16 UNL     1       4.980  12.471  21.784  1.00  0.00     0.241 C 
HETATM   34  O4  UNL     1       4.505  13.414  22.416  1.00  0.00    -0.271 OA
HETATM   35  N3  UNL     1       6.201  11.928  22.116  1.00  0.00    -0.349 N 
HETATM   36  H18 UNL     1       6.670  11.363  21.413  1.00  0.00     0.163 HD
BRANCH  35  37
HETATM   37  C17 UNL     1       7.015  12.475  23.185  1.00  0.00     0.232 C 
BRANCH  37  38
HETATM   38  C18 UNL     1       8.466  12.548  22.747  1.00  0.00     0.158 C 
HETATM   39  O5  UNL     1       9.148  11.627  22.323  1.00  0.00    -0.649 OA
BRANCH  38  40
HETATM   40  O6  UNL     1       8.980  13.789  22.852  1.00  0.00    -0.775 OA
HETATM   41  H21 UNL     1       9.901  13.697  22.532  1.00  0.00     0.167 HD
ENDBRANCH  38  40
ENDBRANCH  37  38
ENDBRANCH  35  37
ENDBRANCH  32  33
BRANCH  32  42
HETATM   42  C19 UNL     1       4.802  12.629  19.190  1.00  0.00     0.009 C 
HETATM   43  C20 UNL     1       5.564  13.930  19.462  1.00  0.00     0.012 C 
HETATM   44  C21 UNL     1       5.613  11.720  18.262  1.00  0.00     0.012 C 
ENDBRANCH  32  42
ENDBRANCH  30  32
ENDBRANCH  27  28
ENDBRANCH  26  27
ENDBRANCH  13  26
TORSDOF 10
ENDMDL
MODEL 6
REMARK minimizedAffinity -8.28698826
REMARK CNNscore 0.353682131
REMARK CNNaffinity 6.91242075
REMARK  10 active torsions:
REMARK  status: ('A' for Active; 'I' for Inactive)
REMARK    1  A    between atoms: C3_3  and  O1_4 
REMARK    2  A    between atoms: N1_14  and  O2_16 
REMARK    3  A    between atoms: O2_16  and  C13_17 
REMARK    4  A    between atoms: C13_17  and  C14_18 
REMARK       I    between atoms: C14_18  and  N2_20 
REMARK    5  A    between atoms: N2_20  and  C15_21 
REMARK    6  A    between atoms: C15_21  and  C16_22 
REMARK    7  A    between atoms: C15_21  and  C19_29 
REMARK       I    between atoms: C16_22  and  N3_24 
REMARK    8  A    between atoms: N3_24  and  C17_25 
REMARK    9  A    between atoms: C17_25  and  C18_26 
REMARK   10  A    between atoms: C18_26  and  O6_28 
ROOT
HETATM    1  C1  UNL     1       0.558   7.385  15.904  1.00  0.00     0.015 C 
HETATM    2  C2  UNL     1      -0.519   7.549  15.394  1.00  0.00    -0.078 C 
HETATM    3  C3  UNL     1      -1.860   7.746  14.819  1.00  0.00     0.128 C 
HETATM    4  C4  UNL     1      -1.850   8.719  13.642  1.00  0.00     0.052 C 
HETATM    5  C5  UNL     1      -3.220   8.501  13.011  1.00  0.00     0.010 C 
HETATM    6  C6  UNL     1      -3.508   6.988  13.137  1.00  0.00     0.002 C 
HETATM    7  C7  UNL     1      -5.001   6.697  13.405  1.00  0.00    -0.004 C 
HETATM    8  C8  UNL     1      -5.416   5.294  12.903  1.00  0.00     0.010 C 
HETATM    9  C9  UNL     1      -6.630   4.704  13.629  1.00  0.00     0.035 C 
HETATM   10  C10 UNL     1      -7.554   5.793  14.102  1.00  0.00    -0.069 C 
HETATM   11  C11 UNL     1      -8.800   5.895  13.610  1.00  0.00     0.030 C 
HETATM   12  C12 UNL     1      -9.696   7.015  13.990  1.00  0.00     0.032 C 
HETATM   13  N1  UNL     1     -10.950   6.928  13.647  1.00  0.00    -0.271 N 
ATOM     14  H1  UNL     1     -11.345   6.155  13.111  1.00  0.00     0.194 HD
HETATM   15  C22 UNL     1      -9.117   8.182  14.771  1.00  0.00     0.060 C 
HETATM   16  C23 UNL     1      -7.590   8.190  14.765  1.00  0.00     0.020 C 
HETATM   17  C24 UNL     1      -6.956   6.804  15.081  1.00  0.00    -0.016 C 
HETATM   18  C25 UNL     1      -7.332   6.411  16.527  1.00  0.00     0.020 C 
HETATM   19  C26 UNL     1      -5.387   6.910  14.885  1.00  0.00     0.002 C 
HETATM   20  C27 UNL     1      -4.542   6.012  15.816  1.00  0.00     0.007 C 
HETATM   21  C28 UNL     1      -3.182   5.562  15.274  1.00  0.00     0.014 C 
HETATM   22  C29 UNL     1      -2.509   6.456  14.217  1.00  0.00     0.003 C 
HETATM   23  C30 UNL     1      -1.451   5.584  13.481  1.00  0.00     0.020 C 
ENDROOT
BRANCH   3  24
HETATM   24  O1  UNL     1      -2.689   8.310  15.834  1.00  0.00    -0.377 OA
HETATM   25  H2  UNL     1      -2.179   9.026  16.251  1.00  0.00     0.211 HD
ENDBRANCH   3  24
BRANCH  13  26
HETATM   26  O2  UNL     1     -11.690   8.026  14.106  1.00  0.00    -0.271 OA
BRANCH  26  27
HETATM   27  C13 UNL     1     -12.814   7.539  14.830  1.00  0.00     0.303 C 
BRANCH  27  28
HETATM   28  C14 UNL     1     -13.917   7.159  13.854  1.00  0.00     0.244 C 
HETATM   29  O3  UNL     1     -13.910   7.497  12.672  1.00  0.00    -0.271 OA
HETATM   30  N2  UNL     1     -14.976   6.477  14.414  1.00  0.00    -0.346 N 
HETATM   31  H16 UNL     1     -14.955   6.317  15.416  1.00  0.00     0.163 HD
BRANCH  30  32
HETATM   32  C15 UNL     1     -16.092   5.932  13.626  1.00  0.00     0.180 C 
BRANCH  32  33
HETATM   33  C16 UNL     1     -17.182   6.994  13.303  1.00  0.00     0.241 C 
HETATM   34  O4  UNL     1     -18.166   7.194  14.013  1.00  0.00    -0.271 OA
HETATM   35  N3  UNL     1     -17.042   7.613  12.081  1.00  0.00    -0.349 N 
HETATM   36  H18 UNL     1     -16.378   7.210  11.423  1.00  0.00     0.163 HD
BRANCH  35  37
HETATM   37  C17 UNL     1     -18.071   8.481  11.542  1.00  0.00     0.232 C 
BRANCH  37  38
HETATM   38  C18 UNL     1     -17.437   9.686  10.872  1.00  0.00     0.158 C 
HETATM   39  O5  UNL     1     -16.605  10.438  11.357  1.00  0.00    -0.649 OA
BRANCH  38  40
HETATM   40  O6  UNL     1     -17.875   9.871   9.611  1.00  0.00    -0.775 OA
HETATM   41  H21 UNL     1     -17.385  10.660   9.298  1.00  0.00     0.167 HD
ENDBRANCH  38  40
ENDBRANCH  37  38
ENDBRANCH  35  37
ENDBRANCH  32  33
BRANCH  32  42
HETATM   42  C19 UNL     1     -16.637   4.655  14.312  1.00  0.00     0.009 C 
HETATM   43  C20 UNL     1     -17.604   3.859  13.430  1.00  0.00     0.012 C 
HETATM   44  C21 UNL     1     -15.520   3.746  14.834  1.00  0.00     0.012 C 
ENDBRANCH  32  42
ENDBRANCH  30  32
ENDBRANCH  27  28
ENDBRANCH  26  27
ENDBRANCH  13  26
TORSDOF 10
ENDMDL
MODEL 7
REMARK minimizedAffinity -9.18983841
REMARK CNNscore 0.33239761
REMARK CNNaffinity 6.69852972
REMARK  10 active torsions:
REMARK  status: ('A' for Active; 'I' for Inactive)
REMARK    1  A    between atoms: C3_3  and  O1_4 
REMARK    2  A    between atoms: N1_14  and  O2_16 
REMARK    3  A    between atoms: O2_16  and  C13_17 
REMARK    4  A    between atoms: C13_17  and  C14_18 
REMARK       I    between atoms: C14_18  and  N2_20 
REMARK    5  A    between atoms: N2_20  and  C15_21 
REMARK    6  A    between atoms: C15_21  and  C16_22 
REMARK    7  A    between atoms: C15_21  and  C19_29 
REMARK       I    between atoms: C16_22  and  N3_24 
REMARK    8  A    between atoms: N3_24  and  C17_25 
REMARK    9  A    between atoms: C17_25  and  C18_26 
REMARK   10  A    between atoms: C18_26  and  O6_28 
ROOT
HETATM    1  C1  UNL     1       3.302   8.078   8.865  1.00  0.00     0.015 C 
HETATM    2  C2  UNL     1       2.502   7.531   9.577  1.00  0.00    -0.078 C 
HETATM    3  C3  UNL     1       1.486   6.897  10.434  1.00  0.00     0.128 C 
HETATM    4  C4  UNL     1       1.662   5.382  10.521  1.00  0.00     0.052 C 
HETATM    5  C5  UNL     1       0.761   5.003  11.689  1.00  0.00     0.010 C 
HETATM    6  C6  UNL     1       0.896   6.150  12.717  1.00  0.00     0.002 C 
HETATM    7  C7  UNL     1      -0.434   6.442  13.445  1.00  0.00    -0.004 C 
HETATM    8  C8  UNL     1      -0.204   7.062  14.844  1.00  0.00     0.010 C 
HETATM    9  C9  UNL     1      -1.377   7.906  15.354  1.00  0.00     0.035 C 
HETATM   10  C10 UNL     1      -2.683   7.397  14.807  1.00  0.00    -0.069 C 
HETATM   11  C11 UNL     1      -3.620   6.895  15.628  1.00  0.00     0.030 C 
HETATM   12  C12 UNL     1      -4.875   6.301  15.105  1.00  0.00     0.032 C 
HETATM   13  N1  UNL     1      -5.821   6.038  15.960  1.00  0.00    -0.271 N 
ATOM     14  H1  UNL     1      -5.741   6.187  16.966  1.00  0.00     0.194 HD
HETATM   15  C22 UNL     1      -4.999   6.054  13.611  1.00  0.00     0.060 C 
HETATM   16  C23 UNL     1      -3.657   6.150  12.889  1.00  0.00     0.020 C 
HETATM   17  C24 UNL     1      -2.820   7.401  13.285  1.00  0.00    -0.016 C 
HETATM   18  C25 UNL     1      -3.588   8.665  12.836  1.00  0.00     0.020 C 
HETATM   19  C26 UNL     1      -1.398   7.297  12.595  1.00  0.00     0.002 C 
HETATM   20  C27 UNL     1      -0.751   8.645  12.205  1.00  0.00     0.007 C 
HETATM   21  C28 UNL     1       0.780   8.681  12.179  1.00  0.00     0.014 C 
HETATM   22  C29 UNL     1       1.516   7.351  11.931  1.00  0.00     0.003 C 
HETATM   23  C30 UNL     1       2.977   7.531  12.435  1.00  0.00     0.020 C 
ENDROOT
BRANCH   3  24
HETATM   24  O1  UNL     1       0.209   7.147   9.849  1.00  0.00    -0.377 OA
HETATM   25  H2  UNL     1       0.292   6.963   8.898  1.00  0.00     0.211 HD
ENDBRANCH   3  24
BRANCH  13  26
HETATM   26  O2  UNL     1      -6.962   5.524  15.329  1.00  0.00    -0.271 OA
BRANCH  26  27
HETATM   27  C13 UNL     1      -8.106   5.925  16.076  1.00  0.00     0.303 C 
BRANCH  27  28
HETATM   28  C14 UNL     1      -8.695   7.184  15.459  1.00  0.00     0.244 C 
HETATM   29  O3  UNL     1      -8.005   8.082  14.982  1.00  0.00    -0.271 OA
HETATM   30  N2  UNL     1     -10.067   7.284  15.550  1.00  0.00    -0.346 N 
HETATM   31  H16 UNL     1     -10.561   6.547  16.042  1.00  0.00     0.163 HD
BRANCH  30  32
HETATM   32  C15 UNL     1     -10.840   8.371  14.928  1.00  0.00     0.180 C 
BRANCH  32  33
HETATM   33  C16 UNL     1     -11.405   9.384  15.965  1.00  0.00     0.241 C 
HETATM   34  O4  UNL     1     -11.888  10.472  15.657  1.00  0.00    -0.271 OA
HETATM   35  N3  UNL     1     -11.204   9.036  17.282  1.00  0.00    -0.349 N 
HETATM   36  H18 UNL     1     -10.558   8.274  17.473  1.00  0.00     0.163 HD
BRANCH  35  37
HETATM   37  C17 UNL     1     -11.492   9.954  18.368  1.00  0.00     0.232 C 
BRANCH  37  38
HETATM   38  C18 UNL     1     -11.778   9.179  19.641  1.00  0.00     0.158 C 
HETATM   39  O5  UNL     1     -11.144   9.230  20.684  1.00  0.00    -0.649 OA
BRANCH  38  40
HETATM   40  O6  UNL     1     -12.865   8.389  19.537  1.00  0.00    -0.775 OA
HETATM   41  H21 UNL     1     -12.940   7.965  20.416  1.00  0.00     0.167 HD
ENDBRANCH  38  40
ENDBRANCH  37  38
ENDBRANCH  35  37
ENDBRANCH  32  33
BRANCH  32  42
HETATM   42  C19 UNL     1     -11.908   7.772  13.981  1.00  0.00     0.009 C 
HETATM   43  C20 UNL     1     -11.416   7.609  12.539  1.00  0.00     0.012 C 
HETATM   44  C21 UNL     1     -12.480   6.451  14.502  1.00  0.00     0.012 C 
ENDBRANCH  32  42
ENDBRANCH  30  32
ENDBRANCH  27  28
ENDBRANCH  26  27
ENDBRANCH  13  26
TORSDOF 10
ENDMDL
MODEL 8
REMARK minimizedAffinity -6.98742819
REMARK CNNscore 0.302766562
REMARK CNNaffinity 5.37023783
REMARK  10 active torsions:
REMARK  status: ('A' for Active; 'I' for Inactive)
REMARK    1  A    between atoms: C3_3  and  O1_4 
REMARK    2  A    between atoms: N1_14  and  O2_16 
REMARK    3  A    between atoms: O2_16  and  C13_17 
REMARK    4  A    between atoms: C13_17  and  C14_18 
REMARK       I    between atoms: C14_18  and  N2_20 
REMARK    5  A    between atoms: N2_20  and  C15_21 
REMARK    6  A    between atoms: C15_21  and  C16_22 
REMARK    7  A    between atoms: C15_21  and  C19_29 
REMARK       I    between atoms: C16_22  and  N3_24 
REMARK    8  A    between atoms: N3_24  and  C17_25 
REMARK    9  A    between atoms: C17_25  and  C18_26 
REMARK   10  A    between atoms: C18_26  and  O6_28 
ROOT
HETATM    1  C1  UNL     1       3.835   6.002  10.041  1.00  0.00     0.015 C 
HETATM    2  C2  UNL     1       4.520   6.880  10.495  1.00  0.00    -0.078 C 
HETATM    3  C3  UNL     1       5.400   7.920  11.054  1.00  0.00     0.128 C 
HETATM    4  C4  UNL     1       5.112   9.301  10.469  1.00  0.00     0.052 C 
HETATM    5  C5  UNL     1       5.863  10.232  11.412  1.00  0.00     0.010 C 
HETATM    6  C6  UNL     1       5.707   9.622  12.823  1.00  0.00     0.002 C 
HETATM    7  C7  UNL     1       6.975   9.808  13.684  1.00  0.00    -0.004 C 
HETATM    8  C8  UNL     1       6.650   9.817  15.197  1.00  0.00     0.010 C 
HETATM    9  C9  UNL     1       7.823   9.398  16.091  1.00  0.00     0.035 C 
HETATM   10  C10 UNL     1       9.138   9.762  15.457  1.00  0.00    -0.069 C 
HETATM   11  C11 UNL     1       9.952  10.659  16.037  1.00  0.00     0.030 C 
HETATM   12  C12 UNL     1      11.208  11.104  15.384  1.00  0.00     0.032 C 
HETATM   13  N1  UNL     1      12.044  11.803  16.098  1.00  0.00    -0.271 N 
ATOM     14  H1  UNL     1      11.875  12.087  17.064  1.00  0.00     0.194 HD
HETATM   15  C22 UNL     1      11.463  10.707  13.941  1.00  0.00     0.060 C 
HETATM   16  C23 UNL     1      10.209  10.174  13.251  1.00  0.00     0.020 C 
HETATM   17  C24 UNL     1       9.426   9.127  14.096  1.00  0.00    -0.016 C 
HETATM   18  C25 UNL     1      10.320   7.880  14.283  1.00  0.00     0.020 C 
HETATM   19  C26 UNL     1       8.076   8.779  13.345  1.00  0.00     0.002 C 
HETATM   20  C27 UNL     1       7.565   7.333  13.536  1.00  0.00     0.007 C 
HETATM   21  C28 UNL     1       6.051   7.129  13.436  1.00  0.00     0.014 C 
HETATM   22  C29 UNL     1       5.253   8.142  12.596  1.00  0.00     0.003 C 
HETATM   23  C30 UNL     1       3.765   8.040  13.039  1.00  0.00     0.020 C 
ENDROOT
BRANCH   3  24
HETATM   24  O1  UNL     1       6.743   7.581  10.711  1.00  0.00    -0.377 OA
HETATM   25  H2  UNL     1       6.742   7.336   9.771  1.00  0.00     0.211 HD
ENDBRANCH   3  24
BRANCH  13  26
HETATM   26  O2  UNL     1      13.204  12.118  15.377  1.00  0.00    -0.271 OA
BRANCH  26  27
HETATM   27  C13 UNL     1      14.257  11.274  15.831  1.00  0.00     0.303 C 
BRANCH  27  28
HETATM   28  C14 UNL     1      14.894  11.885  17.069  1.00  0.00     0.244 C 
HETATM   29  O3  UNL     1      14.239  12.335  18.007  1.00  0.00    -0.271 OA
HETATM   30  N2  UNL     1      16.270  11.975  17.026  1.00  0.00    -0.346 N 
HETATM   31  H16 UNL     1      16.734  11.669  16.178  1.00  0.00     0.163 HD
BRANCH  30  32
HETATM   32  C15 UNL     1      17.083  12.439  18.161  1.00  0.00     0.180 C 
BRANCH  32  33
HETATM   33  C16 UNL     1      16.814  13.927  18.530  1.00  0.00     0.241 C 
HETATM   34  O4  UNL     1      16.448  14.772  17.716  1.00  0.00    -0.271 OA
HETATM   35  N3  UNL     1      17.149  14.271  19.821  1.00  0.00    -0.349 N 
HETATM   36  H18 UNL     1      17.704  13.608  20.355  1.00  0.00     0.163 HD
BRANCH  35  37
HETATM   37  C17 UNL     1      17.146  15.651  20.268  1.00  0.00     0.232 C 
BRANCH  37  38
HETATM   38  C18 UNL     1      16.388  15.772  21.577  1.00  0.00     0.158 C 
HETATM   39  O5  UNL     1      16.135  16.802  22.182  1.00  0.00    -0.649 OA
BRANCH  38  40
HETATM   40  O6  UNL     1      15.970  14.580  22.048  1.00  0.00    -0.775 OA
HETATM   41  H21 UNL     1      15.494  14.800  22.875  1.00  0.00     0.167 HD
ENDBRANCH  38  40
ENDBRANCH  37  38
ENDBRANCH  35  37
ENDBRANCH  32  33
BRANCH  32  42
HETATM   42  C19 UNL     1      18.573  12.112  17.899  1.00  0.00     0.009 C 
HETATM   43  C20 UNL     1      19.358  13.289  17.312  1.00  0.00     0.012 C 
HETATM   44  C21 UNL     1      19.282  11.565  19.141  1.00  0.00     0.012 C 
ENDBRANCH  32  42
ENDBRANCH  30  32
ENDBRANCH  27  28
ENDBRANCH  26  27
ENDBRANCH  13  26
TORSDOF 10
ENDMDL
MODEL 9
REMARK minimizedAffinity -9.39993572
REMARK CNNscore 0.280137151
REMARK CNNaffinity 6.84478712
REMARK  10 active torsions:
REMARK  status: ('A' for Active; 'I' for Inactive)
REMARK    1  A    between atoms: C3_3  and  O1_4 
REMARK    2  A    between atoms: N1_14  and  O2_16 
REMARK    3  A    between atoms: O2_16  and  C13_17 
REMARK    4  A    between atoms: C13_17  and  C14_18 
REMARK       I    between atoms: C14_18  and  N2_20 
REMARK    5  A    between atoms: N2_20  and  C15_21 
REMARK    6  A    between atoms: C15_21  and  C16_22 
REMARK    7  A    between atoms: C15_21  and  C19_29 
REMARK       I    between atoms: C16_22  and  N3_24 
REMARK    8  A    between atoms: N3_24  and  C17_25 
REMARK    9  A    between atoms: C17_25  and  C18_26 
REMARK   10  A    between atoms: C18_26  and  O6_28 
ROOT
HETATM    1  C1  UNL     1     -10.467   7.704  13.880  1.00  0.00     0.015 C 
HETATM    2  C2  UNL     1      -9.395   7.420  14.346  1.00  0.00    -0.078 C 
HETATM    3  C3  UNL     1      -8.063   7.121  14.898  1.00  0.00     0.128 C 
HETATM    4  C4  UNL     1      -8.139   6.317  16.195  1.00  0.00     0.052 C 
HETATM    5  C5  UNL     1      -6.705   5.840  16.382  1.00  0.00     0.010 C 
HETATM    6  C6  UNL     1      -6.175   5.525  14.965  1.00  0.00     0.002 C 
HETATM    7  C7  UNL     1      -4.682   5.887  14.804  1.00  0.00    -0.004 C 
HETATM    8  C8  UNL     1      -3.994   5.032  13.714  1.00  0.00     0.010 C 
HETATM    9  C9  UNL     1      -2.762   5.694  13.086  1.00  0.00     0.035 C 
HETATM   10  C10 UNL     1      -2.080   6.603  14.071  1.00  0.00    -0.069 C 
HETATM   11  C11 UNL     1      -0.833   6.340  14.495  1.00  0.00     0.030 C 
HETATM   12  C12 UNL     1      -0.175   7.168  15.537  1.00  0.00     0.032 C 
HETATM   13  N1  UNL     1       1.099   6.987  15.736  1.00  0.00    -0.271 N 
ATOM     14  H1  UNL     1       1.663   6.294  15.243  1.00  0.00     0.194 HD
HETATM   15  C22 UNL     1      -1.008   8.188  16.293  1.00  0.00     0.060 C 
HETATM   16  C23 UNL     1      -2.508   7.980  16.097  1.00  0.00     0.020 C 
HETATM   17  C24 UNL     1      -2.922   7.759  14.613  1.00  0.00    -0.016 C 
HETATM   18  C25 UNL     1      -2.608   9.047  13.820  1.00  0.00     0.020 C 
HETATM   19  C26 UNL     1      -4.463   7.397  14.567  1.00  0.00     0.002 C 
HETATM   20  C27 UNL     1      -5.218   7.878  13.308  1.00  0.00     0.007 C 
HETATM   21  C28 UNL     1      -6.432   7.045  12.884  1.00  0.00     0.014 C 
HETATM   22  C29 UNL     1      -7.156   6.239  13.978  1.00  0.00     0.003 C 
HETATM   23  C30 UNL     1      -7.985   5.133  13.264  1.00  0.00     0.020 C 
ENDROOT
BRANCH   3  24
HETATM   24  O1  UNL     1      -7.431   8.364  15.202  1.00  0.00    -0.377 OA
HETATM   25  H2  UNL     1      -8.088   8.910  15.665  1.00  0.00     0.211 HD
ENDBRANCH   3  24
BRANCH  13  26
HETATM   26  O2  UNL     1       1.600   7.861  16.710  1.00  0.00    -0.271 OA
BRANCH  26  27
HETATM   27  C13 UNL     1       2.437   8.817  16.068  1.00  0.00     0.303 C 
BRANCH  27  28
HETATM   28  C14 UNL     1       2.523  10.069  16.927  1.00  0.00     0.244 C 
HETATM   29  O3  UNL     1       3.337  10.968  16.721  1.00  0.00    -0.271 OA
HETATM   30  N2  UNL     1       1.674  10.085  18.013  1.00  0.00    -0.346 N 
HETATM   31  H16 UNL     1       1.098   9.264  18.171  1.00  0.00     0.163 HD
BRANCH  30  32
HETATM   32  C15 UNL     1       1.529  11.244  18.907  1.00  0.00     0.180 C 
BRANCH  32  33
HETATM   33  C16 UNL     1       2.039  10.963  20.350  1.00  0.00     0.241 C 
HETATM   34  O4  UNL     1       2.035  11.804  21.247  1.00  0.00    -0.271 OA
HETATM   35  N3  UNL     1       2.629   9.731  20.525  1.00  0.00    -0.349 N 
HETATM   36  H18 UNL     1       2.855   9.196  19.691  1.00  0.00     0.163 HD
BRANCH  35  37
HETATM   37  C17 UNL     1       3.328   9.386  21.748  1.00  0.00     0.232 C 
BRANCH  37  38
HETATM   38  C18 UNL     1       2.408   8.610  22.672  1.00  0.00     0.158 C 
HETATM   39  O5  UNL     1       1.604   7.749  22.347  1.00  0.00    -0.649 OA
BRANCH  38  40
HETATM   40  O6  UNL     1       2.562   8.950  23.967  1.00  0.00    -0.775 OA
HETATM   41  H21 UNL     1       1.928   8.376  24.444  1.00  0.00     0.167 HD
ENDBRANCH  38  40
ENDBRANCH  37  38
ENDBRANCH  35  37
ENDBRANCH  32  33
BRANCH  32  42
HETATM   42  C19 UNL     1       0.076  11.772  18.841  1.00  0.00     0.009 C 
HETATM   43  C20 UNL     1      -0.961  10.756  19.331  1.00  0.00     0.012 C 
HETATM   44  C21 UNL     1      -0.099  13.107  19.572  1.00  0.00     0.012 C 
ENDBRANCH  32  42
ENDBRANCH  30  32
ENDBRANCH  27  28
ENDBRANCH  26  27
ENDBRANCH  13  26
TORSDOF 10
ENDMDL
