MODEL 1
REMARK minimizedAffinity -8.93544579
REMARK CNNscore 0.547907054
REMARK CNNaffinity 7.06688499
REMARK  13 active torsions:
REMARK  status: ('A' for Active; 'I' for Inactive)
REMARK    1  A    between atoms: C2_2  and  C3_3 
REMARK    2  A    between atoms: C3_3  and  C4_4 
REMARK    3  A    between atoms: C6_7  and  C7_8 
REMARK    4  A    between atoms: C7_8  and  O2_9 
REMARK    5  A    between atoms: C7_8  and  C8_10 
REMARK    6  A    between atoms: C8_10  and  O3_12 
REMARK    7  A    between atoms: C8_10  and  C10_13 
REMARK    8  A    between atoms: C13_16  and  O4_17 
REMARK    9  A    between atoms: C19_24  and  O6_25 
REMARK   10  A    between atoms: O6_25  and  C20_26 
REMARK   11  A    between atoms: C20_26  and  C21_27 
REMARK   12  A    between atoms: C21_27  and  C22_28 
REMARK   13  A    between atoms: C22_28  and  O7_29 
ROOT
HETATM    1  C10 UNL     1       0.802   7.784  13.572  1.00  0.00     0.034 C 
HETATM    2  C11 UNL     1       1.028   8.684  14.832  1.00  0.00     0.012 C 
HETATM    3  C12 UNL     1      -0.343   8.884  15.512  1.00  0.00     0.044 C 
HETATM    4  C13 UNL     1      -1.242   7.841  14.846  1.00  0.00     0.089 C 
HETATM    5  C14 UNL     1      -2.750   7.922  14.888  1.00  0.00    -0.037 C 
HETATM    6  C15 UNL     1      -3.423   8.964  15.399  1.00  0.00     0.057 C 
HETATM    7  C16 UNL     1      -4.887   9.089  15.230  1.00  0.00     0.154 C 
HETATM    8  O5  UNL     1      -5.452  10.031  15.780  1.00  0.00    -0.293 OA
HETATM    9  C17 UNL     1      -5.609   8.102  14.310  1.00  0.00     0.071 C 
HETATM   10  C18 UNL     1      -7.112   8.101  14.620  1.00  0.00     0.045 C 
HETATM   11  C19 UNL     1      -7.433   7.505  15.997  1.00  0.00     0.122 C 
HETATM   12  C24 UNL     1      -6.795   6.127  16.175  1.00  0.00     0.033 C 
HETATM   13  C25 UNL     1      -5.309   6.098  15.816  1.00  0.00     0.013 C 
HETATM   14  C26 UNL     1      -4.994   6.684  14.402  1.00  0.00    -0.026 C 
HETATM   15  C27 UNL     1      -5.634   5.750  13.341  1.00  0.00     0.016 C 
HETATM   16  C28 UNL     1      -3.433   6.741  14.195  1.00  0.00     0.026 C 
HETATM   17  C29 UNL     1      -2.955   6.706  12.723  1.00  0.00     0.011 C 
HETATM   18  C30 UNL     1      -1.418   6.729  12.574  1.00  0.00     0.014 C 
HETATM   19  C31 UNL     1      -0.751   7.888  13.356  1.00  0.00    -0.002 C 
HETATM   20  C32 UNL     1      -1.129   9.225  12.652  1.00  0.00     0.019 C 
ENDROOT
BRANCH   1  21
HETATM   21  C8  UNL     1       1.811   8.092  12.406  1.00  0.00     0.087 C 
HETATM   22  C9  UNL     1       3.061   8.777  13.000  1.00  0.00     0.049 C 
BRANCH  21  23
HETATM   23  C7  UNL     1       2.221   6.803  11.629  1.00  0.00     0.181 C 
BRANCH  23  24
HETATM   24  C6  UNL     1       1.964   6.851  10.104  1.00  0.00     0.157 C 
HETATM   25  O1  UNL     1       0.988   7.854   9.775  1.00  0.00    -0.382 OA
HETATM   26  C5  UNL     1       1.205   8.275   8.418  1.00  0.00     0.173 C 
HETATM   27  C4  UNL     1       2.482   7.602   7.907  1.00  0.00     0.016 C 
HETATM   28  C33 UNL     1       3.173   7.184   9.211  1.00  0.00     0.019 C 
HETATM   29  C34 UNL     1       4.066   8.321   9.717  1.00  0.00     0.013 C 
BRANCH  27  30
HETATM   30  C3  UNL     1       2.202   6.390   6.994  1.00  0.00     0.007 C 
BRANCH  30  31
HETATM   31  C2  UNL     1       3.005   5.150   7.403  1.00  0.00    -0.004 C 
HETATM   32  C1  UNL     1       3.357   4.286   6.204  1.00  0.00     0.005 C 
ENDBRANCH  30  31
ENDBRANCH  27  30
ENDBRANCH  23  24
BRANCH  23  33
HETATM   33  O2  UNL     1       3.580   6.479  11.934  1.00  0.00    -0.390 OA
HETATM   34  H13 UNL     1       3.965   6.024  11.160  1.00  0.00     0.210 HD
ENDBRANCH  23  33
ENDBRANCH  21  23
BRANCH  21  35
HETATM   35  O3  UNL     1       1.212   8.993  11.463  1.00  0.00    -0.387 OA
HETATM   36  H17 UNL     1       1.350   9.905  11.781  1.00  0.00     0.210 HD
ENDBRANCH  21  35
ENDBRANCH   1  21
BRANCH   4  37
HETATM   37  O4  UNL     1      -0.919   6.619  15.531  1.00  0.00    -0.384 OA
HETATM   38  H23 UNL     1      -0.652   5.944  14.891  1.00  0.00     0.211 HD
ENDBRANCH   4  37
BRANCH  11  39
HETATM   39  O6  UNL     1      -8.844   7.315  16.127  1.00  0.00    -0.386 OA
BRANCH  39  40
HETATM   40  C20 UNL     1      -9.460   6.761  14.962  1.00  0.00     0.170 C 
BRANCH  40  41
HETATM   41  C21 UNL     1     -10.629   7.651  14.547  1.00  0.00     0.052 C 
BRANCH  41  42
HETATM   42  C22 UNL     1     -11.101   7.378  13.113  1.00  0.00     0.169 C 
BRANCH  42  43
HETATM   43  O7  UNL     1     -12.515   7.287  12.955  1.00  0.00    -0.396 OA
HETATM   44  C23 UNL     1     -13.221   8.301  13.658  1.00  0.00     0.201 C 
ENDBRANCH  42  43
ENDBRANCH  41  42
ENDBRANCH  40  41
ENDBRANCH  39  40
ENDBRANCH  11  39
TORSDOF 13
ENDMDL
MODEL 2
REMARK minimizedAffinity -8.62167168
REMARK CNNscore 0.533861995
REMARK CNNaffinity 7.28412628
REMARK  13 active torsions:
REMARK  status: ('A' for Active; 'I' for Inactive)
REMARK    1  A    between atoms: C2_2  and  C3_3 
REMARK    2  A    between atoms: C3_3  and  C4_4 
REMARK    3  A    between atoms: C6_7  and  C7_8 
REMARK    4  A    between atoms: C7_8  and  O2_9 
REMARK    5  A    between atoms: C7_8  and  C8_10 
REMARK    6  A    between atoms: C8_10  and  O3_12 
REMARK    7  A    between atoms: C8_10  and  C10_13 
REMARK    8  A    between atoms: C13_16  and  O4_17 
REMARK    9  A    between atoms: C19_24  and  O6_25 
REMARK   10  A    between atoms: O6_25  and  C20_26 
REMARK   11  A    between atoms: C20_26  and  C21_27 
REMARK   12  A    between atoms: C21_27  and  C22_28 
REMARK   13  A    between atoms: C22_28  and  O7_29 
ROOT
HETATM    1  C10 UNL     1       0.456   8.342  14.534  1.00  0.00     0.034 C 
HETATM    2  C11 UNL     1       0.332   9.328  15.743  1.00  0.00     0.012 C 
HETATM    3  C12 UNL     1      -1.151   9.354  16.169  1.00  0.00     0.044 C 
HETATM    4  C13 UNL     1      -1.766   8.155  15.444  1.00  0.00     0.089 C 
HETATM    5  C14 UNL     1      -3.255   8.012  15.230  1.00  0.00    -0.037 C 
HETATM    6  C15 UNL     1      -4.145   8.965  15.543  1.00  0.00     0.057 C 
HETATM    7  C16 UNL     1      -5.560   8.861  15.125  1.00  0.00     0.154 C 
HETATM    8  O5  UNL     1      -6.338   9.734  15.502  1.00  0.00    -0.293 OA
HETATM    9  C17 UNL     1      -5.966   7.732  14.175  1.00  0.00     0.071 C 
HETATM   10  C18 UNL     1      -7.485   7.521  14.231  1.00  0.00     0.045 C 
HETATM   11  C19 UNL     1      -7.955   6.954  15.577  1.00  0.00     0.122 C 
HETATM   12  C24 UNL     1      -7.173   5.698  15.961  1.00  0.00     0.033 C 
HETATM   13  C25 UNL     1      -5.657   5.874  15.856  1.00  0.00     0.013 C 
HETATM   14  C26 UNL     1      -5.185   6.428  14.474  1.00  0.00    -0.026 C 
HETATM   15  C27 UNL     1      -5.494   5.357  13.395  1.00  0.00     0.016 C 
HETATM   16  C28 UNL     1      -3.635   6.708  14.524  1.00  0.00     0.026 C 
HETATM   17  C29 UNL     1      -2.907   6.671  13.158  1.00  0.00     0.011 C 
HETATM   18  C30 UNL     1      -1.386   6.917  13.265  1.00  0.00     0.014 C 
HETATM   19  C31 UNL     1      -1.034   8.200  14.056  1.00  0.00    -0.002 C 
HETATM   20  C32 UNL     1      -1.466   9.428  13.201  1.00  0.00     0.019 C 
ENDROOT
BRANCH   1  21
HETATM   21  C8  UNL     1       1.601   8.737  13.531  1.00  0.00     0.087 C 
HETATM   22  C9  UNL     1       2.461   9.847  14.174  1.00  0.00     0.049 C 
BRANCH  21  23
HETATM   23  C7  UNL     1       2.493   7.517  13.147  1.00  0.00     0.181 C 
BRANCH  23  24
HETATM   24  C6  UNL     1       3.020   7.525  11.693  1.00  0.00     0.157 C 
HETATM   25  O1  UNL     1       4.269   6.821  11.592  1.00  0.00    -0.382 OA
HETATM   26  C5  UNL     1       4.416   6.343  10.244  1.00  0.00     0.173 C 
HETATM   27  C4  UNL     1       3.119   6.639   9.488  1.00  0.00     0.016 C 
HETATM   28  C33 UNL     1       2.121   6.868  10.630  1.00  0.00     0.019 C 
HETATM   29  C34 UNL     1       1.486   5.537  11.044  1.00  0.00     0.013 C 
BRANCH  27  30
HETATM   30  C3  UNL     1       3.226   7.872   8.566  1.00  0.00     0.007 C 
BRANCH  30  31
HETATM   31  C2  UNL     1       2.014   8.017   7.639  1.00  0.00    -0.004 C 
HETATM   32  C1  UNL     1       1.922   6.870   6.648  1.00  0.00     0.005 C 
ENDBRANCH  30  31
ENDBRANCH  27  30
ENDBRANCH  23  24
BRANCH  23  33
HETATM   33  O2  UNL     1       3.553   7.389  14.101  1.00  0.00    -0.390 OA
HETATM   34  H13 UNL     1       4.321   6.990  13.648  1.00  0.00     0.210 HD
ENDBRANCH  23  33
ENDBRANCH  21  23
BRANCH  21  35
HETATM   35  O3  UNL     1       1.034   9.256  12.319  1.00  0.00    -0.387 OA
HETATM   36  H17 UNL     1       0.859  10.208  12.446  1.00  0.00     0.210 HD
ENDBRANCH  21  35
ENDBRANCH   1  21
BRANCH   4  37
HETATM   37  O4  UNL     1      -1.402   7.032  16.264  1.00  0.00    -0.384 OA
HETATM   38  H23 UNL     1      -0.936   6.373  15.729  1.00  0.00     0.211 HD
ENDBRANCH   4  37
BRANCH  11  39
HETATM   39  O6  UNL     1      -9.327   6.562  15.486  1.00  0.00    -0.386 OA
BRANCH  39  40
HETATM   40  C20 UNL     1      -9.938   6.893  14.236  1.00  0.00     0.170 C 
BRANCH  40  41
HETATM   41  C21 UNL     1     -11.074   7.882  14.485  1.00  0.00     0.052 C 
BRANCH  41  42
HETATM   42  C22 UNL     1     -11.876   8.196  13.216  1.00  0.00     0.169 C 
BRANCH  42  43
HETATM   43  O7  UNL     1     -13.292   8.156  13.376  1.00  0.00    -0.396 OA
HETATM   44  C23 UNL     1     -13.863   6.916  12.977  1.00  0.00     0.201 C 
ENDBRANCH  42  43
ENDBRANCH  41  42
ENDBRANCH  40  41
ENDBRANCH  39  40
ENDBRANCH  11  39
TORSDOF 13
ENDMDL
MODEL 3
REMARK minimizedAffinity -8.6659317
REMARK CNNscore 0.437034965
REMARK CNNaffinity 7.16580248
REMARK  13 active torsions:
REMARK  status: ('A' for Active; 'I' for Inactive)
REMARK    1  A    between atoms: C2_2  and  C3_3 
REMARK    2  A    between atoms: C3_3  and  C4_4 
REMARK    3  A    between atoms: C6_7  and  C7_8 
REMARK    4  A    between atoms: C7_8  and  O2_9 
REMARK    5  A    between atoms: C7_8  and  C8_10 
REMARK    6  A    between atoms: C8_10  and  O3_12 
REMARK    7  A    between atoms: C8_10  and  C10_13 
REMARK    8  A    between atoms: C13_16  and  O4_17 
REMARK    9  A    between atoms: C19_24  and  O6_25 
REMARK   10  A    between atoms: O6_25  and  C20_26 
REMARK   11  A    between atoms: C20_26  and  C21_27 
REMARK   12  A    between atoms: C21_27  and  C22_28 
REMARK   13  A    between atoms: C22_28  and  O7_29 
ROOT
HETATM    1  C10 UNL     1       2.528   8.102  14.965  1.00  0.00     0.034 C 
HETATM    2  C11 UNL     1       2.295   9.093  16.155  1.00  0.00     0.012 C 
HETATM    3  C12 UNL     1       0.771   9.242  16.344  1.00  0.00     0.044 C 
HETATM    4  C13 UNL     1       0.181   8.100  15.515  1.00  0.00     0.089 C 
HETATM    5  C14 UNL     1      -1.262   8.081  15.068  1.00  0.00    -0.037 C 
HETATM    6  C15 UNL     1      -2.109   9.104  15.252  1.00  0.00     0.057 C 
HETATM    7  C16 UNL     1      -3.444   9.118  14.616  1.00  0.00     0.154 C 
HETATM    8  O5  UNL     1      -4.198  10.052  14.880  1.00  0.00    -0.293 OA
HETATM    9  C17 UNL     1      -3.787   8.029  13.598  1.00  0.00     0.071 C 
HETATM   10  C18 UNL     1      -5.308   7.944  13.414  1.00  0.00     0.045 C 
HETATM   11  C19 UNL     1      -6.029   7.416  14.661  1.00  0.00     0.122 C 
HETATM   12  C24 UNL     1      -5.422   6.099  15.143  1.00  0.00     0.033 C 
HETATM   13  C25 UNL     1      -3.899   6.149  15.279  1.00  0.00     0.013 C 
HETATM   14  C26 UNL     1      -3.172   6.664  13.996  1.00  0.00    -0.026 C 
HETATM   15  C27 UNL     1      -3.395   5.624  12.867  1.00  0.00     0.016 C 
HETATM   16  C28 UNL     1      -1.632   6.814  14.293  1.00  0.00     0.026 C 
HETATM   17  C29 UNL     1      -0.704   6.720  13.057  1.00  0.00     0.011 C 
HETATM   18  C30 UNL     1       0.797   6.838  13.403  1.00  0.00     0.014 C 
HETATM   19  C31 UNL     1       1.124   8.086  14.259  1.00  0.00    -0.002 C 
HETATM   20  C32 UNL     1       0.933   9.347  13.365  1.00  0.00     0.019 C 
ENDROOT
BRANCH   1  21
HETATM   21  C8  UNL     1       3.844   8.404  14.160  1.00  0.00     0.087 C 
HETATM   22  C9  UNL     1       5.038   8.387  15.138  1.00  0.00     0.049 C 
BRANCH  21  23
HETATM   23  C7  UNL     1       4.075   7.378  13.008  1.00  0.00     0.181 C 
BRANCH  23  24
HETATM   24  C6  UNL     1       3.671   7.875  11.600  1.00  0.00     0.157 C 
HETATM   25  O1  UNL     1       4.639   8.803  11.082  1.00  0.00    -0.382 OA
HETATM   26  C5  UNL     1       4.575   8.776   9.646  1.00  0.00     0.173 C 
HETATM   27  C4  UNL     1       3.610   7.661   9.232  1.00  0.00     0.016 C 
HETATM   28  C33 UNL     1       3.539   6.805  10.502  1.00  0.00     0.019 C 
HETATM   29  C34 UNL     1       4.647   5.748  10.483  1.00  0.00     0.013 C 
BRANCH  27  30
HETATM   30  C3  UNL     1       2.221   8.189   8.818  1.00  0.00     0.007 C 
BRANCH  30  31
HETATM   31  C2  UNL     1       1.878   7.856   7.361  1.00  0.00    -0.004 C 
HETATM   32  C1  UNL     1       2.279   6.436   7.000  1.00  0.00     0.005 C 
ENDBRANCH  30  31
ENDBRANCH  27  30
ENDBRANCH  23  24
BRANCH  23  33
HETATM   33  O2  UNL     1       5.431   6.923  13.047  1.00  0.00    -0.390 OA
HETATM   34  H13 UNL     1       5.700   6.694  12.136  1.00  0.00     0.210 HD
ENDBRANCH  23  33
ENDBRANCH  21  23
BRANCH  21  35
HETATM   35  O3  UNL     1       3.769   9.709  13.568  1.00  0.00    -0.387 OA
HETATM   36  H17 UNL     1       4.062  10.363  14.230  1.00  0.00     0.210 HD
ENDBRANCH  21  35
ENDBRANCH   1  21
BRANCH   4  37
HETATM   37  O4  UNL     1       0.320   6.948  16.364  1.00  0.00    -0.384 OA
HETATM   38  H23 UNL     1       0.809   6.254  15.899  1.00  0.00     0.211 HD
ENDBRANCH   4  37
BRANCH  11  39
HETATM   39  O6  UNL     1      -7.396   7.139  14.350  1.00  0.00    -0.386 OA
BRANCH  39  40
HETATM   40  C20 UNL     1      -7.753   5.763  14.500  1.00  0.00     0.170 C 
BRANCH  40  41
HETATM   41  C21 UNL     1      -8.199   5.214  13.147  1.00  0.00     0.052 C 
BRANCH  41  42
HETATM   42  C22 UNL     1      -7.952   3.707  13.007  1.00  0.00     0.169 C 
BRANCH  42  43
HETATM   43  O7  UNL     1      -6.579   3.323  13.006  1.00  0.00    -0.396 OA
HETATM   44  C23 UNL     1      -6.019   3.256  11.700  1.00  0.00     0.201 C 
ENDBRANCH  42  43
ENDBRANCH  41  42
ENDBRANCH  40  41
ENDBRANCH  39  40
ENDBRANCH  11  39
TORSDOF 13
ENDMDL
MODEL 4
REMARK minimizedAffinity -9.24830723
REMARK CNNscore 0.420536667
REMARK CNNaffinity 7.01699305
REMARK  13 active torsions:
REMARK  status: ('A' for Active; 'I' for Inactive)
REMARK    1  A    between atoms: C2_2  and  C3_3 
REMARK    2  A    between atoms: C3_3  and  C4_4 
REMARK    3  A    between atoms: C6_7  and  C7_8 
REMARK    4  A    between atoms: C7_8  and  O2_9 
REMARK    5  A    between atoms: C7_8  and  C8_10 
REMARK    6  A    between atoms: C8_10  and  O3_12 
REMARK    7  A    between atoms: C8_10  and  C10_13 
REMARK    8  A    between atoms: C13_16  and  O4_17 
REMARK    9  A    between atoms: C19_24  and  O6_25 
REMARK   10  A    between atoms: O6_25  and  C20_26 
REMARK   11  A    between atoms: C20_26  and  C21_27 
REMARK   12  A    between atoms: C21_27  and  C22_28 
REMARK   13  A    between atoms: C22_28  and  O7_29 
ROOT
HETATM    1  C10 UNL     1      -0.253   5.499  13.106  1.00  0.00     0.034 C 
HETATM    2  C11 UNL     1       0.355   6.361  14.263  1.00  0.00     0.012 C 
HETATM    3  C12 UNL     1      -0.821   7.000  15.031  1.00  0.00     0.044 C 
HETATM    4  C13 UNL     1      -2.049   6.237  14.532  1.00  0.00     0.089 C 
HETATM    5  C14 UNL     1      -3.454   6.768  14.689  1.00  0.00    -0.037 C 
HETATM    6  C15 UNL     1      -3.738   7.990  15.162  1.00  0.00     0.057 C 
HETATM    7  C16 UNL     1      -5.110   8.538  15.101  1.00  0.00     0.154 C 
HETATM    8  O5  UNL     1      -5.316   9.635  15.614  1.00  0.00    -0.293 OA
HETATM    9  C17 UNL     1      -6.179   7.761  14.331  1.00  0.00     0.071 C 
HETATM   10  C18 UNL     1      -7.577   8.227  14.760  1.00  0.00     0.045 C 
HETATM   11  C19 UNL     1      -7.915   7.835  16.205  1.00  0.00     0.122 C 
HETATM   12  C24 UNL     1      -7.693   6.342  16.447  1.00  0.00     0.033 C 
HETATM   13  C25 UNL     1      -6.325   5.849  15.972  1.00  0.00     0.013 C 
HETATM   14  C26 UNL     1      -6.000   6.232  14.493  1.00  0.00    -0.026 C 
HETATM   15  C27 UNL     1      -6.991   5.472  13.571  1.00  0.00     0.016 C 
HETATM   16  C28 UNL     1      -4.520   5.807  14.156  1.00  0.00     0.026 C 
HETATM   17  C29 UNL     1      -4.227   5.546  12.659  1.00  0.00     0.011 C 
HETATM   18  C30 UNL     1      -2.774   5.100  12.384  1.00  0.00     0.014 C 
HETATM   19  C31 UNL     1      -1.721   6.049  13.008  1.00  0.00    -0.002 C 
HETATM   20  C32 UNL     1      -1.762   7.396  12.226  1.00  0.00     0.019 C 
ENDROOT
BRANCH   1  21
HETATM   21  C8  UNL     1       0.677   5.422  11.840  1.00  0.00     0.087 C 
HETATM   22  C9  UNL     1      -0.064   6.052  10.642  1.00  0.00     0.049 C 
BRANCH  21  23
HETATM   23  C7  UNL     1       2.042   6.142  12.070  1.00  0.00     0.181 C 
BRANCH  23  24
HETATM   24  C6  UNL     1       2.467   7.111  10.941  1.00  0.00     0.157 C 
HETATM   25  O1  UNL     1       3.565   7.940  11.359  1.00  0.00    -0.382 OA
HETATM   26  C5  UNL     1       4.289   8.361  10.192  1.00  0.00     0.173 C 
HETATM   27  C4  UNL     1       3.699   7.639   8.977  1.00  0.00     0.016 C 
HETATM   28  C33 UNL     1       2.948   6.471   9.627  1.00  0.00     0.019 C 
HETATM   29  C34 UNL     1       3.886   5.271   9.788  1.00  0.00     0.013 C 
BRANCH  27  30
HETATM   30  C3  UNL     1       2.758   8.533   8.142  1.00  0.00     0.007 C 
BRANCH  30  31
HETATM   31  C2  UNL     1       1.522   7.776   7.643  1.00  0.00    -0.004 C 
HETATM   32  C1  UNL     1       1.768   7.125   6.292  1.00  0.00     0.005 C 
ENDBRANCH  30  31
ENDBRANCH  27  30
ENDBRANCH  23  24
BRANCH  23  33
HETATM   33  O2  UNL     1       2.029   6.781  13.350  1.00  0.00    -0.390 OA
HETATM   34  H13 UNL     1       2.610   7.566  13.303  1.00  0.00     0.210 HD
ENDBRANCH  23  33
ENDBRANCH  21  23
BRANCH  21  35
HETATM   35  O3  UNL     1       0.960   4.052  11.522  1.00  0.00    -0.387 OA
HETATM   36  H17 UNL     1       0.232   3.710  10.969  1.00  0.00     0.210 HD
ENDBRANCH  21  35
ENDBRANCH   1  21
BRANCH   4  37
HETATM   37  O4  UNL     1      -2.029   5.016  15.291  1.00  0.00    -0.384 OA
HETATM   38  H23 UNL     1      -2.038   4.256  14.691  1.00  0.00     0.211 HD
ENDBRANCH   4  37
BRANCH  11  39
HETATM   39  O6  UNL     1      -9.299   8.083  16.464  1.00  0.00    -0.386 OA
BRANCH  39  40
HETATM   40  C20 UNL     1     -10.051   8.422  15.296  1.00  0.00     0.170 C 
BRANCH  40  41
HETATM   41  C21 UNL     1     -10.805   7.184  14.814  1.00  0.00     0.052 C 
BRANCH  41  42
HETATM   42  C22 UNL     1     -11.149   7.245  13.321  1.00  0.00     0.169 C 
BRANCH  42  43
HETATM   43  O7  UNL     1     -12.466   7.706  13.028  1.00  0.00    -0.396 OA
HETATM   44  C23 UNL     1     -13.479   6.798  13.444  1.00  0.00     0.201 C 
ENDBRANCH  42  43
ENDBRANCH  41  42
ENDBRANCH  40  41
ENDBRANCH  39  40
ENDBRANCH  11  39
TORSDOF 13
ENDMDL
MODEL 5
REMARK minimizedAffinity -7.44117928
REMARK CNNscore 0.414981455
REMARK CNNaffinity 6.62016916
REMARK  13 active torsions:
REMARK  status: ('A' for Active; 'I' for Inactive)
REMARK    1  A    between atoms: C2_2  and  C3_3 
REMARK    2  A    between atoms: C3_3  and  C4_4 
REMARK    3  A    between atoms: C6_7  and  C7_8 
REMARK    4  A    between atoms: C7_8  and  O2_9 
REMARK    5  A    between atoms: C7_8  and  C8_10 
REMARK    6  A    between atoms: C8_10  and  O3_12 
REMARK    7  A    between atoms: C8_10  and  C10_13 
REMARK    8  A    between atoms: C13_16  and  O4_17 
REMARK    9  A    between atoms: C19_24  and  O6_25 
REMARK   10  A    between atoms: O6_25  and  C20_26 
REMARK   11  A    between atoms: C20_26  and  C21_27 
REMARK   12  A    between atoms: C21_27  and  C22_28 
REMARK   13  A    between atoms: C22_28  and  O7_29 
ROOT
HETATM    1  C10 UNL     1      -5.797   5.518  14.458  1.00  0.00     0.034 C 
HETATM    2  C11 UNL     1      -5.486   6.238  15.812  1.00  0.00     0.012 C 
HETATM    3  C12 UNL     1      -6.686   7.152  16.138  1.00  0.00     0.044 C 
HETATM    4  C13 UNL     1      -7.778   6.687  15.173  1.00  0.00     0.089 C 
HETATM    5  C14 UNL     1      -8.982   7.536  14.840  1.00  0.00    -0.037 C 
HETATM    6  C15 UNL     1      -9.138   8.801  15.258  1.00  0.00     0.057 C 
HETATM    7  C16 UNL     1     -10.228   9.653  14.737  1.00  0.00     0.154 C 
HETATM    8  O5  UNL     1     -10.356  10.780  15.211  1.00  0.00    -0.293 OA
HETATM    9  C17 UNL     1     -11.079   9.133  13.577  1.00  0.00     0.071 C 
HETATM   10  C18 UNL     1     -12.392   9.923  13.496  1.00  0.00     0.045 C 
HETATM   11  C19 UNL     1     -13.322   9.652  14.686  1.00  0.00     0.122 C 
HETATM   12  C24 UNL     1     -13.549   8.154  14.890  1.00  0.00     0.033 C 
HETATM   13  C25 UNL     1     -12.252   7.344  14.918  1.00  0.00     0.013 C 
HETATM   14  C26 UNL     1     -11.323   7.608  13.690  1.00  0.00    -0.026 C 
HETATM   15  C27 UNL     1     -12.043   7.083  12.420  1.00  0.00     0.016 C 
HETATM   16  C28 UNL     1      -9.961   6.841  13.891  1.00  0.00     0.026 C 
HETATM   17  C29 UNL     1      -9.199   6.487  12.590  1.00  0.00     0.011 C 
HETATM   18  C30 UNL     1      -7.889   5.706  12.838  1.00  0.00     0.014 C 
HETATM   19  C31 UNL     1      -6.959   6.395  13.867  1.00  0.00    -0.002 C 
HETATM   20  C32 UNL     1      -6.401   7.696  13.217  1.00  0.00     0.019 C 
ENDROOT
BRANCH   1  21
HETATM   21  C8  UNL     1      -4.506   5.198  13.619  1.00  0.00     0.087 C 
HETATM   22  C9  UNL     1      -4.919   4.418  12.352  1.00  0.00     0.049 C 
BRANCH  21  23
HETATM   23  C7  UNL     1      -3.726   6.490  13.227  1.00  0.00     0.181 C 
BRANCH  23  24
HETATM   24  C6  UNL     1      -3.348   7.411  14.412  1.00  0.00     0.157 C 
HETATM   25  O1  UNL     1      -2.151   6.950  15.062  1.00  0.00    -0.382 OA
HETATM   26  C5  UNL     1      -1.524   8.070  15.709  1.00  0.00     0.173 C 
HETATM   27  C4  UNL     1      -2.293   9.337  15.324  1.00  0.00     0.016 C 
HETATM   28  C33 UNL     1      -3.060   8.885  14.075  1.00  0.00     0.019 C 
HETATM   29  C34 UNL     1      -2.206   9.115  12.825  1.00  0.00     0.013 C 
BRANCH  27  30
HETATM   30  C3  UNL     1      -3.245   9.825  16.436  1.00  0.00     0.007 C 
BRANCH  30  31
HETATM   31  C2  UNL     1      -2.570   9.856  17.812  1.00  0.00    -0.004 C 
HETATM   32  C1  UNL     1      -3.396  10.627  18.827  1.00  0.00     0.005 C 
ENDBRANCH  30  31
ENDBRANCH  27  30
ENDBRANCH  23  24
BRANCH  23  33
HETATM   33  O2  UNL     1      -2.585   6.132  12.441  1.00  0.00    -0.390 OA
HETATM   34  H13 UNL     1      -1.889   6.801  12.595  1.00  0.00     0.210 HD
ENDBRANCH  23  33
ENDBRANCH  21  23
BRANCH  21  35
HETATM   35  O3  UNL     1      -3.617   4.371  14.384  1.00  0.00    -0.387 OA
HETATM   36  H17 UNL     1      -3.886   3.441  14.265  1.00  0.00     0.210 HD
ENDBRANCH  21  35
ENDBRANCH   1  21
BRANCH   4  37
HETATM   37  O4  UNL     1      -8.317   5.512  15.802  1.00  0.00    -0.384 OA
HETATM   38  H23 UNL     1      -8.274   4.763  15.190  1.00  0.00     0.211 HD
ENDBRANCH   4  37
BRANCH  11  39
HETATM   39  O6  UNL     1     -14.608  10.223  14.436  1.00  0.00    -0.386 OA
BRANCH  39  40
HETATM   40  C20 UNL     1     -14.848  10.524  13.059  1.00  0.00     0.170 C 
BRANCH  40  41
HETATM   41  C21 UNL     1     -16.244  10.036  12.679  1.00  0.00     0.052 C 
BRANCH  41  42
HETATM   42  C22 UNL     1     -16.215   8.918  11.628  1.00  0.00     0.169 C 
BRANCH  42  43
HETATM   43  O7  UNL     1     -16.821   9.251  10.382  1.00  0.00    -0.396 OA
HETATM   44  C23 UNL     1     -18.224   9.459  10.482  1.00  0.00     0.201 C 
ENDBRANCH  42  43
ENDBRANCH  41  42
ENDBRANCH  40  41
ENDBRANCH  39  40
ENDBRANCH  11  39
TORSDOF 13
ENDMDL
MODEL 6
REMARK minimizedAffinity -9.83242321
REMARK CNNscore 0.409599692
REMARK CNNaffinity 7.22610235
REMARK  13 active torsions:
REMARK  status: ('A' for Active; 'I' for Inactive)
REMARK    1  A    between atoms: C2_2  and  C3_3 
REMARK    2  A    between atoms: C3_3  and  C4_4 
REMARK    3  A    between atoms: C6_7  and  C7_8 
REMARK    4  A    between atoms: C7_8  and  O2_9 
REMARK    5  A    between atoms: C7_8  and  C8_10 
REMARK    6  A    between atoms: C8_10  and  O3_12 
REMARK    7  A    between atoms: C8_10  and  C10_13 
REMARK    8  A    between atoms: C13_16  and  O4_17 
REMARK    9  A    between atoms: C19_24  and  O6_25 
REMARK   10  A    between atoms: O6_25  and  C20_26 
REMARK   11  A    between atoms: C20_26  and  C21_27 
REMARK   12  A    between atoms: C21_27  and  C22_28 
REMARK   13  A    between atoms: C22_28  and  O7_29 
ROOT
HETATM    1  C10 UNL     1      -5.710   7.579  14.815  1.00  0.00     0.034 C 
HETATM    2  C11 UNL     1      -5.495   9.044  15.322  1.00  0.00     0.012 C 
HETATM    3  C12 UNL     1      -4.078   9.481  14.894  1.00  0.00     0.044 C 
HETATM    4  C13 UNL     1      -3.654   8.417  13.879  1.00  0.00     0.089 C 
HETATM    5  C14 UNL     1      -2.211   8.193  13.493  1.00  0.00    -0.037 C 
HETATM    6  C15 UNL     1      -1.179   8.811  14.086  1.00  0.00     0.057 C 
HETATM    7  C16 UNL     1       0.217   8.405  13.815  1.00  0.00     0.154 C 
HETATM    8  O5  UNL     1       1.118   9.057  14.338  1.00  0.00    -0.293 OA
HETATM    9  C17 UNL     1       0.470   7.148  12.981  1.00  0.00     0.071 C 
HETATM   10  C18 UNL     1       1.907   7.158  12.441  1.00  0.00     0.045 C 
HETATM   11  C19 UNL     1       2.139   8.256  11.395  1.00  0.00     0.122 C 
HETATM   12  C24 UNL     1       1.094   8.200  10.281  1.00  0.00     0.033 C 
HETATM   13  C25 UNL     1      -0.342   8.133  10.803  1.00  0.00     0.013 C 
HETATM   14  C26 UNL     1      -0.576   6.997  11.849  1.00  0.00    -0.026 C 
HETATM   15  C27 UNL     1      -0.396   5.634  11.128  1.00  0.00     0.016 C 
HETATM   16  C28 UNL     1      -2.039   7.109  12.425  1.00  0.00     0.026 C 
HETATM   17  C29 UNL     1      -2.641   5.793  12.975  1.00  0.00     0.011 C 
HETATM   18  C30 UNL     1      -4.086   5.948  13.497  1.00  0.00     0.014 C 
HETATM   19  C31 UNL     1      -4.243   7.106  14.512  1.00  0.00    -0.002 C 
HETATM   20  C32 UNL     1      -3.504   6.702  15.823  1.00  0.00     0.019 C 
ENDROOT
BRANCH   1  21
HETATM   21  C8  UNL     1      -6.664   6.740  15.741  1.00  0.00     0.087 C 
HETATM   22  C9  UNL     1      -7.413   7.704  16.685  1.00  0.00     0.049 C 
BRANCH  21  23
HETATM   23  C7  UNL     1      -7.682   5.891  14.919  1.00  0.00     0.181 C 
BRANCH  23  24
HETATM   24  C6  UNL     1      -7.054   4.765  14.063  1.00  0.00     0.157 C 
HETATM   25  O1  UNL     1      -7.647   3.492  14.368  1.00  0.00    -0.382 OA
HETATM   26  C5  UNL     1      -7.504   2.636  13.223  1.00  0.00     0.173 C 
HETATM   27  C4  UNL     1      -6.913   3.463  12.078  1.00  0.00     0.016 C 
HETATM   28  C33 UNL     1      -7.195   4.899  12.537  1.00  0.00     0.019 C 
HETATM   29  C34 UNL     1      -8.574   5.344  12.044  1.00  0.00     0.013 C 
BRANCH  27  30
HETATM   30  C3  UNL     1      -5.404   3.213  11.870  1.00  0.00     0.007 C 
BRANCH  30  31
HETATM   31  C2  UNL     1      -5.107   1.781  11.411  1.00  0.00    -0.004 C 
HETATM   32  C1  UNL     1      -3.663   1.393  11.678  1.00  0.00     0.005 C 
ENDBRANCH  30  31
ENDBRANCH  27  30
ENDBRANCH  23  24
BRANCH  23  33
HETATM   33  O2  UNL     1      -8.698   5.394  15.796  1.00  0.00    -0.390 OA
HETATM   34  H13 UNL     1      -9.022   4.545  15.435  1.00  0.00     0.210 HD
ENDBRANCH  23  33
ENDBRANCH  21  23
BRANCH  21  35
HETATM   35  O3  UNL     1      -5.895   5.834  16.545  1.00  0.00    -0.387 OA
HETATM   36  H17 UNL     1      -5.594   6.311  17.341  1.00  0.00     0.210 HD
ENDBRANCH  21  35
ENDBRANCH   1  21
BRANCH   4  37
HETATM   37  O4  UNL     1      -4.303   8.823  12.662  1.00  0.00    -0.384 OA
HETATM   38  H23 UNL     1      -4.843   8.096  12.320  1.00  0.00     0.211 HD
ENDBRANCH   4  37
BRANCH  11  39
HETATM   39  O6  UNL     1       3.408   8.065  10.765  1.00  0.00    -0.386 OA
BRANCH  39  40
HETATM   40  C20 UNL     1       3.479   6.887   9.957  1.00  0.00     0.170 C 
BRANCH  40  41
HETATM   41  C21 UNL     1       3.084   7.241   8.526  1.00  0.00     0.052 C 
BRANCH  41  42
HETATM   42  C22 UNL     1       2.677   6.013   7.702  1.00  0.00     0.169 C 
BRANCH  42  43
HETATM   43  O7  UNL     1       3.478   4.854   7.919  1.00  0.00    -0.396 OA
HETATM   44  C23 UNL     1       3.566   4.015   6.773  1.00  0.00     0.201 C 
ENDBRANCH  42  43
ENDBRANCH  41  42
ENDBRANCH  40  41
ENDBRANCH  39  40
ENDBRANCH  11  39
TORSDOF 13
ENDMDL
MODEL 7
REMARK minimizedAffinity -7.92358255
REMARK CNNscore 0.40215829
REMARK CNNaffinity 7.24667501
REMARK  13 active torsions:
REMARK  status: ('A' for Active; 'I' for Inactive)
REMARK    1  A    between atoms: C2_2  and  C3_3 
REMARK    2  A    between atoms: C3_3  and  C4_4 
REMARK    3  A    between atoms: C6_7  and  C7_8 
REMARK    4  A    between atoms: C7_8  and  O2_9 
REMARK    5  A    between atoms: C7_8  and  C8_10 
REMARK    6  A    between atoms: C8_10  and  O3_12 
REMARK    7  A    between atoms: C8_10  and  C10_13 
REMARK    8  A    between atoms: C13_16  and  O4_17 
REMARK    9  A    between atoms: C19_24  and  O6_25 
REMARK   10  A    between atoms: O6_25  and  C20_26 
REMARK   11  A    between atoms: C20_26  and  C21_27 
REMARK   12  A    between atoms: C21_27  and  C22_28 
REMARK   13  A    between atoms: C22_28  and  O7_29 
ROOT
HETATM    1  C10 UNL     1      -7.929   7.076  15.848  1.00  0.00     0.034 C 
HETATM    2  C11 UNL     1      -8.241   5.546  15.738  1.00  0.00     0.012 C 
HETATM    3  C12 UNL     1      -7.007   4.865  15.109  1.00  0.00     0.044 C 
HETATM    4  C13 UNL     1      -5.913   5.931  15.191  1.00  0.00     0.089 C 
HETATM    5  C14 UNL     1      -4.661   5.877  14.347  1.00  0.00    -0.037 C 
HETATM    6  C15 UNL     1      -4.456   4.971  13.380  1.00  0.00     0.057 C 
HETATM    7  C16 UNL     1      -3.313   5.087  12.449  1.00  0.00     0.154 C 
HETATM    8  O5  UNL     1      -3.144   4.187  11.629  1.00  0.00    -0.293 OA
HETATM    9  C17 UNL     1      -2.458   6.355  12.488  1.00  0.00     0.071 C 
HETATM   10  C18 UNL     1      -1.106   6.095  11.808  1.00  0.00     0.045 C 
HETATM   11  C19 UNL     1      -0.222   5.121  12.598  1.00  0.00     0.122 C 
HETATM   12  C24 UNL     1      -0.073   5.556  14.056  1.00  0.00     0.033 C 
HETATM   13  C25 UNL     1      -1.407   5.873  14.732  1.00  0.00     0.013 C 
HETATM   14  C26 UNL     1      -2.290   6.884  13.933  1.00  0.00    -0.026 C 
HETATM   15  C27 UNL     1      -1.563   8.255  13.924  1.00  0.00     0.016 C 
HETATM   16  C28 UNL     1      -3.692   7.026  14.639  1.00  0.00     0.026 C 
HETATM   17  C29 UNL     1      -4.436   8.359  14.380  1.00  0.00     0.011 C 
HETATM   18  C30 UNL     1      -5.788   8.463  15.120  1.00  0.00     0.014 C 
HETATM   19  C31 UNL     1      -6.711   7.245  14.870  1.00  0.00    -0.002 C 
HETATM   20  C32 UNL     1      -7.188   7.298  13.388  1.00  0.00     0.019 C 
ENDROOT
BRANCH   1  21
HETATM   21  C8  UNL     1      -9.210   7.977  15.720  1.00  0.00     0.087 C 
HETATM   22  C9  UNL     1      -8.797   9.348  15.144  1.00  0.00     0.049 C 
BRANCH  21  23
HETATM   23  C7  UNL     1     -10.303   7.321  14.821  1.00  0.00     0.181 C 
BRANCH  23  24
HETATM   24  C6  UNL     1     -11.550   8.199  14.561  1.00  0.00     0.157 C 
HETATM   25  O1  UNL     1     -11.602   8.629  13.190  1.00  0.00    -0.382 OA
HETATM   26  C5  UNL     1     -12.971   8.899  12.848  1.00  0.00     0.173 C 
HETATM   27  C4  UNL     1     -13.850   8.478  14.029  1.00  0.00     0.016 C 
HETATM   28  C33 UNL     1     -12.919   7.543  14.810  1.00  0.00     0.019 C 
HETATM   29  C34 UNL     1     -13.062   6.110  14.291  1.00  0.00     0.013 C 
BRANCH  27  30
HETATM   30  C3  UNL     1     -14.318   9.672  14.888  1.00  0.00     0.007 C 
BRANCH  30  31
HETATM   31  C2  UNL     1     -15.714   9.453  15.483  1.00  0.00    -0.004 C 
HETATM   32  C1  UNL     1     -16.780   9.371  14.403  1.00  0.00     0.005 C 
ENDBRANCH  30  31
ENDBRANCH  27  30
ENDBRANCH  23  24
BRANCH  23  33
HETATM   33  O2  UNL     1      -9.702   6.867  13.604  1.00  0.00    -0.390 OA
HETATM   34  H13 UNL     1     -10.379   6.906  12.900  1.00  0.00     0.210 HD
ENDBRANCH  23  33
ENDBRANCH  21  23
BRANCH  21  35
HETATM   35  O3  UNL     1      -9.789   8.193  17.016  1.00  0.00    -0.387 OA
HETATM   36  H17 UNL     1      -9.337   8.951  17.431  1.00  0.00     0.210 HD
ENDBRANCH  21  35
ENDBRANCH   1  21
BRANCH   4  37
HETATM   37  O4  UNL     1      -5.448   5.845  16.548  1.00  0.00    -0.384 OA
HETATM   38  H23 UNL     1      -5.511   6.713  16.973  1.00  0.00     0.211 HD
ENDBRANCH   4  37
BRANCH  11  39
HETATM   39  O6  UNL     1       1.096   5.106  12.046  1.00  0.00    -0.386 OA
BRANCH  39  40
HETATM   40  C20 UNL     1       1.200   5.770  10.784  1.00  0.00     0.170 C 
BRANCH  40  41
HETATM   41  C21 UNL     1       2.655   6.170  10.550  1.00  0.00     0.052 C 
BRANCH  41  42
HETATM   42  C22 UNL     1       3.089   5.998   9.090  1.00  0.00     0.169 C 
BRANCH  42  43
HETATM   43  O7  UNL     1       3.003   4.665   8.591  1.00  0.00    -0.396 OA
HETATM   44  C23 UNL     1       4.024   3.814   9.096  1.00  0.00     0.201 C 
ENDBRANCH  42  43
ENDBRANCH  41  42
ENDBRANCH  40  41
ENDBRANCH  39  40
ENDBRANCH  11  39
TORSDOF 13
ENDMDL
MODEL 8
REMARK minimizedAffinity -9.33108616
REMARK CNNscore 0.397882819
REMARK CNNaffinity 7.12891388
REMARK  13 active torsions:
REMARK  status: ('A' for Active; 'I' for Inactive)
REMARK    1  A    between atoms: C2_2  and  C3_3 
REMARK    2  A    between atoms: C3_3  and  C4_4 
REMARK    3  A    between atoms: C6_7  and  C7_8 
REMARK    4  A    between atoms: C7_8  and  O2_9 
REMARK    5  A    between atoms: C7_8  and  C8_10 
REMARK    6  A    between atoms: C8_10  and  O3_12 
REMARK    7  A    between atoms: C8_10  and  C10_13 
REMARK    8  A    between atoms: C13_16  and  O4_17 
REMARK    9  A    between atoms: C19_24  and  O6_25 
REMARK   10  A    between atoms: O6_25  and  C20_26 
REMARK   11  A    between atoms: C20_26  and  C21_27 
REMARK   12  A    between atoms: C21_27  and  C22_28 
REMARK   13  A    between atoms: C22_28  and  O7_29 
ROOT
HETATM    1  C10 UNL     1      -5.671   7.404  14.782  1.00  0.00     0.034 C 
HETATM    2  C11 UNL     1      -5.589   8.925  15.144  1.00  0.00     0.012 C 
HETATM    3  C12 UNL     1      -4.203   9.435  14.694  1.00  0.00     0.044 C 
HETATM    4  C13 UNL     1      -3.670   8.316  13.797  1.00  0.00     0.089 C 
HETATM    5  C14 UNL     1      -2.205   8.177  13.456  1.00  0.00    -0.037 C 
HETATM    6  C15 UNL     1      -1.241   8.936  13.997  1.00  0.00     0.057 C 
HETATM    7  C16 UNL     1       0.189   8.624  13.789  1.00  0.00     0.154 C 
HETATM    8  O5  UNL     1       1.021   9.398  14.256  1.00  0.00    -0.293 OA
HETATM    9  C17 UNL     1       0.563   7.317  13.087  1.00  0.00     0.071 C 
HETATM   10  C18 UNL     1       2.006   7.395  12.569  1.00  0.00     0.045 C 
HETATM   11  C19 UNL     1       2.171   8.400  11.422  1.00  0.00     0.122 C 
HETATM   12  C24 UNL     1       1.158   8.147  10.305  1.00  0.00     0.033 C 
HETATM   13  C25 UNL     1      -0.279   8.011  10.811  1.00  0.00     0.013 C 
HETATM   14  C26 UNL     1      -0.441   6.967  11.962  1.00  0.00    -0.026 C 
HETATM   15  C27 UNL     1      -0.133   5.561  11.383  1.00  0.00     0.016 C 
HETATM   16  C28 UNL     1      -1.921   7.013  12.504  1.00  0.00     0.026 C 
HETATM   17  C29 UNL     1      -2.424   5.711  13.174  1.00  0.00     0.011 C 
HETATM   18  C30 UNL     1      -3.889   5.794  13.657  1.00  0.00     0.014 C 
HETATM   19  C31 UNL     1      -4.163   7.029  14.549  1.00  0.00    -0.002 C 
HETATM   20  C32 UNL     1      -3.423   6.819  15.904  1.00  0.00     0.019 C 
ENDROOT
BRANCH   1  21
HETATM   21  C8  UNL     1      -6.573   6.583  15.774  1.00  0.00     0.087 C 
HETATM   22  C9  UNL     1      -7.293   7.567  16.720  1.00  0.00     0.049 C 
BRANCH  21  23
HETATM   23  C7  UNL     1      -7.614   5.697  15.024  1.00  0.00     0.181 C 
BRANCH  23  24
HETATM   24  C6  UNL     1      -7.008   4.674  14.033  1.00  0.00     0.157 C 
HETATM   25  O1  UNL     1      -7.583   3.369  14.222  1.00  0.00    -0.382 OA
HETATM   26  C5  UNL     1      -7.474   2.640  12.988  1.00  0.00     0.173 C 
HETATM   27  C4  UNL     1      -6.927   3.589  11.918  1.00  0.00     0.016 C 
HETATM   28  C33 UNL     1      -7.202   4.966  12.535  1.00  0.00     0.019 C 
HETATM   29  C34 UNL     1      -8.601   5.447  12.138  1.00  0.00     0.013 C 
BRANCH  27  30
HETATM   30  C3  UNL     1      -5.425   3.378  11.634  1.00  0.00     0.007 C 
BRANCH  30  31
HETATM   31  C2  UNL     1      -5.073   1.901  11.422  1.00  0.00    -0.004 C 
HETATM   32  C1  UNL     1      -3.613   1.620  11.735  1.00  0.00     0.005 C 
ENDBRANCH  30  31
ENDBRANCH  27  30
ENDBRANCH  23  24
BRANCH  23  33
HETATM   33  O2  UNL     1      -8.477   5.072  15.978  1.00  0.00    -0.390 OA
HETATM   34  H13 UNL     1      -8.776   4.219  15.605  1.00  0.00     0.210 HD
ENDBRANCH  23  33
ENDBRANCH  21  23
BRANCH  21  35
HETATM   35  O3  UNL     1      -5.758   5.711  16.571  1.00  0.00    -0.387 OA
HETATM   36  H17 UNL     1      -5.429   6.216  17.338  1.00  0.00     0.210 HD
ENDBRANCH  21  35
ENDBRANCH   1  21
BRANCH   4  37
HETATM   37  O4  UNL     1      -4.323   8.545  12.537  1.00  0.00    -0.384 OA
HETATM   38  H23 UNL     1      -4.794   7.745  12.261  1.00  0.00     0.211 HD
ENDBRANCH   4  37
BRANCH  11  39
HETATM   39  O6  UNL     1       3.465   8.256  10.832  1.00  0.00    -0.386 OA
BRANCH  39  40
HETATM   40  C20 UNL     1       4.032   6.954  11.001  1.00  0.00     0.170 C 
BRANCH  40  41
HETATM   41  C21 UNL     1       5.553   7.059  10.911  1.00  0.00     0.052 C 
BRANCH  41  42
HETATM   42  C22 UNL     1       6.155   7.920  12.028  1.00  0.00     0.169 C 
BRANCH  42  43
HETATM   43  O7  UNL     1       7.575   7.857  12.134  1.00  0.00    -0.396 OA
HETATM   44  C23 UNL     1       8.043   8.028  13.466  1.00  0.00     0.201 C 
ENDBRANCH  42  43
ENDBRANCH  41  42
ENDBRANCH  40  41
ENDBRANCH  39  40
ENDBRANCH  11  39
TORSDOF 13
ENDMDL
MODEL 9
REMARK minimizedAffinity -7.08765507
REMARK CNNscore 0.372891933
REMARK CNNaffinity 6.11957359
REMARK  13 active torsions:
REMARK  status: ('A' for Active; 'I' for Inactive)
REMARK    1  A    between atoms: C2_2  and  C3_3 
REMARK    2  A    between atoms: C3_3  and  C4_4 
REMARK    3  A    between atoms: C6_7  and  C7_8 
REMARK    4  A    between atoms: C7_8  and  O2_9 
REMARK    5  A    between atoms: C7_8  and  C8_10 
REMARK    6  A    between atoms: C8_10  and  O3_12 
REMARK    7  A    between atoms: C8_10  and  C10_13 
REMARK    8  A    between atoms: C13_16  and  O4_17 
REMARK    9  A    between atoms: C19_24  and  O6_25 
REMARK   10  A    between atoms: O6_25  and  C20_26 
REMARK   11  A    between atoms: C20_26  and  C21_27 
REMARK   12  A    between atoms: C21_27  and  C22_28 
REMARK   13  A    between atoms: C22_28  and  O7_29 
ROOT
HETATM    1  C10 UNL     1      -0.740   9.967  17.057  1.00  0.00     0.034 C 
HETATM    2  C11 UNL     1       0.050  10.122  15.714  1.00  0.00     0.012 C 
HETATM    3  C12 UNL     1       1.397  10.800  16.043  1.00  0.00     0.044 C 
HETATM    4  C13 UNL     1       1.496  10.705  17.567  1.00  0.00     0.089 C 
HETATM    5  C14 UNL     1       2.429  11.576  18.376  1.00  0.00    -0.037 C 
HETATM    6  C15 UNL     1       3.151  12.577  17.852  1.00  0.00     0.057 C 
HETATM    7  C16 UNL     1       3.885  13.527  18.715  1.00  0.00     0.154 C 
HETATM    8  O5  UNL     1       4.581  14.380  18.171  1.00  0.00    -0.293 OA
HETATM    9  C17 UNL     1       3.671  13.463  20.229  1.00  0.00     0.071 C 
HETATM   10  C18 UNL     1       4.821  14.179  20.951  1.00  0.00     0.045 C 
HETATM   11  C19 UNL     1       6.159  13.442  20.812  1.00  0.00     0.122 C 
HETATM   12  C24 UNL     1       6.034  11.973  21.219  1.00  0.00     0.033 C 
HETATM   13  C25 UNL     1       4.858  11.259  20.551  1.00  0.00     0.013 C 
HETATM   14  C26 UNL     1       3.496  12.004  20.718  1.00  0.00    -0.026 C 
HETATM   15  C27 UNL     1       3.117  11.983  22.222  1.00  0.00     0.016 C 
HETATM   16  C28 UNL     1       2.388  11.265  19.874  1.00  0.00     0.026 C 
HETATM   17  C29 UNL     1       0.934  11.463  20.367  1.00  0.00     0.011 C 
HETATM   18  C30 UNL     1      -0.110  10.692  19.529  1.00  0.00     0.014 C 
HETATM   19  C31 UNL     1       0.012  10.964  18.009  1.00  0.00    -0.002 C 
HETATM   20  C32 UNL     1      -0.433  12.433  17.746  1.00  0.00     0.019 C 
ENDROOT
BRANCH   1  21
HETATM   21  C8  UNL     1      -2.299  10.037  16.867  1.00  0.00     0.087 C 
HETATM   22  C9  UNL     1      -2.834  11.275  17.617  1.00  0.00     0.049 C 
BRANCH  21  23
HETATM   23  C7  UNL     1      -2.705  10.100  15.362  1.00  0.00     0.181 C 
BRANCH  23  24
HETATM   24  C6  UNL     1      -3.400   8.829  14.819  1.00  0.00     0.157 C 
HETATM   25  O1  UNL     1      -4.689   9.142  14.264  1.00  0.00    -0.382 OA
HETATM   26  C5  UNL     1      -5.021   8.141  13.288  1.00  0.00     0.173 C 
HETATM   27  C4  UNL     1      -3.809   7.221  13.115  1.00  0.00     0.016 C 
HETATM   28  C33 UNL     1      -2.672   8.070  13.696  1.00  0.00     0.019 C 
HETATM   29  C34 UNL     1      -2.064   8.950  12.600  1.00  0.00     0.013 C 
BRANCH  27  30
HETATM   30  C3  UNL     1      -3.960   5.878  13.860  1.00  0.00     0.007 C 
BRANCH  30  31
HETATM   31  C2  UNL     1      -3.658   4.674  12.961  1.00  0.00    -0.004 C 
HETATM   32  C1  UNL     1      -4.921   4.111  12.331  1.00  0.00     0.005 C 
ENDBRANCH  30  31
ENDBRANCH  27  30
ENDBRANCH  23  24
BRANCH  23  33
HETATM   33  O2  UNL     1      -3.484  11.277  15.132  1.00  0.00    -0.390 OA
HETATM   34  H13 UNL     1      -4.100  11.094  14.396  1.00  0.00     0.210 HD
ENDBRANCH  23  33
ENDBRANCH  21  23
BRANCH  21  35
HETATM   35  O3  UNL     1      -2.915   8.870  17.432  1.00  0.00    -0.387 OA
HETATM   36  H17 UNL     1      -3.055   9.030  18.384  1.00  0.00     0.210 HD
ENDBRANCH  21  35
ENDBRANCH   1  21
BRANCH   4  37
HETATM   37  O4  UNL     1       1.951   9.361  17.800  1.00  0.00    -0.384 OA
HETATM   38  H23 UNL     1       1.340   8.906  18.396  1.00  0.00     0.211 HD
ENDBRANCH   4  37
BRANCH  11  39
HETATM   39  O6  UNL     1       7.126  14.022  21.691  1.00  0.00    -0.386 OA
BRANCH  39  40
HETATM   40  C20 UNL     1       7.888  13.059  22.425  1.00  0.00     0.170 C 
BRANCH  40  41
HETATM   41  C21 UNL     1       9.366  13.234  22.088  1.00  0.00     0.052 C 
BRANCH  41  42
HETATM   42  C22 UNL     1       9.745  12.613  20.737  1.00  0.00     0.169 C 
BRANCH  42  43
HETATM   43  O7  UNL     1      10.816  11.674  20.789  1.00  0.00    -0.396 OA
HETATM   44  C23 UNL     1      11.738  11.822  19.716  1.00  0.00     0.201 C 
ENDBRANCH  42  43
ENDBRANCH  41  42
ENDBRANCH  40  41
ENDBRANCH  39  40
ENDBRANCH  11  39
TORSDOF 13
ENDMDL
