MODEL 1
REMARK minimizedAffinity -8.42934132
REMARK  8 active torsions:
REMARK  status: ('A' for Active; 'I' for Inactive)
REMARK    1  A    between atoms: C2_2  and  O2_4 
REMARK    2  A    between atoms: O2_4  and  C3_5 
REMARK    3  A    between atoms: C12_15  and  C13_16 
REMARK    4  A    between atoms: C13_16  and  O5_18 
REMARK    5  A    between atoms: O5_18  and  C14_19 
REMARK    6  A    between atoms: C14_19  and  C15_20 
REMARK    7  A    between atoms: C15_20  and  N1_21 
REMARK    8  A    between atoms: C25_31  and  O6_32 
ROOT
HETATM    1  C3  UNL     1      -0.815  52.602 -25.235  1.00  0.00     0.097 C 
HETATM    2  C4  UNL     1       0.143  53.695 -25.757  1.00  0.00     0.050 C 
HETATM    3  C5  UNL     1      -0.712  52.510 -23.665  1.00  0.00     0.038 C 
HETATM    4  C6  UNL     1       0.709  52.177 -23.184  1.00  0.00     0.087 C 
HETATM    5  C7  UNL     1       0.820  52.281 -21.681  1.00  0.00     0.132 C 
HETATM    6  O3  UNL     1       1.818  52.799 -21.177  1.00  0.00    -0.298 OA
HETATM    7  C8  UNL     1      -0.256  51.597 -20.846  1.00  0.00     0.068 C 
HETATM    8  C9  UNL     1      -0.158  51.967 -19.340  1.00  0.00     0.022 C 
HETATM    9  C10 UNL     1      -0.317  53.467 -19.035  1.00  0.00     0.015 C 
HETATM   10  C11 UNL     1      -1.201  51.169 -18.564  1.00  0.00    -0.070 C 
HETATM   11  C12 UNL     1      -0.995  50.344 -17.515  1.00  0.00     0.085 C 
HETATM   12  C18 UNL     1      -2.614  51.358 -19.083  1.00  0.00     0.035 C 
HETATM   13  C19 UNL     1      -2.705  51.038 -20.577  1.00  0.00     0.010 C 
HETATM   14  C20 UNL     1      -1.678  51.831 -21.421  1.00  0.00     0.006 C 
HETATM   15  C21 UNL     1      -1.763  51.555 -22.976  1.00  0.00    -0.033 C 
HETATM   16  C22 UNL     1      -1.522  50.053 -23.270  1.00  0.00     0.016 C 
HETATM   17  C23 UNL     1      -3.182  51.921 -23.489  1.00  0.00     0.012 C 
HETATM   18  C24 UNL     1      -3.292  51.976 -25.008  1.00  0.00     0.035 C 
HETATM   19  C25 UNL     1      -2.290  52.957 -25.605  1.00  0.00     0.153 C 
ENDROOT
BRANCH  11  20
HETATM   20  C13 UNL     1       0.227  49.928 -16.788  1.00  0.00     0.283 C 
HETATM   21  O4  UNL     1       0.373  48.776 -16.400  1.00  0.00    -0.260 OA
BRANCH  20  22
HETATM   22  O5  UNL     1       1.130  50.921 -16.666  1.00  0.00    -0.316 OA
BRANCH  22  23
HETATM   23  C14 UNL     1       1.049  51.703 -15.460  1.00  0.00     0.209 C 
BRANCH  23  24
HETATM   24  C15 UNL     1       1.830  51.005 -14.334  1.00  0.00     0.298 C 
BRANCH  24  25
HETATM   25  N1  UNL     1       3.251  51.351 -14.169  1.00  0.00     0.082 N 
HETATM   26  C16 UNL     1       3.783  52.073 -15.322  1.00  0.00     0.309 C 
HETATM   27  C17 UNL     1       4.081  50.194 -13.845  1.00  0.00     0.309 C 
ENDBRANCH  24  25
ENDBRANCH  23  24
ENDBRANCH  22  23
ENDBRANCH  20  22
ENDBRANCH  11  20
BRANCH   1  28
HETATM   28  O2  UNL     1      -0.406  51.295 -25.730  1.00  0.00    -0.308 OA
BRANCH  28  29
HETATM   29  C2  UNL     1       0.635  51.139 -26.584  1.00  0.00     0.255 C 
HETATM   30  C1  UNL     1       0.193  51.402 -27.991  1.00  0.00     0.126 C 
HETATM   31  O1  UNL     1       1.778  50.851 -26.260  1.00  0.00    -0.266 OA
ENDBRANCH  28  29
ENDBRANCH   1  28
BRANCH  19  32
HETATM   32  O6  UNL     1      -2.572  53.050 -26.999  1.00  0.00    -0.393 OA
HETATM   33  H39 UNL     1      -1.774  52.830 -27.523  1.00  0.00     0.210 HD
ENDBRANCH  19  32
TORSDOF 8
ENDMDL
MODEL 2
REMARK minimizedAffinity -8.32705498
REMARK  8 active torsions:
REMARK  status: ('A' for Active; 'I' for Inactive)
REMARK    1  A    between atoms: C2_2  and  O2_4 
REMARK    2  A    between atoms: O2_4  and  C3_5 
REMARK    3  A    between atoms: C12_15  and  C13_16 
REMARK    4  A    between atoms: C13_16  and  O5_18 
REMARK    5  A    between atoms: O5_18  and  C14_19 
REMARK    6  A    between atoms: C14_19  and  C15_20 
REMARK    7  A    between atoms: C15_20  and  N1_21 
REMARK    8  A    between atoms: C25_31  and  O6_32 
ROOT
HETATM    1  C3  UNL     1      -0.817  52.602 -25.258  1.00  0.00     0.097 C 
HETATM    2  C4  UNL     1       0.143  53.691 -25.787  1.00  0.00     0.050 C 
HETATM    3  C5  UNL     1      -0.716  52.522 -23.687  1.00  0.00     0.038 C 
HETATM    4  C6  UNL     1       0.704  52.190 -23.202  1.00  0.00     0.087 C 
HETATM    5  C7  UNL     1       0.814  52.305 -21.700  1.00  0.00     0.132 C 
HETATM    6  O3  UNL     1       1.812  52.825 -21.199  1.00  0.00    -0.298 OA
HETATM    7  C8  UNL     1      -0.264  51.628 -20.861  1.00  0.00     0.068 C 
HETATM    8  C9  UNL     1      -0.166  52.008 -19.358  1.00  0.00     0.022 C 
HETATM    9  C10 UNL     1      -0.324  53.510 -19.063  1.00  0.00     0.015 C 
HETATM   10  C11 UNL     1      -1.211  51.217 -18.577  1.00  0.00    -0.070 C 
HETATM   11  C12 UNL     1      -1.008  50.400 -17.522  1.00  0.00     0.085 C 
HETATM   12  C18 UNL     1      -2.623  51.405 -19.099  1.00  0.00     0.035 C 
HETATM   13  C19 UNL     1      -2.714  51.074 -20.591  1.00  0.00     0.010 C 
HETATM   14  C20 UNL     1      -1.684  51.860 -21.439  1.00  0.00     0.006 C 
HETATM   15  C21 UNL     1      -1.769  51.573 -22.992  1.00  0.00    -0.033 C 
HETATM   16  C22 UNL     1      -1.529  50.068 -23.276  1.00  0.00     0.016 C 
HETATM   17  C23 UNL     1      -3.186  51.937 -23.509  1.00  0.00     0.012 C 
HETATM   18  C24 UNL     1      -3.295  51.981 -25.029  1.00  0.00     0.035 C 
HETATM   19  C25 UNL     1      -2.291  52.957 -25.631  1.00  0.00     0.153 C 
ENDROOT
BRANCH  11  20
HETATM   20  C13 UNL     1       0.214  49.986 -16.791  1.00  0.00     0.283 C 
HETATM   21  O4  UNL     1       0.412  48.815 -16.498  1.00  0.00    -0.260 OA
BRANCH  20  22
HETATM   22  O5  UNL     1       1.055  51.012 -16.552  1.00  0.00    -0.316 OA
BRANCH  22  23
HETATM   23  C14 UNL     1       1.554  51.119 -15.206  1.00  0.00     0.209 C 
BRANCH  23  24
HETATM   24  C15 UNL     1       0.790  52.222 -14.455  1.00  0.00     0.298 C 
BRANCH  24  25
HETATM   25  N1  UNL     1      -0.129  51.811 -13.382  1.00  0.00     0.082 N 
HETATM   26  C16 UNL     1      -1.454  51.466 -13.891  1.00  0.00     0.309 C 
HETATM   27  C17 UNL     1      -0.219  52.794 -12.306  1.00  0.00     0.309 C 
ENDBRANCH  24  25
ENDBRANCH  23  24
ENDBRANCH  22  23
ENDBRANCH  20  22
ENDBRANCH  11  20
BRANCH   1  28
HETATM   28  O2  UNL     1      -0.409  51.292 -25.743  1.00  0.00    -0.308 OA
BRANCH  28  29
HETATM   29  C2  UNL     1       0.635  51.128 -26.592  1.00  0.00     0.255 C 
HETATM   30  C1  UNL     1       0.212  51.430 -27.997  1.00  0.00     0.126 C 
HETATM   31  O1  UNL     1       1.768  50.806 -26.264  1.00  0.00    -0.266 OA
ENDBRANCH  28  29
ENDBRANCH   1  28
BRANCH  19  32
HETATM   32  O6  UNL     1      -2.571  53.040 -27.027  1.00  0.00    -0.393 OA
HETATM   33  H39 UNL     1      -1.773  52.816 -27.548  1.00  0.00     0.210 HD
ENDBRANCH  19  32
TORSDOF 8
ENDMDL
MODEL 3
REMARK minimizedAffinity -7.84454203
REMARK  8 active torsions:
REMARK  status: ('A' for Active; 'I' for Inactive)
REMARK    1  A    between atoms: C2_2  and  O2_4 
REMARK    2  A    between atoms: O2_4  and  C3_5 
REMARK    3  A    between atoms: C12_15  and  C13_16 
REMARK    4  A    between atoms: C13_16  and  O5_18 
REMARK    5  A    between atoms: O5_18  and  C14_19 
REMARK    6  A    between atoms: C14_19  and  C15_20 
REMARK    7  A    between atoms: C15_20  and  N1_21 
REMARK    8  A    between atoms: C25_31  and  O6_32 
ROOT
HETATM    1  C3  UNL     1      -0.466  51.631 -25.595  1.00  0.00     0.097 C 
HETATM    2  C4  UNL     1       0.058  50.673 -26.688  1.00  0.00     0.050 C 
HETATM    3  C5  UNL     1      -1.462  50.861 -24.646  1.00  0.00     0.038 C 
HETATM    4  C6  UNL     1      -2.669  50.281 -25.400  1.00  0.00     0.087 C 
HETATM    5  C7  UNL     1      -3.502  49.393 -24.505  1.00  0.00     0.132 C 
HETATM    6  O3  UNL     1      -3.952  48.334 -24.945  1.00  0.00    -0.298 OA
HETATM    7  C8  UNL     1      -3.875  49.932 -23.129  1.00  0.00     0.068 C 
HETATM    8  C9  UNL     1      -4.530  48.848 -22.229  1.00  0.00     0.022 C 
HETATM    9  C10 UNL     1      -3.641  47.625 -21.945  1.00  0.00     0.015 C 
HETATM   10  C11 UNL     1      -4.961  49.489 -20.914  1.00  0.00    -0.070 C 
HETATM   11  C12 UNL     1      -6.194  49.495 -20.365  1.00  0.00     0.085 C 
HETATM   12  C18 UNL     1      -3.830  50.193 -20.188  1.00  0.00     0.035 C 
HETATM   13  C19 UNL     1      -3.153  51.231 -21.086  1.00  0.00     0.010 C 
HETATM   14  C20 UNL     1      -2.680  50.635 -22.434  1.00  0.00     0.006 C 
HETATM   15  C21 UNL     1      -1.942  51.668 -23.377  1.00  0.00    -0.033 C 
HETATM   16  C22 UNL     1      -2.881  52.853 -23.716  1.00  0.00     0.016 C 
HETATM   17  C23 UNL     1      -0.697  52.238 -22.647  1.00  0.00     0.012 C 
HETATM   18  C24 UNL     1       0.250  53.013 -23.556  1.00  0.00     0.035 C 
HETATM   19  C25 UNL     1       0.720  52.159 -24.728  1.00  0.00     0.153 C 
ENDROOT
BRANCH  11  20
HETATM   20  C13 UNL     1      -7.494  48.936 -20.806  1.00  0.00     0.283 C 
HETATM   21  O4  UNL     1      -7.872  49.047 -21.965  1.00  0.00    -0.260 OA
BRANCH  20  22
HETATM   22  O5  UNL     1      -8.144  48.279 -19.825  1.00  0.00    -0.316 OA
BRANCH  22  23
HETATM   23  C14 UNL     1      -7.911  48.753 -18.486  1.00  0.00     0.209 C 
BRANCH  23  24
HETATM   24  C15 UNL     1      -9.235  48.777 -17.705  1.00  0.00     0.298 C 
BRANCH  24  25
HETATM   25  N1  UNL     1     -10.236  47.745 -18.020  1.00  0.00     0.082 N 
HETATM   26  C16 UNL     1      -9.669  46.398 -17.997  1.00  0.00     0.309 C 
HETATM   27  C17 UNL     1     -10.934  47.999 -19.277  1.00  0.00     0.309 C 
ENDBRANCH  24  25
ENDBRANCH  23  24
ENDBRANCH  22  23
ENDBRANCH  20  22
ENDBRANCH  11  20
BRANCH   1  28
HETATM   28  O2  UNL     1      -1.249  52.701 -26.196  1.00  0.00    -0.308 OA
BRANCH  28  29
HETATM   29  C2  UNL     1      -1.058  53.105 -27.476  1.00  0.00     0.255 C 
HETATM   30  C1  UNL     1      -0.026  52.247 -28.141  1.00  0.00     0.126 C 
HETATM   31  O1  UNL     1      -1.656  54.019 -28.026  1.00  0.00    -0.266 OA
ENDBRANCH  28  29
ENDBRANCH   1  28
BRANCH  19  32
HETATM   32  O6  UNL     1       1.708  52.913 -25.427  1.00  0.00    -0.393 OA
HETATM   33  H39 UNL     1       1.455  53.015 -26.369  1.00  0.00     0.210 HD
ENDBRANCH  19  32
TORSDOF 8
ENDMDL
MODEL 4
REMARK minimizedAffinity -7.6718812
REMARK  8 active torsions:
REMARK  status: ('A' for Active; 'I' for Inactive)
REMARK    1  A    between atoms: C2_2  and  O2_4 
REMARK    2  A    between atoms: O2_4  and  C3_5 
REMARK    3  A    between atoms: C12_15  and  C13_16 
REMARK    4  A    between atoms: C13_16  and  O5_18 
REMARK    5  A    between atoms: O5_18  and  C14_19 
REMARK    6  A    between atoms: C14_19  and  C15_20 
REMARK    7  A    between atoms: C15_20  and  N1_21 
REMARK    8  A    between atoms: C25_31  and  O6_32 
ROOT
HETATM    1  C3  UNL     1      -0.625  51.581 -25.513  1.00  0.00     0.097 C 
HETATM    2  C4  UNL     1      -0.298  50.537 -26.603  1.00  0.00     0.050 C 
HETATM    3  C5  UNL     1      -0.983  50.848 -24.164  1.00  0.00     0.038 C 
HETATM    4  C6  UNL     1      -2.187  49.905 -24.306  1.00  0.00     0.087 C 
HETATM    5  C7  UNL     1      -2.390  49.078 -23.058  1.00  0.00     0.132 C 
HETATM    6  O3  UNL     1      -2.678  47.885 -23.156  1.00  0.00    -0.298 OA
HETATM    7  C8  UNL     1      -2.371  49.809 -21.720  1.00  0.00     0.068 C 
HETATM    8  C9  UNL     1      -2.361  48.828 -20.514  1.00  0.00     0.022 C 
HETATM    9  C10 UNL     1      -1.147  47.885 -20.463  1.00  0.00     0.015 C 
HETATM   10  C11 UNL     1      -2.443  49.633 -19.221  1.00  0.00    -0.070 C 
HETATM   11  C12 UNL     1      -3.357  49.516 -18.233  1.00  0.00     0.085 C 
HETATM   12  C18 UNL     1      -1.349  50.676 -19.089  1.00  0.00     0.035 C 
HETATM   13  C19 UNL     1      -1.328  51.616 -20.296  1.00  0.00     0.010 C 
HETATM   14  C20 UNL     1      -1.230  50.855 -21.641  1.00  0.00     0.006 C 
HETATM   15  C21 UNL     1      -1.169  51.793 -22.914  1.00  0.00    -0.033 C 
HETATM   16  C22 UNL     1      -2.437  52.680 -22.990  1.00  0.00     0.016 C 
HETATM   17  C23 UNL     1       0.064  52.730 -22.807  1.00  0.00     0.012 C 
HETATM   18  C24 UNL     1       0.391  53.467 -24.101  1.00  0.00     0.035 C 
HETATM   19  C25 UNL     1       0.614  52.496 -25.255  1.00  0.00     0.153 C 
ENDROOT
BRANCH  11  20
HETATM   20  C13 UNL     1      -4.538  48.639 -18.056  1.00  0.00     0.283 C 
HETATM   21  O4  UNL     1      -4.448  47.560 -17.485  1.00  0.00    -0.260 OA
BRANCH  20  22
HETATM   22  O5  UNL     1      -5.673  49.184 -18.536  1.00  0.00    -0.316 OA
BRANCH  22  23
HETATM   23  C14 UNL     1      -6.068  48.764 -19.855  1.00  0.00     0.209 C 
BRANCH  23  24
HETATM   24  C15 UNL     1      -6.034  49.964 -20.814  1.00  0.00     0.298 C 
BRANCH  24  25
HETATM   25  N1  UNL     1      -6.214  49.700 -22.251  1.00  0.00     0.082 N 
HETATM   26  C16 UNL     1      -5.711  50.791 -23.082  1.00  0.00     0.309 C 
HETATM   27  C17 UNL     1      -7.594  49.370 -22.596  1.00  0.00     0.309 C 
ENDBRANCH  24  25
ENDBRANCH  23  24
ENDBRANCH  22  23
ENDBRANCH  20  22
ENDBRANCH  11  20
BRANCH   1  28
HETATM   28  O2  UNL     1      -1.817  52.334 -25.877  1.00  0.00    -0.308 OA
BRANCH  28  29
HETATM   29  C2  UNL     1      -2.161  52.563 -27.169  1.00  0.00     0.255 C 
HETATM   30  C1  UNL     1      -3.030  51.455 -27.677  1.00  0.00     0.126 C 
HETATM   31  O1  UNL     1      -1.835  53.544 -27.823  1.00  0.00    -0.266 OA
ENDBRANCH  28  29
ENDBRANCH   1  28
BRANCH  19  32
HETATM   32  O6  UNL     1       1.059  53.264 -26.370  1.00  0.00    -0.393 OA
HETATM   33  H39 UNL     1       0.470  53.118 -27.140  1.00  0.00     0.210 HD
ENDBRANCH  19  32
TORSDOF 8
ENDMDL
MODEL 5
REMARK minimizedAffinity -7.49645805
REMARK  8 active torsions:
REMARK  status: ('A' for Active; 'I' for Inactive)
REMARK    1  A    between atoms: C2_2  and  O2_4 
REMARK    2  A    between atoms: O2_4  and  C3_5 
REMARK    3  A    between atoms: C12_15  and  C13_16 
REMARK    4  A    between atoms: C13_16  and  O5_18 
REMARK    5  A    between atoms: O5_18  and  C14_19 
REMARK    6  A    between atoms: C14_19  and  C15_20 
REMARK    7  A    between atoms: C15_20  and  N1_21 
REMARK    8  A    between atoms: C25_31  and  O6_32 
ROOT
HETATM    1  C3  UNL     1      -0.895  52.176 -26.095  1.00  0.00     0.097 C 
HETATM    2  C4  UNL     1      -0.185  53.400 -25.475  1.00  0.00     0.050 C 
HETATM    3  C5  UNL     1      -1.724  51.423 -24.985  1.00  0.00     0.038 C 
HETATM    4  C6  UNL     1      -0.847  50.934 -23.822  1.00  0.00     0.087 C 
HETATM    5  C7  UNL     1      -1.687  50.388 -22.691  1.00  0.00     0.132 C 
HETATM    6  O3  UNL     1      -1.388  50.653 -21.526  1.00  0.00    -0.298 OA
HETATM    7  C8  UNL     1      -2.790  49.398 -23.049  1.00  0.00     0.068 C 
HETATM    8  C9  UNL     1      -3.718  49.090 -21.842  1.00  0.00     0.022 C 
HETATM    9  C10 UNL     1      -4.457  50.312 -21.270  1.00  0.00     0.015 C 
HETATM   10  C11 UNL     1      -4.728  48.023 -22.253  1.00  0.00    -0.070 C 
HETATM   11  C12 UNL     1      -4.957  46.831 -21.660  1.00  0.00     0.085 C 
HETATM   12  C18 UNL     1      -5.534  48.398 -23.482  1.00  0.00     0.035 C 
HETATM   13  C19 UNL     1      -4.622  48.746 -24.661  1.00  0.00     0.010 C 
HETATM   14  C20 UNL     1      -3.582  49.837 -24.308  1.00  0.00     0.006 C 
HETATM   15  C21 UNL     1      -2.642  50.252 -25.510  1.00  0.00    -0.033 C 
HETATM   16  C22 UNL     1      -1.848  49.023 -26.022  1.00  0.00     0.016 C 
HETATM   17  C23 UNL     1      -3.508  50.784 -26.684  1.00  0.00     0.012 C 
HETATM   18  C24 UNL     1      -2.704  51.482 -27.775  1.00  0.00     0.035 C 
HETATM   19  C25 UNL     1      -1.885  52.637 -27.211  1.00  0.00     0.153 C 
ENDROOT
BRANCH  11  20
HETATM   20  C13 UNL     1      -4.350  46.160 -20.486  1.00  0.00     0.283 C 
HETATM   21  O4  UNL     1      -3.765  45.091 -20.599  1.00  0.00    -0.260 OA
BRANCH  20  22
HETATM   22  O5  UNL     1      -4.478  46.872 -19.350  1.00  0.00    -0.316 OA
BRANCH  22  23
HETATM   23  C14 UNL     1      -5.773  46.836 -18.723  1.00  0.00     0.209 C 
BRANCH  23  24
HETATM   24  C15 UNL     1      -6.245  48.267 -18.421  1.00  0.00     0.298 C 
BRANCH  24  25
HETATM   25  N1  UNL     1      -7.513  48.432 -17.692  1.00  0.00     0.082 N 
HETATM   26  C16 UNL     1      -8.034  47.161 -17.194  1.00  0.00     0.309 C 
HETATM   27  C17 UNL     1      -8.523  49.145 -18.469  1.00  0.00     0.309 C 
ENDBRANCH  24  25
ENDBRANCH  23  24
ENDBRANCH  22  23
ENDBRANCH  20  22
ENDBRANCH  11  20
BRANCH   1  28
HETATM   28  O2  UNL     1       0.087  51.212 -26.571  1.00  0.00    -0.308 OA
BRANCH  28  29
HETATM   29  C2  UNL     1       1.216  51.591 -27.218  1.00  0.00     0.255 C 
HETATM   30  C1  UNL     1       2.419  51.287 -26.379  1.00  0.00     0.126 C 
HETATM   31  O1  UNL     1       1.259  52.084 -28.336  1.00  0.00    -0.266 OA
ENDBRANCH  28  29
ENDBRANCH   1  28
BRANCH  19  32
HETATM   32  O6  UNL     1      -1.295  53.313 -28.319  1.00  0.00    -0.393 OA
HETATM   33  H39 UNL     1      -0.321  53.349 -28.216  1.00  0.00     0.210 HD
ENDBRANCH  19  32
TORSDOF 8
ENDMDL
MODEL 6
REMARK minimizedAffinity -7.40426397
REMARK  8 active torsions:
REMARK  status: ('A' for Active; 'I' for Inactive)
REMARK    1  A    between atoms: C2_2  and  O2_4 
REMARK    2  A    between atoms: O2_4  and  C3_5 
REMARK    3  A    between atoms: C12_15  and  C13_16 
REMARK    4  A    between atoms: C13_16  and  O5_18 
REMARK    5  A    between atoms: O5_18  and  C14_19 
REMARK    6  A    between atoms: C14_19  and  C15_20 
REMARK    7  A    between atoms: C15_20  and  N1_21 
REMARK    8  A    between atoms: C25_31  and  O6_32 
ROOT
HETATM    1  C3  UNL     1      -0.877  52.354 -25.927  1.00  0.00     0.097 C 
HETATM    2  C4  UNL     1      -0.153  53.572 -25.313  1.00  0.00     0.050 C 
HETATM    3  C5  UNL     1      -1.613  51.545 -24.792  1.00  0.00     0.038 C 
HETATM    4  C6  UNL     1      -0.650  51.037 -23.708  1.00  0.00     0.087 C 
HETATM    5  C7  UNL     1      -1.400  50.433 -22.544  1.00  0.00     0.132 C 
HETATM    6  O3  UNL     1      -1.030  50.665 -21.392  1.00  0.00    -0.298 OA
HETATM    7  C8  UNL     1      -2.504  49.431 -22.862  1.00  0.00     0.068 C 
HETATM    8  C9  UNL     1      -3.343  49.061 -21.607  1.00  0.00     0.022 C 
HETATM    9  C10 UNL     1      -4.066  50.246 -20.944  1.00  0.00     0.015 C 
HETATM   10  C11 UNL     1      -4.356  47.986 -21.987  1.00  0.00    -0.070 C 
HETATM   11  C12 UNL     1      -4.519  46.770 -21.423  1.00  0.00     0.085 C 
HETATM   12  C18 UNL     1      -5.250  48.384 -23.146  1.00  0.00     0.035 C 
HETATM   13  C19 UNL     1      -4.427  48.792 -24.370  1.00  0.00     0.010 C 
HETATM   14  C20 UNL     1      -3.389  49.894 -24.048  1.00  0.00     0.006 C 
HETATM   15  C21 UNL     1      -2.541  50.371 -25.296  1.00  0.00    -0.033 C 
HETATM   16  C22 UNL     1      -1.758  49.179 -25.902  1.00  0.00     0.016 C 
HETATM   17  C23 UNL     1      -3.494  50.922 -26.389  1.00  0.00     0.012 C 
HETATM   18  C24 UNL     1      -2.781  51.675 -27.506  1.00  0.00     0.035 C 
HETATM   19  C25 UNL     1      -1.949  52.829 -26.958  1.00  0.00     0.153 C 
ENDROOT
BRANCH  11  20
HETATM   20  C13 UNL     1      -3.821  46.073 -20.317  1.00  0.00     0.283 C 
HETATM   21  O4  UNL     1      -3.842  44.853 -20.222  1.00  0.00    -0.260 OA
BRANCH  20  22
HETATM   22  O5  UNL     1      -3.153  46.915 -19.505  1.00  0.00    -0.316 OA
BRANCH  22  23
HETATM   23  C14 UNL     1      -3.792  47.227 -18.253  1.00  0.00     0.209 C 
BRANCH  23  24
HETATM   24  C15 UNL     1      -2.844  48.064 -17.379  1.00  0.00     0.298 C 
BRANCH  24  25
HETATM   25  N1  UNL     1      -2.343  49.333 -17.930  1.00  0.00     0.082 N 
HETATM   26  C16 UNL     1      -0.884  49.365 -18.009  1.00  0.00     0.309 C 
HETATM   27  C17 UNL     1      -2.856  50.500 -17.218  1.00  0.00     0.309 C 
ENDBRANCH  24  25
ENDBRANCH  23  24
ENDBRANCH  22  23
ENDBRANCH  20  22
ENDBRANCH  11  20
BRANCH   1  28
HETATM   28  O2  UNL     1       0.090  51.429 -26.501  1.00  0.00    -0.308 OA
BRANCH  28  29
HETATM   29  C2  UNL     1       1.331  51.824 -26.879  1.00  0.00     0.255 C 
HETATM   30  C1  UNL     1       1.421  51.888 -28.372  1.00  0.00     0.126 C 
HETATM   31  O1  UNL     1       2.244  52.112 -26.117  1.00  0.00    -0.266 OA
ENDBRANCH  28  29
ENDBRANCH   1  28
BRANCH  19  32
HETATM   32  O6  UNL     1      -1.450  53.556 -28.078  1.00  0.00    -0.393 OA
HETATM   33  H39 UNL     1      -0.472  53.611 -28.040  1.00  0.00     0.210 HD
ENDBRANCH  19  32
TORSDOF 8
ENDMDL
MODEL 7
REMARK minimizedAffinity -7.26471949
REMARK  8 active torsions:
REMARK  status: ('A' for Active; 'I' for Inactive)
REMARK    1  A    between atoms: C2_2  and  O2_4 
REMARK    2  A    between atoms: O2_4  and  C3_5 
REMARK    3  A    between atoms: C12_15  and  C13_16 
REMARK    4  A    between atoms: C13_16  and  O5_18 
REMARK    5  A    between atoms: O5_18  and  C14_19 
REMARK    6  A    between atoms: C14_19  and  C15_20 
REMARK    7  A    between atoms: C15_20  and  N1_21 
REMARK    8  A    between atoms: C25_31  and  O6_32 
ROOT
HETATM    1  C3  UNL     1      -0.460  51.665 -25.525  1.00  0.00     0.097 C 
HETATM    2  C4  UNL     1      -0.061  50.785 -26.730  1.00  0.00     0.050 C 
HETATM    3  C5  UNL     1      -1.237  50.795 -24.465  1.00  0.00     0.038 C 
HETATM    4  C6  UNL     1      -2.511  50.159 -25.041  1.00  0.00     0.087 C 
HETATM    5  C7  UNL     1      -3.130  49.185 -24.067  1.00  0.00     0.132 C 
HETATM    6  O3  UNL     1      -3.577  48.112 -24.476  1.00  0.00    -0.298 OA
HETATM    7  C8  UNL     1      -3.308  49.648 -22.625  1.00  0.00     0.068 C 
HETATM    8  C9  UNL     1      -3.738  48.490 -21.683  1.00  0.00     0.022 C 
HETATM    9  C10 UNL     1      -2.738  47.324 -21.600  1.00  0.00     0.015 C 
HETATM   10  C11 UNL     1      -3.989  49.054 -20.288  1.00  0.00    -0.070 C 
HETATM   11  C12 UNL     1      -5.115  48.955 -19.549  1.00  0.00     0.085 C 
HETATM   12  C18 UNL     1      -2.803  49.810 -19.720  1.00  0.00     0.035 C 
HETATM   13  C19 UNL     1      -2.348  50.923 -20.667  1.00  0.00     0.010 C 
HETATM   14  C20 UNL     1      -2.063  50.408 -22.099  1.00  0.00     0.006 C 
HETATM   15  C21 UNL     1      -1.555  51.522 -23.100  1.00  0.00    -0.033 C 
HETATM   16  C22 UNL     1      -2.610  52.650 -23.231  1.00  0.00     0.016 C 
HETATM   17  C23 UNL     1      -0.246  52.153 -22.553  1.00  0.00     0.012 C 
HETATM   18  C24 UNL     1       0.488  53.023 -23.566  1.00  0.00     0.035 C 
HETATM   19  C25 UNL     1       0.815  52.245 -24.836  1.00  0.00     0.153 C 
ENDROOT
BRANCH  11  20
HETATM   20  C13 UNL     1      -6.431  48.321 -19.801  1.00  0.00     0.283 C 
HETATM   21  O4  UNL     1      -6.857  47.432 -19.076  1.00  0.00    -0.260 OA
BRANCH  20  22
HETATM   22  O5  UNL     1      -7.082  48.863 -20.849  1.00  0.00    -0.316 OA
BRANCH  22  23
HETATM   23  C14 UNL     1      -7.802  47.944 -21.690  1.00  0.00     0.209 C 
BRANCH  23  24
HETATM   24  C15 UNL     1      -6.899  47.476 -22.842  1.00  0.00     0.298 C 
BRANCH  24  25
HETATM   25  N1  UNL     1      -7.211  47.956 -24.198  1.00  0.00     0.082 N 
HETATM   26  C16 UNL     1      -8.174  49.054 -24.187  1.00  0.00     0.309 C 
HETATM   27  C17 UNL     1      -7.645  46.886 -25.091  1.00  0.00     0.309 C 
ENDBRANCH  24  25
ENDBRANCH  23  24
ENDBRANCH  22  23
ENDBRANCH  20  22
ENDBRANCH  11  20
BRANCH   1  28
HETATM   28  O2  UNL     1      -1.397  52.698 -25.944  1.00  0.00    -0.308 OA
BRANCH  28  29
HETATM   29  C2  UNL     1      -1.781  52.844 -27.236  1.00  0.00     0.255 C 
HETATM   30  C1  UNL     1      -0.796  53.696 -27.976  1.00  0.00     0.126 C 
HETATM   31  O1  UNL     1      -2.773  52.336 -27.740  1.00  0.00    -0.266 OA
ENDBRANCH  28  29
ENDBRANCH   1  28
BRANCH  19  32
HETATM   32  O6  UNL     1       1.626  53.090 -25.649  1.00  0.00    -0.393 OA
HETATM   33  H39 UNL     1       1.218  53.207 -26.532  1.00  0.00     0.210 HD
ENDBRANCH  19  32
TORSDOF 8
ENDMDL
MODEL 8
REMARK minimizedAffinity -7.2237134
REMARK  8 active torsions:
REMARK  status: ('A' for Active; 'I' for Inactive)
REMARK    1  A    between atoms: C2_2  and  O2_4 
REMARK    2  A    between atoms: O2_4  and  C3_5 
REMARK    3  A    between atoms: C12_15  and  C13_16 
REMARK    4  A    between atoms: C13_16  and  O5_18 
REMARK    5  A    between atoms: O5_18  and  C14_19 
REMARK    6  A    between atoms: C14_19  and  C15_20 
REMARK    7  A    between atoms: C15_20  and  N1_21 
REMARK    8  A    between atoms: C25_31  and  O6_32 
ROOT
HETATM    1  C3  UNL     1      -0.850  52.205 -26.085  1.00  0.00     0.097 C 
HETATM    2  C4  UNL     1      -0.116  53.439 -25.516  1.00  0.00     0.050 C 
HETATM    3  C5  UNL     1      -1.587  51.440 -24.920  1.00  0.00     0.038 C 
HETATM    4  C6  UNL     1      -0.623  50.966 -23.822  1.00  0.00     0.087 C 
HETATM    5  C7  UNL     1      -1.372  50.407 -22.634  1.00  0.00     0.132 C 
HETATM    6  O3  UNL     1      -0.996  50.677 -21.493  1.00  0.00    -0.298 OA
HETATM    7  C8  UNL     1      -2.484  49.401 -22.913  1.00  0.00     0.068 C 
HETATM    8  C9  UNL     1      -3.320  49.080 -21.644  1.00  0.00     0.022 C 
HETATM    9  C10 UNL     1      -4.033  50.292 -21.020  1.00  0.00     0.015 C 
HETATM   10  C11 UNL     1      -4.340  47.999 -21.983  1.00  0.00    -0.070 C 
HETATM   11  C12 UNL     1      -4.509  46.804 -21.376  1.00  0.00     0.085 C 
HETATM   12  C18 UNL     1      -5.237  48.361 -23.152  1.00  0.00     0.035 C 
HETATM   13  C19 UNL     1      -4.416  48.722 -24.392  1.00  0.00     0.010 C 
HETATM   14  C20 UNL     1      -3.369  49.828 -24.113  1.00  0.00     0.006 C 
HETATM   15  C21 UNL     1      -2.523  50.255 -25.379  1.00  0.00    -0.033 C 
HETATM   16  C22 UNL     1      -1.750  49.038 -25.946  1.00  0.00     0.016 C 
HETATM   17  C23 UNL     1      -3.478  50.774 -26.488  1.00  0.00     0.012 C 
HETATM   18  C24 UNL     1      -2.763  51.483 -27.633  1.00  0.00     0.035 C 
HETATM   19  C25 UNL     1      -1.923  52.650 -27.128  1.00  0.00     0.153 C 
ENDROOT
BRANCH  11  20
HETATM   20  C13 UNL     1      -3.811  46.143 -20.248  1.00  0.00     0.283 C 
HETATM   21  O4  UNL     1      -3.285  46.795 -19.357  1.00  0.00    -0.260 OA
BRANCH  20  22
HETATM   22  O5  UNL     1      -3.876  44.798 -20.307  1.00  0.00    -0.316 OA
BRANCH  22  23
HETATM   23  C14 UNL     1      -5.026  44.193 -19.688  1.00  0.00     0.209 C 
BRANCH  23  24
HETATM   24  C15 UNL     1      -4.611  43.512 -18.373  1.00  0.00     0.298 C 
BRANCH  24  25
HETATM   25  N1  UNL     1      -3.204  43.103 -18.227  1.00  0.00     0.082 N 
HETATM   26  C16 UNL     1      -3.008  41.685 -18.517  1.00  0.00     0.309 C 
HETATM   27  C17 UNL     1      -2.646  43.455 -16.924  1.00  0.00     0.309 C 
ENDBRANCH  24  25
ENDBRANCH  23  24
ENDBRANCH  22  23
ENDBRANCH  20  22
ENDBRANCH  11  20
BRANCH   1  28
HETATM   28  O2  UNL     1       0.110  51.255 -26.629  1.00  0.00    -0.308 OA
BRANCH  28  29
HETATM   29  C2  UNL     1       1.257  51.652 -27.232  1.00  0.00     0.255 C 
HETATM   30  C1  UNL     1       2.440  51.258 -26.403  1.00  0.00     0.126 C 
HETATM   31  O1  UNL     1       1.328  52.226 -28.310  1.00  0.00    -0.266 OA
ENDBRANCH  28  29
ENDBRANCH   1  28
BRANCH  19  32
HETATM   32  O6  UNL     1      -1.423  53.334 -28.275  1.00  0.00    -0.393 OA
HETATM   33  H39 UNL     1      -0.445  53.384 -28.242  1.00  0.00     0.210 HD
ENDBRANCH  19  32
TORSDOF 8
ENDMDL
MODEL 9
REMARK minimizedAffinity -7.09589863
REMARK  8 active torsions:
REMARK  status: ('A' for Active; 'I' for Inactive)
REMARK    1  A    between atoms: C2_2  and  O2_4 
REMARK    2  A    between atoms: O2_4  and  C3_5 
REMARK    3  A    between atoms: C12_15  and  C13_16 
REMARK    4  A    between atoms: C13_16  and  O5_18 
REMARK    5  A    between atoms: O5_18  and  C14_19 
REMARK    6  A    between atoms: C14_19  and  C15_20 
REMARK    7  A    between atoms: C15_20  and  N1_21 
REMARK    8  A    between atoms: C25_31  and  O6_32 
ROOT
HETATM    1  C3  UNL     1      -0.872  51.137 -25.674  1.00  0.00     0.097 C 
HETATM    2  C4  UNL     1      -0.873  49.854 -26.535  1.00  0.00     0.050 C 
HETATM    3  C5  UNL     1      -0.960  50.754 -24.148  1.00  0.00     0.038 C 
HETATM    4  C6  UNL     1      -2.225  49.949 -23.812  1.00  0.00     0.087 C 
HETATM    5  C7  UNL     1      -2.191  49.436 -22.392  1.00  0.00     0.132 C 
HETATM    6  O3  UNL     1      -2.573  48.291 -22.147  1.00  0.00    -0.298 OA
HETATM    7  C8  UNL     1      -1.819  50.427 -21.294  1.00  0.00     0.068 C 
HETATM    8  C9  UNL     1      -1.598  49.731 -19.923  1.00  0.00     0.022 C 
HETATM    9  C10 UNL     1      -0.470  48.684 -19.907  1.00  0.00     0.015 C 
HETATM   10  C11 UNL     1      -1.328  50.795 -18.865  1.00  0.00    -0.070 C 
HETATM   11  C12 UNL     1      -1.998  50.998 -17.709  1.00  0.00     0.085 C 
HETATM   12  C18 UNL     1      -0.167  51.708 -19.209  1.00  0.00     0.035 C 
HETATM   13  C19 UNL     1      -0.359  52.361 -20.580  1.00  0.00     0.010 C 
HETATM   14  C20 UNL     1      -0.623  51.326 -21.701  1.00  0.00     0.006 C 
HETATM   15  C21 UNL     1      -0.792  51.958 -23.141  1.00  0.00    -0.033 C 
HETATM   16  C22 UNL     1      -1.982  52.950 -23.157  1.00  0.00     0.016 C 
HETATM   17  C23 UNL     1       0.492  52.746 -23.514  1.00  0.00     0.012 C 
HETATM   18  C24 UNL     1       0.563  53.148 -24.983  1.00  0.00     0.035 C 
HETATM   19  C25 UNL     1       0.452  51.934 -25.899  1.00  0.00     0.153 C 
ENDROOT
BRANCH  11  20
HETATM   20  C13 UNL     1      -3.163  50.323 -17.091  1.00  0.00     0.283 C 
HETATM   21  O4  UNL     1      -3.822  49.499 -17.712  1.00  0.00    -0.260 OA
BRANCH  20  22
HETATM   22  O5  UNL     1      -3.357  50.680 -15.806  1.00  0.00    -0.316 OA
BRANCH  22  23
HETATM   23  C14 UNL     1      -2.212  50.573 -14.941  1.00  0.00     0.209 C 
BRANCH  23  24
HETATM   24  C15 UNL     1      -2.183  51.762 -13.967  1.00  0.00     0.298 C 
BRANCH  24  25
HETATM   25  N1  UNL     1      -1.474  51.586 -12.690  1.00  0.00     0.082 N 
HETATM   26  C16 UNL     1      -2.374  51.668 -11.541  1.00  0.00     0.309 C 
HETATM   27  C17 UNL     1      -0.345  52.500 -12.538  1.00  0.00     0.309 C 
ENDBRANCH  24  25
ENDBRANCH  23  24
ENDBRANCH  22  23
ENDBRANCH  20  22
ENDBRANCH  11  20
BRANCH   1  28
HETATM   28  O2  UNL     1      -2.063  51.928 -25.948  1.00  0.00    -0.308 OA
BRANCH  28  29
HETATM   29  C2  UNL     1      -2.401  52.316 -27.202  1.00  0.00     0.255 C 
HETATM   30  C1  UNL     1      -3.184  51.238 -27.884  1.00  0.00     0.126 C 
HETATM   31  O1  UNL     1      -2.131  53.399 -27.703  1.00  0.00    -0.266 OA
ENDBRANCH  28  29
ENDBRANCH   1  28
BRANCH  19  32
HETATM   32  O6  UNL     1       0.680  52.390 -27.230  1.00  0.00    -0.393 OA
HETATM   33  H39 UNL     1      -0.078  52.154 -27.805  1.00  0.00     0.210 HD
ENDBRANCH  19  32
TORSDOF 8
ENDMDL
