MODEL 1
REMARK minimizedAffinity -8.95621014
REMARK CNNscore 0.690877557
REMARK CNNaffinity 8.04377556
REMARK  15 active torsions:
REMARK  status: ('A' for Active; 'I' for Inactive)
REMARK    1  A    between atoms: O1_2  and  C2_3 
REMARK    2  A    between atoms: C10_14  and  C11_15 
REMARK    3  A    between atoms: C11_15  and  C12_16 
REMARK    4  A    between atoms: C12_16  and  O5_17 
REMARK    5  A    between atoms: C12_16  and  C13_18 
REMARK    6  A    between atoms: C13_18  and  C14_19 
REMARK    7  A    between atoms: C15_20  and  C16_21 
REMARK    8  A    between atoms: C17_22  and  C19_24 
REMARK    9  A    between atoms: C19_24  and  C20_25 
REMARK   10  A    between atoms: C21_26  and  C22_27 
REMARK   11  A    between atoms: C23_28  and  C24_29 
REMARK   12  A    between atoms: C24_29  and  C25_30 
REMARK   13  A    between atoms: C25_30  and  O6_31 
REMARK   14  A    between atoms: C32_39  and  O8_40 
REMARK   15  A    between atoms: C33_41  and  O9_42 
ROOT
HETATM    1  C2  UNL     1      -6.885   6.305  14.155  1.00  0.00     0.192 C 
HETATM    2  C3  UNL     1      -7.742   5.954  12.916  1.00  0.00     0.074 C 
HETATM    3  C4  UNL     1      -7.854   4.454  12.558  1.00  0.00     0.037 C 
HETATM    4  C5  UNL     1      -6.568   3.613  12.488  1.00  0.00     0.122 C 
HETATM    5  C6  UNL     1      -6.847   2.195  12.024  1.00  0.00     0.035 C 
HETATM    6  C7  UNL     1      -5.465   1.726  11.647  1.00  0.00     0.045 C 
HETATM    7  C8  UNL     1      -4.799   2.984  11.083  1.00  0.00     0.221 C 
HETATM    8  O2  UNL     1      -5.597   4.097  11.538  1.00  0.00    -0.371 OA
HETATM    9  C9  UNL     1      -3.284   2.978  11.419  1.00  0.00     0.288 C 
HETATM   10  O3  UNL     1      -2.636   1.963  11.652  1.00  0.00    -0.262 OA
HETATM   11  O4  UNL     1      -2.744   4.229  11.394  1.00  0.00    -0.314 OA
HETATM   12  C10 UNL     1      -1.360   4.383  11.825  1.00  0.00     0.134 C 
HETATM   13  C26 UNL     1      -1.229   4.333  13.374  1.00  0.00     0.033 C 
HETATM   14  C27 UNL     1      -1.948   5.431  14.197  1.00  0.00     0.005 C 
HETATM   15  C28 UNL     1      -3.395   5.543  13.775  1.00  0.00     0.032 C 
HETATM   16  C29 UNL     1      -4.490   6.155  14.640  1.00  0.00     0.131 C 
HETATM   17  O7  UNL     1      -5.576   5.969  13.733  1.00  0.00    -0.347 OA
HETATM   18  C30 UNL     1      -4.370   7.640  14.995  1.00  0.00     0.042 C 
HETATM   19  C31 UNL     1      -3.326   7.903  16.081  1.00  0.00     0.015 C 
HETATM   20  C32 UNL     1      -5.754   8.166  15.442  1.00  0.00     0.158 C 
HETATM   21  C33 UNL     1      -6.856   7.831  14.419  1.00  0.00     0.209 C 
ENDROOT
BRANCH  12  22
HETATM   22  C11 UNL     1      -0.860   5.694  11.205  1.00  0.00     0.064 C 
BRANCH  22  23
HETATM   23  C12 UNL     1       0.352   6.359  11.871  1.00  0.00     0.124 C 
BRANCH  23  24
HETATM   24  O5  UNL     1      -0.153   7.045  13.029  1.00  0.00    -0.395 OA
HETATM   25  H18 UNL     1       0.612   7.385  13.525  1.00  0.00     0.210 HD
ENDBRANCH  23  24
BRANCH  23  26
HETATM   26  C13 UNL     1       1.084   7.390  10.993  1.00  0.00     0.059 C 
BRANCH  26  27
HETATM   27  C14 UNL     1       0.202   8.425  10.353  1.00  0.00    -0.024 C 
HETATM   28  C15 UNL     1      -0.029   8.610   9.043  1.00  0.00    -0.004 C 
BRANCH  28  29
HETATM   29  C16 UNL     1       0.519   7.814   7.967  1.00  0.00     0.002 C 
HETATM   30  C17 UNL     1       1.803   7.424   7.827  1.00  0.00    -0.080 C 
HETATM   31  C18 UNL     1       2.208   6.571   6.648  1.00  0.00     0.043 C 
BRANCH  30  32
HETATM   32  C19 UNL     1       2.944   7.782   8.756  1.00  0.00     0.060 C 
BRANCH  32  33
HETATM   33  C20 UNL     1       3.705   6.561   9.191  1.00  0.00    -0.022 C 
HETATM   34  C21 UNL     1       4.302   6.313  10.369  1.00  0.00    -0.004 C 
BRANCH  34  35
HETATM   35  C22 UNL     1       4.359   7.204  11.505  1.00  0.00    -0.004 C 
HETATM   36  C23 UNL     1       5.376   8.016  11.834  1.00  0.00    -0.025 C 
BRANCH  36  37
HETATM   37  C24 UNL     1       6.695   8.213  11.134  1.00  0.00     0.053 C 
BRANCH  37  38
HETATM   38  C25 UNL     1       6.830   9.629  10.566  1.00  0.00     0.168 C 
BRANCH  38  39
HETATM   39  O6  UNL     1       5.686   9.988   9.796  1.00  0.00    -0.401 OA
HETATM   40  H37 UNL     1       4.908   9.912  10.374  1.00  0.00     0.209 HD
ENDBRANCH  38  39
ENDBRANCH  37  38
ENDBRANCH  36  37
ENDBRANCH  34  35
ENDBRANCH  32  33
ENDBRANCH  30  32
ENDBRANCH  28  29
ENDBRANCH  26  27
ENDBRANCH  23  26
ENDBRANCH  22  23
ENDBRANCH  12  22
BRANCH   1  41
HETATM   41  O1  UNL     1      -7.213   5.483  15.277  1.00  0.00    -0.358 OA
HETATM   42  C1  UNL     1      -8.180   6.001  16.174  1.00  0.00     0.205 C 
ENDBRANCH   1  41
BRANCH  20  43
HETATM   43  O8  UNL     1      -5.729   9.593  15.617  1.00  0.00    -0.392 OA
HETATM   44  H50 UNL     1      -5.301   9.983  14.835  1.00  0.00     0.210 HD
ENDBRANCH  20  43
BRANCH  21  45
HETATM   45  O9  UNL     1      -8.108   8.380  14.852  1.00  0.00    -0.387 OA
HETATM   46  H52 UNL     1      -7.878   9.224  15.293  1.00  0.00     0.210 HD
ENDBRANCH  21  45
TORSDOF 15
ENDMDL
MODEL 2
REMARK minimizedAffinity -8.93765736
REMARK CNNscore 0.524360597
REMARK CNNaffinity 7.26193047
REMARK  15 active torsions:
REMARK  status: ('A' for Active; 'I' for Inactive)
REMARK    1  A    between atoms: O1_2  and  C2_3 
REMARK    2  A    between atoms: C10_14  and  C11_15 
REMARK    3  A    between atoms: C11_15  and  C12_16 
REMARK    4  A    between atoms: C12_16  and  O5_17 
REMARK    5  A    between atoms: C12_16  and  C13_18 
REMARK    6  A    between atoms: C13_18  and  C14_19 
REMARK    7  A    between atoms: C15_20  and  C16_21 
REMARK    8  A    between atoms: C17_22  and  C19_24 
REMARK    9  A    between atoms: C19_24  and  C20_25 
REMARK   10  A    between atoms: C21_26  and  C22_27 
REMARK   11  A    between atoms: C23_28  and  C24_29 
REMARK   12  A    between atoms: C24_29  and  C25_30 
REMARK   13  A    between atoms: C25_30  and  O6_31 
REMARK   14  A    between atoms: C32_39  and  O8_40 
REMARK   15  A    between atoms: C33_41  and  O9_42 
ROOT
HETATM    1  C2  UNL     1      -3.932   3.159  11.652  1.00  0.00     0.192 C 
HETATM    2  C3  UNL     1      -5.046   2.442  12.449  1.00  0.00     0.074 C 
HETATM    3  C4  UNL     1      -6.438   3.115  12.447  1.00  0.00     0.037 C 
HETATM    4  C5  UNL     1      -6.533   4.617  12.764  1.00  0.00     0.122 C 
HETATM    5  C6  UNL     1      -7.975   5.090  12.820  1.00  0.00     0.035 C 
HETATM    6  C7  UNL     1      -7.827   6.414  13.525  1.00  0.00     0.045 C 
HETATM    7  C8  UNL     1      -6.682   6.172  14.512  1.00  0.00     0.221 C 
HETATM    8  O2  UNL     1      -6.004   4.984  14.052  1.00  0.00    -0.371 OA
HETATM    9  C9  UNL     1      -5.853   7.471  14.692  1.00  0.00     0.288 C 
HETATM   10  O3  UNL     1      -6.289   8.599  14.486  1.00  0.00    -0.262 OA
HETATM   11  O4  UNL     1      -4.590   7.220  15.139  1.00  0.00    -0.314 OA
HETATM   12  C10 UNL     1      -3.661   8.340  15.220  1.00  0.00     0.134 C 
HETATM   13  C26 UNL     1      -3.111   8.737  13.821  1.00  0.00     0.033 C 
HETATM   14  C27 UNL     1      -2.282   7.684  13.043  1.00  0.00     0.005 C 
HETATM   15  C28 UNL     1      -3.022   6.368  12.985  1.00  0.00     0.032 C 
HETATM   16  C29 UNL     1      -2.751   5.283  11.952  1.00  0.00     0.131 C 
HETATM   17  O7  UNL     1      -3.727   4.343  12.400  1.00  0.00    -0.347 OA
HETATM   18  C30 UNL     1      -1.369   4.624  11.956  1.00  0.00     0.042 C 
HETATM   19  C31 UNL     1      -0.289   5.517  11.343  1.00  0.00     0.015 C 
HETATM   20  C32 UNL     1      -1.447   3.279  11.198  1.00  0.00     0.158 C 
HETATM   21  C33 UNL     1      -2.590   2.388  11.719  1.00  0.00     0.209 C 
ENDROOT
BRANCH  12  22
HETATM   22  C11 UNL     1      -2.571   7.923  16.216  1.00  0.00     0.064 C 
BRANCH  22  23
HETATM   23  C12 UNL     1      -1.321   8.811  16.289  1.00  0.00     0.124 C 
BRANCH  23  24
HETATM   24  O5  UNL     1      -0.208   7.922  16.481  1.00  0.00    -0.395 OA
HETATM   25  H18 UNL     1       0.604   8.455  16.424  1.00  0.00     0.210 HD
ENDBRANCH  23  24
BRANCH  23  26
HETATM   26  C13 UNL     1      -1.321   9.827  17.446  1.00  0.00     0.059 C 
BRANCH  26  27
HETATM   27  C14 UNL     1      -2.453   9.683  18.423  1.00  0.00    -0.024 C 
HETATM   28  C15 UNL     1      -3.459  10.543  18.648  1.00  0.00    -0.004 C 
BRANCH  28  29
HETATM   29  C16 UNL     1      -3.669  11.797  17.958  1.00  0.00     0.002 C 
HETATM   30  C17 UNL     1      -4.216  12.917  18.473  1.00  0.00    -0.080 C 
HETATM   31  C18 UNL     1      -4.343  14.157  17.618  1.00  0.00     0.043 C 
BRANCH  30  32
HETATM   32  C19 UNL     1      -4.761  13.073  19.877  1.00  0.00     0.060 C 
BRANCH  32  33
HETATM   33  C20 UNL     1      -6.144  13.663  19.869  1.00  0.00    -0.022 C 
HETATM   34  C21 UNL     1      -7.036  13.735  20.872  1.00  0.00    -0.004 C 
BRANCH  34  35
HETATM   35  C22 UNL     1      -6.860  13.228  22.213  1.00  0.00    -0.004 C 
HETATM   36  C23 UNL     1      -7.834  12.929  23.088  1.00  0.00    -0.025 C 
BRANCH  36  37
HETATM   37  C24 UNL     1      -9.326  13.037  22.919  1.00  0.00     0.053 C 
BRANCH  37  38
HETATM   38  C25 UNL     1     -10.054  11.833  23.522  1.00  0.00     0.168 C 
BRANCH  38  39
HETATM   39  O6  UNL     1      -9.948  11.823  24.943  1.00  0.00    -0.401 OA
HETATM   40  H37 UNL     1     -10.318  12.661  25.270  1.00  0.00     0.209 HD
ENDBRANCH  38  39
ENDBRANCH  37  38
ENDBRANCH  36  37
ENDBRANCH  34  35
ENDBRANCH  32  33
ENDBRANCH  30  32
ENDBRANCH  28  29
ENDBRANCH  26  27
ENDBRANCH  23  26
ENDBRANCH  22  23
ENDBRANCH  12  22
BRANCH   1  41
HETATM   41  O1  UNL     1      -4.373   3.533  10.345  1.00  0.00    -0.358 OA
HETATM   42  C1  UNL     1      -5.432   2.768   9.796  1.00  0.00     0.205 C 
ENDBRANCH   1  41
BRANCH  20  43
HETATM   43  O8  UNL     1      -0.218   2.544  11.326  1.00  0.00    -0.392 OA
HETATM   44  H50 UNL     1       0.036   2.547  12.267  1.00  0.00     0.210 HD
ENDBRANCH  20  43
BRANCH  21  45
HETATM   45  O9  UNL     1      -2.592   1.136  11.021  1.00  0.00    -0.387 OA
HETATM   46  H52 UNL     1      -1.649   0.934  10.856  1.00  0.00     0.210 HD
ENDBRANCH  21  45
TORSDOF 15
ENDMDL
MODEL 3
REMARK minimizedAffinity -7.87792683
REMARK CNNscore 0.462558597
REMARK CNNaffinity 7.19618177
REMARK  15 active torsions:
REMARK  status: ('A' for Active; 'I' for Inactive)
REMARK    1  A    between atoms: O1_2  and  C2_3 
REMARK    2  A    between atoms: C10_14  and  C11_15 
REMARK    3  A    between atoms: C11_15  and  C12_16 
REMARK    4  A    between atoms: C12_16  and  O5_17 
REMARK    5  A    between atoms: C12_16  and  C13_18 
REMARK    6  A    between atoms: C13_18  and  C14_19 
REMARK    7  A    between atoms: C15_20  and  C16_21 
REMARK    8  A    between atoms: C17_22  and  C19_24 
REMARK    9  A    between atoms: C19_24  and  C20_25 
REMARK   10  A    between atoms: C21_26  and  C22_27 
REMARK   11  A    between atoms: C23_28  and  C24_29 
REMARK   12  A    between atoms: C24_29  and  C25_30 
REMARK   13  A    between atoms: C25_30  and  O6_31 
REMARK   14  A    between atoms: C32_39  and  O8_40 
REMARK   15  A    between atoms: C33_41  and  O9_42 
ROOT
HETATM    1  C2  UNL     1      -7.046   4.181  13.128  1.00  0.00     0.192 C 
HETATM    2  C3  UNL     1      -7.728   4.337  14.507  1.00  0.00     0.074 C 
HETATM    3  C4  UNL     1      -8.180   5.764  14.896  1.00  0.00     0.037 C 
HETATM    4  C5  UNL     1      -7.183   6.924  14.736  1.00  0.00     0.122 C 
HETATM    5  C6  UNL     1      -7.752   8.231  15.258  1.00  0.00     0.035 C 
HETATM    6  C7  UNL     1      -6.506   9.072  15.377  1.00  0.00     0.045 C 
HETATM    7  C8  UNL     1      -5.430   8.066  15.794  1.00  0.00     0.221 C 
HETATM    8  O2  UNL     1      -5.962   6.761  15.483  1.00  0.00    -0.371 OA
HETATM    9  C9  UNL     1      -4.061   8.469  15.183  1.00  0.00     0.288 C 
HETATM   10  O3  UNL     1      -3.770   9.612  14.845  1.00  0.00    -0.262 OA
HETATM   11  O4  UNL     1      -3.204   7.413  15.095  1.00  0.00    -0.314 OA
HETATM   12  C10 UNL     1      -1.933   7.623  14.413  1.00  0.00     0.134 C 
HETATM   13  C26 UNL     1      -2.104   7.643  12.867  1.00  0.00     0.033 C 
HETATM   14  C27 UNL     1      -2.631   6.359  12.180  1.00  0.00     0.005 C 
HETATM   15  C28 UNL     1      -3.890   5.876  12.861  1.00  0.00     0.032 C 
HETATM   16  C29 UNL     1      -4.913   4.955  12.208  1.00  0.00     0.131 C 
HETATM   17  O7  UNL     1      -5.827   4.877  13.303  1.00  0.00    -0.347 OA
HETATM   18  C30 UNL     1      -4.458   3.546  11.822  1.00  0.00     0.042 C 
HETATM   19  C31 UNL     1      -3.597   3.531  10.558  1.00  0.00     0.015 C 
HETATM   20  C32 UNL     1      -5.702   2.646  11.633  1.00  0.00     0.158 C 
HETATM   21  C33 UNL     1      -6.649   2.711  12.846  1.00  0.00     0.209 C 
ENDROOT
BRANCH  12  22
HETATM   22  C11 UNL     1      -0.989   6.523  14.915  1.00  0.00     0.064 C 
BRANCH  22  23
HETATM   23  C12 UNL     1       0.373   6.973  15.459  1.00  0.00     0.124 C 
BRANCH  23  24
HETATM   24  O5  UNL     1       0.225   8.356  15.819  1.00  0.00    -0.395 OA
HETATM   25  H18 UNL     1       1.045   8.633  16.264  1.00  0.00     0.210 HD
ENDBRANCH  23  24
BRANCH  23  26
HETATM   26  C13 UNL     1       1.535   6.868  14.453  1.00  0.00     0.059 C 
BRANCH  26  27
HETATM   27  C14 UNL     1       2.273   8.150  14.194  1.00  0.00    -0.024 C 
HETATM   28  C15 UNL     1       2.083   9.019  13.189  1.00  0.00    -0.004 C 
BRANCH  28  29
HETATM   29  C16 UNL     1       1.086   8.902  12.147  1.00  0.00     0.002 C 
HETATM   30  C17 UNL     1       1.262   8.364  10.923  1.00  0.00    -0.080 C 
HETATM   31  C18 UNL     1       0.104   8.298   9.954  1.00  0.00     0.043 C 
BRANCH  30  32
HETATM   32  C19 UNL     1       2.561   7.810  10.376  1.00  0.00     0.060 C 
BRANCH  32  33
HETATM   33  C20 UNL     1       2.356   6.476   9.714  1.00  0.00    -0.022 C 
HETATM   34  C21 UNL     1       1.903   5.329  10.248  1.00  0.00    -0.004 C 
BRANCH  34  35
HETATM   35  C22 UNL     1       1.518   5.118  11.624  1.00  0.00    -0.004 C 
HETATM   36  C23 UNL     1       0.464   4.410  12.060  1.00  0.00    -0.025 C 
BRANCH  36  37
HETATM   37  C24 UNL     1      -0.574   3.667  11.261  1.00  0.00     0.053 C 
BRANCH  37  38
HETATM   38  C25 UNL     1      -0.326   2.157  11.272  1.00  0.00     0.168 C 
BRANCH  38  39
HETATM   39  O6  UNL     1      -0.930   1.526  10.146  1.00  0.00    -0.401 OA
HETATM   40  H37 UNL     1      -0.562   1.939   9.346  1.00  0.00     0.209 HD
ENDBRANCH  38  39
ENDBRANCH  37  38
ENDBRANCH  36  37
ENDBRANCH  34  35
ENDBRANCH  32  33
ENDBRANCH  30  32
ENDBRANCH  28  29
ENDBRANCH  26  27
ENDBRANCH  23  26
ENDBRANCH  22  23
ENDBRANCH  12  22
BRANCH   1  41
HETATM   41  O1  UNL     1      -7.785   4.837  12.095  1.00  0.00    -0.358 OA
HETATM   42  C1  UNL     1      -9.139   5.142  12.386  1.00  0.00     0.205 C 
ENDBRANCH   1  41
BRANCH  20  43
HETATM   43  O8  UNL     1      -5.319   1.274  11.441  1.00  0.00    -0.392 OA
HETATM   44  H50 UNL     1      -4.665   1.046  12.127  1.00  0.00     0.210 HD
ENDBRANCH  20  43
BRANCH  21  45
HETATM   45  O9  UNL     1      -7.759   1.826  12.647  1.00  0.00    -0.387 OA
HETATM   46  H52 UNL     1      -7.391   1.059  12.162  1.00  0.00     0.210 HD
ENDBRANCH  21  45
TORSDOF 15
ENDMDL
MODEL 4
REMARK minimizedAffinity -8.97017479
REMARK CNNscore 0.422876477
REMARK CNNaffinity 6.8545785
REMARK  15 active torsions:
REMARK  status: ('A' for Active; 'I' for Inactive)
REMARK    1  A    between atoms: O1_2  and  C2_3 
REMARK    2  A    between atoms: C10_14  and  C11_15 
REMARK    3  A    between atoms: C11_15  and  C12_16 
REMARK    4  A    between atoms: C12_16  and  O5_17 
REMARK    5  A    between atoms: C12_16  and  C13_18 
REMARK    6  A    between atoms: C13_18  and  C14_19 
REMARK    7  A    between atoms: C15_20  and  C16_21 
REMARK    8  A    between atoms: C17_22  and  C19_24 
REMARK    9  A    between atoms: C19_24  and  C20_25 
REMARK   10  A    between atoms: C21_26  and  C22_27 
REMARK   11  A    between atoms: C23_28  and  C24_29 
REMARK   12  A    between atoms: C24_29  and  C25_30 
REMARK   13  A    between atoms: C25_30  and  O6_31 
REMARK   14  A    between atoms: C32_39  and  O8_40 
REMARK   15  A    between atoms: C33_41  and  O9_42 
ROOT
HETATM    1  C2  UNL     1      -6.214   6.440  14.180  1.00  0.00     0.192 C 
HETATM    2  C3  UNL     1      -7.135   6.082  12.990  1.00  0.00     0.074 C 
HETATM    3  C4  UNL     1      -7.271   4.580  12.650  1.00  0.00     0.037 C 
HETATM    4  C5  UNL     1      -5.993   3.733  12.522  1.00  0.00     0.122 C 
HETATM    5  C6  UNL     1      -6.302   2.312  12.085  1.00  0.00     0.035 C 
HETATM    6  C7  UNL     1      -4.943   1.834  11.642  1.00  0.00     0.045 C 
HETATM    7  C8  UNL     1      -4.301   3.085  11.034  1.00  0.00     0.221 C 
HETATM    8  O2  UNL     1      -5.071   4.204  11.520  1.00  0.00    -0.371 OA
HETATM    9  C9  UNL     1      -2.771   3.075  11.292  1.00  0.00     0.288 C 
HETATM   10  O3  UNL     1      -2.116   2.058  11.501  1.00  0.00    -0.262 OA
HETATM   11  O4  UNL     1      -2.228   4.323  11.229  1.00  0.00    -0.314 OA
HETATM   12  C10 UNL     1      -0.823   4.474  11.587  1.00  0.00     0.134 C 
HETATM   13  C26 UNL     1      -0.614   4.437  13.128  1.00  0.00     0.033 C 
HETATM   14  C27 UNL     1      -1.286   5.545  13.977  1.00  0.00     0.005 C 
HETATM   15  C28 UNL     1      -2.751   5.659  13.629  1.00  0.00     0.032 C 
HETATM   16  C29 UNL     1      -3.798   6.283  14.543  1.00  0.00     0.131 C 
HETATM   17  O7  UNL     1      -4.930   6.094  13.695  1.00  0.00    -0.347 OA
HETATM   18  C30 UNL     1      -3.655   7.770  14.879  1.00  0.00     0.042 C 
HETATM   19  C31 UNL     1      -2.556   8.038  15.908  1.00  0.00     0.015 C 
HETATM   20  C32 UNL     1      -5.012   8.306  15.392  1.00  0.00     0.158 C 
HETATM   21  C33 UNL     1      -6.166   7.968  14.430  1.00  0.00     0.209 C 
ENDROOT
BRANCH  12  22
HETATM   22  C11 UNL     1      -0.350   5.778  10.932  1.00  0.00     0.064 C 
BRANCH  22  23
HETATM   23  C12 UNL     1       1.147   5.894  10.618  1.00  0.00     0.124 C 
BRANCH  23  24
HETATM   24  O5  UNL     1       1.665   4.553  10.632  1.00  0.00    -0.395 OA
HETATM   25  H18 UNL     1       2.590   4.593  10.332  1.00  0.00     0.210 HD
ENDBRANCH  23  24
BRANCH  23  26
HETATM   26  C13 UNL     1       1.955   6.724  11.633  1.00  0.00     0.059 C 
BRANCH  26  27
HETATM   27  C14 UNL     1       2.492   8.025  11.109  1.00  0.00    -0.024 C 
HETATM   28  C15 UNL     1       3.715   8.268  10.610  1.00  0.00    -0.004 C 
BRANCH  28  29
HETATM   29  C16 UNL     1       4.772   7.293  10.451  1.00  0.00     0.002 C 
HETATM   30  C17 UNL     1       5.760   7.027  11.329  1.00  0.00    -0.080 C 
HETATM   31  C18 UNL     1       6.778   5.955  11.017  1.00  0.00     0.043 C 
BRANCH  30  32
HETATM   32  C19 UNL     1       5.984   7.731  12.651  1.00  0.00     0.060 C 
BRANCH  32  33
HETATM   33  C20 UNL     1       7.260   7.280  13.306  1.00  0.00    -0.022 C 
HETATM   34  C21 UNL     1       8.319   8.015  13.685  1.00  0.00    -0.004 C 
BRANCH  34  35
HETATM   35  C22 UNL     1       8.474   9.442  13.524  1.00  0.00    -0.004 C 
HETATM   36  C23 UNL     1       8.498  10.359  14.504  1.00  0.00    -0.025 C 
BRANCH  36  37
HETATM   37  C24 UNL     1       8.371  10.160  15.992  1.00  0.00     0.053 C 
BRANCH  37  38
HETATM   38  C25 UNL     1       8.731   8.731  16.406  1.00  0.00     0.168 C 
BRANCH  38  39
HETATM   39  O6  UNL     1       7.591   8.035  16.904  1.00  0.00    -0.401 OA
HETATM   40  H37 UNL     1       6.915   8.041  16.206  1.00  0.00     0.209 HD
ENDBRANCH  38  39
ENDBRANCH  37  38
ENDBRANCH  36  37
ENDBRANCH  34  35
ENDBRANCH  32  33
ENDBRANCH  30  32
ENDBRANCH  28  29
ENDBRANCH  26  27
ENDBRANCH  23  26
ENDBRANCH  22  23
ENDBRANCH  12  22
BRANCH   1  41
HETATM   41  O1  UNL     1      -6.488   5.628  15.324  1.00  0.00    -0.358 OA
HETATM   42  C1  UNL     1      -7.797   5.720  15.861  1.00  0.00     0.205 C 
ENDBRANCH   1  41
BRANCH  20  43
HETATM   43  O8  UNL     1      -4.972   9.734  15.554  1.00  0.00    -0.392 OA
HETATM   44  H50 UNL     1      -4.583  10.116  14.747  1.00  0.00     0.210 HD
ENDBRANCH  20  43
BRANCH  21  45
HETATM   45  O9  UNL     1      -7.392   8.526  14.921  1.00  0.00    -0.387 OA
HETATM   46  H52 UNL     1      -7.137   9.372  15.342  1.00  0.00     0.210 HD
ENDBRANCH  21  45
TORSDOF 15
ENDMDL
MODEL 5
REMARK minimizedAffinity -7.20173502
REMARK CNNscore 0.400603801
REMARK CNNaffinity 6.75922012
REMARK  15 active torsions:
REMARK  status: ('A' for Active; 'I' for Inactive)
REMARK    1  A    between atoms: O1_2  and  C2_3 
REMARK    2  A    between atoms: C10_14  and  C11_15 
REMARK    3  A    between atoms: C11_15  and  C12_16 
REMARK    4  A    between atoms: C12_16  and  O5_17 
REMARK    5  A    between atoms: C12_16  and  C13_18 
REMARK    6  A    between atoms: C13_18  and  C14_19 
REMARK    7  A    between atoms: C15_20  and  C16_21 
REMARK    8  A    between atoms: C17_22  and  C19_24 
REMARK    9  A    between atoms: C19_24  and  C20_25 
REMARK   10  A    between atoms: C21_26  and  C22_27 
REMARK   11  A    between atoms: C23_28  and  C24_29 
REMARK   12  A    between atoms: C24_29  and  C25_30 
REMARK   13  A    between atoms: C25_30  and  O6_31 
REMARK   14  A    between atoms: C32_39  and  O8_40 
REMARK   15  A    between atoms: C33_41  and  O9_42 
ROOT
HETATM    1  C2  UNL     1      -6.992   4.808  13.226  1.00  0.00     0.192 C 
HETATM    2  C3  UNL     1      -6.957   4.230  11.791  1.00  0.00     0.074 C 
HETATM    3  C4  UNL     1      -5.984   3.055  11.544  1.00  0.00     0.037 C 
HETATM    4  C5  UNL     1      -4.530   3.185  12.029  1.00  0.00     0.122 C 
HETATM    5  C6  UNL     1      -3.690   1.989  11.616  1.00  0.00     0.035 C 
HETATM    6  C7  UNL     1      -2.295   2.520  11.822  1.00  0.00     0.045 C 
HETATM    7  C8  UNL     1      -2.411   3.999  11.444  1.00  0.00     0.221 C 
HETATM    8  O2  UNL     1      -3.820   4.308  11.473  1.00  0.00    -0.371 OA
HETATM    9  C9  UNL     1      -1.451   4.848  12.319  1.00  0.00     0.288 C 
HETATM   10  O3  UNL     1      -0.443   4.405  12.861  1.00  0.00    -0.262 OA
HETATM   11  O4  UNL     1      -1.837   6.153  12.392  1.00  0.00    -0.314 OA
HETATM   12  C10 UNL     1      -1.101   7.031  13.293  1.00  0.00     0.134 C 
HETATM   13  C26 UNL     1      -1.506   6.805  14.777  1.00  0.00     0.033 C 
HETATM   14  C27 UNL     1      -2.977   7.088  15.178  1.00  0.00     0.005 C 
HETATM   15  C28 UNL     1      -3.924   6.377  14.240  1.00  0.00     0.032 C 
HETATM   16  C29 UNL     1      -5.372   6.048  14.579  1.00  0.00     0.131 C 
HETATM   17  O7  UNL     1      -5.715   5.404  13.352  1.00  0.00    -0.347 OA
HETATM   18  C30 UNL     1      -6.329   7.217  14.827  1.00  0.00     0.042 C 
HETATM   19  C31 UNL     1      -6.125   7.864  16.198  1.00  0.00     0.015 C 
HETATM   20  C32 UNL     1      -7.785   6.718  14.681  1.00  0.00     0.158 C 
HETATM   21  C33 UNL     1      -8.008   5.970  13.353  1.00  0.00     0.209 C 
ENDROOT
BRANCH  12  22
HETATM   22  C11 UNL     1      -1.349   8.462  12.797  1.00  0.00     0.064 C 
BRANCH  22  23
HETATM   23  C12 UNL     1      -0.253   9.495  13.085  1.00  0.00     0.124 C 
BRANCH  23  24
HETATM   24  O5  UNL     1       0.924   9.034  12.401  1.00  0.00    -0.395 OA
HETATM   25  H18 UNL     1       1.601   9.728  12.483  1.00  0.00     0.210 HD
ENDBRANCH  23  24
BRANCH  23  26
HETATM   26  C13 UNL     1       0.100   9.662  14.575  1.00  0.00     0.059 C 
BRANCH  26  27
HETATM   27  C14 UNL     1       0.838  10.925  14.919  1.00  0.00    -0.024 C 
HETATM   28  C15 UNL     1       0.960  11.502  16.124  1.00  0.00    -0.004 C 
BRANCH  28  29
HETATM   29  C16 UNL     1       0.414  10.994  17.364  1.00  0.00     0.002 C 
HETATM   30  C17 UNL     1       0.617  11.498  18.599  1.00  0.00    -0.080 C 
HETATM   31  C18 UNL     1      -0.050  10.857  19.794  1.00  0.00     0.043 C 
BRANCH  30  32
HETATM   32  C19 UNL     1       1.497  12.681  18.939  1.00  0.00     0.060 C 
BRANCH  32  33
HETATM   33  C20 UNL     1       1.640  12.853  20.426  1.00  0.00    -0.022 C 
HETATM   34  C21 UNL     1       2.651  12.474  21.226  1.00  0.00    -0.004 C 
BRANCH  34  35
HETATM   35  C22 UNL     1       3.851  11.780  20.820  1.00  0.00    -0.004 C 
HETATM   36  C23 UNL     1       4.978  11.644  21.538  1.00  0.00    -0.025 C 
BRANCH  36  37
HETATM   37  C24 UNL     1       5.291  12.163  22.917  1.00  0.00     0.053 C 
BRANCH  37  38
HETATM   38  C25 UNL     1       5.835  13.593  22.875  1.00  0.00     0.168 C 
BRANCH  38  39
HETATM   39  O6  UNL     1       4.866  14.528  23.340  1.00  0.00    -0.401 OA
HETATM   40  H37 UNL     1       4.620  14.270  24.245  1.00  0.00     0.209 HD
ENDBRANCH  38  39
ENDBRANCH  37  38
ENDBRANCH  36  37
ENDBRANCH  34  35
ENDBRANCH  32  33
ENDBRANCH  30  32
ENDBRANCH  28  29
ENDBRANCH  26  27
ENDBRANCH  23  26
ENDBRANCH  22  23
ENDBRANCH  12  22
BRANCH   1  41
HETATM   41  O1  UNL     1      -7.097   3.776  14.209  1.00  0.00    -0.358 OA
HETATM   42  C1  UNL     1      -7.721   4.134  15.431  1.00  0.00     0.205 C 
ENDBRANCH   1  41
BRANCH  20  43
HETATM   43  O8  UNL     1      -8.712   7.816  14.732  1.00  0.00    -0.392 OA
HETATM   44  H50 UNL     1      -8.384   8.513  14.136  1.00  0.00     0.210 HD
ENDBRANCH  20  43
BRANCH  21  45
HETATM   45  O9  UNL     1      -9.380   5.571  13.241  1.00  0.00    -0.387 OA
HETATM   46  H52 UNL     1      -9.891   6.292  13.662  1.00  0.00     0.210 HD
ENDBRANCH  21  45
TORSDOF 15
ENDMDL
MODEL 6
REMARK minimizedAffinity -9.28475761
REMARK CNNscore 0.362471074
REMARK CNNaffinity 7.06408453
REMARK  15 active torsions:
REMARK  status: ('A' for Active; 'I' for Inactive)
REMARK    1  A    between atoms: O1_2  and  C2_3 
REMARK    2  A    between atoms: C10_14  and  C11_15 
REMARK    3  A    between atoms: C11_15  and  C12_16 
REMARK    4  A    between atoms: C12_16  and  O5_17 
REMARK    5  A    between atoms: C12_16  and  C13_18 
REMARK    6  A    between atoms: C13_18  and  C14_19 
REMARK    7  A    between atoms: C15_20  and  C16_21 
REMARK    8  A    between atoms: C17_22  and  C19_24 
REMARK    9  A    between atoms: C19_24  and  C20_25 
REMARK   10  A    between atoms: C21_26  and  C22_27 
REMARK   11  A    between atoms: C23_28  and  C24_29 
REMARK   12  A    between atoms: C24_29  and  C25_30 
REMARK   13  A    between atoms: C25_30  and  O6_31 
REMARK   14  A    between atoms: C32_39  and  O8_40 
REMARK   15  A    between atoms: C33_41  and  O9_42 
ROOT
HETATM    1  C2  UNL     1      -3.940   3.123  11.676  1.00  0.00     0.192 C 
HETATM    2  C3  UNL     1      -5.089   2.521  12.518  1.00  0.00     0.074 C 
HETATM    3  C4  UNL     1      -6.409   3.325  12.560  1.00  0.00     0.037 C 
HETATM    4  C5  UNL     1      -6.346   4.831  12.867  1.00  0.00     0.122 C 
HETATM    5  C6  UNL     1      -7.733   5.442  12.971  1.00  0.00     0.035 C 
HETATM    6  C7  UNL     1      -7.432   6.748  13.658  1.00  0.00     0.045 C 
HETATM    7  C8  UNL     1      -6.280   6.401  14.606  1.00  0.00     0.221 C 
HETATM    8  O2  UNL     1      -5.737   5.151  14.133  1.00  0.00    -0.371 OA
HETATM    9  C9  UNL     1      -5.324   7.615  14.746  1.00  0.00     0.288 C 
HETATM   10  O3  UNL     1      -5.657   8.779  14.546  1.00  0.00    -0.262 OA
HETATM   11  O4  UNL     1      -4.076   7.245  15.150  1.00  0.00    -0.314 OA
HETATM   12  C10 UNL     1      -3.041   8.271  15.189  1.00  0.00     0.134 C 
HETATM   13  C26 UNL     1      -2.507   8.605  13.767  1.00  0.00     0.033 C 
HETATM   14  C27 UNL     1      -1.811   7.473  12.969  1.00  0.00     0.005 C 
HETATM   15  C28 UNL     1      -2.676   6.235  12.949  1.00  0.00     0.032 C 
HETATM   16  C29 UNL     1      -2.549   5.124  11.915  1.00  0.00     0.131 C 
HETATM   17  O7  UNL     1      -3.595   4.285  12.406  1.00  0.00    -0.347 OA
HETATM   18  C30 UNL     1      -1.238   4.334  11.876  1.00  0.00     0.042 C 
HETATM   19  C31 UNL     1      -0.100   5.115  11.218  1.00  0.00     0.015 C 
HETATM   20  C32 UNL     1      -1.473   2.999  11.132  1.00  0.00     0.158 C 
HETATM   21  C33 UNL     1      -2.677   2.226  11.701  1.00  0.00     0.209 C 
ENDROOT
BRANCH  12  22
HETATM   22  C11 UNL     1      -1.960   7.755  16.148  1.00  0.00     0.064 C 
BRANCH  22  23
HETATM   23  C12 UNL     1      -0.501   8.010  15.751  1.00  0.00     0.124 C 
BRANCH  23  24
HETATM   24  O5  UNL     1       0.272   6.969  16.372  1.00  0.00    -0.395 OA
HETATM   25  H18 UNL     1       1.186   7.049  16.047  1.00  0.00     0.210 HD
ENDBRANCH  23  24
BRANCH  23  26
HETATM   26  C13 UNL     1       0.067   9.363  16.220  1.00  0.00     0.059 C 
BRANCH  26  27
HETATM   27  C14 UNL     1      -0.661   9.996  17.371  1.00  0.00    -0.024 C 
HETATM   28  C15 UNL     1      -0.151  10.780  18.334  1.00  0.00    -0.004 C 
BRANCH  28  29
HETATM   29  C16 UNL     1       1.229  11.201  18.439  1.00  0.00     0.002 C 
HETATM   30  C17 UNL     1       2.033  11.064  19.513  1.00  0.00    -0.080 C 
HETATM   31  C18 UNL     1       3.466  11.541  19.449  1.00  0.00     0.043 C 
BRANCH  30  32
HETATM   32  C19 UNL     1       1.634  10.474  20.849  1.00  0.00     0.060 C 
BRANCH  32  33
HETATM   33  C20 UNL     1       2.692   9.548  21.381  1.00  0.00    -0.022 C 
HETATM   34  C21 UNL     1       3.552   9.743  22.395  1.00  0.00    -0.004 C 
BRANCH  34  35
HETATM   35  C22 UNL     1       3.661  10.931  23.210  1.00  0.00    -0.004 C 
HETATM   36  C23 UNL     1       4.672  11.815  23.203  1.00  0.00    -0.025 C 
BRANCH  36  37
HETATM   37  C24 UNL     1       5.930  11.809  22.375  1.00  0.00     0.053 C 
BRANCH  37  38
HETATM   38  C25 UNL     1       7.044  12.629  23.030  1.00  0.00     0.168 C 
BRANCH  38  39
HETATM   39  O6  UNL     1       8.195  11.827  23.281  1.00  0.00    -0.401 OA
HETATM   40  H37 UNL     1       8.484  11.454  22.431  1.00  0.00     0.209 HD
ENDBRANCH  38  39
ENDBRANCH  37  38
ENDBRANCH  36  37
ENDBRANCH  34  35
ENDBRANCH  32  33
ENDBRANCH  30  32
ENDBRANCH  28  29
ENDBRANCH  26  27
ENDBRANCH  23  26
ENDBRANCH  22  23
ENDBRANCH  12  22
BRANCH   1  41
HETATM   41  O1  UNL     1      -4.389   3.532  10.382  1.00  0.00    -0.358 OA
HETATM   42  C1  UNL     1      -5.489   2.816   9.844  1.00  0.00     0.205 C 
ENDBRANCH   1  41
BRANCH  20  43
HETATM   43  O8  UNL     1      -0.317   2.149  11.223  1.00  0.00    -0.392 OA
HETATM   44  H50 UNL     1      -0.030   2.133  12.154  1.00  0.00     0.210 HD
ENDBRANCH  20  43
BRANCH  21  45
HETATM   45  O9  UNL     1      -2.825   0.977  11.014  1.00  0.00    -0.387 OA
HETATM   46  H52 UNL     1      -1.912   0.683  10.817  1.00  0.00     0.210 HD
ENDBRANCH  21  45
TORSDOF 15
ENDMDL
MODEL 7
REMARK minimizedAffinity -8.37882423
REMARK CNNscore 0.356997192
REMARK CNNaffinity 7.13726044
REMARK  15 active torsions:
REMARK  status: ('A' for Active; 'I' for Inactive)
REMARK    1  A    between atoms: O1_2  and  C2_3 
REMARK    2  A    between atoms: C10_14  and  C11_15 
REMARK    3  A    between atoms: C11_15  and  C12_16 
REMARK    4  A    between atoms: C12_16  and  O5_17 
REMARK    5  A    between atoms: C12_16  and  C13_18 
REMARK    6  A    between atoms: C13_18  and  C14_19 
REMARK    7  A    between atoms: C15_20  and  C16_21 
REMARK    8  A    between atoms: C17_22  and  C19_24 
REMARK    9  A    between atoms: C19_24  and  C20_25 
REMARK   10  A    between atoms: C21_26  and  C22_27 
REMARK   11  A    between atoms: C23_28  and  C24_29 
REMARK   12  A    between atoms: C24_29  and  C25_30 
REMARK   13  A    between atoms: C25_30  and  O6_31 
REMARK   14  A    between atoms: C32_39  and  O8_40 
REMARK   15  A    between atoms: C33_41  and  O9_42 
ROOT
HETATM    1  C2  UNL     1      -0.002   6.260  12.476  1.00  0.00     0.192 C 
HETATM    2  C3  UNL     1       0.290   4.746  12.600  1.00  0.00     0.074 C 
HETATM    3  C4  UNL     1      -0.457   3.816  11.617  1.00  0.00     0.037 C 
HETATM    4  C5  UNL     1      -1.977   3.984  11.452  1.00  0.00     0.122 C 
HETATM    5  C6  UNL     1      -2.563   2.928  10.532  1.00  0.00     0.035 C 
HETATM    6  C7  UNL     1      -4.032   3.036  10.852  1.00  0.00     0.045 C 
HETATM    7  C8  UNL     1      -4.053   3.363  12.348  1.00  0.00     0.221 C 
HETATM    8  O2  UNL     1      -2.725   3.825  12.673  1.00  0.00    -0.371 OA
HETATM    9  C9  UNL     1      -5.255   4.289  12.672  1.00  0.00     0.288 C 
HETATM   10  O3  UNL     1      -6.273   4.358  11.990  1.00  0.00    -0.262 OA
HETATM   11  O4  UNL     1      -5.068   4.995  13.823  1.00  0.00    -0.314 OA
HETATM   12  C10 UNL     1      -6.060   6.004  14.172  1.00  0.00     0.134 C 
HETATM   13  C26 UNL     1      -5.892   7.296  13.324  1.00  0.00     0.033 C 
HETATM   14  C27 UNL     1      -4.565   8.086  13.463  1.00  0.00     0.005 C 
HETATM   15  C28 UNL     1      -3.383   7.162  13.289  1.00  0.00     0.032 C 
HETATM   16  C29 UNL     1      -1.984   7.630  12.907  1.00  0.00     0.131 C 
HETATM   17  O7  UNL     1      -1.350   6.351  12.896  1.00  0.00    -0.347 OA
HETATM   18  C30 UNL     1      -1.251   8.555  13.883  1.00  0.00     0.042 C 
HETATM   19  C31 UNL     1      -1.775   9.991  13.839  1.00  0.00     0.015 C 
HETATM   20  C32 UNL     1       0.262   8.526  13.567  1.00  0.00     0.158 C 
HETATM   21  C33 UNL     1       0.810   7.088  13.502  1.00  0.00     0.209 C 
ENDROOT
BRANCH  12  22
HETATM   22  C11 UNL     1      -5.926   6.234  15.683  1.00  0.00     0.064 C 
BRANCH  22  23
HETATM   23  C12 UNL     1      -7.224   6.259  16.499  1.00  0.00     0.124 C 
BRANCH  23  24
HETATM   24  O5  UNL     1      -7.971   5.098  16.101  1.00  0.00    -0.395 OA
HETATM   25  H18 UNL     1      -8.749   5.036  16.683  1.00  0.00     0.210 HD
ENDBRANCH  23  24
BRANCH  23  26
HETATM   26  C13 UNL     1      -8.111   7.496  16.262  1.00  0.00     0.059 C 
BRANCH  26  27
HETATM   27  C14 UNL     1      -9.425   7.219  15.588  1.00  0.00    -0.024 C 
HETATM   28  C15 UNL     1     -10.272   8.107  15.044  1.00  0.00    -0.004 C 
BRANCH  28  29
HETATM   29  C16 UNL     1     -10.068   9.538  14.974  1.00  0.00     0.002 C 
HETATM   30  C17 UNL     1     -10.236  10.424  15.976  1.00  0.00    -0.080 C 
HETATM   31  C18 UNL     1      -9.957  11.891  15.741  1.00  0.00     0.043 C 
BRANCH  30  32
HETATM   32  C19 UNL     1     -10.718  10.100  17.375  1.00  0.00     0.060 C 
BRANCH  32  33
HETATM   33  C20 UNL     1     -11.694  11.128  17.875  1.00  0.00    -0.022 C 
HETATM   34  C21 UNL     1     -11.556  12.001  18.887  1.00  0.00    -0.004 C 
BRANCH  34  35
HETATM   35  C22 UNL     1     -10.408  12.133  19.754  1.00  0.00    -0.004 C 
HETATM   36  C23 UNL     1     -10.368  11.880  21.072  1.00  0.00    -0.025 C 
BRANCH  36  37
HETATM   37  C24 UNL     1     -11.472  11.406  21.979  1.00  0.00     0.053 C 
BRANCH  37  38
HETATM   38  C25 UNL     1     -11.146  10.050  22.610  1.00  0.00     0.168 C 
BRANCH  38  39
HETATM   39  O6  UNL     1     -10.457  10.209  23.848  1.00  0.00    -0.401 OA
HETATM   40  H37 UNL     1     -11.023  10.743  24.431  1.00  0.00     0.209 HD
ENDBRANCH  38  39
ENDBRANCH  37  38
ENDBRANCH  36  37
ENDBRANCH  34  35
ENDBRANCH  32  33
ENDBRANCH  30  32
ENDBRANCH  28  29
ENDBRANCH  26  27
ENDBRANCH  23  26
ENDBRANCH  22  23
ENDBRANCH  12  22
BRANCH   1  41
HETATM   41  O1  UNL     1       0.069   6.703  11.119  1.00  0.00    -0.358 OA
HETATM   42  C1  UNL     1       1.266   6.402  10.421  1.00  0.00     0.205 C 
ENDBRANCH   1  41
BRANCH  20  43
HETATM   43  O8  UNL     1       1.009   9.241  14.566  1.00  0.00    -0.392 OA
HETATM   44  H50 UNL     1       0.699   8.946  15.441  1.00  0.00     0.210 HD
ENDBRANCH  20  43
BRANCH  21  45
HETATM   45  O9  UNL     1       2.222   7.114  13.257  1.00  0.00    -0.387 OA
HETATM   46  H52 UNL     1       2.551   7.902  13.734  1.00  0.00     0.210 HD
ENDBRANCH  21  45
TORSDOF 15
ENDMDL
MODEL 8
REMARK minimizedAffinity -8.51886272
REMARK CNNscore 0.322102129
REMARK CNNaffinity 7.26812315
REMARK  15 active torsions:
REMARK  status: ('A' for Active; 'I' for Inactive)
REMARK    1  A    between atoms: O1_2  and  C2_3 
REMARK    2  A    between atoms: C10_14  and  C11_15 
REMARK    3  A    between atoms: C11_15  and  C12_16 
REMARK    4  A    between atoms: C12_16  and  O5_17 
REMARK    5  A    between atoms: C12_16  and  C13_18 
REMARK    6  A    between atoms: C13_18  and  C14_19 
REMARK    7  A    between atoms: C15_20  and  C16_21 
REMARK    8  A    between atoms: C17_22  and  C19_24 
REMARK    9  A    between atoms: C19_24  and  C20_25 
REMARK   10  A    between atoms: C21_26  and  C22_27 
REMARK   11  A    between atoms: C23_28  and  C24_29 
REMARK   12  A    between atoms: C24_29  and  C25_30 
REMARK   13  A    between atoms: C25_30  and  O6_31 
REMARK   14  A    between atoms: C32_39  and  O8_40 
REMARK   15  A    between atoms: C33_41  and  O9_42 
ROOT
HETATM    1  C2  UNL     1       0.002   6.049  12.493  1.00  0.00     0.192 C 
HETATM    2  C3  UNL     1       0.183   4.527  12.702  1.00  0.00     0.074 C 
HETATM    3  C4  UNL     1      -0.635   3.602  11.773  1.00  0.00     0.037 C 
HETATM    4  C5  UNL     1      -2.139   3.872  11.598  1.00  0.00     0.122 C 
HETATM    5  C6  UNL     1      -2.806   2.813  10.739  1.00  0.00     0.035 C 
HETATM    6  C7  UNL     1      -4.261   3.047  11.052  1.00  0.00     0.045 C 
HETATM    7  C8  UNL     1      -4.252   3.458  12.527  1.00  0.00     0.221 C 
HETATM    8  O2  UNL     1      -2.892   3.838  12.826  1.00  0.00    -0.371 OA
HETATM    9  C9  UNL     1      -5.381   4.487  12.798  1.00  0.00     0.288 C 
HETATM   10  O3  UNL     1      -6.394   4.593  12.113  1.00  0.00    -0.262 OA
HETATM   11  O4  UNL     1      -5.138   5.240  13.907  1.00  0.00    -0.314 OA
HETATM   12  C10 UNL     1      -6.052   6.338  14.199  1.00  0.00     0.134 C 
HETATM   13  C26 UNL     1      -5.791   7.565  13.280  1.00  0.00     0.033 C 
HETATM   14  C27 UNL     1      -4.410   8.260  13.374  1.00  0.00     0.005 C 
HETATM   15  C28 UNL     1      -3.299   7.244  13.253  1.00  0.00     0.032 C 
HETATM   16  C29 UNL     1      -1.871   7.585  12.846  1.00  0.00     0.131 C 
HETATM   17  O7  UNL     1      -1.334   6.264  12.907  1.00  0.00    -0.347 OA
HETATM   18  C30 UNL     1      -1.068   8.506  13.768  1.00  0.00     0.042 C 
HETATM   19  C31 UNL     1      -1.485   9.972  13.644  1.00  0.00     0.015 C 
HETATM   20  C32 UNL     1       0.437   8.347  13.455  1.00  0.00     0.158 C 
HETATM   21  C33 UNL     1       0.878   6.871  13.472  1.00  0.00     0.209 C 
ENDROOT
BRANCH  12  22
HETATM   22  C11 UNL     1      -5.895   6.643  15.695  1.00  0.00     0.064 C 
BRANCH  22  23
HETATM   23  C12 UNL     1      -7.028   6.180  16.619  1.00  0.00     0.124 C 
BRANCH  23  24
HETATM   24  O5  UNL     1      -7.464   4.907  16.114  1.00  0.00    -0.395 OA
HETATM   25  H18 UNL     1      -8.110   4.547  16.747  1.00  0.00     0.210 HD
ENDBRANCH  23  24
BRANCH  23  26
HETATM   26  C13 UNL     1      -8.249   7.118  16.659  1.00  0.00     0.059 C 
BRANCH  26  27
HETATM   27  C14 UNL     1      -9.253   6.904  15.562  1.00  0.00    -0.024 C 
HETATM   28  C15 UNL     1      -9.908   7.839  14.855  1.00  0.00    -0.004 C 
BRANCH  28  29
HETATM   29  C16 UNL     1      -9.751   9.270  14.996  1.00  0.00     0.002 C 
HETATM   30  C17 UNL     1     -10.592  10.221  14.541  1.00  0.00    -0.080 C 
HETATM   31  C18 UNL     1     -10.290  11.680  14.794  1.00  0.00     0.043 C 
BRANCH  30  32
HETATM   32  C19 UNL     1     -11.858   9.977  13.747  1.00  0.00     0.060 C 
BRANCH  32  33
HETATM   33  C20 UNL     1     -13.072   9.964  14.634  1.00  0.00    -0.022 C 
HETATM   34  C21 UNL     1     -13.734   8.911  15.143  1.00  0.00    -0.004 C 
BRANCH  34  35
HETATM   35  C22 UNL     1     -13.422   7.517  14.927  1.00  0.00    -0.004 C 
HETATM   36  C23 UNL     1     -13.823   6.760  13.893  1.00  0.00    -0.025 C 
BRANCH  36  37
HETATM   37  C24 UNL     1     -14.681   7.141  12.716  1.00  0.00     0.053 C 
BRANCH  37  38
HETATM   38  C25 UNL     1     -16.170   6.946  13.012  1.00  0.00     0.168 C 
BRANCH  38  39
HETATM   39  O6  UNL     1     -16.787   6.113  12.034  1.00  0.00    -0.401 OA
HETATM   40  H37 UNL     1     -16.313   5.264  12.032  1.00  0.00     0.209 HD
ENDBRANCH  38  39
ENDBRANCH  37  38
ENDBRANCH  36  37
ENDBRANCH  34  35
ENDBRANCH  32  33
ENDBRANCH  30  32
ENDBRANCH  28  29
ENDBRANCH  26  27
ENDBRANCH  23  26
ENDBRANCH  22  23
ENDBRANCH  12  22
BRANCH   1  41
HETATM   41  O1  UNL     1       0.101   6.410  11.114  1.00  0.00    -0.358 OA
HETATM   42  C1  UNL     1       1.342   6.142  10.481  1.00  0.00     0.205 C 
ENDBRANCH   1  41
BRANCH  20  43
HETATM   43  O8  UNL     1       1.239   9.060  14.413  1.00  0.00    -0.392 OA
HETATM   44  H50 UNL     1       0.911   8.838  15.302  1.00  0.00     0.210 HD
ENDBRANCH  20  43
BRANCH  21  45
HETATM   45  O9  UNL     1       2.287   6.779  13.226  1.00  0.00    -0.387 OA
HETATM   46  H52 UNL     1       2.675   7.567  13.658  1.00  0.00     0.210 HD
ENDBRANCH  21  45
TORSDOF 15
ENDMDL
MODEL 9
REMARK minimizedAffinity -7.40060997
REMARK CNNscore 0.318273008
REMARK CNNaffinity 5.98264694
REMARK  15 active torsions:
REMARK  status: ('A' for Active; 'I' for Inactive)
REMARK    1  A    between atoms: O1_2  and  C2_3 
REMARK    2  A    between atoms: C10_14  and  C11_15 
REMARK    3  A    between atoms: C11_15  and  C12_16 
REMARK    4  A    between atoms: C12_16  and  O5_17 
REMARK    5  A    between atoms: C12_16  and  C13_18 
REMARK    6  A    between atoms: C13_18  and  C14_19 
REMARK    7  A    between atoms: C15_20  and  C16_21 
REMARK    8  A    between atoms: C17_22  and  C19_24 
REMARK    9  A    between atoms: C19_24  and  C20_25 
REMARK   10  A    between atoms: C21_26  and  C22_27 
REMARK   11  A    between atoms: C23_28  and  C24_29 
REMARK   12  A    between atoms: C24_29  and  C25_30 
REMARK   13  A    between atoms: C25_30  and  O6_31 
REMARK   14  A    between atoms: C32_39  and  O8_40 
REMARK   15  A    between atoms: C33_41  and  O9_42 
ROOT
HETATM    1  C2  UNL     1      -1.840   3.477  11.448  1.00  0.00     0.192 C 
HETATM    2  C3  UNL     1      -2.642   2.400  12.215  1.00  0.00     0.074 C 
HETATM    3  C4  UNL     1      -4.180   2.443  12.058  1.00  0.00     0.037 C 
HETATM    4  C5  UNL     1      -4.904   3.786  12.246  1.00  0.00     0.122 C 
HETATM    5  C6  UNL     1      -6.412   3.629  12.159  1.00  0.00     0.035 C 
HETATM    6  C7  UNL     1      -6.883   4.926  12.766  1.00  0.00     0.045 C 
HETATM    7  C8  UNL     1      -5.841   5.216  13.851  1.00  0.00     0.221 C 
HETATM    8  O2  UNL     1      -4.699   4.392  13.537  1.00  0.00    -0.371 OA
HETATM    9  C9  UNL     1      -5.630   6.748  13.988  1.00  0.00     0.288 C 
HETATM   10  O3  UNL     1      -6.463   7.588  13.662  1.00  0.00    -0.262 OA
HETATM   11  O4  UNL     1      -4.425   7.055  14.545  1.00  0.00    -0.314 OA
HETATM   12  C10 UNL     1      -4.041   8.460  14.606  1.00  0.00     0.134 C 
HETATM   13  C26 UNL     1      -3.563   8.987  13.223  1.00  0.00     0.033 C 
HETATM   14  C27 UNL     1      -2.305   8.335  12.595  1.00  0.00     0.005 C 
HETATM   15  C28 UNL     1      -2.441   6.830  12.587  1.00  0.00     0.032 C 
HETATM   16  C29 UNL     1      -1.653   5.908  11.665  1.00  0.00     0.131 C 
HETATM   17  O7  UNL     1      -2.206   4.671  12.113  1.00  0.00    -0.347 OA
HETATM   18  C30 UNL     1      -0.131   5.874  11.823  1.00  0.00     0.042 C 
HETATM   19  C31 UNL     1       0.551   7.104  11.222  1.00  0.00     0.015 C 
HETATM   20  C32 UNL     1       0.417   4.585  11.170  1.00  0.00     0.158 C 
HETATM   21  C33 UNL     1      -0.315   3.327  11.674  1.00  0.00     0.209 C 
ENDROOT
BRANCH  12  22
HETATM   22  C11 UNL     1      -2.980   8.568  15.709  1.00  0.00     0.064 C 
BRANCH  22  23
HETATM   23  C12 UNL     1      -3.218   9.621  16.799  1.00  0.00     0.124 C 
BRANCH  23  24
HETATM   24  O5  UNL     1      -3.422  10.868  16.116  1.00  0.00    -0.395 OA
HETATM   25  H18 UNL     1      -3.679  11.529  16.782  1.00  0.00     0.210 HD
ENDBRANCH  23  24
BRANCH  23  26
HETATM   26  C13 UNL     1      -2.047   9.806  17.782  1.00  0.00     0.059 C 
BRANCH  26  27
HETATM   27  C14 UNL     1      -1.304  11.105  17.653  1.00  0.00    -0.024 C 
HETATM   28  C15 UNL     1      -0.192  11.484  18.302  1.00  0.00    -0.004 C 
BRANCH  28  29
HETATM   29  C16 UNL     1       0.543  10.684  19.258  1.00  0.00     0.002 C 
HETATM   30  C17 UNL     1       1.246  11.138  20.315  1.00  0.00    -0.080 C 
HETATM   31  C18 UNL     1       1.942  10.161  21.234  1.00  0.00     0.043 C 
BRANCH  30  32
HETATM   32  C19 UNL     1       1.442  12.592  20.690  1.00  0.00     0.060 C 
BRANCH  32  33
HETATM   33  C20 UNL     1       2.788  13.098  20.253  1.00  0.00    -0.022 C 
HETATM   34  C21 UNL     1       3.916  13.229  20.973  1.00  0.00    -0.004 C 
BRANCH  34  35
HETATM   35  C22 UNL     1       4.078  12.917  22.374  1.00  0.00    -0.004 C 
HETATM   36  C23 UNL     1       5.228  12.611  22.997  1.00  0.00    -0.025 C 
BRANCH  36  37
HETATM   37  C24 UNL     1       6.617  12.509  22.425  1.00  0.00     0.053 C 
BRANCH  37  38
HETATM   38  C25 UNL     1       7.264  13.886  22.256  1.00  0.00     0.168 C 
BRANCH  38  39
HETATM   39  O6  UNL     1       7.040  14.705  23.401  1.00  0.00    -0.401 OA
HETATM   40  H37 UNL     1       7.401  14.237  24.172  1.00  0.00     0.209 HD
ENDBRANCH  38  39
ENDBRANCH  37  38
ENDBRANCH  36  37
ENDBRANCH  34  35
ENDBRANCH  32  33
ENDBRANCH  30  32
ENDBRANCH  28  29
ENDBRANCH  26  27
ENDBRANCH  23  26
ENDBRANCH  22  23
ENDBRANCH  12  22
BRANCH   1  41
HETATM   41  O1  UNL     1      -2.262   3.582  10.087  1.00  0.00    -0.358 OA
HETATM   42  C1  UNL     1      -3.619   3.933   9.875  1.00  0.00     0.205 C 
ENDBRANCH   1  41
BRANCH  20  43
HETATM   43  O8  UNL     1       1.819   4.424  11.446  1.00  0.00    -0.392 OA
HETATM   44  H50 UNL     1       1.955   4.570  12.399  1.00  0.00     0.210 HD
ENDBRANCH  20  43
BRANCH  21  45
HETATM   45  O9  UNL     1       0.259   2.156  11.079  1.00  0.00    -0.387 OA
HETATM   46  H52 UNL     1       1.215   2.351  11.000  1.00  0.00     0.210 HD
ENDBRANCH  21  45
TORSDOF 15
ENDMDL
