MODEL 1
REMARK minimizedAffinity -9.33686829
REMARK CNNscore 0.736141086
REMARK CNNaffinity 7.05211687
REMARK  8 active torsions:
REMARK  status: ('A' for Active; 'I' for Inactive)
REMARK    1  A    between atoms: C4_4  and  C5_5 
REMARK    2  A    between atoms: C5_5  and  C6_6 
REMARK    3  A    between atoms: C6_6  and  C7_7 
REMARK    4  A    between atoms: C7_7  and  C9_9 
REMARK    5  A    between atoms: C15_15  and  O1_16 
REMARK    6  A    between atoms: C18_19  and  C20_21 
REMARK    7  A    between atoms: C20_21  and  O3_23 
REMARK    8  A    between atoms: C21_24  and  O4_25 
ROOT
HETATM    1  C9  UNL     1      -3.034   8.527  14.521  1.00  0.00    -0.002 C 
HETATM    2  C10 UNL     1      -2.430   7.744  15.715  1.00  0.00     0.006 C 
HETATM    3  C11 UNL     1      -1.048   7.221  15.286  1.00  0.00     0.011 C 
HETATM    4  C12 UNL     1      -0.739   7.925  13.952  1.00  0.00    -0.030 C 
HETATM    5  C13 UNL     1      -0.110   9.304  14.320  1.00  0.00     0.016 C 
HETATM    6  C14 UNL     1       0.210   7.138  12.995  1.00  0.00     0.032 C 
HETATM    7  C15 UNL     1       1.689   7.077  13.430  1.00  0.00     0.124 C 
HETATM    8  C16 UNL     1       2.491   6.212  12.454  1.00  0.00     0.039 C 
HETATM    9  C17 UNL     1       2.608   6.899  11.087  1.00  0.00     0.018 C 
HETATM   10  C18 UNL     1       3.381   6.075   9.996  1.00  0.00     0.072 C 
HETATM   11  C19 UNL     1       3.042   4.570   9.995  1.00  0.00     0.030 C 
HETATM   12  C21 UNL     1       3.145   6.671   8.563  1.00  0.00     0.137 C 
HETATM   13  C22 UNL     1       2.762   8.151   8.617  1.00  0.00     0.034 C 
HETATM   14  C23 UNL     1       1.453   8.377   9.377  1.00  0.00     0.013 C 
HETATM   15  C24 UNL     1       1.273   7.415  10.551  1.00  0.00    -0.026 A 
HETATM   16  C25 UNL     1       0.075   6.499  10.488  1.00  0.00     0.021 A 
HETATM   17  C26 UNL     1       0.076   7.611  11.522  1.00  0.00    -0.025 A 
HETATM   18  C27 UNL     1      -0.829   8.814  11.259  1.00  0.00     0.011 C 
HETATM   19  C28 UNL     1      -2.122   8.914  12.083  1.00  0.00     0.011 C 
HETATM   20  C29 UNL     1      -2.179   8.003  13.317  1.00  0.00    -0.032 C 
HETATM   21  C30 UNL     1      -2.737   6.619  12.864  1.00  0.00     0.016 C 
ENDROOT
BRANCH   1  22
HETATM   22  C7  UNL     1      -4.593   8.458  14.470  1.00  0.00    -0.014 C 
HETATM   23  C8  UNL     1      -5.239   9.317  15.569  1.00  0.00     0.010 C 
BRANCH  22  24
HETATM   24  C6  UNL     1      -5.130   7.008  14.651  1.00  0.00     0.008 C 
BRANCH  24  25
HETATM   25  C5  UNL     1      -6.174   6.570  13.618  1.00  0.00     0.028 C 
BRANCH  25  26
HETATM   26  C4  UNL     1      -6.358   5.075  13.639  1.00  0.00    -0.025 C 
HETATM   27  C2  UNL     1      -7.402   4.371  13.159  1.00  0.00    -0.091 C 
HETATM   28  C1  UNL     1      -7.441   2.871  13.281  1.00  0.00     0.042 C 
HETATM   29  C3  UNL     1      -8.595   4.965  12.461  1.00  0.00     0.042 C 
ENDBRANCH  25  26
ENDBRANCH  24  25
ENDBRANCH  22  24
ENDBRANCH   1  22
BRANCH   7  30
HETATM   30  O1  UNL     1       1.796   6.490  14.726  1.00  0.00    -0.395 OA
HETATM   31  H26 UNL     1       2.733   6.511  14.979  1.00  0.00     0.210 HD
ENDBRANCH   7  30
BRANCH  10  32
HETATM   32  C20 UNL     1       4.875   6.255  10.289  1.00  0.00     0.151 C 
HETATM   33  O2  UNL     1       5.467   7.318  10.403  1.00  0.00    -0.649 OA
BRANCH  32  34
HETATM   34  O3  UNL     1       5.551   5.107  10.478  1.00  0.00    -0.776 OA
HETATM   35  H33 UNL     1       6.472   5.395  10.649  1.00  0.00     0.167 HD
ENDBRANCH  32  34
ENDBRANCH  10  32
BRANCH  12  36
HETATM   36  O4  UNL     1       2.110   5.993   7.841  1.00  0.00    -0.394 OA
HETATM   37  H35 UNL     1       2.474   5.161   7.497  1.00  0.00     0.210 HD
ENDBRANCH  12  36
TORSDOF 8
ENDMDL
MODEL 2
REMARK minimizedAffinity -6.8474741
REMARK CNNscore 0.642322123
REMARK CNNaffinity 6.08968925
REMARK  8 active torsions:
REMARK  status: ('A' for Active; 'I' for Inactive)
REMARK    1  A    between atoms: C4_4  and  C5_5 
REMARK    2  A    between atoms: C5_5  and  C6_6 
REMARK    3  A    between atoms: C6_6  and  C7_7 
REMARK    4  A    between atoms: C7_7  and  C9_9 
REMARK    5  A    between atoms: C15_15  and  O1_16 
REMARK    6  A    between atoms: C18_19  and  C20_21 
REMARK    7  A    between atoms: C20_21  and  O3_23 
REMARK    8  A    between atoms: C21_24  and  O4_25 
ROOT
HETATM    1  C9  UNL     1     -14.985  -4.949   9.507  1.00  0.00    -0.002 C 
HETATM    2  C10 UNL     1     -14.775  -3.446   9.189  1.00  0.00     0.006 C 
HETATM    3  C11 UNL     1     -14.989  -2.652  10.489  1.00  0.00     0.011 C 
HETATM    4  C12 UNL     1     -15.053  -3.709  11.608  1.00  0.00    -0.030 C 
HETATM    5  C13 UNL     1     -13.578  -4.000  12.021  1.00  0.00     0.016 C 
HETATM    6  C14 UNL     1     -15.890  -3.295  12.858  1.00  0.00     0.032 C 
HETATM    7  C15 UNL     1     -15.248  -2.221  13.760  1.00  0.00     0.124 C 
HETATM    8  C16 UNL     1     -16.203  -1.848  14.898  1.00  0.00     0.039 C 
HETATM    9  C17 UNL     1     -16.358  -3.015  15.883  1.00  0.00     0.018 C 
HETATM   10  C18 UNL     1     -17.350  -2.750  17.072  1.00  0.00     0.072 C 
HETATM   11  C19 UNL     1     -18.639  -2.012  16.655  1.00  0.00     0.030 C 
HETATM   12  C21 UNL     1     -17.720  -4.086  17.808  1.00  0.00     0.137 C 
HETATM   13  C22 UNL     1     -16.646  -5.159  17.619  1.00  0.00     0.034 C 
HETATM   14  C23 UNL     1     -16.467  -5.537  16.147  1.00  0.00     0.013 C 
HETATM   15  C24 UNL     1     -16.651  -4.350  15.201  1.00  0.00    -0.026 A 
HETATM   16  C25 UNL     1     -17.775  -4.461  14.200  1.00  0.00     0.021 A 
HETATM   17  C26 UNL     1     -16.348  -4.526  13.687  1.00  0.00    -0.025 A 
HETATM   18  C27 UNL     1     -15.822  -5.892  13.248  1.00  0.00     0.011 C 
HETATM   19  C28 UNL     1     -15.702  -6.147  11.738  1.00  0.00     0.011 C 
HETATM   20  C29 UNL     1     -15.776  -4.891  10.859  1.00  0.00    -0.032 C 
HETATM   21  C30 UNL     1     -17.280  -4.609  10.553  1.00  0.00     0.016 C 
ENDROOT
BRANCH   1  22
HETATM   22  C7  UNL     1     -15.548  -5.759   8.298  1.00  0.00    -0.014 C 
HETATM   23  C8  UNL     1     -15.131  -7.237   8.356  1.00  0.00     0.010 C 
BRANCH  22  24
HETATM   24  C6  UNL     1     -15.057  -5.201   6.929  1.00  0.00     0.008 C 
BRANCH  24  25
HETATM   25  C5  UNL     1     -13.541  -5.011   6.814  1.00  0.00     0.028 C 
BRANCH  25  26
HETATM   26  C4  UNL     1     -12.942  -6.024   5.872  1.00  0.00    -0.025 C 
HETATM   27  C2  UNL     1     -12.466  -5.808   4.631  1.00  0.00    -0.091 C 
HETATM   28  C1  UNL     1     -11.917  -6.942   3.807  1.00  0.00     0.042 C 
HETATM   29  C3  UNL     1     -12.411  -4.468   3.949  1.00  0.00     0.042 C 
ENDBRANCH  25  26
ENDBRANCH  24  25
ENDBRANCH  22  24
ENDBRANCH   1  22
BRANCH   7  30
HETATM   30  O1  UNL     1     -14.984  -1.039  13.005  1.00  0.00    -0.395 OA
HETATM   31  H26 UNL     1     -14.543  -0.408  13.596  1.00  0.00     0.210 HD
ENDBRANCH   7  30
BRANCH  10  32
HETATM   32  C20 UNL     1     -16.590  -1.899  18.095  1.00  0.00     0.151 C 
HETATM   33  O2  UNL     1     -16.322  -0.711  17.992  1.00  0.00    -0.649 OA
BRANCH  32  34
HETATM   34  O3  UNL     1     -16.245  -2.552  19.220  1.00  0.00    -0.776 OA
HETATM   35  H33 UNL     1     -15.776  -1.878  19.756  1.00  0.00     0.167 HD
ENDBRANCH  32  34
ENDBRANCH  10  32
BRANCH  12  36
HETATM   36  O4  UNL     1     -18.960  -4.646  17.356  1.00  0.00    -0.394 OA
HETATM   37  H35 UNL     1     -19.686  -4.150  17.770  1.00  0.00     0.210 HD
ENDBRANCH  12  36
TORSDOF 8
ENDMDL
MODEL 3
REMARK minimizedAffinity -6.70206928
REMARK CNNscore 0.52040869
REMARK CNNaffinity 6.3837719
REMARK  8 active torsions:
REMARK  status: ('A' for Active; 'I' for Inactive)
REMARK    1  A    between atoms: C4_4  and  C5_5 
REMARK    2  A    between atoms: C5_5  and  C6_6 
REMARK    3  A    between atoms: C6_6  and  C7_7 
REMARK    4  A    between atoms: C7_7  and  C9_9 
REMARK    5  A    between atoms: C15_15  and  O1_16 
REMARK    6  A    between atoms: C18_19  and  C20_21 
REMARK    7  A    between atoms: C20_21  and  O3_23 
REMARK    8  A    between atoms: C21_24  and  O4_25 
ROOT
HETATM    1  C9  UNL     1       1.155  12.859  17.834  1.00  0.00    -0.002 C 
HETATM    2  C10 UNL     1       2.704  12.802  17.807  1.00  0.00     0.006 C 
HETATM    3  C11 UNL     1       3.125  11.950  16.597  1.00  0.00     0.011 C 
HETATM    4  C12 UNL     1       1.840  11.741  15.776  1.00  0.00    -0.030 C 
HETATM    5  C13 UNL     1       1.701  12.992  14.854  1.00  0.00     0.016 C 
HETATM    6  C14 UNL     1       1.807  10.436  14.921  1.00  0.00     0.032 C 
HETATM    7  C15 UNL     1       2.729  10.431  13.683  1.00  0.00     0.124 C 
HETATM    8  C16 UNL     1       2.664   9.071  12.983  1.00  0.00     0.039 C 
HETATM    9  C17 UNL     1       1.290   8.856  12.335  1.00  0.00     0.018 C 
HETATM   10  C18 UNL     1       1.104   7.470  11.621  1.00  0.00     0.072 C 
HETATM   11  C19 UNL     1       1.701   6.281  12.403  1.00  0.00     0.030 C 
HETATM   12  C21 UNL     1      -0.409   7.191  11.311  1.00  0.00     0.137 C 
HETATM   13  C22 UNL     1      -1.220   8.484  11.214  1.00  0.00     0.034 C 
HETATM   14  C23 UNL     1      -1.207   9.268  12.529  1.00  0.00     0.013 C 
HETATM   15  C24 UNL     1       0.123   9.158  13.274  1.00  0.00    -0.026 A 
HETATM   16  C25 UNL     1       0.071   8.533  14.647  1.00  0.00     0.021 A 
HETATM   17  C26 UNL     1       0.359  10.021  14.545  1.00  0.00    -0.025 A 
HETATM   18  C27 UNL     1      -0.763  10.980  14.939  1.00  0.00     0.011 C 
HETATM   19  C28 UNL     1      -0.633  11.695  16.293  1.00  0.00     0.011 C 
HETATM   20  C29 UNL     1       0.766  11.644  16.924  1.00  0.00    -0.032 C 
HETATM   21  C30 UNL     1       0.865  10.332  17.762  1.00  0.00     0.016 C 
ENDROOT
BRANCH   1  22
HETATM   22  C7  UNL     1       0.572  12.982  19.277  1.00  0.00    -0.014 C 
HETATM   23  C8  UNL     1       1.320  14.038  20.107  1.00  0.00     0.010 C 
BRANCH  22  24
HETATM   24  C6  UNL     1       0.651  11.643  20.067  1.00  0.00     0.008 C 
BRANCH  24  25
HETATM   25  C5  UNL     1       1.878  11.498  20.974  1.00  0.00     0.028 C 
BRANCH  25  26
HETATM   26  C4  UNL     1       1.967  10.104  21.539  1.00  0.00    -0.025 C 
HETATM   27  C2  UNL     1       2.797   9.663  22.504  1.00  0.00    -0.091 C 
HETATM   28  C1  UNL     1       2.774   8.222  22.941  1.00  0.00     0.042 C 
HETATM   29  C3  UNL     1       3.792  10.515  23.242  1.00  0.00     0.042 C 
ENDBRANCH  25  26
ENDBRANCH  24  25
ENDBRANCH  22  24
ENDBRANCH   1  22
BRANCH   7  30
HETATM   30  O1  UNL     1       4.081  10.658  14.077  1.00  0.00    -0.395 OA
HETATM   31  H26 UNL     1       4.618  10.691  13.269  1.00  0.00     0.210 HD
ENDBRANCH   7  30
BRANCH  10  32
HETATM   32  C20 UNL     1       1.802   7.580  10.261  1.00  0.00     0.151 C 
HETATM   33  O2  UNL     1       1.748   8.532   9.496  1.00  0.00    -0.649 OA
BRANCH  32  34
HETATM   34  O3  UNL     1       2.575   6.526   9.940  1.00  0.00    -0.776 OA
HETATM   35  H33 UNL     1       2.938   6.753   9.059  1.00  0.00     0.167 HD
ENDBRANCH  32  34
ENDBRANCH  10  32
BRANCH  12  36
HETATM   36  O4  UNL     1      -1.040   6.371  12.303  1.00  0.00    -0.394 OA
HETATM   37  H35 UNL     1      -0.778   5.448  12.145  1.00  0.00     0.210 HD
ENDBRANCH  12  36
TORSDOF 8
ENDMDL
MODEL 4
REMARK minimizedAffinity -9.12213993
REMARK CNNscore 0.462039858
REMARK CNNaffinity 6.65057898
REMARK  8 active torsions:
REMARK  status: ('A' for Active; 'I' for Inactive)
REMARK    1  A    between atoms: C4_4  and  C5_5 
REMARK    2  A    between atoms: C5_5  and  C6_6 
REMARK    3  A    between atoms: C6_6  and  C7_7 
REMARK    4  A    between atoms: C7_7  and  C9_9 
REMARK    5  A    between atoms: C15_15  and  O1_16 
REMARK    6  A    between atoms: C18_19  and  C20_21 
REMARK    7  A    between atoms: C20_21  and  O3_23 
REMARK    8  A    between atoms: C21_24  and  O4_25 
ROOT
HETATM    1  C9  UNL     1      -3.534   6.527  13.323  1.00  0.00    -0.002 C 
HETATM    2  C10 UNL     1      -3.588   7.659  14.381  1.00  0.00     0.006 C 
HETATM    3  C11 UNL     1      -2.246   8.412  14.336  1.00  0.00     0.011 C 
HETATM    4  C12 UNL     1      -1.527   7.892  13.077  1.00  0.00    -0.030 C 
HETATM    5  C13 UNL     1      -2.055   8.750  11.886  1.00  0.00     0.016 C 
HETATM    6  C14 UNL     1       0.031   7.953  13.135  1.00  0.00     0.032 C 
HETATM    7  C15 UNL     1       0.644   9.365  13.035  1.00  0.00     0.124 C 
HETATM    8  C16 UNL     1       2.166   9.291  13.187  1.00  0.00     0.039 C 
HETATM    9  C17 UNL     1       2.802   8.601  11.973  1.00  0.00     0.018 C 
HETATM   10  C18 UNL     1       4.362   8.438  12.046  1.00  0.00     0.072 C 
HETATM   11  C19 UNL     1       4.881   8.020  13.438  1.00  0.00     0.030 C 
HETATM   12  C21 UNL     1       4.877   7.424  10.964  1.00  0.00     0.137 C 
HETATM   13  C22 UNL     1       3.912   7.311   9.783  1.00  0.00     0.034 C 
HETATM   14  C23 UNL     1       2.538   6.791  10.213  1.00  0.00     0.013 C 
HETATM   15  C24 UNL     1       2.123   7.284  11.600  1.00  0.00    -0.026 A 
HETATM   16  C25 UNL     1       1.896   6.222  12.647  1.00  0.00     0.021 A 
HETATM   17  C26 UNL     1       0.691   6.980  12.120  1.00  0.00    -0.025 A 
HETATM   18  C27 UNL     1      -0.242   6.237  11.165  1.00  0.00     0.011 C 
HETATM   19  C28 UNL     1      -1.588   5.757  11.728  1.00  0.00     0.011 C 
HETATM   20  C29 UNL     1      -1.995   6.388  13.067  1.00  0.00    -0.032 C 
HETATM   21  C30 UNL     1      -1.368   5.531  14.210  1.00  0.00     0.016 C 
ENDROOT
BRANCH   1  22
HETATM   22  C7  UNL     1      -4.384   5.279  13.720  1.00  0.00    -0.014 C 
HETATM   23  C8  UNL     1      -4.527   4.290  12.551  1.00  0.00     0.010 C 
BRANCH  22  24
HETATM   24  C6  UNL     1      -5.824   5.660  14.172  1.00  0.00     0.008 C 
BRANCH  24  25
HETATM   25  C5  UNL     1      -6.914   4.655  13.779  1.00  0.00     0.028 C 
BRANCH  25  26
HETATM   26  C4  UNL     1      -7.614   5.087  12.517  1.00  0.00    -0.025 C 
HETATM   27  C2  UNL     1      -8.751   5.803  12.415  1.00  0.00    -0.091 C 
HETATM   28  C1  UNL     1      -9.334   6.134  11.067  1.00  0.00     0.042 C 
HETATM   29  C3  UNL     1      -9.534   6.348  13.577  1.00  0.00     0.042 C 
ENDBRANCH  25  26
ENDBRANCH  24  25
ENDBRANCH  22  24
ENDBRANCH   1  22
BRANCH   7  30
HETATM   30  O1  UNL     1       0.139  10.195  14.080  1.00  0.00    -0.395 OA
HETATM   31  H26 UNL     1       0.514  11.081  13.956  1.00  0.00     0.210 HD
ENDBRANCH   7  30
BRANCH  10  32
HETATM   32  C20 UNL     1       4.963   9.797  11.672  1.00  0.00     0.151 C 
HETATM   33  O2  UNL     1       4.982  10.798  12.373  1.00  0.00    -0.649 OA
BRANCH  32  34
HETATM   34  O3  UNL     1       5.556   9.834  10.464  1.00  0.00    -0.776 OA
HETATM   35  H33 UNL     1       5.880  10.756  10.382  1.00  0.00     0.167 HD
ENDBRANCH  32  34
ENDBRANCH  10  32
BRANCH  12  36
HETATM   36  O4  UNL     1       5.064   6.101  11.484  1.00  0.00    -0.394 OA
HETATM   37  H35 UNL     1       5.900   6.085  11.980  1.00  0.00     0.210 HD
ENDBRANCH  12  36
TORSDOF 8
ENDMDL
MODEL 5
REMARK minimizedAffinity -8.78155327
REMARK CNNscore 0.441392273
REMARK CNNaffinity 6.66204262
REMARK  8 active torsions:
REMARK  status: ('A' for Active; 'I' for Inactive)
REMARK    1  A    between atoms: C4_4  and  C5_5 
REMARK    2  A    between atoms: C5_5  and  C6_6 
REMARK    3  A    between atoms: C6_6  and  C7_7 
REMARK    4  A    between atoms: C7_7  and  C9_9 
REMARK    5  A    between atoms: C15_15  and  O1_16 
REMARK    6  A    between atoms: C18_19  and  C20_21 
REMARK    7  A    between atoms: C20_21  and  O3_23 
REMARK    8  A    between atoms: C21_24  and  O4_25 
ROOT
HETATM    1  C9  UNL     1      -2.698   7.542  14.897  1.00  0.00    -0.002 C 
HETATM    2  C10 UNL     1      -2.171   8.300  16.142  1.00  0.00     0.006 C 
HETATM    3  C11 UNL     1      -0.755   8.810  15.822  1.00  0.00     0.011 C 
HETATM    4  C12 UNL     1      -0.571   8.584  14.310  1.00  0.00    -0.030 C 
HETATM    5  C13 UNL     1      -1.185   9.831  13.603  1.00  0.00     0.016 C 
HETATM    6  C14 UNL     1       0.906   8.377  13.849  1.00  0.00     0.032 C 
HETATM    7  C15 UNL     1       1.793   9.639  13.879  1.00  0.00     0.124 C 
HETATM    8  C16 UNL     1       3.229   9.284  13.484  1.00  0.00     0.039 C 
HETATM    9  C17 UNL     1       3.307   8.897  12.002  1.00  0.00     0.018 C 
HETATM   10  C18 UNL     1       4.735   8.475  11.502  1.00  0.00     0.072 C 
HETATM   11  C19 UNL     1       5.506   7.584  12.498  1.00  0.00     0.030 C 
HETATM   12  C21 UNL     1       4.658   7.763  10.105  1.00  0.00     0.137 C 
HETATM   13  C22 UNL     1       3.402   8.162   9.329  1.00  0.00     0.034 C 
HETATM   14  C23 UNL     1       2.122   7.761  10.065  1.00  0.00     0.013 C 
HETATM   15  C24 UNL     1       2.249   7.877  11.585  1.00  0.00    -0.026 A 
HETATM   16  C25 UNL     1       2.073   6.599  12.370  1.00  0.00     0.021 A 
HETATM   17  C26 UNL     1       0.993   7.661  12.474  1.00  0.00    -0.025 A 
HETATM   18  C27 UNL     1      -0.324   7.394  11.746  1.00  0.00     0.011 C 
HETATM   19  C28 UNL     1      -1.532   6.987  12.604  1.00  0.00     0.011 C 
HETATM   20  C29 UNL     1      -1.376   7.245  14.110  1.00  0.00    -0.032 C 
HETATM   21  C30 UNL     1      -0.682   5.998  14.739  1.00  0.00     0.016 C 
ENDROOT
BRANCH   1  22
HETATM   22  C7  UNL     1      -3.680   6.384  15.256  1.00  0.00    -0.014 C 
HETATM   23  C8  UNL     1      -3.369   5.104  14.463  1.00  0.00     0.010 C 
BRANCH  22  24
HETATM   24  C6  UNL     1      -5.164   6.751  14.963  1.00  0.00     0.008 C 
BRANCH  24  25
HETATM   25  C5  UNL     1      -5.617   6.512  13.518  1.00  0.00     0.028 C 
BRANCH  25  26
HETATM   26  C4  UNL     1      -6.816   5.601  13.474  1.00  0.00    -0.025 C 
HETATM   27  C2  UNL     1      -6.900   4.385  12.900  1.00  0.00    -0.091 C 
HETATM   28  C1  UNL     1      -8.189   3.608  12.926  1.00  0.00     0.042 C 
HETATM   29  C3  UNL     1      -5.768   3.678  12.206  1.00  0.00     0.042 C 
ENDBRANCH  25  26
ENDBRANCH  24  25
ENDBRANCH  22  24
ENDBRANCH   1  22
BRANCH   7  30
HETATM   30  O1  UNL     1       1.823  10.188  15.196  1.00  0.00    -0.395 OA
HETATM   31  H26 UNL     1       2.353  11.000  15.161  1.00  0.00     0.210 HD
ENDBRANCH   7  30
BRANCH  10  32
HETATM   32  C20 UNL     1       5.519   9.772  11.273  1.00  0.00     0.151 C 
HETATM   33  O2  UNL     1       5.916  10.540  12.137  1.00  0.00    -0.649 OA
BRANCH  32  34
HETATM   34  O3  UNL     1       5.819  10.026   9.985  1.00  0.00    -0.776 OA
HETATM   35  H33 UNL     1       6.310  10.874  10.015  1.00  0.00     0.167 HD
ENDBRANCH  32  34
ENDBRANCH  10  32
BRANCH  12  36
HETATM   36  O4  UNL     1       4.654   6.333  10.208  1.00  0.00    -0.394 OA
HETATM   37  H35 UNL     1       5.565   6.038  10.373  1.00  0.00     0.210 HD
ENDBRANCH  12  36
TORSDOF 8
ENDMDL
MODEL 6
REMARK minimizedAffinity -7.18186378
REMARK CNNscore 0.413246691
REMARK CNNaffinity 5.53146505
REMARK  8 active torsions:
REMARK  status: ('A' for Active; 'I' for Inactive)
REMARK    1  A    between atoms: C4_4  and  C5_5 
REMARK    2  A    between atoms: C5_5  and  C6_6 
REMARK    3  A    between atoms: C6_6  and  C7_7 
REMARK    4  A    between atoms: C7_7  and  C9_9 
REMARK    5  A    between atoms: C15_15  and  O1_16 
REMARK    6  A    between atoms: C18_19  and  C20_21 
REMARK    7  A    between atoms: C20_21  and  O3_23 
REMARK    8  A    between atoms: C21_24  and  O4_25 
ROOT
HETATM    1  C9  UNL     1     -16.984  -0.699  14.902  1.00  0.00    -0.002 C 
HETATM    2  C10 UNL     1     -18.339  -0.738  14.151  1.00  0.00     0.006 C 
HETATM    3  C11 UNL     1     -18.587   0.657  13.550  1.00  0.00     0.011 C 
HETATM    4  C12 UNL     1     -17.259   1.418  13.720  1.00  0.00    -0.030 C 
HETATM    5  C13 UNL     1     -16.376   1.039  12.492  1.00  0.00     0.016 C 
HETATM    6  C14 UNL     1     -17.397   2.969  13.826  1.00  0.00     0.032 C 
HETATM    7  C15 UNL     1     -17.768   3.693  12.515  1.00  0.00     0.124 C 
HETATM    8  C16 UNL     1     -17.951   5.191  12.774  1.00  0.00     0.039 C 
HETATM    9  C17 UNL     1     -16.609   5.853  13.113  1.00  0.00     0.018 C 
HETATM   10  C18 UNL     1     -16.691   7.388  13.434  1.00  0.00     0.072 C 
HETATM   11  C19 UNL     1     -17.903   7.778  14.308  1.00  0.00     0.030 C 
HETATM   12  C21 UNL     1     -15.368   7.897  14.110  1.00  0.00     0.137 C 
HETATM   13  C22 UNL     1     -14.173   7.008  13.763  1.00  0.00     0.034 C 
HETATM   14  C23 UNL     1     -14.362   5.573  14.259  1.00  0.00     0.013 C 
HETATM   15  C24 UNL     1     -15.815   5.103  14.180  1.00  0.00    -0.026 A 
HETATM   16  C25 UNL     1     -16.468   4.726  15.488  1.00  0.00     0.021 A 
HETATM   17  C26 UNL     1     -16.156   3.620  14.496  1.00  0.00    -0.025 A 
HETATM   18  C27 UNL     1     -14.979   2.701  14.818  1.00  0.00     0.011 C 
HETATM   19  C28 UNL     1     -15.308   1.287  15.321  1.00  0.00     0.011 C 
HETATM   20  C29 UNL     1     -16.760   0.839  15.098  1.00  0.00    -0.032 C 
HETATM   21  C30 UNL     1     -17.602   1.321  16.319  1.00  0.00     0.016 C 
ENDROOT
BRANCH   1  22
HETATM   22  C7  UNL     1     -16.935  -1.666  16.126  1.00  0.00    -0.014 C 
HETATM   23  C8  UNL     1     -16.497  -0.941  17.410  1.00  0.00     0.010 C 
BRANCH  22  24
HETATM   24  C6  UNL     1     -15.944  -2.847  15.911  1.00  0.00     0.008 C 
BRANCH  24  25
HETATM   25  C5  UNL     1     -14.551  -2.443  15.417  1.00  0.00     0.028 C 
BRANCH  25  26
HETATM   26  C4  UNL     1     -14.038  -3.421  14.392  1.00  0.00    -0.025 C 
HETATM   27  C2  UNL     1     -14.164  -3.347  13.053  1.00  0.00    -0.091 C 
HETATM   28  C1  UNL     1     -13.608  -4.429  12.166  1.00  0.00     0.042 C 
HETATM   29  C3  UNL     1     -14.830  -2.221  12.311  1.00  0.00     0.042 C 
ENDBRANCH  25  26
ENDBRANCH  24  25
ENDBRANCH  22  24
ENDBRANCH   1  22
BRANCH   7  30
HETATM   30  O1  UNL     1     -18.999   3.182  12.005  1.00  0.00    -0.395 OA
HETATM   31  H26 UNL     1     -19.173   3.631  11.162  1.00  0.00     0.210 HD
ENDBRANCH   7  30
BRANCH  10  32
HETATM   32  C20 UNL     1     -16.786   8.114  12.088  1.00  0.00     0.151 C 
HETATM   33  O2  UNL     1     -17.512   9.061  11.825  1.00  0.00    -0.649 OA
BRANCH  32  34
HETATM   34  O3  UNL     1     -15.936   7.662  11.147  1.00  0.00    -0.776 OA
HETATM   35  H33 UNL     1     -16.123   8.221  10.364  1.00  0.00     0.167 HD
ENDBRANCH  32  34
ENDBRANCH  10  32
BRANCH  12  36
HETATM   36  O4  UNL     1     -15.456   7.947  15.539  1.00  0.00    -0.394 OA
HETATM   37  H35 UNL     1     -15.955   8.744  15.785  1.00  0.00     0.210 HD
ENDBRANCH  12  36
TORSDOF 8
ENDMDL
MODEL 7
REMARK minimizedAffinity -7.44124937
REMARK CNNscore 0.385481238
REMARK CNNaffinity 6.46470261
REMARK  8 active torsions:
REMARK  status: ('A' for Active; 'I' for Inactive)
REMARK    1  A    between atoms: C4_4  and  C5_5 
REMARK    2  A    between atoms: C5_5  and  C6_6 
REMARK    3  A    between atoms: C6_6  and  C7_7 
REMARK    4  A    between atoms: C7_7  and  C9_9 
REMARK    5  A    between atoms: C15_15  and  O1_16 
REMARK    6  A    between atoms: C18_19  and  C20_21 
REMARK    7  A    between atoms: C20_21  and  O3_23 
REMARK    8  A    between atoms: C21_24  and  O4_25 
ROOT
HETATM    1  C9  UNL     1      -2.830   6.208  13.516  1.00  0.00    -0.002 C 
HETATM    2  C10 UNL     1      -1.633   6.487  12.571  1.00  0.00     0.006 C 
HETATM    3  C11 UNL     1      -1.025   7.844  12.966  1.00  0.00     0.011 C 
HETATM    4  C12 UNL     1      -1.694   8.220  14.301  1.00  0.00    -0.030 C 
HETATM    5  C13 UNL     1      -0.864   7.516  15.419  1.00  0.00     0.016 C 
HETATM    6  C14 UNL     1      -1.788   9.751  14.584  1.00  0.00     0.032 C 
HETATM    7  C15 UNL     1      -0.454  10.445  14.932  1.00  0.00     0.124 C 
HETATM    8  C16 UNL     1      -0.672  11.951  15.104  1.00  0.00     0.039 C 
HETATM    9  C17 UNL     1      -1.499  12.241  16.363  1.00  0.00     0.018 C 
HETATM   10  C18 UNL     1      -1.814  13.759  16.613  1.00  0.00     0.072 C 
HETATM   11  C19 UNL     1      -2.193  14.536  15.334  1.00  0.00     0.030 C 
HETATM   12  C21 UNL     1      -2.942  13.934  17.691  1.00  0.00     0.137 C 
HETATM   13  C22 UNL     1      -3.032  12.725  18.624  1.00  0.00     0.034 C 
HETATM   14  C23 UNL     1      -3.381  11.441  17.867  1.00  0.00     0.013 C 
HETATM   15  C24 UNL     1      -2.761  11.387  16.470  1.00  0.00    -0.026 A 
HETATM   16  C25 UNL     1      -3.726  11.308  15.313  1.00  0.00     0.021 A 
HETATM   17  C26 UNL     1      -2.885  10.085  15.631  1.00  0.00    -0.025 A 
HETATM   18  C27 UNL     1      -3.589   8.905  16.298  1.00  0.00     0.011 C 
HETATM   19  C28 UNL     1      -3.894   7.680  15.420  1.00  0.00     0.011 C 
HETATM   20  C29 UNL     1      -3.140   7.636  14.084  1.00  0.00    -0.032 C 
HETATM   21  C30 UNL     1      -3.981   8.425  13.034  1.00  0.00     0.016 C 
ENDROOT
BRANCH   1  22
HETATM   22  C7  UNL     1      -3.958   5.365  12.843  1.00  0.00    -0.014 C 
HETATM   23  C8  UNL     1      -5.319   5.584  13.524  1.00  0.00     0.010 C 
BRANCH  22  24
HETATM   24  C6  UNL     1      -3.666   3.836  12.891  1.00  0.00     0.008 C 
BRANCH  24  25
HETATM   25  C5  UNL     1      -2.975   3.269  11.646  1.00  0.00     0.028 C 
BRANCH  25  26
HETATM   26  C4  UNL     1      -3.769   3.577  10.403  1.00  0.00    -0.025 C 
HETATM   27  C2  UNL     1      -4.977   3.088  10.060  1.00  0.00    -0.091 C 
HETATM   28  C1  UNL     1      -5.628   3.484   8.762  1.00  0.00     0.042 C 
HETATM   29  C3  UNL     1      -5.794   2.143  10.898  1.00  0.00     0.042 C 
ENDBRANCH  25  26
ENDBRANCH  24  25
ENDBRANCH  22  24
ENDBRANCH   1  22
BRANCH   7  30
HETATM   30  O1  UNL     1       0.488  10.256  13.876  1.00  0.00    -0.395 OA
HETATM   31  H26 UNL     1       1.322  10.668  14.153  1.00  0.00     0.210 HD
ENDBRANCH   7  30
BRANCH  10  32
HETATM   32  C20 UNL     1      -0.549  14.375  17.221  1.00  0.00     0.151 C 
HETATM   33  O2  UNL     1      -0.499  15.357  17.948  1.00  0.00    -0.649 OA
BRANCH  32  34
HETATM   34  O3  UNL     1       0.588  13.711  16.940  1.00  0.00    -0.776 OA
HETATM   35  H33 UNL     1       1.287  14.227  17.394  1.00  0.00     0.167 HD
ENDBRANCH  32  34
ENDBRANCH  10  32
BRANCH  12  36
HETATM   36  O4  UNL     1      -4.240  14.118  17.113  1.00  0.00    -0.394 OA
HETATM   37  H35 UNL     1      -4.309  15.039  16.809  1.00  0.00     0.210 HD
ENDBRANCH  12  36
TORSDOF 8
ENDMDL
MODEL 8
REMARK minimizedAffinity -8.86436367
REMARK CNNscore 0.330739707
REMARK CNNaffinity 6.67378378
REMARK  8 active torsions:
REMARK  status: ('A' for Active; 'I' for Inactive)
REMARK    1  A    between atoms: C4_4  and  C5_5 
REMARK    2  A    between atoms: C5_5  and  C6_6 
REMARK    3  A    between atoms: C6_6  and  C7_7 
REMARK    4  A    between atoms: C7_7  and  C9_9 
REMARK    5  A    between atoms: C15_15  and  O1_16 
REMARK    6  A    between atoms: C18_19  and  C20_21 
REMARK    7  A    between atoms: C20_21  and  O3_23 
REMARK    8  A    between atoms: C21_24  and  O4_25 
ROOT
HETATM    1  C9  UNL     1      -2.926   6.357  13.500  1.00  0.00    -0.002 C 
HETATM    2  C10 UNL     1      -3.030   5.339  12.336  1.00  0.00     0.006 C 
HETATM    3  C11 UNL     1      -1.634   5.196  11.706  1.00  0.00     0.011 C 
HETATM    4  C12 UNL     1      -0.674   5.918  12.669  1.00  0.00    -0.030 C 
HETATM    5  C13 UNL     1      -0.291   4.879  13.767  1.00  0.00     0.016 C 
HETATM    6  C14 UNL     1       0.614   6.499  12.006  1.00  0.00     0.032 C 
HETATM    7  C15 UNL     1       1.663   5.456  11.569  1.00  0.00     0.124 C 
HETATM    8  C16 UNL     1       2.832   6.147  10.863  1.00  0.00     0.039 C 
HETATM    9  C17 UNL     1       3.643   6.993  11.853  1.00  0.00     0.018 C 
HETATM   10  C18 UNL     1       4.848   7.779  11.221  1.00  0.00     0.072 C 
HETATM   11  C19 UNL     1       4.525   8.420   9.855  1.00  0.00     0.030 C 
HETATM   12  C21 UNL     1       5.387   8.876  12.206  1.00  0.00     0.137 C 
HETATM   13  C22 UNL     1       5.061   8.545  13.663  1.00  0.00     0.034 C 
HETATM   14  C23 UNL     1       3.552   8.476  13.911  1.00  0.00     0.013 C 
HETATM   15  C24 UNL     1       2.779   7.905  12.722  1.00  0.00    -0.026 A 
HETATM   16  C25 UNL     1       1.761   8.820  12.085  1.00  0.00     0.021 A 
HETATM   17  C26 UNL     1       1.258   7.620  12.866  1.00  0.00    -0.025 A 
HETATM   18  C27 UNL     1       0.639   7.885  14.237  1.00  0.00     0.011 C 
HETATM   19  C28 UNL     1      -0.891   7.796  14.346  1.00  0.00     0.011 C 
HETATM   20  C29 UNL     1      -1.587   7.101  13.168  1.00  0.00    -0.032 C 
HETATM   21  C30 UNL     1      -1.866   8.178  12.075  1.00  0.00     0.016 C 
ENDROOT
BRANCH   1  22
HETATM   22  C7  UNL     1      -4.242   7.165  13.727  1.00  0.00    -0.014 C 
HETATM   23  C8  UNL     1      -4.097   8.630  13.286  1.00  0.00     0.010 C 
BRANCH  22  24
HETATM   24  C6  UNL     1      -4.679   7.181  15.221  1.00  0.00     0.008 C 
BRANCH  24  25
HETATM   25  C5  UNL     1      -5.652   6.067  15.623  1.00  0.00     0.028 C 
BRANCH  25  26
HETATM   26  C4  UNL     1      -7.079   6.487  15.383  1.00  0.00    -0.025 C 
HETATM   27  C2  UNL     1      -7.841   6.221  14.304  1.00  0.00    -0.091 C 
HETATM   28  C1  UNL     1      -9.252   6.737  14.211  1.00  0.00     0.042 C 
HETATM   29  C3  UNL     1      -7.404   5.401  13.121  1.00  0.00     0.042 C 
ENDBRANCH  25  26
ENDBRANCH  24  25
ENDBRANCH  22  24
ENDBRANCH   1  22
BRANCH   7  30
HETATM   30  O1  UNL     1       1.083   4.529  10.652  1.00  0.00    -0.395 OA
HETATM   31  H26 UNL     1       1.760   3.868  10.438  1.00  0.00     0.210 HD
ENDBRANCH   7  30
BRANCH  10  32
HETATM   32  C20 UNL     1       5.987   6.769  11.048  1.00  0.00     0.151 C 
HETATM   33  O2  UNL     1       7.174   6.974  11.257  1.00  0.00    -0.649 OA
BRANCH  32  34
HETATM   34  O3  UNL     1       5.592   5.538  10.673  1.00  0.00    -0.776 OA
HETATM   35  H33 UNL     1       6.426   5.026  10.608  1.00  0.00     0.167 HD
ENDBRANCH  32  34
ENDBRANCH  10  32
BRANCH  12  36
HETATM   36  O4  UNL     1       4.850  10.178  11.938  1.00  0.00    -0.394 OA
HETATM   37  H35 UNL     1       5.322  10.550  11.175  1.00  0.00     0.210 HD
ENDBRANCH  12  36
TORSDOF 8
ENDMDL
MODEL 9
REMARK minimizedAffinity -7.54513359
REMARK CNNscore 0.319672465
REMARK CNNaffinity 6.27839851
REMARK  8 active torsions:
REMARK  status: ('A' for Active; 'I' for Inactive)
REMARK    1  A    between atoms: C4_4  and  C5_5 
REMARK    2  A    between atoms: C5_5  and  C6_6 
REMARK    3  A    between atoms: C6_6  and  C7_7 
REMARK    4  A    between atoms: C7_7  and  C9_9 
REMARK    5  A    between atoms: C15_15  and  O1_16 
REMARK    6  A    between atoms: C18_19  and  C20_21 
REMARK    7  A    between atoms: C20_21  and  O3_23 
REMARK    8  A    between atoms: C21_24  and  O4_25 
ROOT
HETATM    1  C9  UNL     1      -0.023   6.612  11.737  1.00  0.00    -0.002 C 
HETATM    2  C10 UNL     1       0.092   7.005  10.242  1.00  0.00     0.006 C 
HETATM    3  C11 UNL     1       1.454   7.689  10.035  1.00  0.00     0.011 C 
HETATM    4  C12 UNL     1       2.235   7.450  11.341  1.00  0.00    -0.030 C 
HETATM    5  C13 UNL     1       2.909   6.051  11.198  1.00  0.00     0.016 C 
HETATM    6  C14 UNL     1       3.307   8.533  11.676  1.00  0.00     0.032 C 
HETATM    7  C15 UNL     1       4.570   8.512  10.791  1.00  0.00     0.124 C 
HETATM    8  C16 UNL     1       5.499   9.669  11.169  1.00  0.00     0.039 C 
HETATM    9  C17 UNL     1       6.105   9.449  12.561  1.00  0.00     0.018 C 
HETATM   10  C18 UNL     1       7.046  10.602  13.063  1.00  0.00     0.072 C 
HETATM   11  C19 UNL     1       6.521  12.018  12.746  1.00  0.00     0.030 C 
HETATM   12  C21 UNL     1       7.325  10.474  14.602  1.00  0.00     0.137 C 
HETATM   13  C22 UNL     1       7.148   9.038  15.098  1.00  0.00     0.034 C 
HETATM   14  C23 UNL     1       5.716   8.535  14.897  1.00  0.00     0.013 C 
HETATM   15  C24 UNL     1       5.070   9.075  13.620  1.00  0.00    -0.026 A 
HETATM   16  C25 UNL     1       3.831   9.917  13.803  1.00  0.00     0.021 A 
HETATM   17  C26 UNL     1       3.678   8.539  13.185  1.00  0.00    -0.025 A 
HETATM   18  C27 UNL     1       3.063   7.444  14.055  1.00  0.00     0.011 C 
HETATM   19  C28 UNL     1       1.611   7.041  13.755  1.00  0.00     0.011 C 
HETATM   20  C29 UNL     1       1.070   7.518  12.400  1.00  0.00    -0.032 C 
HETATM   21  C30 UNL     1       0.487   8.952  12.596  1.00  0.00     0.016 C 
ENDROOT
BRANCH   1  22
HETATM   22  C7  UNL     1      -1.491   6.632  12.265  1.00  0.00    -0.014 C 
HETATM   23  C8  UNL     1      -1.616   7.424  13.577  1.00  0.00     0.010 C 
BRANCH  22  24
HETATM   24  C6  UNL     1      -2.043   5.203  12.542  1.00  0.00     0.008 C 
BRANCH  24  25
HETATM   25  C5  UNL     1      -3.264   5.148  13.468  1.00  0.00     0.028 C 
BRANCH  25  26
HETATM   26  C4  UNL     1      -4.363   4.317  12.859  1.00  0.00    -0.025 C 
HETATM   27  C2  UNL     1      -5.684   4.581  12.859  1.00  0.00    -0.091 C 
HETATM   28  C1  UNL     1      -6.660   3.628  12.221  1.00  0.00     0.042 C 
HETATM   29  C3  UNL     1      -6.320   5.807  13.455  1.00  0.00     0.042 C 
ENDBRANCH  25  26
ENDBRANCH  24  25
ENDBRANCH  22  24
ENDBRANCH   1  22
BRANCH   7  30
HETATM   30  O1  UNL     1       4.210   8.669   9.419  1.00  0.00    -0.395 OA
HETATM   31  H26 UNL     1       5.025   8.606   8.895  1.00  0.00     0.210 HD
ENDBRANCH   7  30
BRANCH  10  32
HETATM   32  C20 UNL     1       8.397  10.397  12.369  1.00  0.00     0.151 C 
HETATM   33  O2  UNL     1       9.255   9.584  12.680  1.00  0.00    -0.649 OA
BRANCH  32  34
HETATM   34  O3  UNL     1       8.597  11.178  11.291  1.00  0.00    -0.776 OA
HETATM   35  H33 UNL     1       9.490  10.927  10.973  1.00  0.00     0.167 HD
ENDBRANCH  32  34
ENDBRANCH  10  32
BRANCH  12  36
HETATM   36  O4  UNL     1       6.467  11.303  15.395  1.00  0.00    -0.394 OA
HETATM   37  H35 UNL     1       6.800  12.215  15.352  1.00  0.00     0.210 HD
ENDBRANCH  12  36
TORSDOF 8
ENDMDL
