MODEL 1
REMARK minimizedAffinity -9.64291286
REMARK CNNscore 0.448147178
REMARK CNNaffinity 6.39840698
REMARK  13 active torsions:
REMARK  status: ('A' for Active; 'I' for Inactive)
REMARK    1  A    between atoms: C19_21  and  O3_22 
REMARK    2  A    between atoms: C19_21  and  C20_23 
REMARK    3  A    between atoms: C20_23  and  C21_25 
REMARK    4  A    between atoms: C21_25  and  O5_26 
REMARK    5  A    between atoms: O5_26  and  C22_27 
REMARK    6  A    between atoms: C22_27  and  C23_29 
REMARK    7  A    between atoms: C23_29  and  C24_30 
REMARK    8  A    between atoms: C24_30  and  C25_31 
REMARK       I    between atoms: C25_31  and  N1_33 
REMARK    9  A    between atoms: N1_33  and  C26_34 
REMARK   10  A    between atoms: C26_34  and  C27_35 
REMARK   11  A    between atoms: C26_34  and  C34_42 
REMARK   12  A    between atoms: C27_35  and  C28_36 
REMARK   13  A    between atoms: C34_42  and  O9_44 
ROOT
HETATM    1  C20 UNL     1       0.171  10.364  14.552  1.00  0.00     0.185 C 
HETATM    2  O4  UNL     1      -0.473  11.375  14.857  1.00  0.00    -0.292 OA
ENDROOT
BRANCH   1   3
HETATM    3  C19 UNL     1      -0.442   9.278  13.636  1.00  0.00     0.128 C 
HETATM    4  C14 UNL     1      -1.685   8.577  14.272  1.00  0.00     0.005 C 
HETATM    5  C13 UNL     1      -2.998   9.371  14.243  1.00  0.00     0.091 C 
HETATM    6  C15 UNL     1      -1.384   8.142  15.736  1.00  0.00     0.019 C 
HETATM    7  C16 UNL     1      -1.850   7.378  13.304  1.00  0.00     0.002 C 
HETATM    8  C12 UNL     1      -4.154   8.456  14.626  1.00  0.00     0.133 C 
HETATM    9  C11 UNL     1      -4.314   7.162  13.800  1.00  0.00     0.072 C 
HETATM   10  O2  UNL     1      -4.932   8.789  15.516  1.00  0.00    -0.297 OA
HETATM   11  C2  UNL     1      -5.515   6.237  14.221  1.00  0.00    -0.009 C 
HETATM   12  C10 UNL     1      -2.957   6.402  13.730  1.00  0.00     0.003 C 
HETATM   13  C1  UNL     1      -5.429   5.789  15.699  1.00  0.00     0.021 C 
HETATM   14  C3  UNL     1      -6.849   7.009  13.981  1.00  0.00     0.022 C 
HETATM   15  C7  UNL     1      -5.501   4.963  13.354  1.00  0.00    -0.067 C 
HETATM   16  C4  UNL     1      -8.087   6.124  13.999  1.00  0.00     0.084 C 
HETATM   17  C5  UNL     1      -7.947   5.005  13.003  1.00  0.00     0.149 C 
HETATM   18  O1  UNL     1      -8.913   4.505  12.433  1.00  0.00    -0.293 OA
HETATM   19  C6  UNL     1      -6.598   4.442  12.776  1.00  0.00     0.053 C 
HETATM   20  C8  UNL     1      -4.172   4.264  13.189  1.00  0.00     0.035 C 
HETATM   21  C9  UNL     1      -3.070   5.222  12.758  1.00  0.00     0.010 C 
HETATM   22  C17 UNL     1      -0.432   6.837  13.165  1.00  0.00     0.009 C 
HETATM   23  C18 UNL     1       0.476   8.076  13.293  1.00  0.00     0.047 C 
BRANCH   3  24
HETATM   24  O3  UNL     1      -0.834   9.883  12.394  1.00  0.00    -0.381 OA
HETATM   25  H25 UNL     1      -0.276  10.678  12.250  1.00  0.00     0.211 HD
ENDBRANCH   3  24
ENDBRANCH   1   3
BRANCH   1  26
HETATM   26  C21 UNL     1       1.590  10.180  15.098  1.00  0.00     0.260 C 
BRANCH  26  27
HETATM   27  O5  UNL     1       2.016  10.860  16.272  1.00  0.00    -0.314 OA
BRANCH  27  28
HETATM   28  C22 UNL     1       1.922  10.163  17.433  1.00  0.00     0.259 C 
HETATM   29  O6  UNL     1       2.214   8.977  17.540  1.00  0.00    -0.265 OA
BRANCH  28  30
HETATM   30  C23 UNL     1       1.391  10.993  18.581  1.00  0.00     0.120 C 
BRANCH  30  31
HETATM   31  C24 UNL     1       2.448  11.799  19.327  1.00  0.00     0.112 C 
BRANCH  31  32
HETATM   32  C25 UNL     1       3.401  10.909  20.105  1.00  0.00     0.218 C 
HETATM   33  O7  UNL     1       4.537  10.650  19.731  1.00  0.00    -0.274 OA
HETATM   34  N1  UNL     1       2.858  10.437  21.279  1.00  0.00    -0.346 N 
HETATM   35  H32 UNL     1       1.846  10.400  21.334  1.00  0.00     0.163 HD
BRANCH  34  36
HETATM   36  C26 UNL     1       3.579   9.463  22.114  1.00  0.00     0.186 C 
BRANCH  36  37
HETATM   37  C27 UNL     1       4.402  10.204  23.174  1.00  0.00     0.074 C 
BRANCH  37  38
HETATM   38  C28 UNL     1       4.231  11.704  23.154  1.00  0.00    -0.056 A 
HETATM   39  C29 UNL     1       5.304  12.539  22.817  1.00  0.00     0.007 A 
HETATM   40  C30 UNL     1       5.144  13.926  22.808  1.00  0.00     0.001 A 
HETATM   41  C31 UNL     1       3.912  14.490  23.134  1.00  0.00     0.000 A 
HETATM   42  C32 UNL     1       2.839  13.667  23.470  1.00  0.00     0.001 A 
HETATM   43  C33 UNL     1       2.995  12.281  23.480  1.00  0.00     0.007 A 
ENDBRANCH  37  38
ENDBRANCH  36  37
BRANCH  36  44
HETATM   44  C34 UNL     1       2.528   8.584  22.786  1.00  0.00     0.163 C 
HETATM   45  O8  UNL     1       1.793   7.792  22.212  1.00  0.00    -0.648 OA
BRANCH  44  46
HETATM   46  O9  UNL     1       2.445   8.761  24.118  1.00  0.00    -0.775 OA
HETATM   47  H41 UNL     1       1.742   8.149  24.417  1.00  0.00     0.167 HD
ENDBRANCH  44  46
ENDBRANCH  36  44
ENDBRANCH  34  36
ENDBRANCH  31  32
ENDBRANCH  30  31
ENDBRANCH  28  30
ENDBRANCH  27  28
ENDBRANCH  26  27
ENDBRANCH   1  26
TORSDOF 13
ENDMDL
MODEL 2
REMARK minimizedAffinity -8.45824623
REMARK CNNscore 0.445909798
REMARK CNNaffinity 6.24415159
REMARK  13 active torsions:
REMARK  status: ('A' for Active; 'I' for Inactive)
REMARK    1  A    between atoms: C19_21  and  O3_22 
REMARK    2  A    between atoms: C19_21  and  C20_23 
REMARK    3  A    between atoms: C20_23  and  C21_25 
REMARK    4  A    between atoms: C21_25  and  O5_26 
REMARK    5  A    between atoms: O5_26  and  C22_27 
REMARK    6  A    between atoms: C22_27  and  C23_29 
REMARK    7  A    between atoms: C23_29  and  C24_30 
REMARK    8  A    between atoms: C24_30  and  C25_31 
REMARK       I    between atoms: C25_31  and  N1_33 
REMARK    9  A    between atoms: N1_33  and  C26_34 
REMARK   10  A    between atoms: C26_34  and  C27_35 
REMARK   11  A    between atoms: C26_34  and  C34_42 
REMARK   12  A    between atoms: C27_35  and  C28_36 
REMARK   13  A    between atoms: C34_42  and  O9_44 
ROOT
HETATM    1  C20 UNL     1      -0.577  10.763  17.605  1.00  0.00     0.185 C 
HETATM    2  O4  UNL     1      -1.630  10.346  18.100  1.00  0.00    -0.292 OA
ENDROOT
BRANCH   1   3
HETATM    3  C19 UNL     1       0.133  12.011  18.180  1.00  0.00     0.128 C 
HETATM    4  C14 UNL     1       1.102  11.670  19.358  1.00  0.00     0.005 C 
HETATM    5  C13 UNL     1       2.453  11.057  18.966  1.00  0.00     0.091 C 
HETATM    6  C15 UNL     1       0.404  10.746  20.397  1.00  0.00     0.019 C 
HETATM    7  C16 UNL     1       1.383  13.094  19.904  1.00  0.00     0.002 C 
HETATM    8  C12 UNL     1       3.380  11.055  20.175  1.00  0.00     0.133 C 
HETATM    9  C11 UNL     1       3.612  12.413  20.871  1.00  0.00     0.072 C 
HETATM   10  O2  UNL     1       3.941  10.017  20.517  1.00  0.00    -0.297 OA
HETATM   11  C2  UNL     1       4.571  12.378  22.117  1.00  0.00    -0.009 C 
HETATM   12  C10 UNL     1       2.246  13.097  21.173  1.00  0.00     0.003 C 
HETATM   13  C1  UNL     1       4.075  11.415  23.220  1.00  0.00     0.021 C 
HETATM   14  C3  UNL     1       5.992  11.946  21.641  1.00  0.00     0.022 C 
HETATM   15  C7  UNL     1       4.647  13.786  22.737  1.00  0.00    -0.067 C 
HETATM   16  C4  UNL     1       7.093  12.216  22.657  1.00  0.00     0.084 C 
HETATM   17  C5  UNL     1       7.095  13.667  23.056  1.00  0.00     0.149 C 
HETATM   18  O1  UNL     1       8.118  14.257  23.395  1.00  0.00    -0.293 OA
HETATM   19  C6  UNL     1       5.796  14.373  23.117  1.00  0.00     0.053 C 
HETATM   20  C8  UNL     1       3.339  14.511  22.948  1.00  0.00     0.035 C 
HETATM   21  C9  UNL     1       2.480  14.521  21.691  1.00  0.00     0.010 C 
HETATM   22  C17 UNL     1      -0.002  13.725  19.976  1.00  0.00     0.009 C 
HETATM   23  C18 UNL     1      -0.785  13.091  18.809  1.00  0.00     0.047 C 
BRANCH   3  24
HETATM   24  O3  UNL     1       0.881  12.647  17.132  1.00  0.00    -0.381 OA
HETATM   25  H25 UNL     1       0.459  12.422  16.274  1.00  0.00     0.211 HD
ENDBRANCH   3  24
ENDBRANCH   1   3
BRANCH   1  26
HETATM   26  C21 UNL     1       0.026  10.040  16.397  1.00  0.00     0.260 C 
BRANCH  26  27
HETATM   27  O5  UNL     1       0.557   8.727  16.520  1.00  0.00    -0.314 OA
BRANCH  27  28
HETATM   28  C22 UNL     1       1.815   8.544  16.048  1.00  0.00     0.259 C 
HETATM   29  O6  UNL     1       2.633   7.790  16.563  1.00  0.00    -0.265 OA
BRANCH  28  30
HETATM   30  C23 UNL     1       2.120   9.390  14.831  1.00  0.00     0.120 C 
BRANCH  30  31
HETATM   31  C24 UNL     1       1.447   8.924  13.545  1.00  0.00     0.112 C 
BRANCH  31  32
HETATM   32  C25 UNL     1       1.983   7.583  13.074  1.00  0.00     0.218 C 
HETATM   33  O7  UNL     1       1.670   6.516  13.586  1.00  0.00    -0.274 OA
HETATM   34  N1  UNL     1       2.843   7.693  12.005  1.00  0.00    -0.346 N 
HETATM   35  H32 UNL     1       3.309   8.585  11.881  1.00  0.00     0.163 HD
BRANCH  34  36
HETATM   36  C26 UNL     1       3.560   6.520  11.481  1.00  0.00     0.186 C 
BRANCH  36  37
HETATM   37  C27 UNL     1       2.619   5.698  10.591  1.00  0.00     0.074 C 
BRANCH  37  38
HETATM   38  C28 UNL     1       2.196   6.399   9.324  1.00  0.00    -0.056 A 
HETATM   39  C29 UNL     1       1.307   7.481   9.371  1.00  0.00     0.007 A 
HETATM   40  C30 UNL     1       0.911   8.122   8.195  1.00  0.00     0.001 A 
HETATM   41  C31 UNL     1       1.400   7.690   6.965  1.00  0.00     0.000 A 
HETATM   42  C32 UNL     1       2.285   6.615   6.907  1.00  0.00     0.001 A 
HETATM   43  C33 UNL     1       2.683   5.973   8.081  1.00  0.00     0.007 A 
ENDBRANCH  37  38
ENDBRANCH  36  37
BRANCH  36  44
HETATM   44  C34 UNL     1       4.735   7.043  10.659  1.00  0.00     0.163 C 
HETATM   45  O8  UNL     1       4.883   8.200  10.290  1.00  0.00    -0.648 OA
BRANCH  44  46
HETATM   46  O9  UNL     1       5.634   6.095  10.334  1.00  0.00    -0.775 OA
HETATM   47  H41 UNL     1       6.322   6.557   9.813  1.00  0.00     0.167 HD
ENDBRANCH  44  46
ENDBRANCH  36  44
ENDBRANCH  34  36
ENDBRANCH  31  32
ENDBRANCH  30  31
ENDBRANCH  28  30
ENDBRANCH  27  28
ENDBRANCH  26  27
ENDBRANCH   1  26
TORSDOF 13
ENDMDL
MODEL 3
REMARK minimizedAffinity -9.08265686
REMARK CNNscore 0.329237193
REMARK CNNaffinity 6.97044373
REMARK  13 active torsions:
REMARK  status: ('A' for Active; 'I' for Inactive)
REMARK    1  A    between atoms: C19_21  and  O3_22 
REMARK    2  A    between atoms: C19_21  and  C20_23 
REMARK    3  A    between atoms: C20_23  and  C21_25 
REMARK    4  A    between atoms: C21_25  and  O5_26 
REMARK    5  A    between atoms: O5_26  and  C22_27 
REMARK    6  A    between atoms: C22_27  and  C23_29 
REMARK    7  A    between atoms: C23_29  and  C24_30 
REMARK    8  A    between atoms: C24_30  and  C25_31 
REMARK       I    between atoms: C25_31  and  N1_33 
REMARK    9  A    between atoms: N1_33  and  C26_34 
REMARK   10  A    between atoms: C26_34  and  C27_35 
REMARK   11  A    between atoms: C26_34  and  C34_42 
REMARK   12  A    between atoms: C27_35  and  C28_36 
REMARK   13  A    between atoms: C34_42  and  O9_44 
ROOT
HETATM    1  C20 UNL     1       1.181   7.677  14.289  1.00  0.00     0.185 C 
HETATM    2  O4  UNL     1       2.000   6.805  13.973  1.00  0.00    -0.292 OA
ENDROOT
BRANCH   1   3
HETATM    3  C19 UNL     1      -0.274   7.305  14.657  1.00  0.00     0.128 C 
HETATM    4  C14 UNL     1      -0.991   6.480  13.540  1.00  0.00     0.005 C 
HETATM    5  C13 UNL     1      -0.614   4.995  13.447  1.00  0.00     0.091 C 
HETATM    6  C15 UNL     1      -0.791   7.145  12.147  1.00  0.00     0.019 C 
HETATM    7  C16 UNL     1      -2.456   6.552  14.042  1.00  0.00     0.002 C 
HETATM    8  C12 UNL     1      -1.591   4.279  12.525  1.00  0.00     0.133 C 
HETATM    9  C11 UNL     1      -3.090   4.409  12.870  1.00  0.00     0.072 C 
HETATM   10  O2  UNL     1      -1.170   3.594  11.596  1.00  0.00    -0.297 OA
HETATM   11  C2  UNL     1      -4.075   3.660  11.898  1.00  0.00    -0.009 C 
HETATM   12  C10 UNL     1      -3.461   5.908  13.076  1.00  0.00     0.003 C 
HETATM   13  C1  UNL     1      -3.933   4.133  10.432  1.00  0.00     0.021 C 
HETATM   14  C3  UNL     1      -3.795   2.129  11.987  1.00  0.00     0.022 C 
HETATM   15  C7  UNL     1      -5.526   3.940  12.332  1.00  0.00    -0.067 C 
HETATM   16  C4  UNL     1      -4.896   1.264  11.388  1.00  0.00     0.084 C 
HETATM   17  C5  UNL     1      -6.222   1.590  12.019  1.00  0.00     0.149 C 
HETATM   18  O1  UNL     1      -7.116   0.757  12.143  1.00  0.00    -0.293 OA
HETATM   19  C6  UNL     1      -6.474   2.991  12.424  1.00  0.00     0.053 C 
HETATM   20  C8  UNL     1      -5.883   5.376  12.636  1.00  0.00     0.035 C 
HETATM   21  C9  UNL     1      -4.897   6.022  13.600  1.00  0.00     0.010 C 
HETATM   22  C17 UNL     1      -2.639   8.025  14.390  1.00  0.00     0.009 C 
HETATM   23  C18 UNL     1      -1.250   8.491  14.870  1.00  0.00     0.047 C 
BRANCH   3  24
HETATM   24  O3  UNL     1      -0.267   6.536  15.870  1.00  0.00    -0.381 OA
HETATM   25  H25 UNL     1       0.538   6.774  16.379  1.00  0.00     0.211 HD
ENDBRANCH   3  24
ENDBRANCH   1   3
BRANCH   1  26
HETATM   26  C21 UNL     1       1.613   9.146  14.306  1.00  0.00     0.260 C 
BRANCH  26  27
HETATM   27  O5  UNL     1       2.957   9.518  14.027  1.00  0.00    -0.314 OA
BRANCH  27  28
HETATM   28  C22 UNL     1       3.776   9.647  15.101  1.00  0.00     0.259 C 
HETATM   29  O6  UNL     1       3.495   9.241  16.224  1.00  0.00    -0.265 OA
BRANCH  28  30
HETATM   30  C23 UNL     1       5.065  10.370  14.780  1.00  0.00     0.120 C 
BRANCH  30  31
HETATM   31  C24 UNL     1       6.245   9.459  14.460  1.00  0.00     0.112 C 
BRANCH  31  32
HETATM   32  C25 UNL     1       6.165   8.896  13.052  1.00  0.00     0.218 C 
HETATM   33  O7  UNL     1       6.768   9.375  12.100  1.00  0.00    -0.274 OA
HETATM   34  N1  UNL     1       5.358   7.784  12.962  1.00  0.00    -0.346 N 
HETATM   35  H32 UNL     1       4.647   7.675  13.677  1.00  0.00     0.163 HD
BRANCH  34  36
HETATM   36  C26 UNL     1       5.057   7.165  11.662  1.00  0.00     0.186 C 
BRANCH  36  37
HETATM   37  C27 UNL     1       4.727   8.256  10.637  1.00  0.00     0.074 C 
BRANCH  37  38
HETATM   38  C28 UNL     1       3.811   7.805   9.525  1.00  0.00    -0.056 A 
HETATM   39  C29 UNL     1       3.384   6.472   9.452  1.00  0.00     0.007 A 
HETATM   40  C30 UNL     1       2.544   6.057   8.416  1.00  0.00     0.001 A 
HETATM   41  C31 UNL     1       2.123   6.967   7.449  1.00  0.00     0.000 A 
HETATM   42  C32 UNL     1       2.543   8.294   7.514  1.00  0.00     0.001 A 
HETATM   43  C33 UNL     1       3.382   8.713   8.547  1.00  0.00     0.007 A 
ENDBRANCH  37  38
ENDBRANCH  36  37
BRANCH  36  44
HETATM   44  C34 UNL     1       6.306   6.401  11.230  1.00  0.00     0.163 C 
HETATM   45  O8  UNL     1       7.130   6.792  10.415  1.00  0.00    -0.648 OA
BRANCH  44  46
HETATM   46  O9  UNL     1       6.437   5.199  11.822  1.00  0.00    -0.775 OA
HETATM   47  H41 UNL     1       7.264   4.820  11.458  1.00  0.00     0.167 HD
ENDBRANCH  44  46
ENDBRANCH  36  44
ENDBRANCH  34  36
ENDBRANCH  31  32
ENDBRANCH  30  31
ENDBRANCH  28  30
ENDBRANCH  27  28
ENDBRANCH  26  27
ENDBRANCH   1  26
TORSDOF 13
ENDMDL
MODEL 4
REMARK minimizedAffinity -8.87364674
REMARK CNNscore 0.323605686
REMARK CNNaffinity 6.4647541
REMARK  13 active torsions:
REMARK  status: ('A' for Active; 'I' for Inactive)
REMARK    1  A    between atoms: C19_21  and  O3_22 
REMARK    2  A    between atoms: C19_21  and  C20_23 
REMARK    3  A    between atoms: C20_23  and  C21_25 
REMARK    4  A    between atoms: C21_25  and  O5_26 
REMARK    5  A    between atoms: O5_26  and  C22_27 
REMARK    6  A    between atoms: C22_27  and  C23_29 
REMARK    7  A    between atoms: C23_29  and  C24_30 
REMARK    8  A    between atoms: C24_30  and  C25_31 
REMARK       I    between atoms: C25_31  and  N1_33 
REMARK    9  A    between atoms: N1_33  and  C26_34 
REMARK   10  A    between atoms: C26_34  and  C27_35 
REMARK   11  A    between atoms: C26_34  and  C34_42 
REMARK   12  A    between atoms: C27_35  and  C28_36 
REMARK   13  A    between atoms: C34_42  and  O9_44 
ROOT
HETATM    1  C20 UNL     1      -2.451  10.975  16.846  1.00  0.00     0.185 C 
HETATM    2  O4  UNL     1      -2.991  11.995  16.404  1.00  0.00    -0.292 OA
ENDROOT
BRANCH   1   3
HETATM    3  C19 UNL     1      -2.970   9.569  16.461  1.00  0.00     0.128 C 
HETATM    4  C14 UNL     1      -2.282   8.997  15.179  1.00  0.00     0.005 C 
HETATM    5  C13 UNL     1      -0.862   8.445  15.363  1.00  0.00     0.091 C 
HETATM    6  C15 UNL     1      -2.274  10.056  14.039  1.00  0.00     0.019 C 
HETATM    7  C16 UNL     1      -3.210   7.792  14.883  1.00  0.00     0.002 C 
HETATM    8  C12 UNL     1      -0.451   7.674  14.116  1.00  0.00     0.133 C 
HETATM    9  C11 UNL     1      -1.392   6.538  13.663  1.00  0.00     0.072 C 
HETATM   10  O2  UNL     1       0.611   7.935  13.555  1.00  0.00    -0.297 OA
HETATM   11  C2  UNL     1      -0.942   5.762  12.371  1.00  0.00    -0.009 C 
HETATM   12  C10 UNL     1      -2.856   7.060  13.580  1.00  0.00     0.003 C 
HETATM   13  C1  UNL     1      -0.781   6.694  11.146  1.00  0.00     0.021 C 
HETATM   14  C3  UNL     1       0.410   5.043  12.666  1.00  0.00     0.022 C 
HETATM   15  C7  UNL     1      -2.010   4.713  12.012  1.00  0.00    -0.067 C 
HETATM   16  C4  UNL     1       0.777   3.975  11.644  1.00  0.00     0.084 C 
HETATM   17  C5  UNL     1      -0.333   2.968  11.516  1.00  0.00     0.149 C 
HETATM   18  O1  UNL     1      -0.126   1.793  11.222  1.00  0.00    -0.293 OA
HETATM   19  C6  UNL     1      -1.725   3.444  11.669  1.00  0.00     0.053 C 
HETATM   20  C8  UNL     1      -3.450   5.172  12.023  1.00  0.00     0.035 C 
HETATM   21  C9  UNL     1      -3.812   5.891  13.315  1.00  0.00     0.010 C 
HETATM   22  C17 UNL     1      -4.609   8.381  15.018  1.00  0.00     0.009 C 
HETATM   23  C18 UNL     1      -4.475   9.471  16.100  1.00  0.00     0.047 C 
BRANCH   3  24
HETATM   24  O3  UNL     1      -2.735   8.669  17.555  1.00  0.00    -0.381 OA
HETATM   25  H25 UNL     1      -2.706   9.195  18.384  1.00  0.00     0.211 HD
ENDBRANCH   3  24
ENDBRANCH   1   3
BRANCH   1  26
HETATM   26  C21 UNL     1      -1.258  11.105  17.799  1.00  0.00     0.260 C 
BRANCH  26  27
HETATM   27  O5  UNL     1      -0.374  12.215  17.716  1.00  0.00    -0.314 OA
BRANCH  27  28
HETATM   28  C22 UNL     1       0.944  11.920  17.584  1.00  0.00     0.259 C 
HETATM   29  O6  UNL     1       1.749  12.644  17.009  1.00  0.00    -0.265 OA
BRANCH  28  30
HETATM   30  C23 UNL     1       1.318  10.588  18.196  1.00  0.00     0.120 C 
BRANCH  30  31
HETATM   31  C24 UNL     1       2.673  10.564  18.894  1.00  0.00     0.112 C 
BRANCH  31  32
HETATM   32  C25 UNL     1       2.535  10.510  20.405  1.00  0.00     0.218 C 
HETATM   33  O7  UNL     1       1.640  11.075  21.020  1.00  0.00    -0.274 OA
HETATM   34  N1  UNL     1       3.510   9.746  21.007  1.00  0.00    -0.346 N 
HETATM   35  H32 UNL     1       4.376   9.621  20.494  1.00  0.00     0.163 HD
BRANCH  34  36
HETATM   36  C26 UNL     1       3.619   9.668  22.472  1.00  0.00     0.186 C 
BRANCH  36  37
HETATM   37  C27 UNL     1       3.350  11.049  23.082  1.00  0.00     0.074 C 
BRANCH  37  38
HETATM   38  C28 UNL     1       4.533  11.985  23.041  1.00  0.00    -0.056 A 
HETATM   39  C29 UNL     1       5.841  11.481  23.064  1.00  0.00     0.007 A 
HETATM   40  C30 UNL     1       6.933  12.351  23.034  1.00  0.00     0.001 A 
HETATM   41  C31 UNL     1       6.729  13.728  22.980  1.00  0.00     0.000 A 
HETATM   42  C32 UNL     1       5.433  14.238  22.957  1.00  0.00     0.001 A 
HETATM   43  C33 UNL     1       4.339  13.372  22.986  1.00  0.00     0.007 A 
ENDBRANCH  37  38
ENDBRANCH  36  37
BRANCH  36  44
HETATM   44  C34 UNL     1       2.565   8.671  22.947  1.00  0.00     0.163 C 
HETATM   45  O8  UNL     1       2.005   7.843  22.243  1.00  0.00    -0.648 OA
BRANCH  44  46
HETATM   46  O9  UNL     1       2.264   8.783  24.254  1.00  0.00    -0.775 OA
HETATM   47  H41 UNL     1       1.584   8.098  24.423  1.00  0.00     0.167 HD
ENDBRANCH  44  46
ENDBRANCH  36  44
ENDBRANCH  34  36
ENDBRANCH  31  32
ENDBRANCH  30  31
ENDBRANCH  28  30
ENDBRANCH  27  28
ENDBRANCH  26  27
ENDBRANCH   1  26
TORSDOF 13
ENDMDL
MODEL 5
REMARK minimizedAffinity -9.86556721
REMARK CNNscore 0.323499829
REMARK CNNaffinity 6.82668686
REMARK  13 active torsions:
REMARK  status: ('A' for Active; 'I' for Inactive)
REMARK    1  A    between atoms: C19_21  and  O3_22 
REMARK    2  A    between atoms: C19_21  and  C20_23 
REMARK    3  A    between atoms: C20_23  and  C21_25 
REMARK    4  A    between atoms: C21_25  and  O5_26 
REMARK    5  A    between atoms: O5_26  and  C22_27 
REMARK    6  A    between atoms: C22_27  and  C23_29 
REMARK    7  A    between atoms: C23_29  and  C24_30 
REMARK    8  A    between atoms: C24_30  and  C25_31 
REMARK       I    between atoms: C25_31  and  N1_33 
REMARK    9  A    between atoms: N1_33  and  C26_34 
REMARK   10  A    between atoms: C26_34  and  C27_35 
REMARK   11  A    between atoms: C26_34  and  C34_42 
REMARK   12  A    between atoms: C27_35  and  C28_36 
REMARK   13  A    between atoms: C34_42  and  O9_44 
ROOT
HETATM    1  C20 UNL     1       0.499   6.312  13.010  1.00  0.00     0.185 C 
HETATM    2  O4  UNL     1       0.563   6.574  14.217  1.00  0.00    -0.292 OA
ENDROOT
BRANCH   1   3
HETATM    3  C19 UNL     1      -0.825   5.830  12.371  1.00  0.00     0.128 C 
HETATM    4  C14 UNL     1      -2.044   5.939  13.342  1.00  0.00     0.005 C 
HETATM    5  C13 UNL     1      -2.628   7.345  13.539  1.00  0.00     0.091 C 
HETATM    6  C15 UNL     1      -1.699   5.330  14.732  1.00  0.00     0.019 C 
HETATM    7  C16 UNL     1      -3.095   5.110  12.560  1.00  0.00     0.002 C 
HETATM    8  C12 UNL     1      -3.963   7.243  14.266  1.00  0.00     0.133 C 
HETATM    9  C11 UNL     1      -5.029   6.326  13.629  1.00  0.00     0.072 C 
HETATM   10  O2  UNL     1      -4.165   7.915  15.275  1.00  0.00    -0.297 OA
HETATM   11  C2  UNL     1      -6.395   6.241  14.404  1.00  0.00    -0.009 C 
HETATM   12  C10 UNL     1      -4.415   4.929  13.323  1.00  0.00     0.003 C 
HETATM   13  C1  UNL     1      -6.222   5.745  15.859  1.00  0.00     0.021 C 
HETATM   14  C3  UNL     1      -7.058   7.653  14.405  1.00  0.00     0.022 C 
HETATM   15  C7  UNL     1      -7.323   5.243  13.687  1.00  0.00    -0.067 C 
HETATM   16  C4  UNL     1      -8.530   7.644  14.794  1.00  0.00     0.084 C 
HETATM   17  C5  UNL     1      -9.302   6.706  13.907  1.00  0.00     0.149 C 
HETATM   18  O1  UNL     1     -10.484   6.886  13.627  1.00  0.00    -0.293 OA
HETATM   19  C6  UNL     1      -8.621   5.481  13.430  1.00  0.00     0.053 C 
HETATM   20  C8  UNL     1      -6.720   3.916  13.288  1.00  0.00     0.035 C 
HETATM   21  C9  UNL     1      -5.415   4.085  12.523  1.00  0.00     0.010 C 
HETATM   22  C17 UNL     1      -2.325   3.859  12.151  1.00  0.00     0.009 C 
HETATM   23  C18 UNL     1      -0.875   4.340  11.944  1.00  0.00     0.047 C 
BRANCH   3  24
HETATM   24  O3  UNL     1      -1.091   6.617  11.200  1.00  0.00    -0.381 OA
HETATM   25  H25 UNL     1      -0.235   6.952  10.854  1.00  0.00     0.211 HD
ENDBRANCH   3  24
ENDBRANCH   1   3
BRANCH   1  26
HETATM   26  C21 UNL     1       1.751   6.456  12.139  1.00  0.00     0.260 C 
BRANCH  26  27
HETATM   27  O5  UNL     1       1.712   6.165  10.748  1.00  0.00    -0.314 OA
BRANCH  27  28
HETATM   28  C22 UNL     1       2.864   5.700  10.203  1.00  0.00     0.259 C 
HETATM   29  O6  UNL     1       2.936   4.673   9.537  1.00  0.00    -0.265 OA
BRANCH  28  30
HETATM   30  C23 UNL     1       4.063   6.564  10.524  1.00  0.00     0.120 C 
BRANCH  30  31
HETATM   31  C24 UNL     1       5.338   5.792  10.847  1.00  0.00     0.112 C 
BRANCH  31  32
HETATM   32  C25 UNL     1       6.297   6.605  11.699  1.00  0.00     0.218 C 
HETATM   33  O7  UNL     1       7.390   6.987  11.302  1.00  0.00    -0.274 OA
HETATM   34  N1  UNL     1       5.802   6.878  12.954  1.00  0.00    -0.346 N 
HETATM   35  H32 UNL     1       5.089   6.252  13.312  1.00  0.00     0.163 HD
BRANCH  34  36
HETATM   36  C26 UNL     1       6.629   7.550  13.968  1.00  0.00     0.186 C 
BRANCH  36  37
HETATM   37  C27 UNL     1       7.186   8.858  13.393  1.00  0.00     0.074 C 
BRANCH  37  38
HETATM   38  C28 UNL     1       8.675   9.027  13.568  1.00  0.00    -0.056 A 
HETATM   39  C29 UNL     1       9.484   7.929  13.892  1.00  0.00     0.007 A 
HETATM   40  C30 UNL     1      10.860   8.091  14.062  1.00  0.00     0.001 A 
HETATM   41  C31 UNL     1      11.441   9.348  13.907  1.00  0.00     0.000 A 
HETATM   42  C32 UNL     1      10.645  10.445  13.584  1.00  0.00     0.001 A 
HETATM   43  C33 UNL     1       9.269  10.287  13.414  1.00  0.00     0.007 A 
ENDBRANCH  37  38
ENDBRANCH  36  37
BRANCH  36  44
HETATM   44  C34 UNL     1       5.724   7.846  15.161  1.00  0.00     0.163 C 
HETATM   45  O8  UNL     1       5.543   8.949  15.658  1.00  0.00    -0.648 OA
BRANCH  44  46
HETATM   46  O9  UNL     1       5.121   6.753  15.667  1.00  0.00    -0.775 OA
HETATM   47  H41 UNL     1       4.582   7.079  16.417  1.00  0.00     0.167 HD
ENDBRANCH  44  46
ENDBRANCH  36  44
ENDBRANCH  34  36
ENDBRANCH  31  32
ENDBRANCH  30  31
ENDBRANCH  28  30
ENDBRANCH  27  28
ENDBRANCH  26  27
ENDBRANCH   1  26
TORSDOF 13
ENDMDL
MODEL 6
REMARK minimizedAffinity -8.23738289
REMARK CNNscore 0.290631175
REMARK CNNaffinity 6.57844973
REMARK  13 active torsions:
REMARK  status: ('A' for Active; 'I' for Inactive)
REMARK    1  A    between atoms: C19_21  and  O3_22 
REMARK    2  A    between atoms: C19_21  and  C20_23 
REMARK    3  A    between atoms: C20_23  and  C21_25 
REMARK    4  A    between atoms: C21_25  and  O5_26 
REMARK    5  A    between atoms: O5_26  and  C22_27 
REMARK    6  A    between atoms: C22_27  and  C23_29 
REMARK    7  A    between atoms: C23_29  and  C24_30 
REMARK    8  A    between atoms: C24_30  and  C25_31 
REMARK       I    between atoms: C25_31  and  N1_33 
REMARK    9  A    between atoms: N1_33  and  C26_34 
REMARK   10  A    between atoms: C26_34  and  C27_35 
REMARK   11  A    between atoms: C26_34  and  C34_42 
REMARK   12  A    between atoms: C27_35  and  C28_36 
REMARK   13  A    between atoms: C34_42  and  O9_44 
ROOT
HETATM    1  C20 UNL     1      -5.953   7.733  15.490  1.00  0.00     0.185 C 
HETATM    2  O4  UNL     1      -5.716   8.947  15.525  1.00  0.00    -0.292 OA
ENDROOT
BRANCH   1   3
HETATM    3  C19 UNL     1      -4.865   6.722  15.060  1.00  0.00     0.128 C 
HETATM    4  C14 UNL     1      -3.795   7.348  14.109  1.00  0.00     0.005 C 
HETATM    5  C13 UNL     1      -2.735   8.236  14.774  1.00  0.00     0.091 C 
HETATM    6  C15 UNL     1      -4.477   8.144  12.958  1.00  0.00     0.019 C 
HETATM    7  C16 UNL     1      -3.078   6.065  13.617  1.00  0.00     0.002 C 
HETATM    8  C12 UNL     1      -1.617   8.526  13.781  1.00  0.00     0.133 C 
HETATM    9  C11 UNL     1      -0.934   7.303  13.133  1.00  0.00     0.072 C 
HETATM   10  O2  UNL     1      -1.267   9.684  13.571  1.00  0.00    -0.297 OA
HETATM   11  C2  UNL     1       0.215   7.634  12.110  1.00  0.00    -0.009 C 
HETATM   12  C10 UNL     1      -2.008   6.339  12.550  1.00  0.00     0.003 C 
HETATM   13  C1  UNL     1      -0.273   8.519  10.938  1.00  0.00     0.021 C 
HETATM   14  C3  UNL     1       1.368   8.357  12.871  1.00  0.00     0.022 C 
HETATM   15  C7  UNL     1       0.747   6.323  11.504  1.00  0.00    -0.067 C 
HETATM   16  C4  UNL     1       2.679   8.412  12.098  1.00  0.00     0.084 C 
HETATM   17  C5  UNL     1       3.108   7.028  11.694  1.00  0.00     0.149 C 
HETATM   18  O1  UNL     1       4.289   6.714  11.565  1.00  0.00    -0.293 OA
HETATM   19  C6  UNL     1       2.055   6.043  11.360  1.00  0.00     0.053 C 
HETATM   20  C8  UNL     1      -0.281   5.325  11.023  1.00  0.00     0.035 C 
HETATM   21  C9  UNL     1      -1.342   5.041  12.077  1.00  0.00     0.010 C 
HETATM   22  C17 UNL     1      -4.229   5.133  13.256  1.00  0.00     0.009 C 
HETATM   23  C18 UNL     1      -5.355   5.497  14.245  1.00  0.00     0.047 C 
BRANCH   3  24
HETATM   24  O3  UNL     1      -4.206   6.218  16.232  1.00  0.00    -0.381 OA
HETATM   25  H25 UNL     1      -4.830   6.287  16.988  1.00  0.00     0.211 HD
ENDBRANCH   3  24
ENDBRANCH   1   3
BRANCH   1  26
HETATM   26  C21 UNL     1      -7.349   7.228  15.869  1.00  0.00     0.260 C 
BRANCH  26  27
HETATM   27  O5  UNL     1      -8.518   7.852  15.356  1.00  0.00    -0.314 OA
BRANCH  27  28
HETATM   28  C22 UNL     1      -9.200   7.159  14.411  1.00  0.00     0.259 C 
HETATM   29  O6  UNL     1      -8.715   6.242  13.757  1.00  0.00    -0.265 OA
BRANCH  28  30
HETATM   30  C23 UNL     1     -10.618   7.650  14.222  1.00  0.00     0.120 C 
BRANCH  30  31
HETATM   31  C24 UNL     1     -11.582   6.614  13.654  1.00  0.00     0.112 C 
BRANCH  31  32
HETATM   32  C25 UNL     1     -13.032   7.026  13.835  1.00  0.00     0.218 C 
HETATM   33  O7  UNL     1     -13.745   7.400  12.913  1.00  0.00    -0.274 OA
HETATM   34  N1  UNL     1     -13.463   6.919  15.138  1.00  0.00    -0.346 N 
HETATM   35  H32 UNL     1     -12.752   6.951  15.860  1.00  0.00     0.163 HD
BRANCH  34  36
HETATM   36  C26 UNL     1     -14.801   7.384  15.538  1.00  0.00     0.186 C 
BRANCH  36  37
HETATM   37  C27 UNL     1     -15.620   6.201  16.067  1.00  0.00     0.074 C 
BRANCH  37  38
HETATM   38  C28 UNL     1     -16.277   5.372  14.991  1.00  0.00    -0.056 A 
HETATM   39  C29 UNL     1     -16.221   3.972  15.036  1.00  0.00     0.007 A 
HETATM   40  C30 UNL     1     -16.823   3.209  14.033  1.00  0.00     0.001 A 
HETATM   41  C31 UNL     1     -17.487   3.835  12.981  1.00  0.00     0.000 A 
HETATM   42  C32 UNL     1     -17.549   5.227  12.928  1.00  0.00     0.001 A 
HETATM   43  C33 UNL     1     -16.948   5.993  13.928  1.00  0.00     0.007 A 
ENDBRANCH  37  38
ENDBRANCH  36  37
BRANCH  36  44
HETATM   44  C34 UNL     1     -14.604   8.421  16.641  1.00  0.00     0.163 C 
HETATM   45  O8  UNL     1     -13.528   8.879  16.999  1.00  0.00    -0.648 OA
BRANCH  44  46
HETATM   46  O9  UNL     1     -15.749   8.803  17.236  1.00  0.00    -0.775 OA
HETATM   47  H41 UNL     1     -15.483   9.456  17.915  1.00  0.00     0.167 HD
ENDBRANCH  44  46
ENDBRANCH  36  44
ENDBRANCH  34  36
ENDBRANCH  31  32
ENDBRANCH  30  31
ENDBRANCH  28  30
ENDBRANCH  27  28
ENDBRANCH  26  27
ENDBRANCH   1  26
TORSDOF 13
ENDMDL
MODEL 7
REMARK minimizedAffinity -8.51818466
REMARK CNNscore 0.262111217
REMARK CNNaffinity 6.58099222
REMARK  13 active torsions:
REMARK  status: ('A' for Active; 'I' for Inactive)
REMARK    1  A    between atoms: C19_21  and  O3_22 
REMARK    2  A    between atoms: C19_21  and  C20_23 
REMARK    3  A    between atoms: C20_23  and  C21_25 
REMARK    4  A    between atoms: C21_25  and  O5_26 
REMARK    5  A    between atoms: O5_26  and  C22_27 
REMARK    6  A    between atoms: C22_27  and  C23_29 
REMARK    7  A    between atoms: C23_29  and  C24_30 
REMARK    8  A    between atoms: C24_30  and  C25_31 
REMARK       I    between atoms: C25_31  and  N1_33 
REMARK    9  A    between atoms: N1_33  and  C26_34 
REMARK   10  A    between atoms: C26_34  and  C27_35 
REMARK   11  A    between atoms: C26_34  and  C34_42 
REMARK   12  A    between atoms: C27_35  and  C28_36 
REMARK   13  A    between atoms: C34_42  and  O9_44 
ROOT
HETATM    1  C20 UNL     1      -5.797   6.211  15.341  1.00  0.00     0.185 C 
HETATM    2  O4  UNL     1      -6.097   5.713  16.432  1.00  0.00    -0.292 OA
ENDROOT
BRANCH   1   3
HETATM    3  C19 UNL     1      -6.869   6.440  14.249  1.00  0.00     0.128 C 
HETATM    4  C14 UNL     1      -8.155   7.139  14.797  1.00  0.00     0.005 C 
HETATM    5  C13 UNL     1      -8.052   8.650  15.041  1.00  0.00     0.091 C 
HETATM    6  C15 UNL     1      -8.649   6.444  16.099  1.00  0.00     0.019 C 
HETATM    7  C16 UNL     1      -9.114   6.930  13.597  1.00  0.00     0.002 C 
HETATM    8  C12 UNL     1      -9.442   9.221  15.288  1.00  0.00     0.133 C 
HETATM    9  C11 UNL     1     -10.506   8.945  14.204  1.00  0.00     0.072 C 
HETATM   10  O2  UNL     1      -9.656   9.909  16.283  1.00  0.00    -0.297 OA
HETATM   11  C2  UNL     1     -11.932   9.545  14.489  1.00  0.00    -0.009 C 
HETATM   12  C10 UNL     1     -10.542   7.425  13.869  1.00  0.00     0.003 C 
HETATM   13  C1  UNL     1     -12.536   9.033  15.818  1.00  0.00     0.021 C 
HETATM   14  C3  UNL     1     -11.821  11.100  14.526  1.00  0.00     0.022 C 
HETATM   15  C7  UNL     1     -12.892   9.129  13.359  1.00  0.00    -0.067 C 
HETATM   16  C4  UNL     1     -13.160  11.818  14.430  1.00  0.00     0.084 C 
HETATM   17  C5  UNL     1     -13.905  11.377  13.200  1.00  0.00     0.149 C 
HETATM   18  O1  UNL     1     -14.685  12.114  12.602  1.00  0.00    -0.293 OA
HETATM   19  C6  UNL     1     -13.747   9.974  12.756  1.00  0.00     0.053 C 
HETATM   20  C8  UNL     1     -12.872   7.676  12.946  1.00  0.00     0.035 C 
HETATM   21  C9  UNL     1     -11.461   7.179  12.666  1.00  0.00     0.010 C 
HETATM   22  C17 UNL     1      -8.920   5.461  13.239  1.00  0.00     0.009 C 
HETATM   23  C18 UNL     1      -7.445   5.166  13.579  1.00  0.00     0.047 C 
BRANCH   3  24
HETATM   24  O3  UNL     1      -6.307   7.252  13.207  1.00  0.00    -0.381 OA
HETATM   25  H25 UNL     1      -5.334   7.122  13.207  1.00  0.00     0.211 HD
ENDBRANCH   3  24
ENDBRANCH   1   3
BRANCH   1  26
HETATM   26  C21 UNL     1      -4.341   6.597  15.063  1.00  0.00     0.260 C 
BRANCH  26  27
HETATM   27  O5  UNL     1      -3.374   5.611  14.728  1.00  0.00    -0.314 OA
BRANCH  27  28
HETATM   28  C22 UNL     1      -3.156   5.414  13.404  1.00  0.00     0.259 C 
HETATM   29  O6  UNL     1      -4.048   5.394  12.563  1.00  0.00    -0.265 OA
BRANCH  28  30
HETATM   30  C23 UNL     1      -1.698   5.193  13.069  1.00  0.00     0.120 C 
BRANCH  30  31
HETATM   31  C24 UNL     1      -1.080   6.259  12.171  1.00  0.00     0.112 C 
BRANCH  31  32
HETATM   32  C25 UNL     1       0.406   6.034  11.957  1.00  0.00     0.218 C 
HETATM   33  O7  UNL     1       0.892   4.939  11.705  1.00  0.00    -0.274 OA
HETATM   34  N1  UNL     1       1.145   7.192  12.061  1.00  0.00    -0.346 N 
HETATM   35  H32 UNL     1       0.740   7.947  12.602  1.00  0.00     0.163 HD
BRANCH  34  36
HETATM   36  C26 UNL     1       2.615   7.163  12.005  1.00  0.00     0.186 C 
BRANCH  36  37
HETATM   37  C27 UNL     1       3.102   8.026  10.836  1.00  0.00     0.074 C 
BRANCH  37  38
HETATM   38  C28 UNL     1       2.777   7.464   9.474  1.00  0.00    -0.056 A 
HETATM   39  C29 UNL     1       2.040   8.218   8.550  1.00  0.00     0.007 A 
HETATM   40  C30 UNL     1       1.733   7.691   7.294  1.00  0.00     0.001 A 
HETATM   41  C31 UNL     1       2.160   6.410   6.949  1.00  0.00     0.000 A 
HETATM   42  C32 UNL     1       2.893   5.654   7.861  1.00  0.00     0.001 A 
HETATM   43  C33 UNL     1       3.202   6.177   9.117  1.00  0.00     0.007 A 
ENDBRANCH  37  38
ENDBRANCH  36  37
BRANCH  36  44
HETATM   44  C34 UNL     1       3.125   7.733  13.326  1.00  0.00     0.163 C 
HETATM   45  O8  UNL     1       4.292   7.991  13.584  1.00  0.00    -0.648 OA
BRANCH  44  46
HETATM   46  O9  UNL     1       2.157   7.926  14.242  1.00  0.00    -0.775 OA
HETATM   47  H41 UNL     1       2.614   8.286  15.030  1.00  0.00     0.167 HD
ENDBRANCH  44  46
ENDBRANCH  36  44
ENDBRANCH  34  36
ENDBRANCH  31  32
ENDBRANCH  30  31
ENDBRANCH  28  30
ENDBRANCH  27  28
ENDBRANCH  26  27
ENDBRANCH   1  26
TORSDOF 13
ENDMDL
MODEL 8
REMARK minimizedAffinity -10.1263275
REMARK CNNscore 0.258197069
REMARK CNNaffinity 6.72867918
REMARK  13 active torsions:
REMARK  status: ('A' for Active; 'I' for Inactive)
REMARK    1  A    between atoms: C19_21  and  O3_22 
REMARK    2  A    between atoms: C19_21  and  C20_23 
REMARK    3  A    between atoms: C20_23  and  C21_25 
REMARK    4  A    between atoms: C21_25  and  O5_26 
REMARK    5  A    between atoms: O5_26  and  C22_27 
REMARK    6  A    between atoms: C22_27  and  C23_29 
REMARK    7  A    between atoms: C23_29  and  C24_30 
REMARK    8  A    between atoms: C24_30  and  C25_31 
REMARK       I    between atoms: C25_31  and  N1_33 
REMARK    9  A    between atoms: N1_33  and  C26_34 
REMARK   10  A    between atoms: C26_34  and  C27_35 
REMARK   11  A    between atoms: C26_34  and  C34_42 
REMARK   12  A    between atoms: C27_35  and  C28_36 
REMARK   13  A    between atoms: C34_42  and  O9_44 
ROOT
HETATM    1  C20 UNL     1      -0.074   8.539  14.088  1.00  0.00     0.185 C 
HETATM    2  O4  UNL     1       0.067   9.765  14.010  1.00  0.00    -0.292 OA
ENDROOT
BRANCH   1   3
HETATM    3  C19 UNL     1      -1.184   7.812  13.293  1.00  0.00     0.128 C 
HETATM    4  C14 UNL     1      -2.492   7.608  14.123  1.00  0.00     0.005 C 
HETATM    5  C13 UNL     1      -3.389   8.842  14.288  1.00  0.00     0.091 C 
HETATM    6  C15 UNL     1      -2.167   7.022  15.528  1.00  0.00     0.019 C 
HETATM    7  C16 UNL     1      -3.246   6.609  13.208  1.00  0.00     0.002 C 
HETATM    8  C12 UNL     1      -4.736   8.419  14.857  1.00  0.00     0.133 C 
HETATM    9  C11 UNL     1      -5.501   7.324  14.083  1.00  0.00     0.072 C 
HETATM   10  O2  UNL     1      -5.186   8.981  15.853  1.00  0.00    -0.297 OA
HETATM   11  C2  UNL     1      -6.888   6.907  14.697  1.00  0.00    -0.009 C 
HETATM   12  C10 UNL     1      -4.565   6.110  13.813  1.00  0.00     0.003 C 
HETATM   13  C1  UNL     1      -6.762   6.390  16.150  1.00  0.00     0.021 C 
HETATM   14  C3  UNL     1      -7.843   8.140  14.658  1.00  0.00     0.022 C 
HETATM   15  C7  UNL     1      -7.492   5.767  13.856  1.00  0.00    -0.067 C 
HETATM   16  C4  UNL     1      -9.309   7.793  14.879  1.00  0.00     0.084 C 
HETATM   17  C5  UNL     1      -9.758   6.754  13.888  1.00  0.00     0.149 C 
HETATM   18  O1  UNL     1     -10.915   6.686  13.481  1.00  0.00    -0.293 OA
HETATM   19  C6  UNL     1      -8.778   5.730  13.461  1.00  0.00     0.053 C 
HETATM   20  C8  UNL     1      -6.574   4.623  13.495  1.00  0.00     0.035 C 
HETATM   21  C9  UNL     1      -5.265   5.109  12.886  1.00  0.00     0.010 C 
HETATM   22  C17 UNL     1      -2.181   5.576  12.858  1.00  0.00     0.009 C 
HETATM   23  C18 UNL     1      -0.859   6.369  12.827  1.00  0.00     0.047 C 
BRANCH   3  24
HETATM   24  O3  UNL     1      -1.494   8.579  12.119  1.00  0.00    -0.381 OA
HETATM   25  H25 UNL     1      -0.702   9.108  11.880  1.00  0.00     0.211 HD
ENDBRANCH   3  24
ENDBRANCH   1   3
BRANCH   1  26
HETATM   26  C21 UNL     1       0.859   7.730  14.995  1.00  0.00     0.260 C 
BRANCH  26  27
HETATM   27  O5  UNL     1       1.154   8.164  16.316  1.00  0.00    -0.314 OA
BRANCH  27  28
HETATM   28  C22 UNL     1       2.289   8.892  16.466  1.00  0.00     0.259 C 
HETATM   29  O6  UNL     1       3.412   8.457  16.237  1.00  0.00    -0.265 OA
BRANCH  28  30
HETATM   30  C23 UNL     1       2.031  10.293  16.974  1.00  0.00     0.120 C 
BRANCH  30  31
HETATM   31  C24 UNL     1       1.419  10.364  18.369  1.00  0.00     0.112 C 
BRANCH  31  32
HETATM   32  C25 UNL     1       2.478  10.442  19.454  1.00  0.00     0.218 C 
HETATM   33  O7  UNL     1       3.626  10.817  19.249  1.00  0.00    -0.274 OA
HETATM   34  N1  UNL     1       2.009  10.062  20.691  1.00  0.00    -0.346 N 
HETATM   35  H32 UNL     1       1.200   9.451  20.707  1.00  0.00     0.163 HD
BRANCH  34  36
HETATM   36  C26 UNL     1       2.914   9.954  21.847  1.00  0.00     0.186 C 
BRANCH  36  37
HETATM   37  C27 UNL     1       2.859  11.249  22.666  1.00  0.00     0.074 C 
BRANCH  37  38
HETATM   38  C28 UNL     1       4.186  11.955  22.798  1.00  0.00    -0.056 A 
HETATM   39  C29 UNL     1       4.251  13.355  22.808  1.00  0.00     0.007 A 
HETATM   40  C30 UNL     1       5.482  14.004  22.921  1.00  0.00     0.001 A 
HETATM   41  C31 UNL     1       6.656  13.262  23.028  1.00  0.00     0.000 A 
HETATM   42  C32 UNL     1       6.602  11.870  23.020  1.00  0.00     0.001 A 
HETATM   43  C33 UNL     1       5.373  11.218  22.906  1.00  0.00     0.007 A 
ENDBRANCH  37  38
ENDBRANCH  36  37
BRANCH  36  44
HETATM   44  C34 UNL     1       2.424   8.780  22.691  1.00  0.00     0.163 C 
HETATM   45  O8  UNL     1       1.886   7.771  22.257  1.00  0.00    -0.648 OA
BRANCH  44  46
HETATM   46  O9  UNL     1       2.617   8.945  24.013  1.00  0.00    -0.775 OA
HETATM   47  H41 UNL     1       2.260   8.134  24.430  1.00  0.00     0.167 HD
ENDBRANCH  44  46
ENDBRANCH  36  44
ENDBRANCH  34  36
ENDBRANCH  31  32
ENDBRANCH  30  31
ENDBRANCH  28  30
ENDBRANCH  27  28
ENDBRANCH  26  27
ENDBRANCH   1  26
TORSDOF 13
ENDMDL
MODEL 9
REMARK minimizedAffinity -10.1642332
REMARK CNNscore 0.257753521
REMARK CNNaffinity 6.92419195
REMARK  13 active torsions:
REMARK  status: ('A' for Active; 'I' for Inactive)
REMARK    1  A    between atoms: C19_21  and  O3_22 
REMARK    2  A    between atoms: C19_21  and  C20_23 
REMARK    3  A    between atoms: C20_23  and  C21_25 
REMARK    4  A    between atoms: C21_25  and  O5_26 
REMARK    5  A    between atoms: O5_26  and  C22_27 
REMARK    6  A    between atoms: C22_27  and  C23_29 
REMARK    7  A    between atoms: C23_29  and  C24_30 
REMARK    8  A    between atoms: C24_30  and  C25_31 
REMARK       I    between atoms: C25_31  and  N1_33 
REMARK    9  A    between atoms: N1_33  and  C26_34 
REMARK   10  A    between atoms: C26_34  and  C27_35 
REMARK   11  A    between atoms: C26_34  and  C34_42 
REMARK   12  A    between atoms: C27_35  and  C28_36 
REMARK   13  A    between atoms: C34_42  and  O9_44 
ROOT
HETATM    1  C20 UNL     1       0.144   8.414  13.559  1.00  0.00     0.185 C 
HETATM    2  O4  UNL     1      -0.041   9.435  14.231  1.00  0.00    -0.292 OA
ENDROOT
BRANCH   1   3
HETATM    3  C19 UNL     1      -1.031   7.709  12.840  1.00  0.00     0.128 C 
HETATM    4  C14 UNL     1      -2.273   7.503  13.766  1.00  0.00     0.005 C 
HETATM    5  C13 UNL     1      -3.143   8.743  14.018  1.00  0.00     0.091 C 
HETATM    6  C15 UNL     1      -1.848   6.893  15.133  1.00  0.00     0.019 C 
HETATM    7  C16 UNL     1      -3.105   6.526  12.898  1.00  0.00     0.002 C 
HETATM    8  C12 UNL     1      -4.447   8.322  14.683  1.00  0.00     0.133 C 
HETATM    9  C11 UNL     1      -5.280   7.247  13.954  1.00  0.00     0.072 C 
HETATM   10  O2  UNL     1      -4.813   8.873  15.718  1.00  0.00    -0.297 OA
HETATM   11  C2  UNL     1      -6.619   6.832  14.667  1.00  0.00    -0.009 C 
HETATM   12  C10 UNL     1      -4.379   6.028  13.595  1.00  0.00     0.003 C 
HETATM   13  C1  UNL     1      -6.387   6.292  16.098  1.00  0.00     0.021 C 
HETATM   14  C3  UNL     1      -7.562   8.074  14.719  1.00  0.00     0.022 C 
HETATM   15  C7  UNL     1      -7.297   5.711  13.858  1.00  0.00    -0.067 C 
HETATM   16  C4  UNL     1      -9.010   7.736  15.047  1.00  0.00     0.084 C 
HETATM   17  C5  UNL     1      -9.544   6.716  14.079  1.00  0.00     0.149 C 
HETATM   18  O1  UNL     1     -10.730   6.665  13.762  1.00  0.00    -0.293 OA
HETATM   19  C6  UNL     1      -8.610   5.691  13.563  1.00  0.00     0.053 C 
HETATM   20  C8  UNL     1      -6.421   4.564  13.411  1.00  0.00     0.035 C 
HETATM   21  C9  UNL     1      -5.158   5.048  12.710  1.00  0.00     0.010 C 
HETATM   22  C17 UNL     1      -2.080   5.489  12.451  1.00  0.00     0.009 C 
HETATM   23  C18 UNL     1      -0.757   6.271  12.330  1.00  0.00     0.047 C 
BRANCH   3  24
HETATM   24  O3  UNL     1      -1.423   8.497  11.706  1.00  0.00    -0.381 OA
HETATM   25  H25 UNL     1      -0.646   9.022  11.413  1.00  0.00     0.211 HD
ENDBRANCH   3  24
ENDBRANCH   1   3
BRANCH   1  26
HETATM   26  C21 UNL     1       1.557   7.832  13.445  1.00  0.00     0.260 C 
BRANCH  26  27
HETATM   27  O5  UNL     1       2.153   7.139  14.533  1.00  0.00    -0.314 OA
BRANCH  27  28
HETATM   28  C22 UNL     1       2.533   7.900  15.590  1.00  0.00     0.259 C 
HETATM   29  O6  UNL     1       2.087   7.761  16.724  1.00  0.00    -0.265 OA
BRANCH  28  30
HETATM   30  C23 UNL     1       3.546   8.961  15.223  1.00  0.00     0.120 C 
BRANCH  30  31
HETATM   31  C24 UNL     1       4.941   8.430  14.910  1.00  0.00     0.112 C 
BRANCH  31  32
HETATM   32  C25 UNL     1       5.173   8.282  13.417  1.00  0.00     0.218 C 
HETATM   33  O7  UNL     1       5.470   9.218  12.686  1.00  0.00    -0.274 OA
HETATM   34  N1  UNL     1       5.027   6.985  12.976  1.00  0.00    -0.346 N 
HETATM   35  H32 UNL     1       4.455   6.370  13.543  1.00  0.00     0.163 HD
BRANCH  34  36
HETATM   36  C26 UNL     1       5.094   6.657  11.543  1.00  0.00     0.186 C 
BRANCH  36  37
HETATM   37  C27 UNL     1       4.750   7.900  10.714  1.00  0.00     0.074 C 
BRANCH  37  38
HETATM   38  C28 UNL     1       3.831   7.631   9.548  1.00  0.00    -0.056 A 
HETATM   39  C29 UNL     1       3.348   6.338   9.305  1.00  0.00     0.007 A 
HETATM   40  C30 UNL     1       2.505   6.092   8.219  1.00  0.00     0.001 A 
HETATM   41  C31 UNL     1       2.135   7.133   7.370  1.00  0.00     0.000 A 
HETATM   42  C32 UNL     1       2.610   8.422   7.604  1.00  0.00     0.001 A 
HETATM   43  C33 UNL     1       3.453   8.672   8.688  1.00  0.00     0.007 A 
ENDBRANCH  37  38
ENDBRANCH  36  37
BRANCH  36  44
HETATM   44  C34 UNL     1       6.525   6.212  11.252  1.00  0.00     0.163 C 
HETATM   45  O8  UNL     1       7.534   6.847  11.524  1.00  0.00    -0.648 OA
BRANCH  44  46
HETATM   46  O9  UNL     1       6.605   5.022  10.627  1.00  0.00    -0.775 OA
HETATM   47  H41 UNL     1       7.563   4.861  10.499  1.00  0.00     0.167 HD
ENDBRANCH  44  46
ENDBRANCH  36  44
ENDBRANCH  34  36
ENDBRANCH  31  32
ENDBRANCH  30  31
ENDBRANCH  28  30
ENDBRANCH  27  28
ENDBRANCH  26  27
ENDBRANCH   1  26
TORSDOF 13
ENDMDL
