MODEL 1
REMARK minimizedAffinity -7.66893196
REMARK CNNscore 0.527498007
REMARK CNNaffinity 6.87647438
REMARK  5 active torsions:
REMARK  status: ('A' for Active; 'I' for Inactive)
REMARK    1  A    between atoms: O1_2  and  C2_3 
REMARK    2  A    between atoms: C12_15  and  C13_16 
REMARK    3  A    between atoms: C13_16  and  C15_18 
REMARK    4  A    between atoms: C15_18  and  C16_19 
REMARK    5  A    between atoms: C16_19  and  C17_21 
ROOT
HETATM    1  C2  UNL     1       0.597   9.812  16.703  1.00  0.00     0.270 C 
HETATM    2  O2  UNL     1      -0.520   9.931  17.588  1.00  0.00    -0.347 OA
HETATM    3  C3  UNL     1      -1.689  10.301  16.827  1.00  0.00     0.089 C 
HETATM    4  C4  UNL     1      -2.499   9.007  16.637  1.00  0.00     0.118 C 
HETATM    5  C5  UNL     1      -1.777   7.927  15.855  1.00  0.00     0.135 C 
HETATM    6  O3  UNL     1      -2.229   6.778  15.864  1.00  0.00    -0.297 OA
HETATM    7  C6  UNL     1      -0.556   8.275  14.998  1.00  0.00     0.078 C 
HETATM    8  C7  UNL     1       0.008   9.731  15.267  1.00  0.00     0.027 C 
HETATM    9  C8  UNL     1       1.116  10.144  14.252  1.00  0.00     0.016 C 
HETATM   10  C9  UNL     1       0.924   9.704  12.792  1.00  0.00     0.011 C 
HETATM   11  C10 UNL     1       0.566   8.212  12.704  1.00  0.00    -0.032 C 
HETATM   12  C11 UNL     1       1.777   7.397  13.258  1.00  0.00     0.016 C 
HETATM   13  C12 UNL     1       0.190   7.677  11.292  1.00  0.00    -0.002 C 
HETATM   14  C21 UNL     1      -0.608   6.384  11.618  1.00  0.00     0.006 C 
HETATM   15  C22 UNL     1      -1.064   6.503  13.096  1.00  0.00     0.011 C 
HETATM   16  C23 UNL     1      -0.782   7.972  13.483  1.00  0.00    -0.025 C 
HETATM   17  C24 UNL     1      -2.003   8.779  12.934  1.00  0.00     0.016 C 
HETATM   18  C25 UNL     1      -1.163  10.725  15.434  1.00  0.00     0.036 C 
HETATM   19  C26 UNL     1      -0.830  12.217  15.354  1.00  0.00     0.016 C 
HETATM   20  C27 UNL     1      -2.063  13.071  15.628  1.00  0.00     0.079 C 
HETATM   21  C28 UNL     1      -3.031  12.413  16.589  1.00  0.00     0.137 C 
HETATM   22  O5  UNL     1      -4.227  12.703  16.547  1.00  0.00    -0.297 OA
HETATM   23  C29 UNL     1      -2.459  11.428  17.612  1.00  0.00     0.045 C 
HETATM   24  C30 UNL     1      -3.604  10.883  18.493  1.00  0.00     0.026 C 
HETATM   25  C31 UNL     1      -1.548  12.235  18.571  1.00  0.00     0.026 C 
ENDROOT
BRANCH  13  26
HETATM   26  C13 UNL     1       1.309   7.560  10.218  1.00  0.00    -0.007 C 
HETATM   27  C14 UNL     1       0.862   8.299   8.941  1.00  0.00     0.011 C 
BRANCH  26  28
HETATM   28  C15 UNL     1       1.723   6.128   9.827  1.00  0.00     0.087 C 
BRANCH  28  29
HETATM   29  C16 UNL     1       3.090   6.095   9.160  1.00  0.00     0.149 C 
HETATM   30  O4  UNL     1       4.086   6.582   9.686  1.00  0.00    -0.293 OA
BRANCH  29  31
HETATM   31  C17 UNL     1       3.168   5.385   7.849  1.00  0.00     0.052 C 
HETATM   32  C18 UNL     1       3.759   4.192   7.645  1.00  0.00    -0.084 C 
HETATM   33  C19 UNL     1       3.741   3.558   6.281  1.00  0.00     0.043 C 
HETATM   34  C20 UNL     1       4.483   3.390   8.692  1.00  0.00     0.043 C 
ENDBRANCH  29  31
ENDBRANCH  28  29
ENDBRANCH  26  28
ENDBRANCH  13  26
BRANCH   1  35
HETATM   35  O1  UNL     1       1.391   8.677  17.005  1.00  0.00    -0.365 OA
HETATM   36  C1  UNL     1       1.160   7.603  16.105  1.00  0.00     0.204 C 
ENDBRANCH   1  35
TORSDOF 5
ENDMDL
MODEL 2
REMARK minimizedAffinity -6.86567307
REMARK CNNscore 0.443086296
REMARK CNNaffinity 6.64620733
REMARK  5 active torsions:
REMARK  status: ('A' for Active; 'I' for Inactive)
REMARK    1  A    between atoms: O1_2  and  C2_3 
REMARK    2  A    between atoms: C12_15  and  C13_16 
REMARK    3  A    between atoms: C13_16  and  C15_18 
REMARK    4  A    between atoms: C15_18  and  C16_19 
REMARK    5  A    between atoms: C16_19  and  C17_21 
ROOT
HETATM    1  C2  UNL     1       0.215   5.581  11.800  1.00  0.00     0.270 C 
HETATM    2  O2  UNL     1       1.577   5.439  11.387  1.00  0.00    -0.347 OA
HETATM    3  C3  UNL     1       2.160   6.748  11.219  1.00  0.00     0.089 C 
HETATM    4  C4  UNL     1       2.998   7.005  12.483  1.00  0.00     0.118 C 
HETATM    5  C5  UNL     1       2.196   7.032  13.769  1.00  0.00     0.135 C 
HETATM    6  O3  UNL     1       2.794   6.978  14.849  1.00  0.00    -0.297 OA
HETATM    7  C6  UNL     1       0.676   7.211  13.732  1.00  0.00     0.078 C 
HETATM    8  C7  UNL     1       0.058   7.051  12.281  1.00  0.00     0.027 C 
HETATM    9  C8  UNL     1      -1.452   7.433  12.225  1.00  0.00     0.016 C 
HETATM   10  C9  UNL     1      -1.898   8.637  13.070  1.00  0.00     0.011 C 
HETATM   11  C10 UNL     1      -1.367   8.534  14.508  1.00  0.00    -0.032 C 
HETATM   12  C11 UNL     1      -2.005   7.269  15.164  1.00  0.00     0.016 C 
HETATM   13  C12 UNL     1      -1.616   9.768  15.423  1.00  0.00    -0.002 C 
HETATM   14  C21 UNL     1      -0.545   9.591  16.534  1.00  0.00     0.006 C 
HETATM   15  C22 UNL     1       0.527   8.623  15.969  1.00  0.00     0.011 C 
HETATM   16  C23 UNL     1       0.207   8.510  14.461  1.00  0.00    -0.025 C 
HETATM   17  C24 UNL     1       0.858   9.774  13.811  1.00  0.00     0.016 C 
HETATM   18  C25 UNL     1       0.971   7.740  11.243  1.00  0.00     0.036 C 
HETATM   19  C26 UNL     1       0.381   7.995   9.854  1.00  0.00     0.016 C 
HETATM   20  C27 UNL     1       1.424   8.593   8.915  1.00  0.00     0.079 C 
HETATM   21  C28 UNL     1       2.831   8.126   9.227  1.00  0.00     0.137 C 
HETATM   22  O5  UNL     1       3.792   8.833   8.922  1.00  0.00    -0.297 OA
HETATM   23  C29 UNL     1       2.996   6.754   9.885  1.00  0.00     0.045 C 
HETATM   24  C30 UNL     1       4.498   6.470  10.106  1.00  0.00     0.026 C 
HETATM   25  C31 UNL     1       2.521   5.692   8.862  1.00  0.00     0.026 C 
ENDROOT
BRANCH  13  26
HETATM   26  C13 UNL     1      -3.069  10.067  15.890  1.00  0.00    -0.007 C 
HETATM   27  C14 UNL     1      -3.578  11.334  15.175  1.00  0.00     0.011 C 
BRANCH  26  28
HETATM   28  C15 UNL     1      -3.265  10.257  17.407  1.00  0.00     0.087 C 
BRANCH  28  29
HETATM   29  C16 UNL     1      -2.993  11.691  17.838  1.00  0.00     0.149 C 
HETATM   30  O4  UNL     1      -2.187  12.408  17.253  1.00  0.00    -0.293 OA
BRANCH  29  31
HETATM   31  C17 UNL     1      -3.804  12.201  18.983  1.00  0.00     0.052 C 
HETATM   32  C18 UNL     1      -4.859  13.033  18.879  1.00  0.00    -0.084 C 
HETATM   33  C19 UNL     1      -5.623  13.451  20.106  1.00  0.00     0.043 C 
HETATM   34  C20 UNL     1      -5.373  13.629  17.596  1.00  0.00     0.043 C 
ENDBRANCH  29  31
ENDBRANCH  28  29
ENDBRANCH  26  28
ENDBRANCH  13  26
BRANCH   1  35
HETATM   35  O1  UNL     1      -0.126   4.660  12.822  1.00  0.00    -0.365 OA
HETATM   36  C1  UNL     1      -0.509   3.395  12.301  1.00  0.00     0.204 C 
ENDBRANCH   1  35
TORSDOF 5
ENDMDL
MODEL 3
REMARK minimizedAffinity -8.65801239
REMARK CNNscore 0.412347466
REMARK CNNaffinity 6.72345018
REMARK  5 active torsions:
REMARK  status: ('A' for Active; 'I' for Inactive)
REMARK    1  A    between atoms: O1_2  and  C2_3 
REMARK    2  A    between atoms: C12_15  and  C13_16 
REMARK    3  A    between atoms: C13_16  and  C15_18 
REMARK    4  A    between atoms: C15_18  and  C16_19 
REMARK    5  A    between atoms: C16_19  and  C17_21 
ROOT
HETATM    1  C2  UNL     1       1.576   6.345  13.792  1.00  0.00     0.270 C 
HETATM    2  O2  UNL     1       2.612   7.217  13.332  1.00  0.00    -0.347 OA
HETATM    3  C3  UNL     1       2.191   7.843  12.101  1.00  0.00     0.089 C 
HETATM    4  C4  UNL     1       1.729   9.260  12.482  1.00  0.00     0.118 C 
HETATM    5  C5  UNL     1       0.548   9.297  13.432  1.00  0.00     0.135 C 
HETATM    6  O3  UNL     1       0.263  10.361  13.992  1.00  0.00    -0.297 OA
HETATM    7  C6  UNL     1      -0.330   8.058  13.627  1.00  0.00     0.078 C 
HETATM    8  C7  UNL     1       0.294   6.740  13.008  1.00  0.00     0.027 C 
HETATM    9  C8  UNL     1      -0.695   5.536  13.035  1.00  0.00     0.016 C 
HETATM   10  C9  UNL     1      -2.173   5.840  12.742  1.00  0.00     0.011 C 
HETATM   11  C10 UNL     1      -2.670   7.033  13.572  1.00  0.00    -0.032 C 
HETATM   12  C11 UNL     1      -2.589   6.632  15.079  1.00  0.00     0.016 C 
HETATM   13  C12 UNL     1      -4.105   7.544  13.253  1.00  0.00    -0.002 C 
HETATM   14  C21 UNL     1      -4.085   8.992  13.815  1.00  0.00     0.006 C 
HETATM   15  C22 UNL     1      -2.594   9.395  13.955  1.00  0.00     0.011 C 
HETATM   16  C23 UNL     1      -1.812   8.300  13.196  1.00  0.00    -0.025 C 
HETATM   17  C24 UNL     1      -1.889   8.713  11.690  1.00  0.00     0.016 C 
HETATM   18  C25 UNL     1       0.939   7.057  11.640  1.00  0.00     0.036 C 
HETATM   19  C26 UNL     1       1.282   5.869  10.737  1.00  0.00     0.016 C 
HETATM   20  C27 UNL     1       1.993   6.330   9.469  1.00  0.00     0.079 C 
HETATM   21  C28 UNL     1       2.834   7.572   9.686  1.00  0.00     0.137 C 
HETATM   22  O5  UNL     1       3.066   8.326   8.741  1.00  0.00    -0.297 OA
HETATM   23  C29 UNL     1       3.397   7.814  11.089  1.00  0.00     0.045 C 
HETATM   24  C30 UNL     1       4.224   9.118  11.090  1.00  0.00     0.026 C 
HETATM   25  C31 UNL     1       4.411   6.681  11.381  1.00  0.00     0.026 C 
ENDROOT
BRANCH  13  26
HETATM   26  C13 UNL     1      -5.317   6.653  13.649  1.00  0.00    -0.007 C 
HETATM   27  C14 UNL     1      -5.501   6.704  15.179  1.00  0.00     0.011 C 
BRANCH  26  28
HETATM   28  C15 UNL     1      -5.236   5.174  13.222  1.00  0.00     0.087 C 
BRANCH  28  29
HETATM   29  C16 UNL     1      -6.617   4.560  13.041  1.00  0.00     0.149 C 
HETATM   30  O4  UNL     1      -6.780   3.460  12.521  1.00  0.00    -0.293 OA
BRANCH  29  31
HETATM   31  C17 UNL     1      -7.765   5.347  13.581  1.00  0.00     0.052 C 
HETATM   32  C18 UNL     1      -8.754   5.886  12.842  1.00  0.00    -0.084 C 
HETATM   33  C19 UNL     1      -9.881   6.629  13.506  1.00  0.00     0.043 C 
HETATM   34  C20 UNL     1      -8.848   5.829  11.341  1.00  0.00     0.043 C 
ENDBRANCH  29  31
ENDBRANCH  28  29
ENDBRANCH  26  28
ENDBRANCH  13  26
BRANCH   1  35
HETATM   35  O1  UNL     1       1.383   6.447  15.192  1.00  0.00    -0.365 OA
HETATM   36  C1  UNL     1       2.416   7.188  15.826  1.00  0.00     0.204 C 
ENDBRANCH   1  35
TORSDOF 5
ENDMDL
MODEL 4
REMARK minimizedAffinity -8.14656162
REMARK CNNscore 0.389498711
REMARK CNNaffinity 6.47435904
REMARK  5 active torsions:
REMARK  status: ('A' for Active; 'I' for Inactive)
REMARK    1  A    between atoms: O1_2  and  C2_3 
REMARK    2  A    between atoms: C12_15  and  C13_16 
REMARK    3  A    between atoms: C13_16  and  C15_18 
REMARK    4  A    between atoms: C15_18  and  C16_19 
REMARK    5  A    between atoms: C16_19  and  C17_21 
ROOT
HETATM    1  C2  UNL     1       0.810   8.569  10.493  1.00  0.00     0.270 C 
HETATM    2  O2  UNL     1       1.868   7.755   9.979  1.00  0.00    -0.347 OA
HETATM    3  C3  UNL     1       2.535   7.097  11.077  1.00  0.00     0.089 C 
HETATM    4  C4  UNL     1       1.991   5.659  11.105  1.00  0.00     0.118 C 
HETATM    5  C5  UNL     1       0.500   5.559  11.361  1.00  0.00     0.135 C 
HETATM    6  O3  UNL     1      -0.073   4.485  11.154  1.00  0.00    -0.297 OA
HETATM    7  C6  UNL     1      -0.267   6.747  11.949  1.00  0.00     0.078 C 
HETATM    8  C7  UNL     1       0.566   8.095  11.953  1.00  0.00     0.027 C 
HETATM    9  C8  UNL     1      -0.147   9.240  12.733  1.00  0.00     0.016 C 
HETATM   10  C9  UNL     1      -0.891   8.850  14.020  1.00  0.00     0.011 C 
HETATM   11  C10 UNL     1      -1.803   7.635  13.787  1.00  0.00    -0.032 C 
HETATM   12  C11 UNL     1      -2.894   8.050  12.751  1.00  0.00     0.016 C 
HETATM   13  C12 UNL     1      -2.492   7.041  15.050  1.00  0.00    -0.002 C 
HETATM   14  C21 UNL     1      -2.853   5.600  14.595  1.00  0.00     0.006 C 
HETATM   15  C22 UNL     1      -1.962   5.284  13.365  1.00  0.00     0.011 C 
HETATM   16  C23 UNL     1      -0.912   6.418  13.332  1.00  0.00    -0.025 C 
HETATM   17  C24 UNL     1       0.182   5.991  14.365  1.00  0.00     0.016 C 
HETATM   18  C25 UNL     1       2.029   7.807  12.357  1.00  0.00     0.036 C 
HETATM   19  C26 UNL     1       2.894   9.007  12.753  1.00  0.00     0.016 C 
HETATM   20  C27 UNL     1       4.331   8.580  13.035  1.00  0.00     0.079 C 
HETATM   21  C28 UNL     1       4.763   7.390  12.203  1.00  0.00     0.137 C 
HETATM   22  O5  UNL     1       5.651   6.644  12.617  1.00  0.00    -0.297 OA
HETATM   23  C29 UNL     1       4.089   7.190  10.843  1.00  0.00     0.045 C 
HETATM   24  C30 UNL     1       4.678   5.936  10.160  1.00  0.00     0.026 C 
HETATM   25  C31 UNL     1       4.501   8.381   9.943  1.00  0.00     0.026 C 
ENDROOT
BRANCH  13  26
HETATM   26  C13 UNL     1      -3.618   7.863  15.739  1.00  0.00    -0.007 C 
HETATM   27  C14 UNL     1      -4.936   7.662  14.963  1.00  0.00     0.011 C 
BRANCH  26  28
HETATM   28  C15 UNL     1      -3.364   9.377  15.873  1.00  0.00     0.087 C 
BRANCH  28  29
HETATM   29  C16 UNL     1      -2.622   9.715  17.158  1.00  0.00     0.149 C 
HETATM   30  O4  UNL     1      -1.441   9.428  17.327  1.00  0.00    -0.293 OA
BRANCH  29  31
HETATM   31  C17 UNL     1      -3.397  10.468  18.189  1.00  0.00     0.052 C 
HETATM   32  C18 UNL     1      -3.498  11.809  18.260  1.00  0.00    -0.084 C 
HETATM   33  C19 UNL     1      -4.341  12.454  19.326  1.00  0.00     0.043 C 
HETATM   34  C20 UNL     1      -2.810  12.783  17.340  1.00  0.00     0.043 C 
ENDBRANCH  29  31
ENDBRANCH  28  29
ENDBRANCH  26  28
ENDBRANCH  13  26
BRANCH   1  35
HETATM   35  O1  UNL     1      -0.366   8.464   9.708  1.00  0.00    -0.365 OA
HETATM   36  C1  UNL     1      -0.079   8.297   8.327  1.00  0.00     0.204 C 
ENDBRANCH   1  35
TORSDOF 5
ENDMDL
MODEL 5
REMARK minimizedAffinity -6.32835865
REMARK CNNscore 0.347882777
REMARK CNNaffinity 5.94383287
REMARK  5 active torsions:
REMARK  status: ('A' for Active; 'I' for Inactive)
REMARK    1  A    between atoms: O1_2  and  C2_3 
REMARK    2  A    between atoms: C12_15  and  C13_16 
REMARK    3  A    between atoms: C13_16  and  C15_18 
REMARK    4  A    between atoms: C15_18  and  C16_19 
REMARK    5  A    between atoms: C16_19  and  C17_21 
ROOT
HETATM    1  C2  UNL     1     -16.007   5.733  23.365  1.00  0.00     0.270 C 
HETATM    2  O2  UNL     1     -16.003   5.114  24.655  1.00  0.00    -0.347 OA
HETATM    3  C3  UNL     1     -14.640   4.852  25.050  1.00  0.00     0.089 C 
HETATM    4  C4  UNL     1     -14.261   5.970  26.036  1.00  0.00     0.118 C 
HETATM    5  C5  UNL     1     -14.296   7.365  25.443  1.00  0.00     0.135 C 
HETATM    6  O3  UNL     1     -14.258   8.339  26.202  1.00  0.00    -0.297 OA
HETATM    7  C6  UNL     1     -14.293   7.563  23.925  1.00  0.00     0.078 C 
HETATM    8  C7  UNL     1     -14.554   6.226  23.115  1.00  0.00     0.027 C 
HETATM    9  C8  UNL     1     -14.348   6.403  21.580  1.00  0.00     0.016 C 
HETATM   10  C9  UNL     1     -13.184   7.301  21.132  1.00  0.00     0.011 C 
HETATM   11  C10 UNL     1     -13.194   8.640  21.886  1.00  0.00    -0.032 C 
HETATM   12  C11 UNL     1     -14.508   9.392  21.506  1.00  0.00     0.016 C 
HETATM   13  C12 UNL     1     -11.976   9.577  21.638  1.00  0.00    -0.002 C 
HETATM   14  C21 UNL     1     -12.005  10.509  22.881  1.00  0.00     0.006 C 
HETATM   15  C22 UNL     1     -12.857   9.789  23.958  1.00  0.00     0.011 C 
HETATM   16  C23 UNL     1     -13.040   8.350  23.426  1.00  0.00    -0.025 C 
HETATM   17  C24 UNL     1     -11.724   7.601  23.819  1.00  0.00     0.016 C 
HETATM   18  C25 UNL     1     -13.789   5.056  23.772  1.00  0.00     0.036 C 
HETATM   19  C26 UNL     1     -13.634   3.773  22.950  1.00  0.00     0.016 C 
HETATM   20  C27 UNL     1     -12.942   2.682  23.760  1.00  0.00     0.079 C 
HETATM   21  C28 UNL     1     -13.239   2.774  25.243  1.00  0.00     0.137 C 
HETATM   22  O5  UNL     1     -12.434   2.321  26.057  1.00  0.00    -0.297 OA
HETATM   23  C29 UNL     1     -14.569   3.404  25.664  1.00  0.00     0.045 C 
HETATM   24  C30 UNL     1     -14.675   3.391  27.205  1.00  0.00     0.026 C 
HETATM   25  C31 UNL     1     -15.701   2.473  25.165  1.00  0.00     0.026 C 
ENDROOT
BRANCH  13  26
HETATM   26  C13 UNL     1     -11.834  10.262  20.249  1.00  0.00    -0.007 C 
HETATM   27  C14 UNL     1     -13.206  10.821  19.820  1.00  0.00     0.011 C 
BRANCH  26  28
HETATM   28  C15 UNL     1     -11.297   9.374  19.110  1.00  0.00     0.087 C 
BRANCH  28  29
HETATM   29  C16 UNL     1     -11.088  10.164  17.826  1.00  0.00     0.149 C 
HETATM   30  O4  UNL     1     -10.501  11.242  17.810  1.00  0.00    -0.293 OA
BRANCH  29  31
HETATM   31  C17 UNL     1     -11.588   9.529  16.571  1.00  0.00     0.052 C 
HETATM   32  C18 UNL     1     -10.813   8.986  15.613  1.00  0.00    -0.084 C 
HETATM   33  C19 UNL     1     -11.437   8.340  14.405  1.00  0.00     0.043 C 
HETATM   34  C20 UNL     1      -9.308   8.967  15.618  1.00  0.00     0.043 C 
ENDBRANCH  29  31
ENDBRANCH  28  29
ENDBRANCH  26  28
ENDBRANCH  13  26
BRANCH   1  35
HETATM   35  O1  UNL     1     -16.938   6.799  23.294  1.00  0.00    -0.365 OA
HETATM   36  C1  UNL     1     -17.770   6.712  22.147  1.00  0.00     0.204 C 
ENDBRANCH   1  35
TORSDOF 5
ENDMDL
MODEL 6
REMARK minimizedAffinity -8.51992035
REMARK CNNscore 0.344744444
REMARK CNNaffinity 6.753757
REMARK  5 active torsions:
REMARK  status: ('A' for Active; 'I' for Inactive)
REMARK    1  A    between atoms: O1_2  and  C2_3 
REMARK    2  A    between atoms: C12_15  and  C13_16 
REMARK    3  A    between atoms: C13_16  and  C15_18 
REMARK    4  A    between atoms: C15_18  and  C16_19 
REMARK    5  A    between atoms: C16_19  and  C17_21 
ROOT
HETATM    1  C2  UNL     1       1.034   8.478  10.420  1.00  0.00     0.270 C 
HETATM    2  O2  UNL     1       2.215   7.764  10.043  1.00  0.00    -0.347 OA
HETATM    3  C3  UNL     1       2.811   7.180  11.221  1.00  0.00     0.089 C 
HETATM    4  C4  UNL     1       2.404   5.697  11.211  1.00  0.00     0.118 C 
HETATM    5  C5  UNL     1       0.910   5.458  11.299  1.00  0.00     0.135 C 
HETATM    6  O3  UNL     1       0.468   4.333  11.047  1.00  0.00    -0.297 OA
HETATM    7  C6  UNL     1      -0.027   6.571  11.776  1.00  0.00     0.078 C 
HETATM    8  C7  UNL     1       0.671   7.992  11.851  1.00  0.00     0.027 C 
HETATM    9  C8  UNL     1      -0.231   9.069  12.527  1.00  0.00     0.016 C 
HETATM   10  C9  UNL     1      -1.077   8.618  13.727  1.00  0.00     0.011 C 
HETATM   11  C10 UNL     1      -1.839   7.321  13.414  1.00  0.00    -0.032 C 
HETATM   12  C11 UNL     1      -2.839   7.623  12.254  1.00  0.00     0.016 C 
HETATM   13  C12 UNL     1      -2.609   6.672  14.600  1.00  0.00    -0.002 C 
HETATM   14  C21 UNL     1      -2.780   5.200  14.131  1.00  0.00     0.006 C 
HETATM   15  C22 UNL     1      -1.728   4.963  13.017  1.00  0.00     0.011 C 
HETATM   16  C23 UNL     1      -0.792   6.191  13.083  1.00  0.00    -0.025 C 
HETATM   17  C24 UNL     1       0.212   5.876  14.240  1.00  0.00     0.016 C 
HETATM   18  C25 UNL     1       2.098   7.847  12.423  1.00  0.00     0.036 C 
HETATM   19  C26 UNL     1       2.796   9.126  12.894  1.00  0.00     0.016 C 
HETATM   20  C27 UNL     1       4.225   8.838  13.344  1.00  0.00     0.079 C 
HETATM   21  C28 UNL     1       4.859   7.690  12.587  1.00  0.00     0.137 C 
HETATM   22  O5  UNL     1       5.760   7.035  13.111  1.00  0.00    -0.297 OA
HETATM   23  C29 UNL     1       4.366   7.418  11.163  1.00  0.00     0.045 C 
HETATM   24  C30 UNL     1       5.144   6.221  10.572  1.00  0.00     0.026 C 
HETATM   25  C31 UNL     1       4.765   8.638  10.295  1.00  0.00     0.026 C 
ENDROOT
BRANCH  13  26
HETATM   26  C13 UNL     1      -3.879   7.387  15.143  1.00  0.00    -0.007 C 
HETATM   27  C14 UNL     1      -3.475   8.318  16.305  1.00  0.00     0.011 C 
BRANCH  26  28
HETATM   28  C15 UNL     1      -5.015   6.468  15.634  1.00  0.00     0.087 C 
BRANCH  28  29
HETATM   29  C16 UNL     1      -6.155   6.391  14.630  1.00  0.00     0.149 C 
HETATM   30  O4  UNL     1      -6.704   7.395  14.185  1.00  0.00    -0.293 OA
BRANCH  29  31
HETATM   31  C17 UNL     1      -6.539   5.024  14.170  1.00  0.00     0.052 C 
HETATM   32  C18 UNL     1      -7.559   4.742  13.336  1.00  0.00    -0.084 C 
HETATM   33  C19 UNL     1      -7.826   3.323  12.913  1.00  0.00     0.043 C 
HETATM   34  C20 UNL     1      -8.517   5.751  12.762  1.00  0.00     0.043 C 
ENDBRANCH  29  31
ENDBRANCH  28  29
ENDBRANCH  26  28
ENDBRANCH  13  26
BRANCH   1  35
HETATM   35  O1  UNL     1      -0.029   8.257   9.509  1.00  0.00    -0.365 OA
HETATM   36  C1  UNL     1       0.425   8.140   8.169  1.00  0.00     0.204 C 
ENDBRANCH   1  35
TORSDOF 5
ENDMDL
MODEL 7
REMARK minimizedAffinity -6.55269384
REMARK CNNscore 0.336461842
REMARK CNNaffinity 6.51463556
REMARK  5 active torsions:
REMARK  status: ('A' for Active; 'I' for Inactive)
REMARK    1  A    between atoms: O1_2  and  C2_3 
REMARK    2  A    between atoms: C12_15  and  C13_16 
REMARK    3  A    between atoms: C13_16  and  C15_18 
REMARK    4  A    between atoms: C15_18  and  C16_19 
REMARK    5  A    between atoms: C16_19  and  C17_21 
ROOT
HETATM    1  C2  UNL     1      -0.201  12.399  16.849  1.00  0.00     0.270 C 
HETATM    2  O2  UNL     1      -1.112  13.164  17.642  1.00  0.00    -0.347 OA
HETATM    3  C3  UNL     1      -2.415  13.140  17.021  1.00  0.00     0.089 C 
HETATM    4  C4  UNL     1      -3.240  12.105  17.805  1.00  0.00     0.118 C 
HETATM    5  C5  UNL     1      -2.689  10.694  17.748  1.00  0.00     0.135 C 
HETATM    6  O3  UNL     1      -3.124   9.849  18.537  1.00  0.00    -0.297 OA
HETATM    7  C6  UNL     1      -1.673  10.301  16.672  1.00  0.00     0.078 C 
HETATM    8  C7  UNL     1      -1.072  11.542  15.889  1.00  0.00     0.027 C 
HETATM    9  C8  UNL     1      -0.199  11.118  14.670  1.00  0.00     0.016 C 
HETATM   10  C9  UNL     1      -0.686   9.914  13.848  1.00  0.00     0.011 C 
HETATM   11  C10 UNL     1      -1.047   8.730  14.757  1.00  0.00    -0.032 C 
HETATM   12  C11 UNL     1       0.256   8.273  15.486  1.00  0.00     0.016 C 
HETATM   13  C12 UNL     1      -1.703   7.503  14.060  1.00  0.00    -0.002 C 
HETATM   14  C21 UNL     1      -2.410   6.779  15.239  1.00  0.00     0.006 C 
HETATM   15  C22 UNL     1      -2.553   7.819  16.380  1.00  0.00     0.011 C 
HETATM   16  C23 UNL     1      -2.204   9.176  15.728  1.00  0.00    -0.025 C 
HETATM   17  C24 UNL     1      -3.516   9.632  15.009  1.00  0.00     0.016 C 
HETATM   18  C25 UNL     1      -2.189  12.570  15.599  1.00  0.00     0.036 C 
HETATM   19  C26 UNL     1      -1.886  13.656  14.564  1.00  0.00     0.016 C 
HETATM   20  C27 UNL     1      -3.041  14.646  14.453  1.00  0.00     0.079 C 
HETATM   21  C28 UNL     1      -3.787  14.827  15.759  1.00  0.00     0.137 C 
HETATM   22  O5  UNL     1      -4.967  15.177  15.746  1.00  0.00    -0.297 OA
HETATM   23  C29 UNL     1      -3.012  14.597  17.059  1.00  0.00     0.045 C 
HETATM   24  C30 UNL     1      -3.948  14.840  18.263  1.00  0.00     0.026 C 
HETATM   25  C31 UNL     1      -1.927  15.699  17.151  1.00  0.00     0.026 C 
ENDROOT
BRANCH  13  26
HETATM   26  C13 UNL     1      -0.828   6.625  13.120  1.00  0.00    -0.007 C 
HETATM   27  C14 UNL     1       0.454   6.207  13.869  1.00  0.00     0.011 C 
BRANCH  26  28
HETATM   28  C15 UNL     1      -0.417   7.271  11.783  1.00  0.00     0.087 C 
BRANCH  28  29
HETATM   29  C16 UNL     1       0.237   6.267  10.845  1.00  0.00     0.149 C 
HETATM   30  O4  UNL     1      -0.173   5.115  10.732  1.00  0.00    -0.293 OA
BRANCH  29  31
HETATM   31  C17 UNL     1       1.375   6.774  10.024  1.00  0.00     0.052 C 
HETATM   32  C18 UNL     1       1.278   7.694   9.045  1.00  0.00    -0.084 C 
HETATM   33  C19 UNL     1       2.506   8.155   8.309  1.00  0.00     0.043 C 
HETATM   34  C20 UNL     1      -0.001   8.336   8.578  1.00  0.00     0.043 C 
ENDBRANCH  29  31
ENDBRANCH  28  29
ENDBRANCH  26  28
ENDBRANCH  13  26
BRANCH   1  35
HETATM   35  O1  UNL     1       0.644  11.589  17.649  1.00  0.00    -0.365 OA
HETATM   36  C1  UNL     1       0.639  11.987  19.012  1.00  0.00     0.204 C 
ENDBRANCH   1  35
TORSDOF 5
ENDMDL
MODEL 8
REMARK minimizedAffinity -5.98759604
REMARK CNNscore 0.32811904
REMARK CNNaffinity 6.27003527
REMARK  5 active torsions:
REMARK  status: ('A' for Active; 'I' for Inactive)
REMARK    1  A    between atoms: O1_2  and  C2_3 
REMARK    2  A    between atoms: C12_15  and  C13_16 
REMARK    3  A    between atoms: C13_16  and  C15_18 
REMARK    4  A    between atoms: C15_18  and  C16_19 
REMARK    5  A    between atoms: C16_19  and  C17_21 
ROOT
HETATM    1  C2  UNL     1     -13.983   9.758  23.726  1.00  0.00     0.270 C 
HETATM    2  O2  UNL     1     -14.480  10.553  22.646  1.00  0.00    -0.347 OA
HETATM    3  C3  UNL     1     -14.065   9.965  21.395  1.00  0.00     0.089 C 
HETATM    4  C4  UNL     1     -15.288   9.203  20.858  1.00  0.00     0.118 C 
HETATM    5  C5  UNL     1     -15.762   8.073  21.750  1.00  0.00     0.135 C 
HETATM    6  O3  UNL     1     -16.870   7.570  21.541  1.00  0.00    -0.297 OA
HETATM    7  C6  UNL     1     -14.844   7.507  22.838  1.00  0.00     0.078 C 
HETATM    8  C7  UNL     1     -13.561   8.397  23.106  1.00  0.00     0.027 C 
HETATM    9  C8  UNL     1     -12.542   7.709  24.064  1.00  0.00     0.016 C 
HETATM   10  C9  UNL     1     -12.347   6.193  23.904  1.00  0.00     0.011 C 
HETATM   11  C10 UNL     1     -13.697   5.462  23.852  1.00  0.00    -0.032 C 
HETATM   12  C11 UNL     1     -14.408   5.676  25.225  1.00  0.00     0.016 C 
HETATM   13  C12 UNL     1     -13.643   3.940  23.534  1.00  0.00    -0.002 C 
HETATM   14  C21 UNL     1     -15.082   3.645  23.029  1.00  0.00     0.006 C 
HETATM   15  C22 UNL     1     -15.699   5.008  22.621  1.00  0.00     0.011 C 
HETATM   16  C23 UNL     1     -14.512   5.997  22.615  1.00  0.00    -0.025 C 
HETATM   17  C24 UNL     1     -13.811   5.784  21.233  1.00  0.00     0.016 C 
HETATM   18  C25 UNL     1     -12.991   8.912  21.766  1.00  0.00     0.036 C 
HETATM   19  C26 UNL     1     -11.573   9.491  21.786  1.00  0.00     0.016 C 
HETATM   20  C27 UNL     1     -11.185  10.041  20.418  1.00  0.00     0.079 C 
HETATM   21  C28 UNL     1     -12.370  10.582  19.644  1.00  0.00     0.137 C 
HETATM   22  O5  UNL     1     -12.337  10.608  18.414  1.00  0.00    -0.297 OA
HETATM   23  C29 UNL     1     -13.559  11.115  20.447  1.00  0.00     0.045 C 
HETATM   24  C30 UNL     1     -14.646  11.624  19.474  1.00  0.00     0.026 C 
HETATM   25  C31 UNL     1     -13.073  12.370  21.214  1.00  0.00     0.026 C 
ENDROOT
BRANCH  13  26
HETATM   26  C13 UNL     1     -13.063   2.975  24.607  1.00  0.00    -0.007 C 
HETATM   27  C14 UNL     1     -11.688   2.462  24.135  1.00  0.00     0.011 C 
BRANCH  26  28
HETATM   28  C15 UNL     1     -13.938   1.756  24.962  1.00  0.00     0.087 C 
BRANCH  28  29
HETATM   29  C16 UNL     1     -14.419   1.804  26.404  1.00  0.00     0.149 C 
HETATM   30  O4  UNL     1     -15.609   1.880  26.695  1.00  0.00    -0.293 OA
BRANCH  29  31
HETATM   31  C17 UNL     1     -13.364   1.697  27.456  1.00  0.00     0.052 C 
HETATM   32  C18 UNL     1     -12.991   2.690  28.285  1.00  0.00    -0.084 C 
HETATM   33  C19 UNL     1     -11.938   2.451  29.333  1.00  0.00     0.043 C 
HETATM   34  C20 UNL     1     -13.538   4.092  28.265  1.00  0.00     0.043 C 
ENDBRANCH  29  31
ENDBRANCH  28  29
ENDBRANCH  26  28
ENDBRANCH  13  26
BRANCH   1  35
HETATM   35  O1  UNL     1     -14.954   9.587  24.745  1.00  0.00    -0.365 OA
HETATM   36  C1  UNL     1     -15.738  10.754  24.944  1.00  0.00     0.204 C 
ENDBRANCH   1  35
TORSDOF 5
ENDMDL
MODEL 9
REMARK minimizedAffinity -6.85220337
REMARK CNNscore 0.315296054
REMARK CNNaffinity 5.81971598
REMARK  5 active torsions:
REMARK  status: ('A' for Active; 'I' for Inactive)
REMARK    1  A    between atoms: O1_2  and  C2_3 
REMARK    2  A    between atoms: C12_15  and  C13_16 
REMARK    3  A    between atoms: C13_16  and  C15_18 
REMARK    4  A    between atoms: C15_18  and  C16_19 
REMARK    5  A    between atoms: C16_19  and  C17_21 
ROOT
HETATM    1  C2  UNL     1      -4.338 -13.039   3.714  1.00  0.00     0.270 C 
HETATM    2  O2  UNL     1      -4.625 -12.808   5.096  1.00  0.00    -0.347 OA
HETATM    3  C3  UNL     1      -4.809 -11.392   5.310  1.00  0.00     0.089 C 
HETATM    4  C4  UNL     1      -6.328 -11.167   5.379  1.00  0.00     0.118 C 
HETATM    5  C5  UNL     1      -7.072 -11.528   4.108  1.00  0.00     0.135 C 
HETATM    6  O3  UNL     1      -8.302 -11.625   4.141  1.00  0.00    -0.297 OA
HETATM    7  C6  UNL     1      -6.315 -11.687   2.786  1.00  0.00     0.078 C 
HETATM    8  C7  UNL     1      -4.741 -11.739   2.962  1.00  0.00     0.027 C 
HETATM    9  C8  UNL     1      -3.982 -11.697   1.602  1.00  0.00     0.016 C 
HETATM   10  C9  UNL     1      -4.554 -10.777   0.512  1.00  0.00     0.011 C 
HETATM   11  C10 UNL     1      -6.065 -10.993   0.340  1.00  0.00    -0.032 C 
HETATM   12  C11 UNL     1      -6.284 -12.458  -0.155  1.00  0.00     0.016 C 
HETATM   13  C12 UNL     1      -6.795 -10.012  -0.623  1.00  0.00    -0.002 C 
HETATM   14  C21 UNL     1      -8.277 -10.127  -0.168  1.00  0.00     0.006 C 
HETATM   15  C22 UNL     1      -8.259 -10.728   1.261  1.00  0.00     0.011 C 
HETATM   16  C23 UNL     1      -6.780 -10.661   1.704  1.00  0.00    -0.025 C 
HETATM   17  C24 UNL     1      -6.571  -9.195   2.206  1.00  0.00     0.016 C 
HETATM   18  C25 UNL     1      -4.297 -10.705   4.020  1.00  0.00     0.036 C 
HETATM   19  C26 UNL     1      -2.806 -10.363   4.080  1.00  0.00     0.016 C 
HETATM   20  C27 UNL     1      -2.507  -9.404   5.227  1.00  0.00     0.079 C 
HETATM   21  C28 UNL     1      -3.438  -9.592   6.407  1.00  0.00     0.137 C 
HETATM   22  O5  UNL     1      -3.660  -8.650   7.168  1.00  0.00    -0.297 OA
HETATM   23  C29 UNL     1      -4.041 -10.983   6.623  1.00  0.00     0.045 C 
HETATM   24  C30 UNL     1      -4.945 -10.960   7.875  1.00  0.00     0.026 C 
HETATM   25  C31 UNL     1      -2.876 -11.942   6.972  1.00  0.00     0.026 C 
ENDROOT
BRANCH  13  26
HETATM   26  C13 UNL     1      -6.518 -10.123  -2.149  1.00  0.00    -0.007 C 
HETATM   27  C14 UNL     1      -5.054 -10.554  -2.366  1.00  0.00     0.011 C 
BRANCH  26  28
HETATM   28  C15 UNL     1      -6.773  -8.847  -2.976  1.00  0.00     0.087 C 
BRANCH  28  29
HETATM   29  C16 UNL     1      -8.103  -8.905  -3.712  1.00  0.00     0.149 C 
HETATM   30  O4  UNL     1      -8.761  -9.938  -3.794  1.00  0.00    -0.293 OA
BRANCH  29  31
HETATM   31  C17 UNL     1      -8.596  -7.618  -4.287  1.00  0.00     0.052 C 
HETATM   32  C18 UNL     1      -9.107  -6.594  -3.576  1.00  0.00    -0.084 C 
HETATM   33  C19 UNL     1      -9.538  -5.329  -4.265  1.00  0.00     0.043 C 
HETATM   34  C20 UNL     1      -9.311  -6.588  -2.084  1.00  0.00     0.043 C 
ENDBRANCH  29  31
ENDBRANCH  28  29
ENDBRANCH  26  28
ENDBRANCH  13  26
BRANCH   1  35
HETATM   35  O1  UNL     1      -5.034 -14.168   3.213  1.00  0.00    -0.365 OA
HETATM   36  C1  UNL     1      -4.179 -15.285   3.018  1.00  0.00     0.204 C 
ENDBRANCH   1  35
TORSDOF 5
ENDMDL
