MODEL 1
REMARK minimizedAffinity -6.71011829
REMARK CNNscore 0.562425554
REMARK CNNaffinity 6.69443703
REMARK  8 active torsions:
REMARK  status: ('A' for Active; 'I' for Inactive)
REMARK    1  A    between atoms: C4_4  and  C5_5 
REMARK    2  A    between atoms: C5_5  and  C6_6 
REMARK    3  A    between atoms: C6_6  and  C7_7 
REMARK    4  A    between atoms: C7_7  and  C9_9 
REMARK    5  A    between atoms: C21_21  and  C22_22 
REMARK    6  A    between atoms: C22_22  and  C23_23 
REMARK    7  A    between atoms: C23_23  and  C24_24 
REMARK    8  A    between atoms: C24_24  and  O1_25 
ROOT
HETATM    1  C9  UNL     1      -1.352  53.606  -8.930  1.00  0.00    -0.002 C 
HETATM    2  C10 UNL     1      -1.682  54.780  -9.910  1.00  0.00     0.006 C 
HETATM    3  C11 UNL     1      -0.357  55.233 -10.560  1.00  0.00     0.011 C 
HETATM    4  C12 UNL     1       0.741  54.578  -9.699  1.00  0.00    -0.032 C 
HETATM    5  C13 UNL     1       0.872  55.502  -8.449  1.00  0.00     0.016 C 
HETATM    6  C14 UNL     1       2.116  54.363 -10.413  1.00  0.00     0.003 C 
HETATM    7  C15 UNL     1       2.809  55.641 -10.938  1.00  0.00     0.010 C 
HETATM    8  C16 UNL     1       3.660  56.427  -9.937  1.00  0.00     0.035 C 
HETATM    9  C17 UNL     1       4.149  55.590  -8.763  1.00  0.00    -0.073 C 
HETATM   10  C18 UNL     1       4.248  56.133  -7.519  1.00  0.00    -0.085 C 
HETATM   11  C19 UNL     1       4.522  55.386  -6.239  1.00  0.00     0.043 C 
HETATM   12  C20 UNL     1       4.069  57.615  -7.255  1.00  0.00     0.043 C 
HETATM   13  C21 UNL     1       4.458  54.162  -9.244  1.00  0.00     0.023 C 
HETATM   14  C25 UNL     1       3.109  53.397  -9.624  1.00  0.00    -0.032 C 
HETATM   15  C26 UNL     1       3.513  52.235 -10.581  1.00  0.00     0.016 C 
HETATM   16  C27 UNL     1       2.453  52.758  -8.365  1.00  0.00     0.011 C 
HETATM   17  C28 UNL     1       0.950  52.401  -8.399  1.00  0.00     0.011 C 
HETATM   18  C29 UNL     1       0.079  53.176  -9.407  1.00  0.00    -0.032 C 
HETATM   19  C30 UNL     1      -0.125  52.277 -10.670  1.00  0.00     0.016 C 
ENDROOT
BRANCH   1  20
HETATM   20  C7  UNL     1      -2.509  52.561  -8.857  1.00  0.00    -0.014 C 
HETATM   21  C8  UNL     1      -1.939  51.171  -8.515  1.00  0.00     0.010 C 
BRANCH  20  22
HETATM   22  C6  UNL     1      -3.315  52.493 -10.176  1.00  0.00     0.008 C 
BRANCH  22  23
HETATM   23  C5  UNL     1      -3.632  51.084 -10.702  1.00  0.00     0.028 C 
BRANCH  23  24
HETATM   24  C4  UNL     1      -5.092  50.735 -10.582  1.00  0.00    -0.025 C 
HETATM   25  C2  UNL     1      -5.653  49.695  -9.937  1.00  0.00    -0.091 C 
HETATM   26  C1  UNL     1      -4.910  48.622  -9.190  1.00  0.00     0.042 C 
HETATM   27  C3  UNL     1      -7.152  49.528  -9.919  1.00  0.00     0.042 C 
ENDBRANCH  23  24
ENDBRANCH  22  23
ENDBRANCH  20  22
ENDBRANCH   1  20
BRANCH  13  28
HETATM   28  C22 UNL     1       5.487  53.325  -8.433  1.00  0.00     0.012 C 
BRANCH  28  29
HETATM   29  C23 UNL     1       6.664  52.756  -9.250  1.00  0.00     0.027 C 
BRANCH  29  30
HETATM   30  C24 UNL     1       6.942  51.278  -8.989  1.00  0.00     0.164 C 
BRANCH  30  31
HETATM   31  O1  UNL     1       7.561  50.668 -10.110  1.00  0.00    -0.401 OA
HETATM   32  H42 UNL     1       7.776  49.755  -9.855  1.00  0.00     0.209 HD
ENDBRANCH  30  31
ENDBRANCH  29  30
ENDBRANCH  28  29
ENDBRANCH  13  28
TORSDOF 8
ENDMDL
MODEL 2
REMARK minimizedAffinity -6.70959997
REMARK CNNscore 0.444879591
REMARK CNNaffinity 6.50534296
REMARK  8 active torsions:
REMARK  status: ('A' for Active; 'I' for Inactive)
REMARK    1  A    between atoms: C4_4  and  C5_5 
REMARK    2  A    between atoms: C5_5  and  C6_6 
REMARK    3  A    between atoms: C6_6  and  C7_7 
REMARK    4  A    between atoms: C7_7  and  C9_9 
REMARK    5  A    between atoms: C21_21  and  C22_22 
REMARK    6  A    between atoms: C22_22  and  C23_23 
REMARK    7  A    between atoms: C23_23  and  C24_24 
REMARK    8  A    between atoms: C24_24  and  O1_25 
ROOT
HETATM    1  C9  UNL     1       1.192  53.105 -10.224  1.00  0.00    -0.002 C 
HETATM    2  C10 UNL     1       1.666  53.089 -11.714  1.00  0.00     0.006 C 
HETATM    3  C11 UNL     1       0.453  52.703 -12.587  1.00  0.00     0.011 C 
HETATM    4  C12 UNL     1      -0.586  52.159 -11.588  1.00  0.00    -0.032 C 
HETATM    5  C13 UNL     1      -0.140  50.691 -11.307  1.00  0.00     0.016 C 
HETATM    6  C14 UNL     1      -2.076  52.237 -12.058  1.00  0.00     0.003 C 
HETATM    7  C15 UNL     1      -2.413  51.467 -13.355  1.00  0.00     0.010 C 
HETATM    8  C16 UNL     1      -2.729  49.975 -13.212  1.00  0.00     0.035 C 
HETATM    9  C17 UNL     1      -3.199  49.582 -11.819  1.00  0.00    -0.073 C 
HETATM   10  C18 UNL     1      -2.847  48.382 -11.282  1.00  0.00    -0.085 C 
HETATM   11  C19 UNL     1      -3.067  47.943  -9.857  1.00  0.00     0.043 C 
HETATM   12  C20 UNL     1      -2.145  47.302 -12.081  1.00  0.00     0.043 C 
HETATM   13  C21 UNL     1      -4.049  50.718 -11.224  1.00  0.00     0.023 C 
HETATM   14  C25 UNL     1      -3.135  51.984 -10.893  1.00  0.00    -0.032 C 
HETATM   15  C26 UNL     1      -4.089  53.216 -10.834  1.00  0.00     0.016 C 
HETATM   16  C27 UNL     1      -2.468  51.844  -9.493  1.00  0.00     0.011 C 
HETATM   17  C28 UNL     1      -1.206  52.677  -9.174  1.00  0.00     0.011 C 
HETATM   18  C29 UNL     1      -0.368  53.150 -10.379  1.00  0.00    -0.032 C 
HETATM   19  C30 UNL     1      -0.742  54.637 -10.680  1.00  0.00     0.016 C 
ENDROOT
BRANCH   1  20
HETATM   20  C7  UNL     1       1.935  54.191  -9.384  1.00  0.00    -0.014 C 
HETATM   21  C8  UNL     1       1.231  54.376  -8.026  1.00  0.00     0.010 C 
BRANCH  20  22
HETATM   22  C6  UNL     1       2.018  55.545 -10.127  1.00  0.00     0.008 C 
BRANCH  22  23
HETATM   23  C5  UNL     1       3.433  56.080 -10.400  1.00  0.00     0.028 C 
BRANCH  23  24
HETATM   24  C4  UNL     1       4.488  55.014 -10.276  1.00  0.00    -0.025 C 
HETATM   25  C2  UNL     1       5.435  54.880  -9.327  1.00  0.00    -0.091 C 
HETATM   26  C1  UNL     1       5.648  55.808  -8.163  1.00  0.00     0.042 C 
HETATM   27  C3  UNL     1       6.400  53.721  -9.371  1.00  0.00     0.042 C 
ENDBRANCH  23  24
ENDBRANCH  22  23
ENDBRANCH  20  22
ENDBRANCH   1  20
BRANCH  13  28
HETATM   28  C22 UNL     1      -5.095  50.353 -10.133  1.00  0.00     0.012 C 
BRANCH  28  29
HETATM   29  C23 UNL     1      -6.215  49.397 -10.587  1.00  0.00     0.027 C 
BRANCH  29  30
HETATM   30  C24 UNL     1      -7.357  49.260  -9.582  1.00  0.00     0.164 C 
BRANCH  30  31
HETATM   31  O1  UNL     1      -8.146  50.437  -9.542  1.00  0.00    -0.401 OA
HETATM   32  H42 UNL     1      -8.892  50.260  -8.944  1.00  0.00     0.209 HD
ENDBRANCH  30  31
ENDBRANCH  29  30
ENDBRANCH  28  29
ENDBRANCH  13  28
TORSDOF 8
ENDMDL
MODEL 3
REMARK minimizedAffinity -6.37789869
REMARK CNNscore 0.441559404
REMARK CNNaffinity 6.45636129
REMARK  8 active torsions:
REMARK  status: ('A' for Active; 'I' for Inactive)
REMARK    1  A    between atoms: C4_4  and  C5_5 
REMARK    2  A    between atoms: C5_5  and  C6_6 
REMARK    3  A    between atoms: C6_6  and  C7_7 
REMARK    4  A    between atoms: C7_7  and  C9_9 
REMARK    5  A    between atoms: C21_21  and  C22_22 
REMARK    6  A    between atoms: C22_22  and  C23_23 
REMARK    7  A    between atoms: C23_23  and  C24_24 
REMARK    8  A    between atoms: C24_24  and  O1_25 
ROOT
HETATM    1  C9  UNL     1       0.765  54.723  -9.221  1.00  0.00    -0.002 C 
HETATM    2  C10 UNL     1       0.539  55.983  -8.322  1.00  0.00     0.006 C 
HETATM    3  C11 UNL     1       1.899  56.362  -7.697  1.00  0.00     0.011 C 
HETATM    4  C12 UNL     1       2.796  55.134  -7.946  1.00  0.00    -0.032 C 
HETATM    5  C13 UNL     1       2.403  54.120  -6.828  1.00  0.00     0.016 C 
HETATM    6  C14 UNL     1       4.334  55.417  -7.963  1.00  0.00     0.003 C 
HETATM    7  C15 UNL     1       4.923  56.014  -6.665  1.00  0.00     0.010 C 
HETATM    8  C16 UNL     1       5.304  55.025  -5.559  1.00  0.00     0.035 C 
HETATM    9  C17 UNL     1       5.567  53.614  -6.068  1.00  0.00    -0.073 C 
HETATM   10  C18 UNL     1       5.210  52.531  -5.325  1.00  0.00    -0.085 C 
HETATM   11  C19 UNL     1       5.225  51.094  -5.777  1.00  0.00     0.043 C 
HETATM   12  C20 UNL     1       4.715  52.647  -3.896  1.00  0.00     0.043 C 
HETATM   13  C21 UNL     1       6.238  53.683  -7.450  1.00  0.00     0.023 C 
HETATM   14  C25 UNL     1       5.205  54.215  -8.546  1.00  0.00    -0.032 C 
HETATM   15  C26 UNL     1       6.058  54.768  -9.728  1.00  0.00     0.016 C 
HETATM   16  C27 UNL     1       4.332  53.053  -9.104  1.00  0.00     0.011 C 
HETATM   17  C28 UNL     1       2.985  53.386  -9.785  1.00  0.00     0.011 C 
HETATM   18  C29 UNL     1       2.324  54.722  -9.395  1.00  0.00    -0.032 C 
HETATM   19  C30 UNL     1       2.648  55.771 -10.508  1.00  0.00     0.016 C 
ENDROOT
BRANCH   1  20
HETATM   20  C7  UNL     1      -0.170  54.719 -10.471  1.00  0.00    -0.014 C 
HETATM   21  C8  UNL     1      -1.356  55.674 -10.242  1.00  0.00     0.010 C 
BRANCH  20  22
HETATM   22  C6  UNL     1      -0.689  53.300 -10.804  1.00  0.00     0.008 C 
BRANCH  22  23
HETATM   23  C5  UNL     1      -1.285  52.506  -9.631  1.00  0.00     0.028 C 
BRANCH  23  24
HETATM   24  C4  UNL     1      -2.426  51.619 -10.052  1.00  0.00    -0.025 C 
HETATM   25  C2  UNL     1      -3.661  51.978 -10.452  1.00  0.00    -0.091 C 
HETATM   26  C1  UNL     1      -4.177  53.387 -10.549  1.00  0.00     0.042 C 
HETATM   27  C3  UNL     1      -4.668  50.929 -10.852  1.00  0.00     0.042 C 
ENDBRANCH  23  24
ENDBRANCH  22  23
ENDBRANCH  20  22
ENDBRANCH   1  20
BRANCH  13  28
HETATM   28  C22 UNL     1       7.115  52.480  -7.898  1.00  0.00     0.012 C 
BRANCH  28  29
HETATM   29  C23 UNL     1       6.840  51.957  -9.322  1.00  0.00     0.027 C 
BRANCH  29  30
HETATM   30  C24 UNL     1       7.117  50.465  -9.497  1.00  0.00     0.164 C 
BRANCH  30  31
HETATM   31  O1  UNL     1       7.612  50.187 -10.797  1.00  0.00    -0.401 OA
HETATM   32  H42 UNL     1       7.836  49.241 -10.820  1.00  0.00     0.209 HD
ENDBRANCH  30  31
ENDBRANCH  29  30
ENDBRANCH  28  29
ENDBRANCH  13  28
TORSDOF 8
ENDMDL
MODEL 4
REMARK minimizedAffinity -6.450243
REMARK CNNscore 0.411236703
REMARK CNNaffinity 6.41755247
REMARK  8 active torsions:
REMARK  status: ('A' for Active; 'I' for Inactive)
REMARK    1  A    between atoms: C4_4  and  C5_5 
REMARK    2  A    between atoms: C5_5  and  C6_6 
REMARK    3  A    between atoms: C6_6  and  C7_7 
REMARK    4  A    between atoms: C7_7  and  C9_9 
REMARK    5  A    between atoms: C21_21  and  C22_22 
REMARK    6  A    between atoms: C22_22  and  C23_23 
REMARK    7  A    between atoms: C23_23  and  C24_24 
REMARK    8  A    between atoms: C24_24  and  O1_25 
ROOT
HETATM    1  C9  UNL     1       1.655  54.727 -10.028  1.00  0.00    -0.002 C 
HETATM    2  C10 UNL     1       2.313  55.967 -10.717  1.00  0.00     0.006 C 
HETATM    3  C11 UNL     1       3.844  55.826 -10.572  1.00  0.00     0.011 C 
HETATM    4  C12 UNL     1       4.032  54.722  -9.512  1.00  0.00    -0.032 C 
HETATM    5  C13 UNL     1       3.825  55.443  -8.145  1.00  0.00     0.016 C 
HETATM    6  C14 UNL     1       5.397  53.961  -9.571  1.00  0.00     0.003 C 
HETATM    7  C15 UNL     1       6.661  54.830  -9.388  1.00  0.00     0.010 C 
HETATM    8  C16 UNL     1       7.097  55.125  -7.949  1.00  0.00     0.035 C 
HETATM    9  C17 UNL     1       6.584  54.110  -6.938  1.00  0.00    -0.073 C 
HETATM   10  C18 UNL     1       6.219  54.502  -5.686  1.00  0.00    -0.085 C 
HETATM   11  C19 UNL     1       5.516  53.657  -4.656  1.00  0.00     0.043 C 
HETATM   12  C20 UNL     1       6.471  55.902  -5.162  1.00  0.00     0.043 C 
HETATM   13  C21 UNL     1       6.564  52.711  -7.578  1.00  0.00     0.023 C 
HETATM   14  C25 UNL     1       5.429  52.627  -8.698  1.00  0.00    -0.032 C 
HETATM   15  C26 UNL     1       5.821  51.446  -9.638  1.00  0.00     0.016 C 
HETATM   16  C27 UNL     1       4.046  52.283  -8.070  1.00  0.00     0.011 C 
HETATM   17  C28 UNL     1       2.759  52.618  -8.858  1.00  0.00     0.011 C 
HETATM   18  C29 UNL     1       2.866  53.737  -9.913  1.00  0.00    -0.032 C 
HETATM   19  C30 UNL     1       3.031  53.070 -11.317  1.00  0.00     0.016 C 
ENDROOT
BRANCH   1  20
HETATM   20  C7  UNL     1       0.340  54.287 -10.746  1.00  0.00    -0.014 C 
HETATM   21  C8  UNL     1      -0.816  55.221 -10.341  1.00  0.00     0.010 C 
BRANCH  20  22
HETATM   22  C6  UNL     1      -0.031  52.818 -10.431  1.00  0.00     0.008 C 
BRANCH  22  23
HETATM   23  C5  UNL     1      -0.907  52.105 -11.473  1.00  0.00     0.028 C 
BRANCH  23  24
HETATM   24  C4  UNL     1      -2.068  51.375 -10.852  1.00  0.00    -0.025 C 
HETATM   25  C2  UNL     1      -3.353  51.769 -10.764  1.00  0.00    -0.091 C 
HETATM   26  C1  UNL     1      -3.908  53.070 -11.273  1.00  0.00     0.042 C 
HETATM   27  C3  UNL     1      -4.379  50.878 -10.110  1.00  0.00     0.042 C 
ENDBRANCH  23  24
ENDBRANCH  22  23
ENDBRANCH  20  22
ENDBRANCH   1  20
BRANCH  13  28
HETATM   28  C22 UNL     1       6.659  51.476  -6.638  1.00  0.00     0.012 C 
BRANCH  28  29
HETATM   29  C23 UNL     1       8.066  50.862  -6.497  1.00  0.00     0.027 C 
BRANCH  29  30
HETATM   30  C24 UNL     1       8.457  49.936  -7.646  1.00  0.00     0.164 C 
BRANCH  30  31
HETATM   31  O1  UNL     1       9.862  49.919  -7.834  1.00  0.00    -0.401 OA
HETATM   32  H42 UNL     1      10.049  49.261  -8.524  1.00  0.00     0.209 HD
ENDBRANCH  30  31
ENDBRANCH  29  30
ENDBRANCH  28  29
ENDBRANCH  13  28
TORSDOF 8
ENDMDL
MODEL 5
REMARK minimizedAffinity -6.51732159
REMARK CNNscore 0.399942577
REMARK CNNaffinity 5.92087317
REMARK  8 active torsions:
REMARK  status: ('A' for Active; 'I' for Inactive)
REMARK    1  A    between atoms: C4_4  and  C5_5 
REMARK    2  A    between atoms: C5_5  and  C6_6 
REMARK    3  A    between atoms: C6_6  and  C7_7 
REMARK    4  A    between atoms: C7_7  and  C9_9 
REMARK    5  A    between atoms: C21_21  and  C22_22 
REMARK    6  A    between atoms: C22_22  and  C23_23 
REMARK    7  A    between atoms: C23_23  and  C24_24 
REMARK    8  A    between atoms: C24_24  and  O1_25 
ROOT
HETATM    1  C9  UNL     1      -6.855  47.065 -29.427  1.00  0.00    -0.002 C 
HETATM    2  C10 UNL     1      -6.678  46.204 -30.721  1.00  0.00     0.006 C 
HETATM    3  C11 UNL     1      -8.065  45.643 -31.103  1.00  0.00     0.011 C 
HETATM    4  C12 UNL     1      -8.936  45.881 -29.854  1.00  0.00    -0.032 C 
HETATM    5  C13 UNL     1      -8.572  44.714 -28.886  1.00  0.00     0.016 C 
HETATM    6  C14 UNL     1     -10.476  45.965 -30.115  1.00  0.00     0.003 C 
HETATM    7  C15 UNL     1     -11.121  44.712 -30.748  1.00  0.00     0.010 C 
HETATM    8  C16 UNL     1     -11.530  43.586 -29.793  1.00  0.00     0.035 C 
HETATM    9  C17 UNL     1     -11.756  44.053 -28.362  1.00  0.00    -0.073 C 
HETATM   10  C18 UNL     1     -11.412  43.259 -27.312  1.00  0.00    -0.085 C 
HETATM   11  C19 UNL     1     -11.392  43.659 -25.859  1.00  0.00     0.043 C 
HETATM   12  C20 UNL     1     -10.973  41.818 -27.484  1.00  0.00     0.043 C 
HETATM   13  C21 UNL     1     -12.375  45.461 -28.373  1.00  0.00     0.023 C 
HETATM   14  C25 UNL     1     -11.309  46.536 -28.881  1.00  0.00    -0.032 C 
HETATM   15  C26 UNL     1     -12.125  47.768 -29.379  1.00  0.00     0.016 C 
HETATM   16  C27 UNL     1     -10.401  47.020 -27.712  1.00  0.00     0.011 C 
HETATM   17  C28 UNL     1      -9.034  47.662 -28.039  1.00  0.00     0.011 C 
HETATM   18  C29 UNL     1      -8.406  47.296 -29.398  1.00  0.00    -0.032 C 
HETATM   19  C30 UNL     1      -8.701  48.457 -30.403  1.00  0.00     0.016 C 
ENDROOT
BRANCH   1  20
HETATM   20  C7  UNL     1      -5.873  48.279 -29.392  1.00  0.00    -0.014 C 
HETATM   21  C8  UNL     1      -5.254  48.493 -30.786  1.00  0.00     0.010 C 
BRANCH  20  22
HETATM   22  C6  UNL     1      -4.756  48.093 -28.338  1.00  0.00     0.008 C 
BRANCH  22  23
HETATM   23  C5  UNL     1      -5.210  48.071 -26.870  1.00  0.00     0.028 C 
BRANCH  23  24
HETATM   24  C4  UNL     1      -4.102  48.430 -25.916  1.00  0.00    -0.025 C 
HETATM   25  C2  UNL     1      -4.146  48.504 -24.572  1.00  0.00    -0.091 C 
HETATM   26  C1  UNL     1      -5.358  48.248 -23.719  1.00  0.00     0.042 C 
HETATM   27  C3  UNL     1      -2.912  48.869 -23.787  1.00  0.00     0.042 C 
ENDBRANCH  23  24
ENDBRANCH  22  23
ENDBRANCH  20  22
ENDBRANCH   1  20
BRANCH  13  28
HETATM   28  C22 UNL     1     -13.220  45.897 -27.143  1.00  0.00     0.012 C 
BRANCH  28  29
HETATM   29  C23 UNL     1     -12.520  46.870 -26.174  1.00  0.00     0.027 C 
BRANCH  29  30
HETATM   30  C24 UNL     1     -13.036  46.793 -24.738  1.00  0.00     0.164 C 
BRANCH  30  31
HETATM   31  O1  UNL     1     -12.003  47.074 -23.808  1.00  0.00    -0.401 OA
HETATM   32  H42 UNL     1     -12.409  47.082 -22.925  1.00  0.00     0.209 HD
ENDBRANCH  30  31
ENDBRANCH  29  30
ENDBRANCH  28  29
ENDBRANCH  13  28
TORSDOF 8
ENDMDL
MODEL 6
REMARK minimizedAffinity -6.71765041
REMARK CNNscore 0.397154391
REMARK CNNaffinity 6.94485474
REMARK  8 active torsions:
REMARK  status: ('A' for Active; 'I' for Inactive)
REMARK    1  A    between atoms: C4_4  and  C5_5 
REMARK    2  A    between atoms: C5_5  and  C6_6 
REMARK    3  A    between atoms: C6_6  and  C7_7 
REMARK    4  A    between atoms: C7_7  and  C9_9 
REMARK    5  A    between atoms: C21_21  and  C22_22 
REMARK    6  A    between atoms: C22_22  and  C23_23 
REMARK    7  A    between atoms: C23_23  and  C24_24 
REMARK    8  A    between atoms: C24_24  and  O1_25 
ROOT
HETATM    1  C9  UNL     1       1.378  50.731 -14.335  1.00  0.00    -0.002 C 
HETATM    2  C10 UNL     1       2.271  49.563 -13.799  1.00  0.00     0.006 C 
HETATM    3  C11 UNL     1       2.360  49.710 -12.264  1.00  0.00     0.011 C 
HETATM    4  C12 UNL     1       1.834  51.130 -11.979  1.00  0.00    -0.032 C 
HETATM    5  C13 UNL     1       3.040  52.070 -12.283  1.00  0.00     0.016 C 
HETATM    6  C14 UNL     1       1.261  51.359 -10.542  1.00  0.00     0.003 C 
HETATM    7  C15 UNL     1       2.250  51.119  -9.378  1.00  0.00     0.010 C 
HETATM    8  C16 UNL     1       3.167  52.286  -8.999  1.00  0.00     0.035 C 
HETATM    9  C17 UNL     1       2.630  53.646  -9.419  1.00  0.00    -0.073 C 
HETATM   10  C18 UNL     1       3.475  54.625  -9.844  1.00  0.00    -0.085 C 
HETATM   11  C19 UNL     1       3.080  55.936 -10.472  1.00  0.00     0.043 C 
HETATM   12  C20 UNL     1       4.983  54.502  -9.747  1.00  0.00     0.043 C 
HETATM   13  C21 UNL     1       1.098  53.658  -9.284  1.00  0.00     0.023 C 
HETATM   14  C25 UNL     1       0.432  52.712 -10.385  1.00  0.00    -0.032 C 
HETATM   15  C26 UNL     1      -0.989  52.348  -9.856  1.00  0.00     0.016 C 
HETATM   16  C27 UNL     1       0.249  53.466 -11.735  1.00  0.00     0.011 C 
HETATM   17  C28 UNL     1       0.087  52.649 -13.036  1.00  0.00     0.011 C 
HETATM   18  C29 UNL     1       0.659  51.218 -13.029  1.00  0.00    -0.032 C 
HETATM   19  C30 UNL     1      -0.519  50.222 -12.773  1.00  0.00     0.016 C 
ENDROOT
BRANCH   1  20
HETATM   20  C7  UNL     1       0.545  50.305 -15.585  1.00  0.00    -0.014 C 
HETATM   21  C8  UNL     1       0.572  48.773 -15.736  1.00  0.00     0.010 C 
BRANCH  20  22
HETATM   22  C6  UNL     1       1.060  50.975 -16.882  1.00  0.00     0.008 C 
BRANCH  22  23
HETATM   23  C5  UNL     1      -0.017  51.528 -17.828  1.00  0.00     0.028 C 
BRANCH  23  24
HETATM   24  C4  UNL     1       0.498  52.637 -18.707  1.00  0.00    -0.025 C 
HETATM   25  C2  UNL     1       0.255  52.850 -20.014  1.00  0.00    -0.091 C 
HETATM   26  C1  UNL     1      -0.599  51.985 -20.900  1.00  0.00     0.042 C 
HETATM   27  C3  UNL     1       0.859  54.039 -20.718  1.00  0.00     0.042 C 
ENDBRANCH  23  24
ENDBRANCH  22  23
ENDBRANCH  20  22
ENDBRANCH   1  20
BRANCH  13  28
HETATM   28  C22 UNL     1       0.392  55.028  -9.075  1.00  0.00     0.012 C 
BRANCH  28  29
HETATM   29  C23 UNL     1       0.074  55.389  -7.611  1.00  0.00     0.027 C 
BRANCH  29  30
HETATM   30  C24 UNL     1       0.148  56.885  -7.313  1.00  0.00     0.164 C 
BRANCH  30  31
HETATM   31  O1  UNL     1      -0.559  57.206  -6.126  1.00  0.00    -0.401 OA
HETATM   32  H42 UNL     1      -0.413  58.151  -5.954  1.00  0.00     0.209 HD
ENDBRANCH  30  31
ENDBRANCH  29  30
ENDBRANCH  28  29
ENDBRANCH  13  28
TORSDOF 8
ENDMDL
MODEL 7
REMARK minimizedAffinity -6.21227694
REMARK CNNscore 0.374228597
REMARK CNNaffinity 6.28920794
REMARK  8 active torsions:
REMARK  status: ('A' for Active; 'I' for Inactive)
REMARK    1  A    between atoms: C4_4  and  C5_5 
REMARK    2  A    between atoms: C5_5  and  C6_6 
REMARK    3  A    between atoms: C6_6  and  C7_7 
REMARK    4  A    between atoms: C7_7  and  C9_9 
REMARK    5  A    between atoms: C21_21  and  C22_22 
REMARK    6  A    between atoms: C22_22  and  C23_23 
REMARK    7  A    between atoms: C23_23  and  C24_24 
REMARK    8  A    between atoms: C24_24  and  O1_25 
ROOT
HETATM    1  C9  UNL     1       2.339  55.190  -9.931  1.00  0.00    -0.002 C 
HETATM    2  C10 UNL     1       1.619  55.788  -8.678  1.00  0.00     0.006 C 
HETATM    3  C11 UNL     1       0.576  54.754  -8.201  1.00  0.00     0.011 C 
HETATM    4  C12 UNL     1       0.455  53.757  -9.369  1.00  0.00    -0.032 C 
HETATM    5  C13 UNL     1      -0.493  54.455 -10.392  1.00  0.00     0.016 C 
HETATM    6  C14 UNL     1      -0.051  52.328  -8.984  1.00  0.00     0.003 C 
HETATM    7  C15 UNL     1      -1.451  52.263  -8.332  1.00  0.00     0.010 C 
HETATM    8  C16 UNL     1      -2.655  52.234  -9.279  1.00  0.00     0.035 C 
HETATM    9  C17 UNL     1      -2.319  51.728 -10.675  1.00  0.00    -0.073 C 
HETATM   10  C18 UNL     1      -2.931  52.259 -11.770  1.00  0.00    -0.085 C 
HETATM   11  C19 UNL     1      -2.563  52.004 -13.209  1.00  0.00     0.043 C 
HETATM   12  C20 UNL     1      -4.094  53.225 -11.669  1.00  0.00     0.043 C 
HETATM   13  C21 UNL     1      -1.253  50.624 -10.580  1.00  0.00     0.023 C 
HETATM   14  C25 UNL     1       0.151  51.241 -10.132  1.00  0.00    -0.032 C 
HETATM   15  C26 UNL     1       0.983  50.063  -9.539  1.00  0.00     0.016 C 
HETATM   16  C27 UNL     1       0.935  51.796 -11.357  1.00  0.00     0.011 C 
HETATM   17  C28 UNL     1       2.052  52.839 -11.124  1.00  0.00     0.011 C 
HETATM   18  C29 UNL     1       1.962  53.671  -9.830  1.00  0.00    -0.032 C 
HETATM   19  C30 UNL     1       2.930  53.041  -8.776  1.00  0.00     0.016 C 
ENDROOT
BRANCH   1  20
HETATM   20  C7  UNL     1       3.834  55.630 -10.014  1.00  0.00    -0.014 C 
HETATM   21  C8  UNL     1       4.100  56.335 -11.357  1.00  0.00     0.010 C 
BRANCH  20  22
HETATM   22  C6  UNL     1       4.802  54.435  -9.842  1.00  0.00     0.008 C 
BRANCH  22  23
HETATM   23  C5  UNL     1       6.281  54.791  -9.618  1.00  0.00     0.028 C 
BRANCH  23  24
HETATM   24  C4  UNL     1       6.496  55.618  -8.379  1.00  0.00    -0.025 C 
HETATM   25  C2  UNL     1       6.662  55.196  -7.111  1.00  0.00    -0.091 C 
HETATM   26  C1  UNL     1       6.653  53.764  -6.654  1.00  0.00     0.042 C 
HETATM   27  C3  UNL     1       6.883  56.192  -6.000  1.00  0.00     0.042 C 
ENDBRANCH  23  24
ENDBRANCH  22  23
ENDBRANCH  20  22
ENDBRANCH   1  20
BRANCH  13  28
HETATM   28  C22 UNL     1      -1.180  49.577 -11.727  1.00  0.00     0.012 C 
BRANCH  28  29
HETATM   29  C23 UNL     1      -2.283  48.501 -11.709  1.00  0.00     0.027 C 
BRANCH  29  30
HETATM   30  C24 UNL     1      -3.172  48.505 -12.951  1.00  0.00     0.164 C 
BRANCH  30  31
HETATM   31  O1  UNL     1      -4.545  48.490 -12.597  1.00  0.00    -0.401 OA
HETATM   32  H42 UNL     1      -5.052  48.567 -13.422  1.00  0.00     0.209 HD
ENDBRANCH  30  31
ENDBRANCH  29  30
ENDBRANCH  28  29
ENDBRANCH  13  28
TORSDOF 8
ENDMDL
MODEL 8
REMARK minimizedAffinity -6.27315712
REMARK CNNscore 0.302722454
REMARK CNNaffinity 5.58275414
REMARK  8 active torsions:
REMARK  status: ('A' for Active; 'I' for Inactive)
REMARK    1  A    between atoms: C4_4  and  C5_5 
REMARK    2  A    between atoms: C5_5  and  C6_6 
REMARK    3  A    between atoms: C6_6  and  C7_7 
REMARK    4  A    between atoms: C7_7  and  C9_9 
REMARK    5  A    between atoms: C21_21  and  C22_22 
REMARK    6  A    between atoms: C22_22  and  C23_23 
REMARK    7  A    between atoms: C23_23  and  C24_24 
REMARK    8  A    between atoms: C24_24  and  O1_25 
ROOT
HETATM    1  C9  UNL     1      -8.061  46.185 -29.383  1.00  0.00    -0.002 C 
HETATM    2  C10 UNL     1      -8.527  45.405 -30.656  1.00  0.00     0.006 C 
HETATM    3  C11 UNL     1     -10.059  45.237 -30.567  1.00  0.00     0.011 C 
HETATM    4  C12 UNL     1     -10.404  45.592 -29.108  1.00  0.00    -0.032 C 
HETATM    5  C13 UNL     1     -10.072  44.303 -28.295  1.00  0.00     0.016 C 
HETATM    6  C14 UNL     1     -11.871  46.076 -28.862  1.00  0.00     0.003 C 
HETATM    7  C15 UNL     1     -12.983  45.073 -29.243  1.00  0.00     0.010 C 
HETATM    8  C16 UNL     1     -13.351  44.017 -28.195  1.00  0.00     0.035 C 
HETATM    9  C17 UNL     1     -12.990  44.420 -26.772  1.00  0.00    -0.073 C 
HETATM   10  C18 UNL     1     -12.554  43.490 -25.879  1.00  0.00    -0.085 C 
HETATM   11  C19 UNL     1     -11.978  43.764 -24.514  1.00  0.00     0.043 C 
HETATM   12  C20 UNL     1     -12.580  42.002 -26.168  1.00  0.00     0.043 C 
HETATM   13  C21 UNL     1     -13.193  45.934 -26.599  1.00  0.00     0.023 C 
HETATM   14  C25 UNL     1     -12.099  46.744 -27.433  1.00  0.00    -0.032 C 
HETATM   15  C26 UNL     1     -12.680  48.173 -27.656  1.00  0.00     0.016 C 
HETATM   16  C27 UNL     1     -10.778  46.899 -26.622  1.00  0.00     0.011 C 
HETATM   17  C28 UNL     1      -9.465  47.203 -27.377  1.00  0.00     0.011 C 
HETATM   18  C29 UNL     1      -9.409  46.792 -28.861  1.00  0.00    -0.032 C 
HETATM   19  C30 UNL     1      -9.692  48.061 -29.730  1.00  0.00     0.016 C 
ENDROOT
BRANCH   1  20
HETATM   20  C7  UNL     1      -6.838  47.110 -29.678  1.00  0.00    -0.014 C 
HETATM   21  C8  UNL     1      -5.938  46.465 -30.747  1.00  0.00     0.010 C 
BRANCH  20  22
HETATM   22  C6  UNL     1      -6.015  47.410 -28.402  1.00  0.00     0.008 C 
BRANCH  22  23
HETATM   23  C5  UNL     1      -4.774  48.296 -28.592  1.00  0.00     0.028 C 
BRANCH  23  24
HETATM   24  C4  UNL     1      -3.962  48.433 -27.332  1.00  0.00    -0.025 C 
HETATM   25  C2  UNL     1      -3.186  49.464 -26.945  1.00  0.00    -0.091 C 
HETATM   26  C1  UNL     1      -2.952  50.727 -27.726  1.00  0.00     0.042 C 
HETATM   27  C3  UNL     1      -2.459  49.416 -25.625  1.00  0.00     0.042 C 
ENDBRANCH  23  24
ENDBRANCH  22  23
ENDBRANCH  20  22
ENDBRANCH   1  20
BRANCH  13  28
HETATM   28  C22 UNL     1     -13.468  46.476 -25.167  1.00  0.00     0.012 C 
BRANCH  28  29
HETATM   29  C23 UNL     1     -14.889  46.221 -24.627  1.00  0.00     0.027 C 
BRANCH  29  30
HETATM   30  C24 UNL     1     -15.532  47.442 -23.973  1.00  0.00     0.164 C 
BRANCH  30  31
HETATM   31  O1  UNL     1     -14.968  47.695 -22.697  1.00  0.00    -0.401 OA
HETATM   32  H42 UNL     1     -15.364  48.520 -22.369  1.00  0.00     0.209 HD
ENDBRANCH  30  31
ENDBRANCH  29  30
ENDBRANCH  28  29
ENDBRANCH  13  28
TORSDOF 8
ENDMDL
MODEL 9
REMARK minimizedAffinity -6.68119907
REMARK CNNscore 0.27481705
REMARK CNNaffinity 6.17604399
REMARK  8 active torsions:
REMARK  status: ('A' for Active; 'I' for Inactive)
REMARK    1  A    between atoms: C4_4  and  C5_5 
REMARK    2  A    between atoms: C5_5  and  C6_6 
REMARK    3  A    between atoms: C6_6  and  C7_7 
REMARK    4  A    between atoms: C7_7  and  C9_9 
REMARK    5  A    between atoms: C21_21  and  C22_22 
REMARK    6  A    between atoms: C22_22  and  C23_23 
REMARK    7  A    between atoms: C23_23  and  C24_24 
REMARK    8  A    between atoms: C24_24  and  O1_25 
ROOT
HETATM    1  C9  UNL     1      -1.933  52.988 -10.088  1.00  0.00    -0.002 C 
HETATM    2  C10 UNL     1      -2.192  54.512 -10.321  1.00  0.00     0.006 C 
HETATM    3  C11 UNL     1      -0.819  55.200 -10.487  1.00  0.00     0.011 C 
HETATM    4  C12 UNL     1       0.200  54.153  -9.996  1.00  0.00    -0.032 C 
HETATM    5  C13 UNL     1       0.170  54.266  -8.441  1.00  0.00     0.016 C 
HETATM    6  C14 UNL     1       1.649  54.307 -10.565  1.00  0.00     0.003 C 
HETATM    7  C15 UNL     1       2.355  55.646 -10.254  1.00  0.00     0.010 C 
HETATM    8  C16 UNL     1       3.073  55.752  -8.904  1.00  0.00     0.035 C 
HETATM    9  C17 UNL     1       3.459  54.405  -8.312  1.00  0.00    -0.073 C 
HETATM   10  C18 UNL     1       3.409  54.199  -6.967  1.00  0.00    -0.085 C 
HETATM   11  C19 UNL     1       3.567  52.878  -6.260  1.00  0.00     0.043 C 
HETATM   12  C20 UNL     1       3.159  55.319  -5.977  1.00  0.00     0.043 C 
HETATM   13  C21 UNL     1       3.859  53.442  -9.442  1.00  0.00     0.023 C 
HETATM   14  C25 UNL     1       2.581  53.039 -10.311  1.00  0.00    -0.032 C 
HETATM   15  C26 UNL     1       3.119  52.552 -11.691  1.00  0.00     0.016 C 
HETATM   16  C27 UNL     1       1.815  51.849  -9.662  1.00  0.00     0.011 C 
HETATM   17  C28 UNL     1       0.335  51.613 -10.040  1.00  0.00     0.011 C 
HETATM   18  C29 UNL     1      -0.447  52.832 -10.566  1.00  0.00    -0.032 C 
HETATM   19  C30 UNL     1      -0.489  52.748 -12.127  1.00  0.00     0.016 C 
ENDROOT
BRANCH   1  20
HETATM   20  C7  UNL     1      -3.059  52.100 -10.705  1.00  0.00    -0.014 C 
HETATM   21  C8  UNL     1      -4.182  52.993 -11.266  1.00  0.00     0.010 C 
BRANCH  20  22
HETATM   22  C6  UNL     1      -3.641  51.101  -9.676  1.00  0.00     0.008 C 
BRANCH  22  23
HETATM   23  C5  UNL     1      -4.367  49.878 -10.260  1.00  0.00     0.028 C 
BRANCH  23  24
HETATM   24  C4  UNL     1      -5.865  50.007 -10.190  1.00  0.00    -0.025 C 
HETATM   25  C2  UNL     1      -6.800  49.191 -10.714  1.00  0.00    -0.091 C 
HETATM   26  C1  UNL     1      -6.530  47.950 -11.517  1.00  0.00     0.042 C 
HETATM   27  C3  UNL     1      -8.266  49.487 -10.518  1.00  0.00     0.042 C 
ENDBRANCH  23  24
ENDBRANCH  22  23
ENDBRANCH  20  22
ENDBRANCH   1  20
BRANCH  13  28
HETATM   28  C22 UNL     1       4.821  52.269  -9.098  1.00  0.00     0.012 C 
BRANCH  28  29
HETATM   29  C23 UNL     1       6.303  52.511  -9.442  1.00  0.00     0.027 C 
BRANCH  29  30
HETATM   30  C24 UNL     1       6.949  53.641  -8.644  1.00  0.00     0.164 C 
BRANCH  30  31
HETATM   31  O1  UNL     1       7.144  54.790  -9.451  1.00  0.00    -0.401 OA
HETATM   32  H42 UNL     1       7.487  55.491  -8.872  1.00  0.00     0.209 HD
ENDBRANCH  30  31
ENDBRANCH  29  30
ENDBRANCH  28  29
ENDBRANCH  13  28
TORSDOF 8
ENDMDL
