MODEL 1
REMARK minimizedAffinity -6.89378643
REMARK CNNscore 0.782181144
REMARK CNNaffinity 7.14340353
REMARK  5 active torsions:
REMARK  status: ('A' for Active; 'I' for Inactive)
REMARK    1  A    between atoms: C2_2  and  C3_3 
REMARK    2  A    between atoms: C4_5  and  C5_6 
REMARK    3  A    between atoms: C5_6  and  C6_7 
REMARK    4  A    between atoms: C6_7  and  C7_8 
REMARK    5  A    between atoms: C7_8  and  C9_10 
ROOT
HETATM    1  C9  UNL     1      -2.424  52.633 -11.052  1.00  0.00    -0.002 C 
HETATM    2  C10 UNL     1      -3.110  52.982  -9.700  1.00  0.00     0.007 C 
HETATM    3  C11 UNL     1      -2.066  53.697  -8.822  1.00  0.00     0.015 C 
HETATM    4  C12 UNL     1      -0.914  54.056  -9.780  1.00  0.00    -0.005 C 
HETATM    5  C13 UNL     1      -1.307  55.388 -10.490  1.00  0.00     0.021 C 
HETATM    6  C14 UNL     1       0.485  54.300  -9.233  1.00  0.00    -0.000 C 
HETATM    7  C15 UNL     1       1.592  54.032  -9.972  1.00  0.00    -0.060 C 
HETATM    8  C16 UNL     1       1.456  53.424 -11.378  1.00  0.00     0.036 C 
HETATM    9  C17 UNL     1       0.040  53.054 -11.871  1.00  0.00     0.015 C 
HETATM   10  C18 UNL     1      -0.912  52.775 -10.702  1.00  0.00    -0.028 C 
HETATM   11  C19 UNL     1      -0.432  51.483  -9.965  1.00  0.00     0.016 C 
HETATM   12  C20 UNL     1       3.042  54.279  -9.468  1.00  0.00    -0.014 C 
HETATM   13  C21 UNL     1       3.634  52.905  -9.081  1.00  0.00     0.020 C 
HETATM   14  C22 UNL     1       3.897  54.930 -10.584  1.00  0.00     0.021 C 
HETATM   15  C23 UNL     1       5.254  55.479 -10.156  1.00  0.00     0.080 C 
HETATM   16  C24 UNL     1       5.568  55.379  -8.684  1.00  0.00     0.135 C 
HETATM   17  O2  UNL     1       6.737  55.206  -8.328  1.00  0.00    -0.297 OA
HETATM   18  C25 UNL     1       4.446  55.605  -7.665  1.00  0.00     0.018 C 
HETATM   19  C26 UNL     1       4.761  54.762  -6.408  1.00  0.00     0.023 C 
HETATM   20  C27 UNL     1       4.515  57.090  -7.261  1.00  0.00     0.023 C 
HETATM   21  C28 UNL     1       3.039  55.297  -8.282  1.00  0.00     0.020 C 
HETATM   22  C29 UNL     1       1.987  54.916  -7.239  1.00  0.00     0.090 C 
HETATM   23  C30 UNL     1       0.621  54.899  -7.869  1.00  0.00     0.157 C 
HETATM   24  O3  UNL     1      -0.347  55.352  -7.267  1.00  0.00    -0.293 OA
ENDROOT
BRANCH   1  25
HETATM   25  C7  UNL     1      -2.962  51.305 -11.652  1.00  0.00    -0.014 C 
HETATM   26  C8  UNL     1      -2.866  51.262 -13.181  1.00  0.00     0.010 C 
BRANCH  25  27
HETATM   27  C6  UNL     1      -4.418  50.991 -11.213  1.00  0.00     0.008 C 
BRANCH  27  28
HETATM   28  C5  UNL     1      -4.586  49.724 -10.365  1.00  0.00     0.028 C 
BRANCH  28  29
HETATM   29  C4  UNL     1      -5.959  49.667  -9.756  1.00  0.00    -0.017 C 
HETATM   30  C2  UNL     1      -7.023  48.971 -10.201  1.00  0.00    -0.028 C 
HETATM   31  C1  UNL     1      -7.086  48.064 -11.389  1.00  0.00     0.051 C 
BRANCH  30  32
HETATM   32  C3  UNL     1      -8.297  49.081  -9.425  1.00  0.00     0.265 C 
HETATM   33  O1  UNL     1      -8.520  49.948  -8.590  1.00  0.00    -0.302 OA
ENDBRANCH  30  32
ENDBRANCH  28  29
ENDBRANCH  27  28
ENDBRANCH  25  27
ENDBRANCH   1  25
TORSDOF 5
ENDMDL
MODEL 2
REMARK minimizedAffinity -7.83890772
REMARK CNNscore 0.66968447
REMARK CNNaffinity 6.88671255
REMARK  5 active torsions:
REMARK  status: ('A' for Active; 'I' for Inactive)
REMARK    1  A    between atoms: C2_2  and  C3_3 
REMARK    2  A    between atoms: C4_5  and  C5_6 
REMARK    3  A    between atoms: C5_6  and  C6_7 
REMARK    4  A    between atoms: C6_7  and  C7_8 
REMARK    5  A    between atoms: C7_8  and  C9_10 
ROOT
HETATM    1  C9  UNL     1       4.870  55.816  -8.485  1.00  0.00    -0.002 C 
HETATM    2  C10 UNL     1       5.680  54.782  -9.317  1.00  0.00     0.007 C 
HETATM    3  C11 UNL     1       4.672  53.961 -10.144  1.00  0.00     0.015 C 
HETATM    4  C12 UNL     1       3.347  54.741 -10.049  1.00  0.00    -0.005 C 
HETATM    5  C13 UNL     1       3.398  55.866 -11.128  1.00  0.00     0.021 C 
HETATM    6  C14 UNL     1       2.024  54.028 -10.288  1.00  0.00    -0.000 C 
HETATM    7  C15 UNL     1       0.881  54.430  -9.674  1.00  0.00    -0.060 C 
HETATM    8  C16 UNL     1       0.908  55.600  -8.677  1.00  0.00     0.036 C 
HETATM    9  C17 UNL     1       2.277  56.229  -8.338  1.00  0.00     0.015 C 
HETATM   10  C18 UNL     1       3.425  55.237  -8.552  1.00  0.00    -0.028 C 
HETATM   11  C19 UNL     1       3.286  54.081  -7.509  1.00  0.00     0.016 C 
HETATM   12  C20 UNL     1      -0.498  53.748  -9.896  1.00  0.00    -0.014 C 
HETATM   13  C21 UNL     1      -0.785  52.875  -8.654  1.00  0.00     0.020 C 
HETATM   14  C22 UNL     1      -1.608  54.817 -10.061  1.00  0.00     0.021 C 
HETATM   15  C23 UNL     1      -2.959  54.312 -10.555  1.00  0.00     0.080 C 
HETATM   16  C24 UNL     1      -3.030  52.841 -10.885  1.00  0.00     0.135 C 
HETATM   17  O2  UNL     1      -4.085  52.232 -10.697  1.00  0.00    -0.297 OA
HETATM   18  C25 UNL     1      -1.823  52.167 -11.548  1.00  0.00     0.018 C 
HETATM   19  C26 UNL     1      -1.800  50.685 -11.110  1.00  0.00     0.023 C 
HETATM   20  C27 UNL     1      -2.082  52.202 -13.066  1.00  0.00     0.023 C 
HETATM   21  C28 UNL     1      -0.492  52.929 -11.227  1.00  0.00     0.020 C 
HETATM   22  C29 UNL     1       0.753  52.045 -11.318  1.00  0.00     0.090 C 
HETATM   23  C30 UNL     1       1.993  52.895 -11.263  1.00  0.00     0.157 C 
HETATM   24  O3  UNL     1       2.949  52.647 -11.992  1.00  0.00    -0.293 OA
ENDROOT
BRANCH   1  25
HETATM   25  C7  UNL     1       5.530  56.101  -7.108  1.00  0.00    -0.014 C 
HETATM   26  C8  UNL     1       5.215  57.503  -6.575  1.00  0.00     0.010 C 
BRANCH  25  27
HETATM   27  C6  UNL     1       7.068  55.883  -7.119  1.00  0.00     0.008 C 
BRANCH  27  28
HETATM   28  C5  UNL     1       7.688  55.528  -5.761  1.00  0.00     0.028 C 
BRANCH  28  29
HETATM   29  C4  UNL     1       8.945  56.317  -5.525  1.00  0.00    -0.017 C 
HETATM   30  C2  UNL     1       9.050  57.545  -4.983  1.00  0.00    -0.028 C 
HETATM   31  C1  UNL     1       7.945  58.408  -4.461  1.00  0.00     0.051 C 
BRANCH  30  32
HETATM   32  C3  UNL     1      10.419  58.133  -4.858  1.00  0.00     0.265 C 
HETATM   33  O1  UNL     1      10.719  59.260  -5.233  1.00  0.00    -0.302 OA
ENDBRANCH  30  32
ENDBRANCH  28  29
ENDBRANCH  27  28
ENDBRANCH  25  27
ENDBRANCH   1  25
TORSDOF 5
ENDMDL
MODEL 3
REMARK minimizedAffinity -6.78776932
REMARK CNNscore 0.509492993
REMARK CNNaffinity 6.85383034
REMARK  5 active torsions:
REMARK  status: ('A' for Active; 'I' for Inactive)
REMARK    1  A    between atoms: C2_2  and  C3_3 
REMARK    2  A    between atoms: C4_5  and  C5_6 
REMARK    3  A    between atoms: C5_6  and  C6_7 
REMARK    4  A    between atoms: C6_7  and  C7_8 
REMARK    5  A    between atoms: C7_8  and  C9_10 
ROOT
HETATM    1  C9  UNL     1      -1.217  52.886 -11.154  1.00  0.00    -0.002 C 
HETATM    2  C10 UNL     1      -2.185  52.578  -9.976  1.00  0.00     0.007 C 
HETATM    3  C11 UNL     1      -1.650  53.315  -8.734  1.00  0.00     0.015 C 
HETATM    4  C12 UNL     1      -0.597  54.300  -9.273  1.00  0.00    -0.005 C 
HETATM    5  C13 UNL     1      -1.362  55.568  -9.763  1.00  0.00     0.021 C 
HETATM    6  C14 UNL     1       0.494  54.830  -8.353  1.00  0.00    -0.000 C 
HETATM    7  C15 UNL     1       1.718  55.174  -8.830  1.00  0.00    -0.060 C 
HETATM    8  C16 UNL     1       2.049  54.989 -10.320  1.00  0.00     0.036 C 
HETATM    9  C17 UNL     1       0.984  54.325 -11.220  1.00  0.00     0.015 C 
HETATM   10  C18 UNL     1       0.047  53.418 -10.414  1.00  0.00    -0.028 C 
HETATM   11  C19 UNL     1       0.872  52.208  -9.869  1.00  0.00     0.016 C 
HETATM   12  C20 UNL     1       2.860  55.735  -7.937  1.00  0.00    -0.014 C 
HETATM   13  C21 UNL     1       3.873  54.590  -7.712  1.00  0.00     0.020 C 
HETATM   14  C22 UNL     1       3.556  56.929  -8.640  1.00  0.00     0.021 C 
HETATM   15  C23 UNL     1       4.508  57.752  -7.779  1.00  0.00     0.080 C 
HETATM   16  C24 UNL     1       4.605  57.342  -6.330  1.00  0.00     0.135 C 
HETATM   17  O2  UNL     1       5.678  57.476  -5.736  1.00  0.00    -0.297 OA
HETATM   18  C25 UNL     1       3.339  56.874  -5.602  1.00  0.00     0.018 C 
HETATM   19  C26 UNL     1       3.759  55.861  -4.512  1.00  0.00     0.023 C 
HETATM   20  C27 UNL     1       2.761  58.112  -4.890  1.00  0.00     0.023 C 
HETATM   21  C28 UNL     1       2.278  56.304  -6.603  1.00  0.00     0.020 C 
HETATM   22  C29 UNL     1       1.309  55.309  -5.963  1.00  0.00     0.090 C 
HETATM   23  C30 UNL     1       0.173  55.018  -6.905  1.00  0.00     0.157 C 
HETATM   24  O3  UNL     1      -0.976  54.926  -6.484  1.00  0.00    -0.293 OA
ENDROOT
BRANCH   1  25
HETATM   25  C7  UNL     1      -1.095  51.688 -12.135  1.00  0.00    -0.014 C 
HETATM   26  C8  UNL     1      -1.553  50.362 -11.516  1.00  0.00     0.010 C 
BRANCH  25  27
HETATM   27  C6  UNL     1       0.338  51.523 -12.712  1.00  0.00     0.008 C 
BRANCH  27  28
HETATM   28  C5  UNL     1       0.415  51.372 -14.237  1.00  0.00     0.028 C 
BRANCH  28  29
HETATM   29  C4  UNL     1       1.801  51.674 -14.734  1.00  0.00    -0.017 C 
HETATM   30  C2  UNL     1       2.157  52.078 -15.968  1.00  0.00    -0.028 C 
HETATM   31  C1  UNL     1       1.259  52.352 -17.132  1.00  0.00     0.051 C 
BRANCH  30  32
HETATM   32  C3  UNL     1       3.612  52.308 -16.230  1.00  0.00     0.265 C 
HETATM   33  O1  UNL     1       4.161  53.399 -16.141  1.00  0.00    -0.302 OA
ENDBRANCH  30  32
ENDBRANCH  28  29
ENDBRANCH  27  28
ENDBRANCH  25  27
ENDBRANCH   1  25
TORSDOF 5
ENDMDL
MODEL 4
REMARK minimizedAffinity -8.61788654
REMARK CNNscore 0.434097856
REMARK CNNaffinity 6.97642517
REMARK  5 active torsions:
REMARK  status: ('A' for Active; 'I' for Inactive)
REMARK    1  A    between atoms: C2_2  and  C3_3 
REMARK    2  A    between atoms: C4_5  and  C5_6 
REMARK    3  A    between atoms: C5_6  and  C6_7 
REMARK    4  A    between atoms: C6_7  and  C7_8 
REMARK    5  A    between atoms: C7_8  and  C9_10 
ROOT
HETATM    1  C9  UNL     1      -2.492  50.148 -21.946  1.00  0.00    -0.002 C 
HETATM    2  C10 UNL     1      -2.050  51.603 -22.274  1.00  0.00     0.007 C 
HETATM    3  C11 UNL     1      -1.151  52.084 -21.119  1.00  0.00     0.015 C 
HETATM    4  C12 UNL     1      -0.806  50.812 -20.322  1.00  0.00    -0.005 C 
HETATM    5  C13 UNL     1       0.396  50.129 -21.045  1.00  0.00     0.021 C 
HETATM    6  C14 UNL     1      -0.380  50.917 -18.865  1.00  0.00    -0.000 C 
HETATM    7  C15 UNL     1      -0.635  49.921 -17.978  1.00  0.00    -0.060 C 
HETATM    8  C16 UNL     1      -1.411  48.670 -18.421  1.00  0.00     0.036 C 
HETATM    9  C17 UNL     1      -1.957  48.632 -19.864  1.00  0.00     0.015 C 
HETATM   10  C18 UNL     1      -2.181  50.042 -20.423  1.00  0.00    -0.028 C 
HETATM   11  C19 UNL     1      -3.332  50.722 -19.614  1.00  0.00     0.016 C 
HETATM   12  C20 UNL     1      -0.206  49.971 -16.485  1.00  0.00    -0.014 C 
HETATM   13  C21 UNL     1      -1.469  50.292 -15.654  1.00  0.00     0.020 C 
HETATM   14  C22 UNL     1       0.383  48.606 -16.047  1.00  0.00     0.021 C 
HETATM   15  C23 UNL     1       1.094  48.583 -14.698  1.00  0.00     0.080 C 
HETATM   16  C24 UNL     1       1.193  49.909 -13.985  1.00  0.00     0.135 C 
HETATM   17  O2  UNL     1       1.164  49.933 -12.752  1.00  0.00    -0.297 OA
HETATM   18  C25 UNL     1       1.436  51.181 -14.805  1.00  0.00     0.018 C 
HETATM   19  C26 UNL     1       0.775  52.365 -14.064  1.00  0.00     0.023 C 
HETATM   20  C27 UNL     1       2.959  51.418 -14.801  1.00  0.00     0.023 C 
HETATM   21  C28 UNL     1       0.938  51.016 -16.282  1.00  0.00     0.020 C 
HETATM   22  C29 UNL     1       0.591  52.343 -16.958  1.00  0.00     0.090 C 
HETATM   23  C30 UNL     1       0.383  52.129 -18.433  1.00  0.00     0.157 C 
HETATM   24  O3  UNL     1       0.816  52.939 -19.245  1.00  0.00    -0.293 OA
ENDROOT
BRANCH   1  25
HETATM   25  C7  UNL     1      -3.922  49.843 -22.470  1.00  0.00    -0.014 C 
HETATM   26  C8  UNL     1      -4.451  48.483 -21.999  1.00  0.00     0.010 C 
BRANCH  25  27
HETATM   27  C6  UNL     1      -4.032  49.935 -24.016  1.00  0.00     0.008 C 
BRANCH  27  28
HETATM   28  C5  UNL     1      -3.173  48.929 -24.793  1.00  0.00     0.028 C 
BRANCH  28  29
HETATM   29  C4  UNL     1      -3.922  48.391 -25.980  1.00  0.00    -0.017 C 
HETATM   30  C2  UNL     1      -3.967  48.908 -27.222  1.00  0.00    -0.028 C 
HETATM   31  C1  UNL     1      -3.260  50.125 -27.728  1.00  0.00     0.051 C 
BRANCH  30  32
HETATM   32  C3  UNL     1      -4.796  48.193 -28.242  1.00  0.00     0.265 C 
HETATM   33  O1  UNL     1      -4.522  48.139 -29.434  1.00  0.00    -0.302 OA
ENDBRANCH  30  32
ENDBRANCH  28  29
ENDBRANCH  27  28
ENDBRANCH  25  27
ENDBRANCH   1  25
TORSDOF 5
ENDMDL
MODEL 5
REMARK minimizedAffinity -8.51696301
REMARK CNNscore 0.370330691
REMARK CNNaffinity 6.80170441
REMARK  5 active torsions:
REMARK  status: ('A' for Active; 'I' for Inactive)
REMARK    1  A    between atoms: C2_2  and  C3_3 
REMARK    2  A    between atoms: C4_5  and  C5_6 
REMARK    3  A    between atoms: C5_6  and  C6_7 
REMARK    4  A    between atoms: C6_7  and  C7_8 
REMARK    5  A    between atoms: C7_8  and  C9_10 
ROOT
HETATM    1  C9  UNL     1      -0.714  51.329 -17.111  1.00  0.00    -0.002 C 
HETATM    2  C10 UNL     1       0.816  51.602 -17.163  1.00  0.00     0.007 C 
HETATM    3  C11 UNL     1       1.173  51.954 -18.619  1.00  0.00     0.015 C 
HETATM    4  C12 UNL     1      -0.177  52.216 -19.312  1.00  0.00    -0.005 C 
HETATM    5  C13 UNL     1      -0.577  53.691 -18.997  1.00  0.00     0.021 C 
HETATM    6  C14 UNL     1      -0.296  52.092 -20.824  1.00  0.00    -0.000 C 
HETATM    7  C15 UNL     1      -1.460  51.721 -21.416  1.00  0.00    -0.060 C 
HETATM    8  C16 UNL     1      -2.687  51.370 -20.559  1.00  0.00     0.036 C 
HETATM    9  C17 UNL     1      -2.519  51.367 -19.024  1.00  0.00     0.015 C 
HETATM   10  C18 UNL     1      -1.064  51.112 -18.613  1.00  0.00    -0.028 C 
HETATM   11  C19 UNL     1      -0.678  49.655 -19.026  1.00  0.00     0.016 C 
HETATM   12  C20 UNL     1      -1.639  51.596 -22.955  1.00  0.00    -0.014 C 
HETATM   13  C21 UNL     1      -1.620  50.090 -23.300  1.00  0.00     0.020 C 
HETATM   14  C22 UNL     1      -2.987  52.223 -23.394  1.00  0.00     0.021 C 
HETATM   15  C23 UNL     1      -3.178  52.420 -24.894  1.00  0.00     0.080 C 
HETATM   16  C24 UNL     1      -2.004  52.041 -25.762  1.00  0.00     0.135 C 
HETATM   17  O2  UNL     1      -2.211  51.587 -26.890  1.00  0.00    -0.297 OA
HETATM   18  C25 UNL     1      -0.584  52.331 -25.264  1.00  0.00     0.018 C 
HETATM   19  C26 UNL     1       0.362  51.264 -25.860  1.00  0.00     0.023 C 
HETATM   20  C27 UNL     1      -0.183  53.695 -25.857  1.00  0.00     0.023 C 
HETATM   21  C28 UNL     1      -0.528  52.405 -23.700  1.00  0.00     0.020 C 
HETATM   22  C29 UNL     1       0.853  52.091 -23.124  1.00  0.00     0.090 C 
HETATM   23  C30 UNL     1       0.893  52.441 -21.662  1.00  0.00     0.157 C 
HETATM   24  O3  UNL     1       1.883  52.983 -21.179  1.00  0.00    -0.293 OA
ENDROOT
BRANCH   1  25
HETATM   25  C7  UNL     1      -1.076  50.240 -16.064  1.00  0.00    -0.014 C 
HETATM   26  C8  UNL     1      -2.081  50.731 -15.016  1.00  0.00     0.010 C 
BRANCH  25  27
HETATM   27  C6  UNL     1       0.171  49.651 -15.350  1.00  0.00     0.008 C 
BRANCH  27  28
HETATM   28  C5  UNL     1       0.395  50.142 -13.914  1.00  0.00     0.028 C 
BRANCH  28  29
HETATM   29  C4  UNL     1       1.862  50.305 -13.628  1.00  0.00    -0.017 C 
HETATM   30  C2  UNL     1       2.710  49.376 -13.147  1.00  0.00    -0.028 C 
HETATM   31  C1  UNL     1       2.404  47.951 -12.811  1.00  0.00     0.051 C 
BRANCH  30  32
HETATM   32  C3  UNL     1       4.134  49.781 -12.935  1.00  0.00     0.265 C 
HETATM   33  O1  UNL     1       5.008  49.688 -13.786  1.00  0.00    -0.302 OA
ENDBRANCH  30  32
ENDBRANCH  28  29
ENDBRANCH  27  28
ENDBRANCH  25  27
ENDBRANCH   1  25
TORSDOF 5
ENDMDL
MODEL 6
REMARK minimizedAffinity -6.8237195
REMARK CNNscore 0.366274685
REMARK CNNaffinity 6.71516562
REMARK  5 active torsions:
REMARK  status: ('A' for Active; 'I' for Inactive)
REMARK    1  A    between atoms: C2_2  and  C3_3 
REMARK    2  A    between atoms: C4_5  and  C5_6 
REMARK    3  A    between atoms: C5_6  and  C6_7 
REMARK    4  A    between atoms: C6_7  and  C7_8 
REMARK    5  A    between atoms: C7_8  and  C9_10 
ROOT
HETATM    1  C9  UNL     1      -2.399  52.427 -11.207  1.00  0.00    -0.002 C 
HETATM    2  C10 UNL     1      -3.044  52.625  -9.806  1.00  0.00     0.007 C 
HETATM    3  C11 UNL     1      -1.992  53.296  -8.903  1.00  0.00     0.015 C 
HETATM    4  C12 UNL     1      -0.891  53.785  -9.863  1.00  0.00    -0.005 C 
HETATM    5  C13 UNL     1      -1.357  55.160 -10.433  1.00  0.00     0.021 C 
HETATM    6  C14 UNL     1       0.519  54.032  -9.346  1.00  0.00    -0.000 C 
HETATM    7  C15 UNL     1       1.605  53.874 -10.146  1.00  0.00    -0.060 C 
HETATM    8  C16 UNL     1       1.436  53.391 -11.595  1.00  0.00     0.036 C 
HETATM    9  C17 UNL     1       0.016  53.014 -12.070  1.00  0.00     0.015 C 
HETATM   10  C18 UNL     1      -0.880  52.593 -10.900  1.00  0.00    -0.028 C 
HETATM   11  C19 UNL     1      -0.327  51.259 -10.302  1.00  0.00     0.016 C 
HETATM   12  C20 UNL     1       3.063  54.129  -9.672  1.00  0.00    -0.014 C 
HETATM   13  C21 UNL     1       3.718  52.749  -9.435  1.00  0.00     0.020 C 
HETATM   14  C22 UNL     1       3.852  54.911 -10.753  1.00  0.00     0.021 C 
HETATM   15  C23 UNL     1       5.204  55.470 -10.325  1.00  0.00     0.080 C 
HETATM   16  C24 UNL     1       5.579  55.249  -8.880  1.00  0.00     0.135 C 
HETATM   17  O2  UNL     1       6.765  55.089  -8.583  1.00  0.00    -0.297 OA
HETATM   18  C25 UNL     1       4.489  55.338  -7.805  1.00  0.00     0.018 C 
HETATM   19  C26 UNL     1       4.882  54.397  -6.643  1.00  0.00     0.023 C 
HETATM   20  C27 UNL     1       4.522  56.783  -7.269  1.00  0.00     0.023 C 
HETATM   21  C28 UNL     1       3.071  55.034  -8.398  1.00  0.00     0.020 C 
HETATM   22  C29 UNL     1       2.074  54.520  -7.358  1.00  0.00     0.090 C 
HETATM   23  C30 UNL     1       0.687  54.509  -7.939  1.00  0.00     0.157 C 
HETATM   24  O3  UNL     1      -0.273  54.868  -7.263  1.00  0.00    -0.293 OA
ENDROOT
BRANCH   1  25
HETATM   25  C7  UNL     1      -2.913  51.139 -11.907  1.00  0.00    -0.014 C 
HETATM   26  C8  UNL     1      -3.643  50.191 -10.949  1.00  0.00     0.010 C 
BRANCH  25  27
HETATM   27  C6  UNL     1      -1.788  50.363 -12.646  1.00  0.00     0.008 C 
BRANCH  27  28
HETATM   28  C5  UNL     1      -1.959  50.256 -14.167  1.00  0.00     0.028 C 
BRANCH  28  29
HETATM   29  C4  UNL     1      -0.906  51.059 -14.880  1.00  0.00    -0.017 C 
HETATM   30  C2  UNL     1       0.040  50.602 -15.722  1.00  0.00    -0.028 C 
HETATM   31  C1  UNL     1       0.253  49.192 -16.174  1.00  0.00     0.051 C 
BRANCH  30  32
HETATM   32  C3  UNL     1       0.989  51.600 -16.306  1.00  0.00     0.265 C 
HETATM   33  O1  UNL     1       1.143  52.735 -15.874  1.00  0.00    -0.302 OA
ENDBRANCH  30  32
ENDBRANCH  28  29
ENDBRANCH  27  28
ENDBRANCH  25  27
ENDBRANCH   1  25
TORSDOF 5
ENDMDL
MODEL 7
REMARK minimizedAffinity -7.41213942
REMARK CNNscore 0.347841203
REMARK CNNaffinity 5.8321805
REMARK  5 active torsions:
REMARK  status: ('A' for Active; 'I' for Inactive)
REMARK    1  A    between atoms: C2_2  and  C3_3 
REMARK    2  A    between atoms: C4_5  and  C5_6 
REMARK    3  A    between atoms: C5_6  and  C6_7 
REMARK    4  A    between atoms: C6_7  and  C7_8 
REMARK    5  A    between atoms: C7_8  and  C9_10 
ROOT
HETATM    1  C9  UNL     1     -12.675  47.009 -25.510  1.00  0.00    -0.002 C 
HETATM    2  C10 UNL     1     -11.640  46.432 -24.503  1.00  0.00     0.007 C 
HETATM    3  C11 UNL     1     -10.284  46.352 -25.228  1.00  0.00     0.015 C 
HETATM    4  C12 UNL     1     -10.463  47.188 -26.509  1.00  0.00    -0.005 C 
HETATM    5  C13 UNL     1     -10.227  48.680 -26.120  1.00  0.00     0.021 C 
HETATM    6  C14 UNL     1      -9.559  46.948 -27.710  1.00  0.00    -0.000 C 
HETATM    7  C15 UNL     1      -9.992  47.168 -28.979  1.00  0.00    -0.060 C 
HETATM    8  C16 UNL     1     -11.437  47.626 -29.235  1.00  0.00     0.036 C 
HETATM    9  C17 UNL     1     -12.386  47.736 -28.022  1.00  0.00     0.015 C 
HETATM   10  C18 UNL     1     -11.952  46.814 -26.877  1.00  0.00    -0.028 C 
HETATM   11  C19 UNL     1     -12.121  45.331 -27.340  1.00  0.00     0.016 C 
HETATM   12  C20 UNL     1      -9.105  46.956 -30.237  1.00  0.00    -0.014 C 
HETATM   13  C21 UNL     1      -9.553  45.632 -30.897  1.00  0.00     0.020 C 
HETATM   14  C22 UNL     1      -9.288  48.131 -31.230  1.00  0.00     0.021 C 
HETATM   15  C23 UNL     1      -8.287  48.202 -32.378  1.00  0.00     0.080 C 
HETATM   16  C24 UNL     1      -7.200  47.155 -32.368  1.00  0.00     0.135 C 
HETATM   17  O2  UNL     1      -6.760  46.734 -33.441  1.00  0.00    -0.297 OA
HETATM   18  C25 UNL     1      -6.595  46.721 -31.028  1.00  0.00     0.018 C 
HETATM   19  C26 UNL     1      -6.140  45.250 -31.160  1.00  0.00     0.023 C 
HETATM   20  C27 UNL     1      -5.335  47.583 -30.818  1.00  0.00     0.023 C 
HETATM   21  C28 UNL     1      -7.593  46.959 -29.844  1.00  0.00     0.020 C 
HETATM   22  C29 UNL     1      -7.340  46.046 -28.642  1.00  0.00     0.090 C 
HETATM   23  C30 UNL     1      -8.150  46.511 -27.464  1.00  0.00     0.157 C 
HETATM   24  O3  UNL     1      -7.665  46.513 -26.337  1.00  0.00    -0.293 OA
ENDROOT
BRANCH   1  25
HETATM   25  C7  UNL     1     -14.094  46.418 -25.290  1.00  0.00    -0.014 C 
HETATM   26  C8  UNL     1     -14.854  46.189 -26.602  1.00  0.00     0.010 C 
BRANCH  25  27
HETATM   27  C6  UNL     1     -14.964  47.274 -24.330  1.00  0.00     0.008 C 
BRANCH  27  28
HETATM   28  C5  UNL     1     -16.026  46.498 -23.541  1.00  0.00     0.028 C 
BRANCH  28  29
HETATM   29  C4  UNL     1     -17.358  46.560 -24.235  1.00  0.00    -0.017 C 
HETATM   30  C2  UNL     1     -18.563  46.249 -23.722  1.00  0.00    -0.028 C 
HETATM   31  C1  UNL     1     -18.870  45.795 -22.330  1.00  0.00     0.051 C 
BRANCH  30  32
HETATM   32  C3  UNL     1     -19.754  46.383 -24.617  1.00  0.00     0.265 C 
HETATM   33  O1  UNL     1     -19.869  45.815 -25.695  1.00  0.00    -0.302 OA
ENDBRANCH  30  32
ENDBRANCH  28  29
ENDBRANCH  27  28
ENDBRANCH  25  27
ENDBRANCH   1  25
TORSDOF 5
ENDMDL
MODEL 8
REMARK minimizedAffinity -7.81862974
REMARK CNNscore 0.344908714
REMARK CNNaffinity 6.24150467
REMARK  5 active torsions:
REMARK  status: ('A' for Active; 'I' for Inactive)
REMARK    1  A    between atoms: C2_2  and  C3_3 
REMARK    2  A    between atoms: C4_5  and  C5_6 
REMARK    3  A    between atoms: C5_6  and  C6_7 
REMARK    4  A    between atoms: C6_7  and  C7_8 
REMARK    5  A    between atoms: C7_8  and  C9_10 
ROOT
HETATM    1  C9  UNL     1      -3.738  49.889 -22.028  1.00  0.00    -0.002 C 
HETATM    2  C10 UNL     1      -4.422  49.843 -20.632  1.00  0.00     0.007 C 
HETATM    3  C11 UNL     1      -5.711  49.013 -20.775  1.00  0.00     0.015 C 
HETATM    4  C12 UNL     1      -5.586  48.310 -22.140  1.00  0.00    -0.005 C 
HETATM    5  C13 UNL     1      -4.722  47.030 -21.920  1.00  0.00     0.021 C 
HETATM    6  C14 UNL     1      -6.833  47.822 -22.864  1.00  0.00    -0.000 C 
HETATM    7  C15 UNL     1      -6.888  47.761 -24.220  1.00  0.00    -0.060 C 
HETATM    8  C16 UNL     1      -5.693  48.233 -25.065  1.00  0.00     0.036 C 
HETATM    9  C17 UNL     1      -4.486  48.852 -24.328  1.00  0.00     0.015 C 
HETATM   10  C18 UNL     1      -4.894  49.455 -22.978  1.00  0.00    -0.028 C 
HETATM   11  C19 UNL     1      -5.829  50.680 -23.242  1.00  0.00     0.016 C 
HETATM   12  C20 UNL     1      -8.129  47.256 -25.007  1.00  0.00    -0.014 C 
HETATM   13  C21 UNL     1      -8.848  48.498 -25.579  1.00  0.00     0.020 C 
HETATM   14  C22 UNL     1      -7.690  46.318 -26.161  1.00  0.00     0.021 C 
HETATM   15  C23 UNL     1      -8.802  45.532 -26.846  1.00  0.00     0.080 C 
HETATM   16  C24 UNL     1     -10.186  45.714 -26.273  1.00  0.00     0.135 C 
HETATM   17  O2  UNL     1     -11.162  45.662 -27.026  1.00  0.00    -0.297 OA
HETATM   18  C25 UNL     1     -10.352  45.850 -24.755  1.00  0.00     0.018 C 
HETATM   19  C26 UNL     1     -11.594  46.730 -24.484  1.00  0.00     0.023 C 
HETATM   20  C27 UNL     1     -10.655  44.436 -24.221  1.00  0.00     0.023 C 
HETATM   21  C28 UNL     1      -9.046  46.394 -24.081  1.00  0.00     0.020 C 
HETATM   22  C29 UNL     1      -9.299  47.104 -22.750  1.00  0.00     0.090 C 
HETATM   23  C30 UNL     1      -7.994  47.355 -22.045  1.00  0.00     0.157 C 
HETATM   24  O3  UNL     1      -7.901  47.192 -20.833  1.00  0.00    -0.293 OA
ENDROOT
BRANCH   1  25
HETATM   25  C7  UNL     1      -2.996  51.232 -22.270  1.00  0.00    -0.014 C 
HETATM   26  C8  UNL     1      -3.777  52.188 -23.180  1.00  0.00     0.010 C 
BRANCH  25  27
HETATM   27  C6  UNL     1      -1.561  51.037 -22.831  1.00  0.00     0.008 C 
BRANCH  27  28
HETATM   28  C5  UNL     1      -0.457  50.915 -21.773  1.00  0.00     0.028 C 
BRANCH  28  29
HETATM   29  C4  UNL     1       0.293  52.210 -21.632  1.00  0.00    -0.017 C 
HETATM   30  C2  UNL     1       0.537  52.896 -20.499  1.00  0.00    -0.028 C 
HETATM   31  C1  UNL     1       0.146  52.520 -19.105  1.00  0.00     0.051 C 
BRANCH  30  32
HETATM   32  C3  UNL     1       1.303  54.175 -20.614  1.00  0.00     0.265 C 
HETATM   33  O1  UNL     1       1.679  54.658 -21.674  1.00  0.00    -0.302 OA
ENDBRANCH  30  32
ENDBRANCH  28  29
ENDBRANCH  27  28
ENDBRANCH  25  27
ENDBRANCH   1  25
TORSDOF 5
ENDMDL
MODEL 9
REMARK minimizedAffinity -7.47227097
REMARK CNNscore 0.326739341
REMARK CNNaffinity 6.87251234
REMARK  5 active torsions:
REMARK  status: ('A' for Active; 'I' for Inactive)
REMARK    1  A    between atoms: C2_2  and  C3_3 
REMARK    2  A    between atoms: C4_5  and  C5_6 
REMARK    3  A    between atoms: C5_6  and  C6_7 
REMARK    4  A    between atoms: C6_7  and  C7_8 
REMARK    5  A    between atoms: C7_8  and  C9_10 
ROOT
HETATM    1  C9  UNL     1      -1.990  50.335 -22.390  1.00  0.00    -0.002 C 
HETATM    2  C10 UNL     1      -1.561  51.812 -22.619  1.00  0.00     0.007 C 
HETATM    3  C11 UNL     1      -0.790  52.270 -21.366  1.00  0.00     0.015 C 
HETATM    4  C12 UNL     1      -0.485  50.976 -20.587  1.00  0.00    -0.005 C 
HETATM    5  C13 UNL     1       0.799  50.354 -21.216  1.00  0.00     0.021 C 
HETATM    6  C14 UNL     1      -0.203  51.034 -19.093  1.00  0.00    -0.000 C 
HETATM    7  C15 UNL     1      -0.512  49.997 -18.272  1.00  0.00    -0.060 C 
HETATM    8  C16 UNL     1      -1.205  48.745 -18.834  1.00  0.00     0.036 C 
HETATM    9  C17 UNL     1      -1.611  48.751 -20.324  1.00  0.00     0.015 C 
HETATM   10  C18 UNL     1      -1.821  50.176 -20.849  1.00  0.00    -0.028 C 
HETATM   11  C19 UNL     1      -3.064  50.794 -20.129  1.00  0.00     0.016 C 
HETATM   12  C20 UNL     1      -0.229  49.998 -16.744  1.00  0.00    -0.014 C 
HETATM   13  C21 UNL     1      -1.574  50.254 -16.027  1.00  0.00     0.020 C 
HETATM   14  C22 UNL     1       0.356  48.632 -16.303  1.00  0.00     0.021 C 
HETATM   15  C23 UNL     1       0.935  48.574 -14.894  1.00  0.00     0.080 C 
HETATM   16  C24 UNL     1       0.927  49.872 -14.125  1.00  0.00     0.135 C 
HETATM   17  O2  UNL     1       0.781  49.846 -12.901  1.00  0.00    -0.297 OA
HETATM   18  C25 UNL     1       1.211  51.181 -14.871  1.00  0.00     0.018 C 
HETATM   19  C26 UNL     1       0.448  52.318 -14.153  1.00  0.00     0.023 C 
HETATM   20  C27 UNL     1       2.718  51.457 -14.711  1.00  0.00     0.023 C 
HETATM   21  C28 UNL     1       0.860  51.063 -16.393  1.00  0.00     0.020 C 
HETATM   22  C29 UNL     1       0.540  52.407 -17.050  1.00  0.00     0.090 C 
HETATM   23  C30 UNL     1       0.479  52.247 -18.544  1.00  0.00     0.157 C 
HETATM   24  O3  UNL     1       0.964  53.099 -19.281  1.00  0.00    -0.293 OA
ENDROOT
BRANCH   1  25
HETATM   25  C7  UNL     1      -3.354  50.015 -23.059  1.00  0.00    -0.014 C 
HETATM   26  C8  UNL     1      -3.344  48.686 -23.824  1.00  0.00     0.010 C 
BRANCH  25  27
HETATM   27  C6  UNL     1      -3.848  51.149 -23.998  1.00  0.00     0.008 C 
BRANCH  27  28
HETATM   28  C5  UNL     1      -5.221  51.737 -23.647  1.00  0.00     0.028 C 
BRANCH  28  29
HETATM   29  C4  UNL     1      -5.844  50.990 -22.501  1.00  0.00    -0.017 C 
HETATM   30  C2  UNL     1      -6.746  49.994 -22.568  1.00  0.00    -0.028 C 
HETATM   31  C1  UNL     1      -7.324  49.370 -23.798  1.00  0.00     0.051 C 
BRANCH  30  32
HETATM   32  C3  UNL     1      -7.231  49.409 -21.279  1.00  0.00     0.265 C 
HETATM   33  O1  UNL     1      -6.760  48.404 -20.761  1.00  0.00    -0.302 OA
ENDBRANCH  30  32
ENDBRANCH  28  29
ENDBRANCH  27  28
ENDBRANCH  25  27
ENDBRANCH   1  25
TORSDOF 5
ENDMDL
