MODEL 1
REMARK minimizedAffinity -7.50592947
REMARK CNNscore 0.844155192
REMARK CNNaffinity 7.30537415
REMARK  7 active torsions:
REMARK  status: ('A' for Active; 'I' for Inactive)
REMARK    1  A    between atoms: C4_4  and  C5_5 
REMARK    2  A    between atoms: C5_5  and  C6_6 
REMARK    3  A    between atoms: C6_6  and  C7_7 
REMARK    4  A    between atoms: C7_7  and  C9_9 
REMARK    5  A    between atoms: C22_22  and  O1_23 
REMARK    6  A    between atoms: C23_24  and  O2_25 
REMARK    7  A    between atoms: C24_26  and  O3_27 
ROOT
HETATM    1  C9  UNL     1       4.744  54.799  -8.497  1.00  0.00    -0.002 C 
HETATM    2  C10 UNL     1       4.231  56.255  -8.316  1.00  0.00     0.007 C 
HETATM    3  C11 UNL     1       2.729  56.275  -8.652  1.00  0.00     0.015 C 
HETATM    4  C12 UNL     1       2.313  54.798  -8.666  1.00  0.00    -0.013 C 
HETATM    5  C13 UNL     1       2.047  54.382  -7.186  1.00  0.00     0.021 C 
HETATM    6  C14 UNL     1       1.052  54.397  -9.424  1.00  0.00    -0.068 C 
HETATM    7  C15 UNL     1       0.938  53.142  -9.929  1.00  0.00    -0.065 C 
HETATM    8  C16 UNL     1       2.093  52.141  -9.843  1.00  0.00     0.036 C 
HETATM    9  C17 UNL     1       3.420  52.624  -9.216  1.00  0.00     0.015 C 
HETATM   10  C18 UNL     1       3.588  54.146  -9.327  1.00  0.00    -0.029 C 
HETATM   11  C19 UNL     1       3.755  54.524 -10.834  1.00  0.00     0.016 C 
HETATM   12  C20 UNL     1      -0.345  52.670 -10.664  1.00  0.00     0.012 C 
HETATM   13  C21 UNL     1      -0.046  52.843 -12.179  1.00  0.00     0.023 C 
HETATM   14  C22 UNL     1      -0.697  51.172 -10.391  1.00  0.00     0.162 C 
HETATM   15  C23 UNL     1      -1.996  50.743 -11.088  1.00  0.00     0.177 C 
HETATM   16  C24 UNL     1      -3.180  51.627 -10.680  1.00  0.00     0.153 C 
HETATM   17  C25 UNL     1      -2.906  53.127 -10.899  1.00  0.00     0.018 C 
HETATM   18  C26 UNL     1      -4.107  53.944 -10.395  1.00  0.00     0.013 C 
HETATM   19  C27 UNL     1      -1.575  53.541 -10.206  1.00  0.00     0.007 C 
HETATM   20  C28 UNL     1      -1.254  55.033 -10.357  1.00  0.00     0.010 C 
HETATM   21  C29 UNL     1      -0.049  55.428  -9.506  1.00  0.00     0.036 C 
ENDROOT
BRANCH   1  22
HETATM   22  C7  UNL     1       6.213  54.733  -9.024  1.00  0.00    -0.014 C 
HETATM   23  C8  UNL     1       6.726  53.286  -9.104  1.00  0.00     0.010 C 
BRANCH  22  24
HETATM   24  C6  UNL     1       7.218  55.521  -8.131  1.00  0.00     0.008 C 
BRANCH  24  25
HETATM   25  C5  UNL     1       7.146  55.216  -6.631  1.00  0.00     0.028 C 
BRANCH  25  26
HETATM   26  C4  UNL     1       7.138  56.487  -5.823  1.00  0.00    -0.025 C 
HETATM   27  C2  UNL     1       8.179  57.104  -5.228  1.00  0.00    -0.091 C 
HETATM   28  C1  UNL     1       9.608  56.641  -5.266  1.00  0.00     0.042 C 
HETATM   29  C3  UNL     1       7.964  58.371  -4.439  1.00  0.00     0.042 C 
ENDBRANCH  25  26
ENDBRANCH  24  25
ENDBRANCH  22  24
ENDBRANCH   1  22
BRANCH  14  30
HETATM   30  O1  UNL     1      -0.844  50.928  -8.982  1.00  0.00    -0.392 OA
HETATM   31  H35 UNL     1      -1.341  50.092  -8.896  1.00  0.00     0.210 HD
ENDBRANCH  14  30
BRANCH  15  32
HETATM   32  O2  UNL     1      -2.307  49.384 -10.713  1.00  0.00    -0.390 OA
HETATM   33  H37 UNL     1      -1.648  48.813 -11.151  1.00  0.00     0.210 HD
ENDBRANCH  15  32
BRANCH  16  34
HETATM   34  O3  UNL     1      -4.317  51.223 -11.456  1.00  0.00    -0.393 OA
HETATM   35  H39 UNL     1      -4.406  50.265 -11.295  1.00  0.00     0.210 HD
ENDBRANCH  16  34
TORSDOF 7
ENDMDL
MODEL 2
REMARK minimizedAffinity -8.27435493
REMARK CNNscore 0.516338587
REMARK CNNaffinity 6.96373749
REMARK  7 active torsions:
REMARK  status: ('A' for Active; 'I' for Inactive)
REMARK    1  A    between atoms: C4_4  and  C5_5 
REMARK    2  A    between atoms: C5_5  and  C6_6 
REMARK    3  A    between atoms: C6_6  and  C7_7 
REMARK    4  A    between atoms: C7_7  and  C9_9 
REMARK    5  A    between atoms: C22_22  and  O1_23 
REMARK    6  A    between atoms: C23_24  and  O2_25 
REMARK    7  A    between atoms: C24_26  and  O3_27 
ROOT
HETATM    1  C9  UNL     1      -1.822  51.672 -22.379  1.00  0.00    -0.002 C 
HETATM    2  C10 UNL     1      -3.222  52.189 -22.813  1.00  0.00     0.007 C 
HETATM    3  C11 UNL     1      -4.284  51.258 -22.201  1.00  0.00     0.015 C 
HETATM    4  C12 UNL     1      -3.527  50.447 -21.140  1.00  0.00    -0.013 C 
HETATM    5  C13 UNL     1      -3.457  51.327 -19.853  1.00  0.00     0.021 C 
HETATM    6  C14 UNL     1      -4.109  49.115 -20.680  1.00  0.00    -0.068 C 
HETATM    7  C15 UNL     1      -3.284  48.143 -20.212  1.00  0.00    -0.065 C 
HETATM    8  C16 UNL     1      -1.763  48.314 -20.228  1.00  0.00     0.036 C 
HETATM    9  C17 UNL     1      -1.189  49.606 -20.852  1.00  0.00     0.015 C 
HETATM   10  C18 UNL     1      -2.149  50.225 -21.877  1.00  0.00    -0.029 C 
HETATM   11  C19 UNL     1      -2.262  49.264 -23.104  1.00  0.00     0.016 C 
HETATM   12  C20 UNL     1      -3.832  46.790 -19.685  1.00  0.00     0.012 C 
HETATM   13  C21 UNL     1      -3.705  45.797 -20.874  1.00  0.00     0.023 C 
HETATM   14  C22 UNL     1      -3.022  46.226 -18.473  1.00  0.00     0.162 C 
HETATM   15  C23 UNL     1      -3.613  44.914 -17.938  1.00  0.00     0.177 C 
HETATM   16  C24 UNL     1      -5.084  45.073 -17.538  1.00  0.00     0.153 C 
HETATM   17  C25 UNL     1      -5.951  45.645 -18.676  1.00  0.00     0.018 C 
HETATM   18  C26 UNL     1      -7.390  45.844 -18.169  1.00  0.00     0.013 C 
HETATM   19  C27 UNL     1      -5.327  46.963 -19.222  1.00  0.00     0.007 C 
HETATM   20  C28 UNL     1      -6.158  47.606 -20.339  1.00  0.00     0.010 C 
HETATM   21  C29 UNL     1      -5.614  48.984 -20.708  1.00  0.00     0.036 C 
ENDROOT
BRANCH   1  22
HETATM   22  C7  UNL     1      -0.729  51.886 -23.474  1.00  0.00    -0.014 C 
HETATM   23  C8  UNL     1       0.611  52.327 -22.863  1.00  0.00     0.010 C 
BRANCH  22  24
HETATM   24  C6  UNL     1      -1.123  52.965 -24.527  1.00  0.00     0.008 C 
BRANCH  24  25
HETATM   25  C5  UNL     1       0.050  53.645 -25.244  1.00  0.00     0.028 C 
BRANCH  25  26
HETATM   26  C4  UNL     1       0.227  53.090 -26.632  1.00  0.00    -0.025 C 
HETATM   27  C2  UNL     1       1.113  52.166 -27.055  1.00  0.00    -0.091 C 
HETATM   28  C1  UNL     1       2.128  51.469 -26.192  1.00  0.00     0.042 C 
HETATM   29  C3  UNL     1       1.149  51.750 -28.503  1.00  0.00     0.042 C 
ENDBRANCH  25  26
ENDBRANCH  24  25
ENDBRANCH  22  24
ENDBRANCH   1  22
BRANCH  14  30
HETATM   30  O1  UNL     1      -2.988  47.175 -17.393  1.00  0.00    -0.392 OA
HETATM   31  H35 UNL     1      -2.746  46.673 -16.591  1.00  0.00     0.210 HD
ENDBRANCH  14  30
BRANCH  15  32
HETATM   32  O2  UNL     1      -2.875  44.507 -16.765  1.00  0.00    -0.390 OA
HETATM   33  H37 UNL     1      -1.995  44.220 -17.072  1.00  0.00     0.210 HD
ENDBRANCH  15  32
BRANCH  16  34
HETATM   34  O3  UNL     1      -5.577  43.781 -17.155  1.00  0.00    -0.393 OA
HETATM   35  H39 UNL     1      -4.962  43.471 -16.463  1.00  0.00     0.210 HD
ENDBRANCH  16  34
TORSDOF 7
ENDMDL
MODEL 3
REMARK minimizedAffinity -7.37562704
REMARK CNNscore 0.446510315
REMARK CNNaffinity 5.67362022
REMARK  7 active torsions:
REMARK  status: ('A' for Active; 'I' for Inactive)
REMARK    1  A    between atoms: C4_4  and  C5_5 
REMARK    2  A    between atoms: C5_5  and  C6_6 
REMARK    3  A    between atoms: C6_6  and  C7_7 
REMARK    4  A    between atoms: C7_7  and  C9_9 
REMARK    5  A    between atoms: C22_22  and  O1_23 
REMARK    6  A    between atoms: C23_24  and  O2_25 
REMARK    7  A    between atoms: C24_26  and  O3_27 
ROOT
HETATM    1  C9  UNL     1       6.652  67.219 -36.006  1.00  0.00    -0.002 C 
HETATM    2  C10 UNL     1       7.689  67.522 -37.124  1.00  0.00     0.007 C 
HETATM    3  C11 UNL     1       6.920  67.991 -38.372  1.00  0.00     0.015 C 
HETATM    4  C12 UNL     1       5.506  68.304 -37.864  1.00  0.00    -0.013 C 
HETATM    5  C13 UNL     1       5.543  69.742 -37.260  1.00  0.00     0.021 C 
HETATM    6  C14 UNL     1       4.354  68.321 -38.862  1.00  0.00    -0.068 C 
HETATM    7  C15 UNL     1       3.093  68.042 -38.443  1.00  0.00    -0.065 C 
HETATM    8  C16 UNL     1       2.810  67.608 -37.003  1.00  0.00     0.036 C 
HETATM    9  C17 UNL     1       4.016  67.438 -36.051  1.00  0.00     0.015 C 
HETATM   10  C18 UNL     1       5.314  67.141 -36.815  1.00  0.00    -0.029 C 
HETATM   11  C19 UNL     1       5.193  65.732 -37.481  1.00  0.00     0.016 C 
HETATM   12  C20 UNL     1       1.880  68.095 -39.410  1.00  0.00     0.012 C 
HETATM   13  C21 UNL     1       1.645  66.628 -39.868  1.00  0.00     0.023 C 
HETATM   14  C22 UNL     1       0.574  68.623 -38.732  1.00  0.00     0.162 C 
HETATM   15  C23 UNL     1      -0.598  68.715 -39.720  1.00  0.00     0.177 C 
HETATM   16  C24 UNL     1      -0.258  69.596 -40.927  1.00  0.00     0.153 C 
HETATM   17  C25 UNL     1       1.033  69.153 -41.643  1.00  0.00     0.018 C 
HETATM   18  C26 UNL     1       1.341  70.131 -42.789  1.00  0.00     0.013 C 
HETATM   19  C27 UNL     1       2.205  69.043 -40.624  1.00  0.00     0.007 C 
HETATM   20  C28 UNL     1       3.533  68.636 -41.275  1.00  0.00     0.010 C 
HETATM   21  C29 UNL     1       4.687  68.728 -40.279  1.00  0.00     0.036 C 
ENDROOT
BRANCH   1  22
HETATM   22  C7  UNL     1       7.077  66.028 -35.089  1.00  0.00    -0.014 C 
HETATM   23  C8  UNL     1       6.795  64.669 -35.751  1.00  0.00     0.010 C 
BRANCH  22  24
HETATM   24  C6  UNL     1       6.343  66.023 -33.715  1.00  0.00     0.008 C 
BRANCH  24  25
HETATM   25  C5  UNL     1       4.916  65.463 -33.732  1.00  0.00     0.028 C 
BRANCH  25  26
HETATM   26  C4  UNL     1       4.912  64.011 -34.130  1.00  0.00    -0.025 C 
HETATM   27  C2  UNL     1       4.442  62.956 -33.435  1.00  0.00    -0.091 C 
HETATM   28  C1  UNL     1       3.790  63.021 -32.082  1.00  0.00     0.042 C 
HETATM   29  C3  UNL     1       4.547  61.562 -34.000  1.00  0.00     0.042 C 
ENDBRANCH  25  26
ENDBRANCH  24  25
ENDBRANCH  22  24
ENDBRANCH   1  22
BRANCH  14  30
HETATM   30  O1  UNL     1       0.782  69.927 -38.163  1.00  0.00    -0.392 OA
HETATM   31  H35 UNL     1      -0.103  70.317 -38.033  1.00  0.00     0.210 HD
ENDBRANCH  14  30
BRANCH  15  32
HETATM   32  O2  UNL     1      -1.736  69.299 -39.050  1.00  0.00    -0.390 OA
HETATM   33  H37 UNL     1      -2.061  68.633 -38.415  1.00  0.00     0.210 HD
ENDBRANCH  15  32
BRANCH  16  34
HETATM   34  O3  UNL     1      -1.364  69.535 -41.840  1.00  0.00    -0.393 OA
HETATM   35  H39 UNL     1      -2.142  69.792 -41.311  1.00  0.00     0.210 HD
ENDBRANCH  16  34
TORSDOF 7
ENDMDL
MODEL 4
REMARK minimizedAffinity -7.61919355
REMARK CNNscore 0.419185132
REMARK CNNaffinity 5.85471725
REMARK  7 active torsions:
REMARK  status: ('A' for Active; 'I' for Inactive)
REMARK    1  A    between atoms: C4_4  and  C5_5 
REMARK    2  A    between atoms: C5_5  and  C6_6 
REMARK    3  A    between atoms: C6_6  and  C7_7 
REMARK    4  A    between atoms: C7_7  and  C9_9 
REMARK    5  A    between atoms: C22_22  and  O1_23 
REMARK    6  A    between atoms: C23_24  and  O2_25 
REMARK    7  A    between atoms: C24_26  and  O3_27 
ROOT
HETATM    1  C9  UNL     1      -6.627  46.224 -29.701  1.00  0.00    -0.002 C 
HETATM    2  C10 UNL     1      -7.197  45.314 -28.578  1.00  0.00     0.007 C 
HETATM    3  C11 UNL     1      -8.133  44.282 -29.230  1.00  0.00     0.015 C 
HETATM    4  C12 UNL     1      -7.820  44.365 -30.731  1.00  0.00    -0.013 C 
HETATM    5  C13 UNL     1      -6.558  43.483 -30.985  1.00  0.00     0.021 C 
HETATM    6  C14 UNL     1      -8.860  43.866 -31.727  1.00  0.00    -0.068 C 
HETATM    7  C15 UNL     1      -8.901  44.390 -32.980  1.00  0.00    -0.065 C 
HETATM    8  C16 UNL     1      -7.987  45.547 -33.388  1.00  0.00     0.036 C 
HETATM    9  C17 UNL     1      -7.055  46.146 -32.311  1.00  0.00     0.015 C 
HETATM   10  C18 UNL     1      -7.596  45.918 -30.892  1.00  0.00    -0.029 C 
HETATM   11  C19 UNL     1      -8.910  46.745 -30.717  1.00  0.00     0.016 C 
HETATM   12  C20 UNL     1      -9.908  43.881 -34.045  1.00  0.00     0.012 C 
HETATM   13  C21 UNL     1     -11.101  44.876 -34.001  1.00  0.00     0.023 C 
HETATM   14  C22 UNL     1      -9.320  43.870 -35.493  1.00  0.00     0.162 C 
HETATM   15  C23 UNL     1     -10.316  43.315 -36.522  1.00  0.00     0.177 C 
HETATM   16  C24 UNL     1     -10.791  41.905 -36.153  1.00  0.00     0.153 C 
HETATM   17  C25 UNL     1     -11.369  41.826 -34.727  1.00  0.00     0.018 C 
HETATM   18  C26 UNL     1     -11.748  40.370 -34.411  1.00  0.00     0.013 C 
HETATM   19  C27 UNL     1     -10.356  42.412 -33.699  1.00  0.00     0.007 C 
HETATM   20  C28 UNL     1     -10.854  42.336 -32.251  1.00  0.00     0.010 C 
HETATM   21  C29 UNL     1      -9.758  42.741 -31.268  1.00  0.00     0.036 C 
ENDROOT
BRANCH   1  22
HETATM   22  C7  UNL     1      -6.409  47.699 -29.236  1.00  0.00    -0.014 C 
HETATM   23  C8  UNL     1      -5.584  48.503 -30.254  1.00  0.00     0.010 C 
BRANCH  22  24
HETATM   24  C6  UNL     1      -5.668  47.806 -27.869  1.00  0.00     0.008 C 
BRANCH  24  25
HETATM   25  C5  UNL     1      -4.247  48.379 -27.933  1.00  0.00     0.028 C 
BRANCH  25  26
HETATM   26  C4  UNL     1      -3.645  48.480 -26.556  1.00  0.00    -0.025 C 
HETATM   27  C2  UNL     1      -4.273  48.424 -25.365  1.00  0.00    -0.091 C 
HETATM   28  C1  UNL     1      -5.750  48.227 -25.162  1.00  0.00     0.042 C 
HETATM   29  C3  UNL     1      -3.491  48.565 -24.083  1.00  0.00     0.042 C 
ENDBRANCH  25  26
ENDBRANCH  24  25
ENDBRANCH  22  24
ENDBRANCH   1  22
BRANCH  14  30
HETATM   30  O1  UNL     1      -8.124  43.073 -35.555  1.00  0.00    -0.392 OA
HETATM   31  H35 UNL     1      -7.981  42.860 -36.498  1.00  0.00     0.210 HD
ENDBRANCH  14  30
BRANCH  15  32
HETATM   32  O2  UNL     1      -9.673  43.244 -37.813  1.00  0.00    -0.390 OA
HETATM   33  H37 UNL     1      -9.557  44.162 -38.121  1.00  0.00     0.210 HD
ENDBRANCH  15  32
BRANCH  16  34
HETATM   34  O3  UNL     1     -11.792  41.516 -37.105  1.00  0.00    -0.393 OA
HETATM   35  H39 UNL     1     -11.368  41.626 -37.977  1.00  0.00     0.210 HD
ENDBRANCH  16  34
TORSDOF 7
ENDMDL
MODEL 5
REMARK minimizedAffinity -9.30151367
REMARK CNNscore 0.405687451
REMARK CNNaffinity 6.42303324
REMARK  7 active torsions:
REMARK  status: ('A' for Active; 'I' for Inactive)
REMARK    1  A    between atoms: C4_4  and  C5_5 
REMARK    2  A    between atoms: C5_5  and  C6_6 
REMARK    3  A    between atoms: C6_6  and  C7_7 
REMARK    4  A    between atoms: C7_7  and  C9_9 
REMARK    5  A    between atoms: C22_22  and  O1_23 
REMARK    6  A    between atoms: C23_24  and  O2_25 
REMARK    7  A    between atoms: C24_26  and  O3_27 
ROOT
HETATM    1  C9  UNL     1      -0.941  51.187 -20.532  1.00  0.00    -0.002 C 
HETATM    2  C10 UNL     1      -0.418  49.830 -19.981  1.00  0.00     0.007 C 
HETATM    3  C11 UNL     1      -1.458  48.747 -20.318  1.00  0.00     0.015 C 
HETATM    4  C12 UNL     1      -2.378  49.400 -21.359  1.00  0.00    -0.013 C 
HETATM    5  C13 UNL     1      -1.677  49.256 -22.746  1.00  0.00     0.021 C 
HETATM    6  C14 UNL     1      -3.778  48.832 -21.561  1.00  0.00    -0.068 C 
HETATM    7  C15 UNL     1      -4.776  49.637 -22.008  1.00  0.00    -0.065 C 
HETATM    8  C16 UNL     1      -4.553  51.137 -22.221  1.00  0.00     0.036 C 
HETATM    9  C17 UNL     1      -3.170  51.720 -21.852  1.00  0.00     0.015 C 
HETATM   10  C18 UNL     1      -2.452  50.872 -20.794  1.00  0.00    -0.029 C 
HETATM   11  C19 UNL     1      -3.243  50.969 -19.450  1.00  0.00     0.016 C 
HETATM   12  C20 UNL     1      -6.205  49.096 -22.276  1.00  0.00     0.012 C 
HETATM   13  C21 UNL     1      -7.025  49.427 -20.999  1.00  0.00     0.023 C 
HETATM   14  C22 UNL     1      -6.899  49.769 -23.505  1.00  0.00     0.162 C 
HETATM   15  C23 UNL     1      -8.290  49.181 -23.781  1.00  0.00     0.177 C 
HETATM   16  C24 UNL     1      -8.236  47.664 -23.995  1.00  0.00     0.153 C 
HETATM   17  C25 UNL     1      -7.546  46.925 -22.832  1.00  0.00     0.018 C 
HETATM   18  C26 UNL     1      -7.466  45.424 -23.160  1.00  0.00     0.013 C 
HETATM   19  C27 UNL     1      -6.147  47.546 -22.550  1.00  0.00     0.007 C 
HETATM   20  C28 UNL     1      -5.388  46.836 -21.423  1.00  0.00     0.010 C 
HETATM   21  C29 UNL     1      -3.955  47.353 -21.311  1.00  0.00     0.036 C 
ENDROOT
BRANCH   1  22
HETATM   22  C7  UNL     1      -0.545  52.401 -19.632  1.00  0.00    -0.014 C 
HETATM   23  C8  UNL     1       0.621  53.201 -20.235  1.00  0.00     0.010 C 
BRANCH  22  24
HETATM   24  C6  UNL     1      -0.111  51.981 -18.195  1.00  0.00     0.008 C 
BRANCH  24  25
HETATM   25  C5  UNL     1       1.269  52.480 -17.752  1.00  0.00     0.028 C 
BRANCH  25  26
HETATM   26  C4  UNL     1       1.674  51.850 -16.445  1.00  0.00    -0.025 C 
HETATM   27  C2  UNL     1       2.821  52.020 -15.758  1.00  0.00    -0.091 C 
HETATM   28  C1  UNL     1       3.960  52.914 -16.164  1.00  0.00     0.042 C 
HETATM   29  C3  UNL     1       3.052  51.279 -14.466  1.00  0.00     0.042 C 
ENDBRANCH  25  26
ENDBRANCH  24  25
ENDBRANCH  22  24
ENDBRANCH   1  22
BRANCH  14  30
HETATM   30  O1  UNL     1      -6.103  49.613 -24.693  1.00  0.00    -0.392 OA
HETATM   31  H35 UNL     1      -6.700  49.773 -25.449  1.00  0.00     0.210 HD
ENDBRANCH  14  30
BRANCH  15  32
HETATM   32  O2  UNL     1      -8.826  49.779 -24.981  1.00  0.00    -0.390 OA
HETATM   33  H37 UNL     1      -9.040  50.706 -24.763  1.00  0.00     0.210 HD
ENDBRANCH  15  32
BRANCH  16  34
HETATM   34  O3  UNL     1      -9.584  47.193 -24.138  1.00  0.00    -0.393 OA
HETATM   35  H39 UNL     1      -9.963  47.727 -24.861  1.00  0.00     0.210 HD
ENDBRANCH  16  34
TORSDOF 7
ENDMDL
MODEL 6
REMARK minimizedAffinity -8.09571934
REMARK CNNscore 0.397422284
REMARK CNNaffinity 5.56830549
REMARK  7 active torsions:
REMARK  status: ('A' for Active; 'I' for Inactive)
REMARK    1  A    between atoms: C4_4  and  C5_5 
REMARK    2  A    between atoms: C5_5  and  C6_6 
REMARK    3  A    between atoms: C6_6  and  C7_7 
REMARK    4  A    between atoms: C7_7  and  C9_9 
REMARK    5  A    between atoms: C22_22  and  O1_23 
REMARK    6  A    between atoms: C23_24  and  O2_25 
REMARK    7  A    between atoms: C24_26  and  O3_27 
ROOT
HETATM    1  C9  UNL     1       7.441  65.812 -35.925  1.00  0.00    -0.002 C 
HETATM    2  C10 UNL     1       8.218  66.182 -37.220  1.00  0.00     0.007 C 
HETATM    3  C11 UNL     1       7.232  66.859 -38.189  1.00  0.00     0.015 C 
HETATM    4  C12 UNL     1       6.009  67.200 -37.326  1.00  0.00    -0.013 C 
HETATM    5  C13 UNL     1       6.323  68.544 -36.598  1.00  0.00     0.021 C 
HETATM    6  C14 UNL     1       4.666  67.424 -38.012  1.00  0.00    -0.068 C 
HETATM    7  C15 UNL     1       3.514  67.181 -37.335  1.00  0.00    -0.065 C 
HETATM    8  C16 UNL     1       3.529  66.589 -35.924  1.00  0.00     0.036 C 
HETATM    9  C17 UNL     1       4.899  66.216 -35.313  1.00  0.00     0.015 C 
HETATM   10  C18 UNL     1       5.951  65.929 -36.393  1.00  0.00    -0.029 C 
HETATM   11  C19 UNL     1       5.544  64.629 -37.158  1.00  0.00     0.016 C 
HETATM   12  C20 UNL     1       2.123  67.441 -37.971  1.00  0.00     0.012 C 
HETATM   13  C21 UNL     1       1.648  66.064 -38.514  1.00  0.00     0.023 C 
HETATM   14  C22 UNL     1       1.065  67.967 -36.948  1.00  0.00     0.162 C 
HETATM   15  C23 UNL     1      -0.288  68.264 -37.610  1.00  0.00     0.177 C 
HETATM   16  C24 UNL     1      -0.151  69.266 -38.762  1.00  0.00     0.153 C 
HETATM   17  C25 UNL     1       0.892  68.830 -39.809  1.00  0.00     0.018 C 
HETATM   18  C26 UNL     1       1.022  69.922 -40.884  1.00  0.00     0.013 C 
HETATM   19  C27 UNL     1       2.251  68.511 -39.119  1.00  0.00     0.007 C 
HETATM   20  C28 UNL     1       3.347  68.100 -40.109  1.00  0.00     0.010 C 
HETATM   21  C29 UNL     1       4.703  67.984 -39.414  1.00  0.00     0.036 C 
ENDROOT
BRANCH   1  22
HETATM   22  C7  UNL     1       7.948  64.487 -35.270  1.00  0.00    -0.014 C 
HETATM   23  C8  UNL     1       9.308  64.054 -35.839  1.00  0.00     0.010 C 
BRANCH  22  24
HETATM   24  C6  UNL     1       6.970  63.291 -35.475  1.00  0.00     0.008 C 
BRANCH  24  25
HETATM   25  C5  UNL     1       6.492  62.603 -34.191  1.00  0.00     0.028 C 
BRANCH  25  26
HETATM   26  C4  UNL     1       5.818  63.588 -33.272  1.00  0.00    -0.025 C 
HETATM   27  C2  UNL     1       4.599  63.498 -32.704  1.00  0.00    -0.091 C 
HETATM   28  C1  UNL     1       3.640  62.352 -32.866  1.00  0.00     0.042 C 
HETATM   29  C3  UNL     1       4.087  64.607 -31.819  1.00  0.00     0.042 C 
ENDBRANCH  25  26
ENDBRANCH  24  25
ENDBRANCH  22  24
ENDBRANCH   1  22
BRANCH  14  30
HETATM   30  O1  UNL     1       1.524  69.170 -36.309  1.00  0.00    -0.392 OA
HETATM   31  H35 UNL     1       0.734  69.601 -35.928  1.00  0.00     0.210 HD
ENDBRANCH  14  30
BRANCH  15  32
HETATM   32  O2  UNL     1      -1.180  68.835 -36.629  1.00  0.00    -0.390 OA
HETATM   33  H37 UNL     1      -1.413  68.119 -36.009  1.00  0.00     0.210 HD
ENDBRANCH  15  32
BRANCH  16  34
HETATM   34  O3  UNL     1      -1.437  69.399 -39.384  1.00  0.00    -0.393 OA
HETATM   35  H39 UNL     1      -2.045  69.640 -38.659  1.00  0.00     0.210 HD
ENDBRANCH  16  34
TORSDOF 7
ENDMDL
MODEL 7
REMARK minimizedAffinity -6.95401001
REMARK CNNscore 0.38464275
REMARK CNNaffinity 6.46936464
REMARK  7 active torsions:
REMARK  status: ('A' for Active; 'I' for Inactive)
REMARK    1  A    between atoms: C4_4  and  C5_5 
REMARK    2  A    between atoms: C5_5  and  C6_6 
REMARK    3  A    between atoms: C6_6  and  C7_7 
REMARK    4  A    between atoms: C7_7  and  C9_9 
REMARK    5  A    between atoms: C22_22  and  O1_23 
REMARK    6  A    between atoms: C23_24  and  O2_25 
REMARK    7  A    between atoms: C24_26  and  O3_27 
ROOT
HETATM    1  C9  UNL     1      -1.877  51.789 -10.294  1.00  0.00    -0.002 C 
HETATM    2  C10 UNL     1      -0.976  50.541 -10.512  1.00  0.00     0.007 C 
HETATM    3  C11 UNL     1       0.456  50.907 -10.086  1.00  0.00     0.015 C 
HETATM    4  C12 UNL     1       0.305  52.215  -9.296  1.00  0.00    -0.013 C 
HETATM    5  C13 UNL     1      -0.103  51.827  -7.841  1.00  0.00     0.021 C 
HETATM    6  C14 UNL     1       1.520  53.123  -9.140  1.00  0.00    -0.068 C 
HETATM    7  C15 UNL     1       1.347  54.459  -8.967  1.00  0.00    -0.065 C 
HETATM    8  C16 UNL     1      -0.044  55.095  -9.025  1.00  0.00     0.036 C 
HETATM    9  C17 UNL     1      -1.244  54.177  -9.349  1.00  0.00     0.015 C 
HETATM   10  C18 UNL     1      -0.819  52.932 -10.139  1.00  0.00    -0.029 C 
HETATM   11  C19 UNL     1      -0.328  53.379 -11.554  1.00  0.00     0.016 C 
HETATM   12  C20 UNL     1       2.548  55.417  -8.754  1.00  0.00     0.012 C 
HETATM   13  C21 UNL     1       2.854  56.023 -10.152  1.00  0.00     0.023 C 
HETATM   14  C22 UNL     1       2.238  56.584  -7.760  1.00  0.00     0.162 C 
HETATM   15  C23 UNL     1       3.456  57.489  -7.527  1.00  0.00     0.177 C 
HETATM   16  C24 UNL     1       4.666  56.696  -7.019  1.00  0.00     0.153 C 
HETATM   17  C25 UNL     1       5.027  55.511  -7.936  1.00  0.00     0.018 C 
HETATM   18  C26 UNL     1       6.197  54.727  -7.318  1.00  0.00     0.013 C 
HETATM   19  C27 UNL     1       3.777  54.616  -8.181  1.00  0.00     0.007 C 
HETATM   20  C28 UNL     1       4.072  53.396  -9.062  1.00  0.00     0.010 C 
HETATM   21  C29 UNL     1       2.873  52.451  -9.116  1.00  0.00     0.036 C 
ENDROOT
BRANCH   1  22
HETATM   22  C7  UNL     1      -3.009  51.916 -11.363  1.00  0.00    -0.014 C 
HETATM   23  C8  UNL     1      -3.976  53.065 -11.037  1.00  0.00     0.010 C 
BRANCH  22  24
HETATM   24  C6  UNL     1      -3.870  50.624 -11.498  1.00  0.00     0.008 C 
BRANCH  24  25
HETATM   25  C5  UNL     1      -4.445  50.076 -10.187  1.00  0.00     0.028 C 
BRANCH  25  26
HETATM   26  C4  UNL     1      -5.951  50.112 -10.202  1.00  0.00    -0.025 C 
HETATM   27  C2  UNL     1      -6.800  49.223 -10.753  1.00  0.00    -0.091 C 
HETATM   28  C1  UNL     1      -6.404  47.965 -11.476  1.00  0.00     0.042 C 
HETATM   29  C3  UNL     1      -8.290  49.445 -10.680  1.00  0.00     0.042 C 
ENDBRANCH  25  26
ENDBRANCH  24  25
ENDBRANCH  22  24
ENDBRANCH   1  22
BRANCH  14  30
HETATM   30  O1  UNL     1       1.810  56.073  -6.486  1.00  0.00    -0.392 OA
HETATM   31  H35 UNL     1       1.922  56.799  -5.844  1.00  0.00     0.210 HD
ENDBRANCH  14  30
BRANCH  15  32
HETATM   32  O2  UNL     1       3.125  58.479  -6.529  1.00  0.00    -0.390 OA
HETATM   33  H37 UNL     1       2.494  59.097  -6.944  1.00  0.00     0.210 HD
ENDBRANCH  15  32
BRANCH  16  34
HETATM   34  O3  UNL     1       5.778  57.599  -6.933  1.00  0.00    -0.393 OA
HETATM   35  H39 UNL     1       5.464  58.333  -6.372  1.00  0.00     0.210 HD
ENDBRANCH  16  34
TORSDOF 7
ENDMDL
MODEL 8
REMARK minimizedAffinity -7.37391901
REMARK CNNscore 0.377262771
REMARK CNNaffinity 5.56873369
REMARK  7 active torsions:
REMARK  status: ('A' for Active; 'I' for Inactive)
REMARK    1  A    between atoms: C4_4  and  C5_5 
REMARK    2  A    between atoms: C5_5  and  C6_6 
REMARK    3  A    between atoms: C6_6  and  C7_7 
REMARK    4  A    between atoms: C7_7  and  C9_9 
REMARK    5  A    between atoms: C22_22  and  O1_23 
REMARK    6  A    between atoms: C23_24  and  O2_25 
REMARK    7  A    between atoms: C24_26  and  O3_27 
ROOT
HETATM    1  C9  UNL     1       6.607  64.328 -34.877  1.00  0.00    -0.002 C 
HETATM    2  C10 UNL     1       7.817  65.145 -35.412  1.00  0.00     0.007 C 
HETATM    3  C11 UNL     1       7.268  66.373 -36.161  1.00  0.00     0.015 C 
HETATM    4  C12 UNL     1       5.792  66.454 -35.748  1.00  0.00    -0.013 C 
HETATM    5  C13 UNL     1       5.740  67.185 -34.371  1.00  0.00     0.021 C 
HETATM    6  C14 UNL     1       4.821  67.218 -36.641  1.00  0.00    -0.068 C 
HETATM    7  C15 UNL     1       3.506  66.880 -36.653  1.00  0.00    -0.065 C 
HETATM    8  C16 UNL     1       2.986  65.677 -35.862  1.00  0.00     0.036 C 
HETATM    9  C17 UNL     1       4.017  64.818 -35.095  1.00  0.00     0.015 C 
HETATM   10  C18 UNL     1       5.420  64.921 -35.708  1.00  0.00    -0.029 C 
HETATM   11  C19 UNL     1       5.399  64.261 -37.125  1.00  0.00     0.016 C 
HETATM   12  C20 UNL     1       2.470  67.659 -37.506  1.00  0.00     0.012 C 
HETATM   13  C21 UNL     1       2.302  66.837 -38.814  1.00  0.00     0.023 C 
HETATM   14  C22 UNL     1       1.074  67.789 -36.814  1.00  0.00     0.162 C 
HETATM   15  C23 UNL     1       0.082  68.607 -37.654  1.00  0.00     0.177 C 
HETATM   16  C24 UNL     1       0.624  70.004 -37.976  1.00  0.00     0.153 C 
HETATM   17  C25 UNL     1       2.011  69.965 -38.644  1.00  0.00     0.018 C 
HETATM   18  C26 UNL     1       2.513  71.402 -38.862  1.00  0.00     0.013 C 
HETATM   19  C27 UNL     1       2.999  69.115 -37.792  1.00  0.00     0.007 C 
HETATM   20  C28 UNL     1       4.412  69.059 -38.384  1.00  0.00     0.010 C 
HETATM   21  C29 UNL     1       5.387  68.380 -37.424  1.00  0.00     0.036 C 
ENDROOT
BRANCH   1  22
HETATM   22  C7  UNL     1       6.865  62.788 -34.880  1.00  0.00    -0.014 C 
HETATM   23  C8  UNL     1       5.572  61.992 -34.639  1.00  0.00     0.010 C 
BRANCH  22  24
HETATM   24  C6  UNL     1       7.884  62.337 -33.789  1.00  0.00     0.008 C 
BRANCH  24  25
HETATM   25  C5  UNL     1       9.313  62.090 -34.285  1.00  0.00     0.028 C 
BRANCH  25  26
HETATM   26  C4  UNL     1      10.314  62.820 -33.429  1.00  0.00    -0.025 C 
HETATM   27  C2  UNL     1      10.860  62.425 -32.262  1.00  0.00    -0.091 C 
HETATM   28  C1  UNL     1      10.582  61.123 -31.563  1.00  0.00     0.042 C 
HETATM   29  C3  UNL     1      11.839  63.314 -31.539  1.00  0.00     0.042 C 
ENDBRANCH  25  26
ENDBRANCH  24  25
ENDBRANCH  22  24
ENDBRANCH   1  22
BRANCH  14  30
HETATM   30  O1  UNL     1       1.196  68.420 -35.527  1.00  0.00    -0.392 OA
HETATM   31  H35 UNL     1       0.304  68.738 -35.289  1.00  0.00     0.210 HD
ENDBRANCH  14  30
BRANCH  15  32
HETATM   32  O2  UNL     1      -1.146  68.767 -36.912  1.00  0.00    -0.390 OA
HETATM   33  H37 UNL     1      -1.577  67.892 -36.889  1.00  0.00     0.210 HD
ENDBRANCH  15  32
BRANCH  16  34
HETATM   34  O3  UNL     1      -0.317  70.650 -38.846  1.00  0.00    -0.393 OA
HETATM   35  H39 UNL     1      -1.170  70.604 -38.375  1.00  0.00     0.210 HD
ENDBRANCH  16  34
TORSDOF 7
ENDMDL
MODEL 9
REMARK minimizedAffinity -9.33431625
REMARK CNNscore 0.3666749
REMARK CNNaffinity 6.47060013
REMARK  7 active torsions:
REMARK  status: ('A' for Active; 'I' for Inactive)
REMARK    1  A    between atoms: C4_4  and  C5_5 
REMARK    2  A    between atoms: C5_5  and  C6_6 
REMARK    3  A    between atoms: C6_6  and  C7_7 
REMARK    4  A    between atoms: C7_7  and  C9_9 
REMARK    5  A    between atoms: C22_22  and  O1_23 
REMARK    6  A    between atoms: C23_24  and  O2_25 
REMARK    7  A    between atoms: C24_26  and  O3_27 
ROOT
HETATM    1  C9  UNL     1      -3.405  49.875 -21.962  1.00  0.00    -0.002 C 
HETATM    2  C10 UNL     1      -2.259  49.567 -22.967  1.00  0.00     0.007 C 
HETATM    3  C11 UNL     1      -2.896  49.084 -24.282  1.00  0.00     0.015 C 
HETATM    4  C12 UNL     1      -4.379  49.460 -24.158  1.00  0.00    -0.013 C 
HETATM    5  C13 UNL     1      -4.508  50.961 -24.565  1.00  0.00     0.021 C 
HETATM    6  C14 UNL     1      -5.398  48.725 -25.021  1.00  0.00    -0.068 C 
HETATM    7  C15 UNL     1      -6.681  48.601 -24.594  1.00  0.00    -0.065 C 
HETATM    8  C16 UNL     1      -7.111  49.097 -23.211  1.00  0.00     0.036 C 
HETATM    9  C17 UNL     1      -6.023  49.690 -22.287  1.00  0.00     0.015 C 
HETATM   10  C18 UNL     1      -4.626  49.156 -22.629  1.00  0.00    -0.029 C 
HETATM   11  C19 UNL     1      -4.575  47.631 -22.295  1.00  0.00     0.016 C 
HETATM   12  C20 UNL     1      -7.767  47.906 -25.458  1.00  0.00     0.012 C 
HETATM   13  C21 UNL     1      -7.850  46.447 -24.931  1.00  0.00     0.023 C 
HETATM   14  C22 UNL     1      -9.177  48.568 -25.326  1.00  0.00     0.162 C 
HETATM   15  C23 UNL     1     -10.221  47.895 -26.229  1.00  0.00     0.177 C 
HETATM   16  C24 UNL     1      -9.792  47.900 -27.700  1.00  0.00     0.153 C 
HETATM   17  C25 UNL     1      -8.397  47.281 -27.915  1.00  0.00     0.018 C 
HETATM   18  C26 UNL     1      -8.012  47.395 -29.399  1.00  0.00     0.013 C 
HETATM   19  C27 UNL     1      -7.354  47.958 -26.978  1.00  0.00     0.007 C 
HETATM   20  C28 UNL     1      -5.934  47.411 -27.161  1.00  0.00     0.010 C 
HETATM   21  C29 UNL     1      -4.920  48.230 -26.366  1.00  0.00     0.036 C 
ENDROOT
BRANCH   1  22
HETATM   22  C7  UNL     1      -3.022  49.547 -20.484  1.00  0.00    -0.014 C 
HETATM   23  C8  UNL     1      -3.548  50.611 -19.508  1.00  0.00     0.010 C 
BRANCH  22  24
HETATM   24  C6  UNL     1      -1.483  49.449 -20.259  1.00  0.00     0.008 C 
BRANCH  24  25
HETATM   25  C5  UNL     1      -0.623  50.293 -21.207  1.00  0.00     0.028 C 
BRANCH  25  26
HETATM   26  C4  UNL     1      -0.177  51.567 -20.538  1.00  0.00    -0.025 C 
HETATM   27  C2  UNL     1       0.327  52.678 -21.111  1.00  0.00    -0.091 C 
HETATM   28  C1  UNL     1       0.539  52.883 -22.585  1.00  0.00     0.042 C 
HETATM   29  C3  UNL     1       0.738  53.854 -20.262  1.00  0.00     0.042 C 
ENDBRANCH  25  26
ENDBRANCH  24  25
ENDBRANCH  22  24
ENDBRANCH   1  22
BRANCH  14  30
HETATM   30  O1  UNL     1      -9.123  49.963 -25.668  1.00  0.00    -0.392 OA
HETATM   31  H35 UNL     1     -10.041  50.238 -25.857  1.00  0.00     0.210 HD
ENDBRANCH  14  30
BRANCH  15  32
HETATM   32  O2  UNL     1     -11.468  48.617 -26.128  1.00  0.00    -0.390 OA
HETATM   33  H37 UNL     1     -11.826  48.437 -25.238  1.00  0.00     0.210 HD
ENDBRANCH  15  32
BRANCH  16  34
HETATM   34  O3  UNL     1     -10.771  47.162 -28.446  1.00  0.00    -0.393 OA
HETATM   35  H39 UNL     1     -11.623  47.587 -28.233  1.00  0.00     0.210 HD
ENDBRANCH  16  34
TORSDOF 7
ENDMDL
