MODEL 1
REMARK minimizedAffinity -10.0979872
REMARK CNNscore 0.460327089
REMARK CNNaffinity 7.57696342
REMARK  14 active torsions:
REMARK  status: ('A' for Active; 'I' for Inactive)
REMARK    1  A    between atoms: O1_2  and  C2_3 
REMARK    2  A    between atoms: C2_3  and  C3_5 
REMARK    3  A    between atoms: C3_5  and  C4_6 
REMARK    4  A    between atoms: C3_5  and  N2_16 
REMARK    5  A    between atoms: C4_6  and  C5_7 
REMARK       I    between atoms: N2_16  and  C13_17 
REMARK    6  A    between atoms: C13_17  and  C14_19 
REMARK    7  A    between atoms: C14_19  and  C15_20 
REMARK    8  A    between atoms: C15_20  and  C16_21 
REMARK    9  A    between atoms: C16_21  and  O5_23 
REMARK   10  A    between atoms: O5_23  and  C17_24 
REMARK   11  A    between atoms: C17_24  and  C18_25 
REMARK   12  A    between atoms: C18_25  and  C19_27 
REMARK   13  A    between atoms: C19_27  and  O7_28 
REMARK   14  A    between atoms: C34_44  and  O9_45 
ROOT
HETATM    1  C17 UNL     1      -1.520   9.462  15.707  1.00  0.00     0.260 C 
ENDROOT
BRANCH   1   2
HETATM    2  O5  UNL     1      -2.612   9.103  16.553  1.00  0.00    -0.314 OA
BRANCH   2   3
HETATM    3  C16 UNL     1      -3.585   8.414  15.896  1.00  0.00     0.259 C 
HETATM    4  O4  UNL     1      -3.670   7.192  15.873  1.00  0.00    -0.265 OA
BRANCH   3   5
HETATM    5  C15 UNL     1      -4.471   9.326  15.083  1.00  0.00     0.120 C 
BRANCH   5   6
HETATM    6  C14 UNL     1      -5.218   8.635  13.948  1.00  0.00     0.112 C 
BRANCH   6   7
HETATM    7  C13 UNL     1      -6.551   8.075  14.393  1.00  0.00     0.218 C 
HETATM    8  N2  UNL     1      -6.734   6.767  14.023  1.00  0.00    -0.347 N 
HETATM    9  H13 UNL     1      -6.068   6.311  13.411  1.00  0.00     0.163 HD
HETATM   10  O3  UNL     1      -7.368   8.710  15.046  1.00  0.00    -0.274 OA
BRANCH   8  11
HETATM   11  C3  UNL     1      -7.956   6.008  14.358  1.00  0.00     0.188 C 
BRANCH  11  12
HETATM   12  C2  UNL     1      -8.918   5.994  13.151  1.00  0.00     0.281 C 
HETATM   13  O2  UNL     1      -8.586   5.865  11.978  1.00  0.00    -0.263 OA
BRANCH  12  14
HETATM   14  O1  UNL     1     -10.219   6.176  13.558  1.00  0.00    -0.325 OA
HETATM   15  C1  UNL     1     -10.357   7.137  14.610  1.00  0.00     0.213 C 
ENDBRANCH  12  14
ENDBRANCH  11  12
BRANCH  11  16
HETATM   16  C4  UNL     1      -7.587   4.571  14.757  1.00  0.00     0.076 C 
BRANCH  16  17
HETATM   17  C5  UNL     1      -7.171   3.706  13.608  1.00  0.00    -0.028 A 
HETATM   18  C6  UNL     1      -7.909   2.686  13.038  1.00  0.00     0.096 A 
HETATM   19  N1  UNL     1      -7.175   2.137  12.021  1.00  0.00    -0.365 N 
HETATM   20  C7  UNL     1      -5.977   2.797  11.889  1.00  0.00     0.042 A 
HETATM   21  H8  UNL     1      -7.470   1.365  11.439  1.00  0.00     0.165 HD
HETATM   22  C8  UNL     1      -4.932   2.593  10.981  1.00  0.00     0.030 A 
HETATM   23  C12 UNL     1      -5.942   3.787  12.874  1.00  0.00    -0.002 A 
HETATM   24  C9  UNL     1      -3.815   3.425  11.081  1.00  0.00     0.002 A 
HETATM   25  C10 UNL     1      -3.748   4.423  12.052  1.00  0.00     0.001 A 
HETATM   26  C11 UNL     1      -4.804   4.615  12.951  1.00  0.00     0.014 A 
ENDBRANCH  16  17
ENDBRANCH  11  16
ENDBRANCH   8  11
ENDBRANCH   6   7
ENDBRANCH   5   6
ENDBRANCH   3   5
ENDBRANCH   2   3
ENDBRANCH   1   2
BRANCH   1  27
HETATM   27  C18 UNL     1      -0.793   8.213  15.250  1.00  0.00     0.185 C 
HETATM   28  O6  UNL     1      -0.151   7.537  16.058  1.00  0.00    -0.292 OA
BRANCH  27  29
HETATM   29  C19 UNL     1      -0.856   7.851  13.746  1.00  0.00     0.128 C 
HETATM   30  C20 UNL     1      -1.599   8.954  12.924  1.00  0.00     0.047 C 
HETATM   31  C21 UNL     1      -0.863   9.091  11.579  1.00  0.00     0.009 C 
HETATM   32  C22 UNL     1       0.058   7.880  11.545  1.00  0.00     0.002 C 
HETATM   33  C23 UNL     1       1.194   7.844  10.510  1.00  0.00    -0.002 C 
HETATM   34  C36 UNL     1       0.528   7.737  13.016  1.00  0.00     0.001 C 
HETATM   35  C24 UNL     1       0.630   8.041   9.094  1.00  0.00     0.010 C 
HETATM   36  C33 UNL     1       1.920   6.468  10.629  1.00  0.00     0.031 C 
HETATM   37  C25 UNL     1       1.696   7.886   8.022  1.00  0.00     0.035 C 
HETATM   38  C26 UNL     1       2.406   6.561   8.139  1.00  0.00    -0.068 C 
HETATM   39  C27 UNL     1       2.485   5.744   7.075  1.00  0.00     0.053 C 
HETATM   40  C31 UNL     1       3.020   6.242   9.513  1.00  0.00    -0.014 C 
HETATM   41  C28 UNL     1       3.300   4.508   7.105  1.00  0.00     0.149 C 
HETATM   42  O8  UNL     1       3.307   3.763   6.127  1.00  0.00    -0.293 OA
HETATM   43  C29 UNL     1       4.167   4.268   8.313  1.00  0.00     0.084 C 
HETATM   44  C30 UNL     1       3.456   4.749   9.568  1.00  0.00     0.022 C 
HETATM   45  C32 UNL     1       4.269   7.134   9.674  1.00  0.00     0.020 C 
HETATM   46  C34 UNL     1       2.383   6.181  12.087  1.00  0.00     0.124 C 
HETATM   47  C35 UNL     1       1.259   6.378  13.130  1.00  0.00     0.045 C 
HETATM   48  C37 UNL     1       1.457   8.890  13.477  1.00  0.00     0.019 C 
BRANCH  29  49
HETATM   49  O7  UNL     1      -1.577   6.625  13.589  1.00  0.00    -0.381 OA
HETATM   50  H20 UNL     1      -2.516   6.803  13.794  1.00  0.00     0.211 HD
ENDBRANCH  29  49
BRANCH  46  51
HETATM   51  O9  UNL     1       3.497   6.991  12.437  1.00  0.00    -0.395 OA
HETATM   52  H41 UNL     1       3.841   6.673  13.290  1.00  0.00     0.210 HD
ENDBRANCH  46  51
ENDBRANCH  27  29
ENDBRANCH   1  27
TORSDOF 14
ENDMDL
MODEL 2
REMARK minimizedAffinity -9.35075665
REMARK CNNscore 0.35409385
REMARK CNNaffinity 6.68922424
REMARK  14 active torsions:
REMARK  status: ('A' for Active; 'I' for Inactive)
REMARK    1  A    between atoms: O1_2  and  C2_3 
REMARK    2  A    between atoms: C2_3  and  C3_5 
REMARK    3  A    between atoms: C3_5  and  C4_6 
REMARK    4  A    between atoms: C3_5  and  N2_16 
REMARK    5  A    between atoms: C4_6  and  C5_7 
REMARK       I    between atoms: N2_16  and  C13_17 
REMARK    6  A    between atoms: C13_17  and  C14_19 
REMARK    7  A    between atoms: C14_19  and  C15_20 
REMARK    8  A    between atoms: C15_20  and  C16_21 
REMARK    9  A    between atoms: C16_21  and  O5_23 
REMARK   10  A    between atoms: O5_23  and  C17_24 
REMARK   11  A    between atoms: C17_24  and  C18_25 
REMARK   12  A    between atoms: C18_25  and  C19_27 
REMARK   13  A    between atoms: C19_27  and  O7_28 
REMARK   14  A    between atoms: C34_44  and  O9_45 
ROOT
HETATM    1  C17 UNL     1       2.966   6.476   9.274  1.00  0.00     0.260 C 
ENDROOT
BRANCH   1   2
HETATM    2  O5  UNL     1       1.788   6.428  10.077  1.00  0.00    -0.314 OA
BRANCH   2   3
HETATM    3  C16 UNL     1       0.851   7.340   9.696  1.00  0.00     0.259 C 
HETATM    4  O4  UNL     1       0.760   7.807   8.568  1.00  0.00    -0.265 OA
BRANCH   3   5
HETATM    5  C15 UNL     1       0.018   7.814  10.863  1.00  0.00     0.120 C 
BRANCH   5   6
HETATM    6  C14 UNL     1      -0.377   6.718  11.845  1.00  0.00     0.112 C 
BRANCH   6   7
HETATM    7  C13 UNL     1      -1.650   7.048  12.593  1.00  0.00     0.218 C 
HETATM    8  N2  UNL     1      -2.098   6.011  13.373  1.00  0.00    -0.347 N 
HETATM    9  H13 UNL     1      -1.652   5.103  13.320  1.00  0.00     0.163 HD
HETATM   10  O3  UNL     1      -2.206   8.136  12.537  1.00  0.00    -0.274 OA
BRANCH   8  11
HETATM   11  C3  UNL     1      -3.316   6.107  14.201  1.00  0.00     0.188 C 
BRANCH  11  12
HETATM   12  C2  UNL     1      -3.155   7.229  15.250  1.00  0.00     0.281 C 
HETATM   13  O2  UNL     1      -2.165   7.412  15.950  1.00  0.00    -0.263 OA
BRANCH  12  14
HETATM   14  O1  UNL     1      -4.294   7.996  15.327  1.00  0.00    -0.325 OA
HETATM   15  C1  UNL     1      -4.032   9.403  15.365  1.00  0.00     0.213 C 
ENDBRANCH  12  14
ENDBRANCH  11  12
BRANCH  11  16
HETATM   16  C4  UNL     1      -4.535   6.389  13.310  1.00  0.00     0.076 C 
BRANCH  16  17
HETATM   17  C5  UNL     1      -5.632   5.378  13.437  1.00  0.00    -0.028 A 
HETATM   18  C6  UNL     1      -6.752   5.479  14.242  1.00  0.00     0.096 A 
HETATM   19  N1  UNL     1      -7.504   4.346  14.079  1.00  0.00    -0.365 N 
HETATM   20  C7  UNL     1      -6.915   3.513  13.158  1.00  0.00     0.042 A 
HETATM   21  H8  UNL     1      -8.373   4.149  14.555  1.00  0.00     0.165 HD
HETATM   22  C8  UNL     1      -7.335   2.270  12.671  1.00  0.00     0.030 A 
HETATM   23  C12 UNL     1      -5.735   4.131  12.738  1.00  0.00    -0.002 A 
HETATM   24  C9  UNL     1      -6.525   1.637  11.726  1.00  0.00     0.002 A 
HETATM   25  C10 UNL     1      -5.341   2.226  11.285  1.00  0.00     0.001 A 
HETATM   26  C11 UNL     1      -4.937   3.472  11.781  1.00  0.00     0.014 A 
ENDBRANCH  16  17
ENDBRANCH  11  16
ENDBRANCH   8  11
ENDBRANCH   6   7
ENDBRANCH   5   6
ENDBRANCH   3   5
ENDBRANCH   2   3
ENDBRANCH   1   2
BRANCH   1  27
HETATM   27  C18 UNL     1       3.890   7.565   9.784  1.00  0.00     0.185 C 
HETATM   28  O6  UNL     1       4.017   8.618   9.153  1.00  0.00    -0.292 OA
BRANCH  27  29
HETATM   29  C19 UNL     1       4.682   7.288  11.085  1.00  0.00     0.128 C 
HETATM   30  C20 UNL     1       5.734   6.149  10.881  1.00  0.00     0.047 C 
HETATM   31  C21 UNL     1       6.989   6.542  11.682  1.00  0.00     0.009 C 
HETATM   32  C22 UNL     1       6.518   7.702  12.548  1.00  0.00     0.002 C 
HETATM   33  C23 UNL     1       7.571   8.579  13.245  1.00  0.00    -0.002 C 
HETATM   34  C36 UNL     1       5.549   8.481  11.620  1.00  0.00     0.001 C 
HETATM   35  C24 UNL     1       8.506   7.709  14.099  1.00  0.00     0.010 C 
HETATM   36  C33 UNL     1       6.826   9.625  14.131  1.00  0.00     0.031 C 
HETATM   37  C25 UNL     1       9.486   8.541  14.910  1.00  0.00     0.035 C 
HETATM   38  C26 UNL     1       8.770   9.559  15.762  1.00  0.00    -0.068 C 
HETATM   39  C27 UNL     1       9.007   9.616  17.084  1.00  0.00     0.053 C 
HETATM   40  C31 UNL     1       7.800  10.498  15.023  1.00  0.00    -0.014 C 
HETATM   41  C28 UNL     1       8.442  10.694  17.927  1.00  0.00     0.149 C 
HETATM   42  O8  UNL     1       8.643  10.683  19.140  1.00  0.00    -0.293 OA
HETATM   43  C29 UNL     1       7.719  11.820  17.236  1.00  0.00     0.084 C 
HETATM   44  C30 UNL     1       6.934  11.283  16.049  1.00  0.00     0.022 C 
HETATM   45  C32 UNL     1       8.656  11.500  14.220  1.00  0.00     0.020 C 
HETATM   46  C34 UNL     1       5.771  10.430  13.317  1.00  0.00     0.124 C 
HETATM   47  C35 UNL     1       4.821   9.527  12.497  1.00  0.00     0.045 C 
HETATM   48  C37 UNL     1       6.265   9.177  10.433  1.00  0.00     0.019 C 
BRANCH  29  49
HETATM   49  O7  UNL     1       3.772   6.868  12.107  1.00  0.00    -0.381 OA
HETATM   50  H20 UNL     1       3.451   5.976  11.872  1.00  0.00     0.211 HD
ENDBRANCH  29  49
BRANCH  46  51
HETATM   51  O9  UNL     1       6.401  11.361  12.448  1.00  0.00    -0.395 OA
HETATM   52  H41 UNL     1       5.709  11.937  12.077  1.00  0.00     0.210 HD
ENDBRANCH  46  51
ENDBRANCH  27  29
ENDBRANCH   1  27
TORSDOF 14
ENDMDL
MODEL 3
REMARK minimizedAffinity -8.81195354
REMARK CNNscore 0.312645257
REMARK CNNaffinity 7.0923562
REMARK  14 active torsions:
REMARK  status: ('A' for Active; 'I' for Inactive)
REMARK    1  A    between atoms: O1_2  and  C2_3 
REMARK    2  A    between atoms: C2_3  and  C3_5 
REMARK    3  A    between atoms: C3_5  and  C4_6 
REMARK    4  A    between atoms: C3_5  and  N2_16 
REMARK    5  A    between atoms: C4_6  and  C5_7 
REMARK       I    between atoms: N2_16  and  C13_17 
REMARK    6  A    between atoms: C13_17  and  C14_19 
REMARK    7  A    between atoms: C14_19  and  C15_20 
REMARK    8  A    between atoms: C15_20  and  C16_21 
REMARK    9  A    between atoms: C16_21  and  O5_23 
REMARK   10  A    between atoms: O5_23  and  C17_24 
REMARK   11  A    between atoms: C17_24  and  C18_25 
REMARK   12  A    between atoms: C18_25  and  C19_27 
REMARK   13  A    between atoms: C19_27  and  O7_28 
REMARK   14  A    between atoms: C34_44  and  O9_45 
ROOT
HETATM    1  C17 UNL     1      -3.744  10.159  16.178  1.00  0.00     0.260 C 
ENDROOT
BRANCH   1   2
HETATM    2  O5  UNL     1      -3.833   9.997  14.764  1.00  0.00    -0.314 OA
BRANCH   2   3
HETATM    3  C16 UNL     1      -4.663   8.981  14.400  1.00  0.00     0.259 C 
HETATM    4  O4  UNL     1      -5.125   8.836  13.275  1.00  0.00    -0.265 OA
BRANCH   3   5
HETATM    5  C15 UNL     1      -5.061   8.127  15.580  1.00  0.00     0.120 C 
BRANCH   5   6
HETATM    6  C14 UNL     1      -4.993   6.626  15.326  1.00  0.00     0.112 C 
BRANCH   6   7
HETATM    7  C13 UNL     1      -6.345   6.037  14.993  1.00  0.00     0.218 C 
HETATM    8  N2  UNL     1      -6.794   6.395  13.747  1.00  0.00    -0.347 N 
HETATM    9  H13 UNL     1      -6.290   7.083  13.200  1.00  0.00     0.163 HD
HETATM   10  O3  UNL     1      -6.961   5.289  15.740  1.00  0.00    -0.274 OA
BRANCH   8  11
HETATM   11  C3  UNL     1      -8.085   5.929  13.201  1.00  0.00     0.188 C 
BRANCH  11  12
HETATM   12  C2  UNL     1      -7.963   4.463  12.733  1.00  0.00     0.281 C 
HETATM   13  O2  UNL     1      -8.808   3.590  12.900  1.00  0.00    -0.263 OA
BRANCH  12  14
HETATM   14  O1  UNL     1      -6.753   4.243  12.118  1.00  0.00    -0.325 OA
HETATM   15  C1  UNL     1      -6.353   2.868  12.122  1.00  0.00     0.213 C 
ENDBRANCH  12  14
ENDBRANCH  11  12
BRANCH  11  16
HETATM   16  C4  UNL     1      -9.180   6.051  14.272  1.00  0.00     0.076 C 
BRANCH  16  17
HETATM   17  C5  UNL     1      -9.644   7.454  14.514  1.00  0.00    -0.028 A 
HETATM   18  C6  UNL     1      -9.045   8.386  15.341  1.00  0.00     0.096 A 
HETATM   19  N1  UNL     1      -9.778   9.541  15.292  1.00  0.00    -0.365 N 
HETATM   20  C7  UNL     1     -10.834   9.398  14.425  1.00  0.00     0.042 A 
HETATM   21  H8  UNL     1      -9.573  10.386  15.808  1.00  0.00     0.165 HD
HETATM   22  C8  UNL     1     -11.824  10.316  14.053  1.00  0.00     0.030 A 
HETATM   23  C12 UNL     1     -10.780   8.097  13.921  1.00  0.00    -0.002 A 
HETATM   24  C9  UNL     1     -12.790   9.890  13.137  1.00  0.00     0.002 A 
HETATM   25  C10 UNL     1     -12.765   8.598  12.615  1.00  0.00     0.001 A 
HETATM   26  C11 UNL     1     -11.766   7.694  12.997  1.00  0.00     0.014 A 
ENDBRANCH  16  17
ENDBRANCH  11  16
ENDBRANCH   8  11
ENDBRANCH   6   7
ENDBRANCH   5   6
ENDBRANCH   3   5
ENDBRANCH   2   3
ENDBRANCH   1   2
BRANCH   1  27
HETATM   27  C18 UNL     1      -2.417   9.620  16.674  1.00  0.00     0.185 C 
HETATM   28  O6  UNL     1      -2.348   9.043  17.763  1.00  0.00    -0.292 OA
BRANCH  27  29
HETATM   29  C19 UNL     1      -1.167   9.855  15.791  1.00  0.00     0.128 C 
HETATM   30  C20 UNL     1       0.149   9.775  16.631  1.00  0.00     0.047 C 
HETATM   31  C21 UNL     1       1.204   9.075  15.756  1.00  0.00     0.009 C 
HETATM   32  C22 UNL     1       0.574   9.059  14.371  1.00  0.00     0.002 C 
HETATM   33  C23 UNL     1       1.182   8.147  13.292  1.00  0.00    -0.002 C 
HETATM   34  C36 UNL     1      -0.928   8.799  14.656  1.00  0.00     0.001 C 
HETATM   35  C24 UNL     1       2.679   8.453  13.120  1.00  0.00     0.010 C 
HETATM   36  C33 UNL     1       0.412   8.390  11.957  1.00  0.00     0.031 C 
HETATM   37  C25 UNL     1       3.299   7.668  11.977  1.00  0.00     0.035 C 
HETATM   38  C26 UNL     1       2.552   7.893  10.686  1.00  0.00    -0.068 C 
HETATM   39  C27 UNL     1       3.213   8.294   9.587  1.00  0.00     0.053 C 
HETATM   40  C31 UNL     1       1.038   7.619  10.724  1.00  0.00    -0.014 C 
HETATM   41  C28 UNL     1       2.545   8.380   8.268  1.00  0.00     0.149 C 
HETATM   42  O8  UNL     1       3.174   8.798   7.298  1.00  0.00    -0.293 OA
HETATM   43  C29 UNL     1       1.139   7.854   8.157  1.00  0.00     0.084 C 
HETATM   44  C30 UNL     1       0.366   8.163   9.430  1.00  0.00     0.022 C 
HETATM   45  C32 UNL     1       0.850   6.088  10.781  1.00  0.00     0.020 C 
HETATM   46  C34 UNL     1      -1.126   8.221  12.135  1.00  0.00     0.124 C 
HETATM   47  C35 UNL     1      -1.690   9.026  13.328  1.00  0.00     0.045 C 
HETATM   48  C37 UNL     1      -1.211   7.375  15.202  1.00  0.00     0.019 C 
BRANCH  29  49
HETATM   49  O7  UNL     1      -1.241  11.162  15.213  1.00  0.00    -0.381 OA
HETATM   50  H20 UNL     1      -1.108  11.813  15.930  1.00  0.00     0.211 HD
ENDBRANCH  29  49
BRANCH  46  51
HETATM   51  O9  UNL     1      -1.473   6.851  12.286  1.00  0.00    -0.395 OA
HETATM   52  H41 UNL     1      -2.443   6.784  12.242  1.00  0.00     0.210 HD
ENDBRANCH  46  51
ENDBRANCH  27  29
ENDBRANCH   1  27
TORSDOF 14
ENDMDL
MODEL 4
REMARK minimizedAffinity -9.22686291
REMARK CNNscore 0.305045962
REMARK CNNaffinity 6.89541006
REMARK  14 active torsions:
REMARK  status: ('A' for Active; 'I' for Inactive)
REMARK    1  A    between atoms: O1_2  and  C2_3 
REMARK    2  A    between atoms: C2_3  and  C3_5 
REMARK    3  A    between atoms: C3_5  and  C4_6 
REMARK    4  A    between atoms: C3_5  and  N2_16 
REMARK    5  A    between atoms: C4_6  and  C5_7 
REMARK       I    between atoms: N2_16  and  C13_17 
REMARK    6  A    between atoms: C13_17  and  C14_19 
REMARK    7  A    between atoms: C14_19  and  C15_20 
REMARK    8  A    between atoms: C15_20  and  C16_21 
REMARK    9  A    between atoms: C16_21  and  O5_23 
REMARK   10  A    between atoms: O5_23  and  C17_24 
REMARK   11  A    between atoms: C17_24  and  C18_25 
REMARK   12  A    between atoms: C18_25  and  C19_27 
REMARK   13  A    between atoms: C19_27  and  O7_28 
REMARK   14  A    between atoms: C34_44  and  O9_45 
ROOT
HETATM    1  C17 UNL     1       1.764   9.420  14.576  1.00  0.00     0.260 C 
ENDROOT
BRANCH   1   2
HETATM    2  O5  UNL     1       2.431  10.284  15.494  1.00  0.00    -0.314 OA
BRANCH   2   3
HETATM    3  C16 UNL     1       2.480   9.777  16.757  1.00  0.00     0.259 C 
HETATM    4  O4  UNL     1       2.315   8.596  17.034  1.00  0.00    -0.265 OA
BRANCH   3   5
HETATM    5  C15 UNL     1       2.626  10.863  17.795  1.00  0.00     0.120 C 
BRANCH   5   6
HETATM    6  C14 UNL     1       1.882  10.597  19.098  1.00  0.00     0.112 C 
BRANCH   6   7
HETATM    7  C13 UNL     1       2.816  10.482  20.282  1.00  0.00     0.218 C 
HETATM    8  N2  UNL     1       2.227  10.844  21.467  1.00  0.00    -0.347 N 
HETATM    9  H13 UNL     1       1.301  11.253  21.474  1.00  0.00     0.163 HD
HETATM   10  O3  UNL     1       3.968  10.077  20.199  1.00  0.00    -0.274 OA
BRANCH   8  11
HETATM   11  C3  UNL     1       2.944  10.801  22.757  1.00  0.00     0.188 C 
BRANCH  11  12
HETATM   12  C2  UNL     1       2.721   9.434  23.441  1.00  0.00     0.281 C 
HETATM   13  O2  UNL     1       2.557   8.367  22.860  1.00  0.00    -0.263 OA
BRANCH  12  14
HETATM   14  O1  UNL     1       2.698   9.568  24.809  1.00  0.00    -0.325 OA
HETATM   15  C1  UNL     1       1.544   8.981  25.420  1.00  0.00     0.213 C 
ENDBRANCH  12  14
ENDBRANCH  11  12
BRANCH  11  16
HETATM   16  C4  UNL     1       4.445  11.039  22.531  1.00  0.00     0.076 C 
BRANCH  16  17
HETATM   17  C5  UNL     1       4.879  12.454  22.755  1.00  0.00    -0.028 A 
HETATM   18  C6  UNL     1       4.058  13.565  22.820  1.00  0.00     0.096 A 
HETATM   19  N1  UNL     1       4.841  14.669  23.028  1.00  0.00    -0.365 N 
HETATM   20  C7  UNL     1       6.161  14.303  23.131  1.00  0.00     0.042 A 
HETATM   21  H8  UNL     1       4.502  15.618  23.107  1.00  0.00     0.165 HD
HETATM   22  C8  UNL     1       7.297  15.088  23.360  1.00  0.00     0.030 A 
HETATM   23  C12 UNL     1       6.219  12.918  22.961  1.00  0.00    -0.002 A 
HETATM   24  C9  UNL     1       8.533  14.439  23.416  1.00  0.00     0.002 A 
HETATM   25  C10 UNL     1       8.626  13.058  23.250  1.00  0.00     0.001 A 
HETATM   26  C11 UNL     1       7.479  12.287  23.025  1.00  0.00     0.014 A 
ENDBRANCH  16  17
ENDBRANCH  11  16
ENDBRANCH   8  11
ENDBRANCH   6   7
ENDBRANCH   5   6
ENDBRANCH   3   5
ENDBRANCH   2   3
ENDBRANCH   1   2
BRANCH   1  27
HETATM   27  C18 UNL     1       0.354   9.921  14.331  1.00  0.00     0.185 C 
HETATM   28  O6  UNL     1      -0.015  10.997  14.811  1.00  0.00    -0.292 OA
BRANCH  27  29
HETATM   29  C19 UNL     1      -0.597   9.025  13.502  1.00  0.00     0.128 C 
HETATM   30  C20 UNL     1       0.147   7.770  12.940  1.00  0.00     0.047 C 
HETATM   31  C21 UNL     1      -0.834   6.586  13.021  1.00  0.00     0.009 C 
HETATM   32  C22 UNL     1      -2.173   7.245  13.324  1.00  0.00     0.002 C 
HETATM   33  C23 UNL     1      -3.337   6.364  13.806  1.00  0.00    -0.002 C 
HETATM   34  C36 UNL     1      -1.801   8.399  14.290  1.00  0.00     0.001 C 
HETATM   35  C24 UNL     1      -3.593   5.226  12.805  1.00  0.00     0.010 C 
HETATM   36  C33 UNL     1      -4.602   7.266  13.953  1.00  0.00     0.031 C 
HETATM   37  C25 UNL     1      -4.817   4.403  13.169  1.00  0.00     0.035 C 
HETATM   38  C26 UNL     1      -6.040   5.271  13.321  1.00  0.00    -0.068 C 
HETATM   39  C27 UNL     1      -7.158   4.986  12.631  1.00  0.00     0.053 C 
HETATM   40  C31 UNL     1      -5.914   6.451  14.301  1.00  0.00    -0.014 C 
HETATM   41  C28 UNL     1      -8.422   5.720  12.865  1.00  0.00     0.149 C 
HETATM   42  O8  UNL     1      -9.409   5.461  12.179  1.00  0.00    -0.293 OA
HETATM   43  C29 UNL     1      -8.466   6.696  14.011  1.00  0.00     0.084 C 
HETATM   44  C30 UNL     1      -7.129   7.410  14.138  1.00  0.00     0.022 C 
HETATM   45  C32 UNL     1      -5.928   5.864  15.728  1.00  0.00     0.020 C 
HETATM   46  C34 UNL     1      -4.330   8.505  14.856  1.00  0.00     0.124 C 
HETATM   47  C35 UNL     1      -3.060   9.285  14.446  1.00  0.00     0.045 C 
HETATM   48  C37 UNL     1      -1.314   7.905  15.678  1.00  0.00     0.019 C 
BRANCH  29  49
HETATM   49  O7  UNL     1      -1.097   9.774  12.390  1.00  0.00    -0.381 OA
HETATM   50  H20 UNL     1      -0.357   9.914  11.768  1.00  0.00     0.211 HD
ENDBRANCH  29  49
BRANCH  46  51
HETATM   51  O9  UNL     1      -4.231   8.127  16.222  1.00  0.00    -0.395 OA
HETATM   52  H41 UNL     1      -4.212   8.941  16.755  1.00  0.00     0.210 HD
ENDBRANCH  46  51
ENDBRANCH  27  29
ENDBRANCH   1  27
TORSDOF 14
ENDMDL
MODEL 5
REMARK minimizedAffinity -8.83428669
REMARK CNNscore 0.289527059
REMARK CNNaffinity 7.02494287
REMARK  14 active torsions:
REMARK  status: ('A' for Active; 'I' for Inactive)
REMARK    1  A    between atoms: O1_2  and  C2_3 
REMARK    2  A    between atoms: C2_3  and  C3_5 
REMARK    3  A    between atoms: C3_5  and  C4_6 
REMARK    4  A    between atoms: C3_5  and  N2_16 
REMARK    5  A    between atoms: C4_6  and  C5_7 
REMARK       I    between atoms: N2_16  and  C13_17 
REMARK    6  A    between atoms: C13_17  and  C14_19 
REMARK    7  A    between atoms: C14_19  and  C15_20 
REMARK    8  A    between atoms: C15_20  and  C16_21 
REMARK    9  A    between atoms: C16_21  and  O5_23 
REMARK   10  A    between atoms: O5_23  and  C17_24 
REMARK   11  A    between atoms: C17_24  and  C18_25 
REMARK   12  A    between atoms: C18_25  and  C19_27 
REMARK   13  A    between atoms: C19_27  and  O7_28 
REMARK   14  A    between atoms: C34_44  and  O9_45 
ROOT
HETATM    1  C17 UNL     1      -7.196   7.166  15.926  1.00  0.00     0.260 C 
ENDROOT
BRANCH   1   2
HETATM    2  O5  UNL     1      -8.352   6.334  15.843  1.00  0.00    -0.314 OA
BRANCH   2   3
HETATM    3  C16 UNL     1      -8.737   6.089  14.560  1.00  0.00     0.259 C 
HETATM    4  O4  UNL     1      -8.319   5.161  13.879  1.00  0.00    -0.265 OA
BRANCH   3   5
HETATM    5  C15 UNL     1      -9.637   7.176  14.024  1.00  0.00     0.120 C 
BRANCH   5   6
HETATM    6  C14 UNL     1     -10.772   7.576  14.960  1.00  0.00     0.112 C 
BRANCH   6   7
HETATM    7  C13 UNL     1     -12.134   7.283  14.370  1.00  0.00     0.218 C 
HETATM    8  N2  UNL     1     -13.126   7.225  15.316  1.00  0.00    -0.347 N 
HETATM    9  H13 UNL     1     -12.896   7.260  16.302  1.00  0.00     0.163 HD
HETATM   10  O3  UNL     1     -12.338   7.147  13.172  1.00  0.00    -0.274 OA
BRANCH   8  11
HETATM   11  C3  UNL     1     -14.538   6.964  14.973  1.00  0.00     0.188 C 
BRANCH  11  12
HETATM   12  C2  UNL     1     -15.032   8.000  13.940  1.00  0.00     0.281 C 
HETATM   13  O2  UNL     1     -14.921   9.217  14.045  1.00  0.00    -0.263 OA
BRANCH  12  14
HETATM   14  O1  UNL     1     -15.652   7.381  12.881  1.00  0.00    -0.325 OA
HETATM   15  C1  UNL     1     -16.757   8.123  12.354  1.00  0.00     0.213 C 
ENDBRANCH  12  14
ENDBRANCH  11  12
BRANCH  11  16
HETATM   16  C4  UNL     1     -14.686   5.543  14.406  1.00  0.00     0.076 C 
BRANCH  16  17
HETATM   17  C5  UNL     1     -15.709   4.708  15.110  1.00  0.00    -0.028 A 
HETATM   18  C6  UNL     1     -16.812   5.171  15.803  1.00  0.00     0.096 A 
HETATM   19  N1  UNL     1     -17.491   4.093  16.305  1.00  0.00    -0.365 N 
HETATM   20  C7  UNL     1     -16.871   2.925  15.932  1.00  0.00     0.042 A 
HETATM   21  H8  UNL     1     -18.333   4.141  16.862  1.00  0.00     0.165 HD
HETATM   22  C8  UNL     1     -17.219   1.596  16.200  1.00  0.00     0.030 A 
HETATM   23  C12 UNL     1     -15.746   3.277  15.182  1.00  0.00    -0.002 A 
HETATM   24  C9  UNL     1     -16.392   0.594  15.687  1.00  0.00     0.002 A 
HETATM   25  C10 UNL     1     -15.262   0.911  14.935  1.00  0.00     0.001 A 
HETATM   26  C11 UNL     1     -14.930   2.245  14.675  1.00  0.00     0.014 A 
ENDBRANCH  16  17
ENDBRANCH  11  16
ENDBRANCH   8  11
ENDBRANCH   6   7
ENDBRANCH   5   6
ENDBRANCH   3   5
ENDBRANCH   2   3
ENDBRANCH   1   2
BRANCH   1  27
HETATM   27  C18 UNL     1      -5.962   6.366  15.557  1.00  0.00     0.185 C 
HETATM   28  O6  UNL     1      -5.576   5.447  16.284  1.00  0.00    -0.292 OA
BRANCH  27  29
HETATM   29  C19 UNL     1      -5.197   6.771  14.273  1.00  0.00     0.128 C 
HETATM   30  C20 UNL     1      -5.419   8.280  13.928  1.00  0.00     0.047 C 
HETATM   31  C21 UNL     1      -4.082   8.826  13.396  1.00  0.00     0.009 C 
HETATM   32  C22 UNL     1      -3.247   7.574  13.162  1.00  0.00     0.002 C 
HETATM   33  C23 UNL     1      -1.733   7.725  12.945  1.00  0.00    -0.002 C 
HETATM   34  C36 UNL     1      -3.635   6.650  14.346  1.00  0.00     0.001 C 
HETATM   35  C24 UNL     1      -1.456   8.694  11.784  1.00  0.00     0.010 C 
HETATM   36  C33 UNL     1      -1.140   6.314  12.640  1.00  0.00     0.031 C 
HETATM   37  C25 UNL     1       0.023   8.780  11.446  1.00  0.00     0.035 C 
HETATM   38  C26 UNL     1       0.602   7.417  11.159  1.00  0.00    -0.068 C 
HETATM   39  C27 UNL     1       1.266   7.195  10.011  1.00  0.00     0.053 C 
HETATM   40  C31 UNL     1       0.394   6.351  12.249  1.00  0.00    -0.014 C 
HETATM   41  C28 UNL     1       1.977   5.921   9.760  1.00  0.00     0.149 C 
HETATM   42  O8  UNL     1       2.531   5.740   8.678  1.00  0.00    -0.293 OA
HETATM   43  C29 UNL     1       2.068   4.933  10.893  1.00  0.00     0.084 C 
HETATM   44  C30 UNL     1       0.780   4.947  11.701  1.00  0.00     0.022 C 
HETATM   45  C32 UNL     1       1.332   6.706  13.422  1.00  0.00     0.020 C 
HETATM   46  C34 UNL     1      -1.522   5.276  13.736  1.00  0.00     0.124 C 
HETATM   47  C35 UNL     1      -3.035   5.255  14.050  1.00  0.00     0.045 C 
HETATM   48  C37 UNL     1      -3.136   7.171  15.719  1.00  0.00     0.019 C 
BRANCH  29  49
HETATM   49  O7  UNL     1      -5.682   5.993  13.174  1.00  0.00    -0.381 OA
HETATM   50  H20 UNL     1      -6.589   6.294  12.973  1.00  0.00     0.211 HD
ENDBRANCH  29  49
BRANCH  46  51
HETATM   51  O9  UNL     1      -0.796   5.510  14.935  1.00  0.00    -0.395 OA
HETATM   52  H41 UNL     1      -0.953   4.757  15.530  1.00  0.00     0.210 HD
ENDBRANCH  46  51
ENDBRANCH  27  29
ENDBRANCH   1  27
TORSDOF 14
ENDMDL
MODEL 6
REMARK minimizedAffinity -9.45950794
REMARK CNNscore 0.248883158
REMARK CNNaffinity 6.05323553
REMARK  14 active torsions:
REMARK  status: ('A' for Active; 'I' for Inactive)
REMARK    1  A    between atoms: O1_2  and  C2_3 
REMARK    2  A    between atoms: C2_3  and  C3_5 
REMARK    3  A    between atoms: C3_5  and  C4_6 
REMARK    4  A    between atoms: C3_5  and  N2_16 
REMARK    5  A    between atoms: C4_6  and  C5_7 
REMARK       I    between atoms: N2_16  and  C13_17 
REMARK    6  A    between atoms: C13_17  and  C14_19 
REMARK    7  A    between atoms: C14_19  and  C15_20 
REMARK    8  A    between atoms: C15_20  and  C16_21 
REMARK    9  A    between atoms: C16_21  and  O5_23 
REMARK   10  A    between atoms: O5_23  and  C17_24 
REMARK   11  A    between atoms: C17_24  and  C18_25 
REMARK   12  A    between atoms: C18_25  and  C19_27 
REMARK   13  A    between atoms: C19_27  and  O7_28 
REMARK   14  A    between atoms: C34_44  and  O9_45 
ROOT
HETATM    1  C17 UNL     1       8.693   8.895  16.363  1.00  0.00     0.260 C 
ENDROOT
BRANCH   1   2
HETATM    2  O5  UNL     1       9.115   9.296  17.666  1.00  0.00    -0.314 OA
BRANCH   2   3
HETATM    3  C16 UNL     1       9.889  10.417  17.649  1.00  0.00     0.259 C 
HETATM    4  O4  UNL     1      10.517  10.807  16.673  1.00  0.00    -0.265 OA
BRANCH   3   5
HETATM    5  C15 UNL     1       9.993  11.051  19.014  1.00  0.00     0.120 C 
BRANCH   5   6
HETATM    6  C14 UNL     1       8.742  11.799  19.462  1.00  0.00     0.112 C 
BRANCH   6   7
HETATM    7  C13 UNL     1       8.677  11.965  20.964  1.00  0.00     0.218 C 
HETATM    8  N2  UNL     1       7.537  12.601  21.384  1.00  0.00    -0.347 N 
HETATM    9  H13 UNL     1       6.898  13.005  20.710  1.00  0.00     0.163 HD
HETATM   10  O3  UNL     1       9.535  11.545  21.729  1.00  0.00    -0.274 OA
BRANCH   8  11
HETATM   11  C3  UNL     1       7.251  12.862  22.809  1.00  0.00     0.188 C 
BRANCH  11  12
HETATM   12  C2  UNL     1       8.054  14.088  23.294  1.00  0.00     0.281 C 
HETATM   13  O2  UNL     1       9.067  14.047  23.983  1.00  0.00    -0.263 OA
BRANCH  12  14
HETATM   14  O1  UNL     1       7.465  15.258  22.875  1.00  0.00    -0.325 OA
HETATM   15  C1  UNL     1       8.250  15.981  21.920  1.00  0.00     0.213 C 
ENDBRANCH  12  14
ENDBRANCH  11  12
BRANCH  11  16
HETATM   16  C4  UNL     1       5.746  13.105  23.005  1.00  0.00     0.076 C 
BRANCH  16  17
HETATM   17  C5  UNL     1       4.877  12.370  22.034  1.00  0.00    -0.028 A 
HETATM   18  C6  UNL     1       4.645  12.715  20.715  1.00  0.00     0.096 A 
HETATM   19  N1  UNL     1       3.789  11.795  20.172  1.00  0.00    -0.365 N 
HETATM   20  C7  UNL     1       3.475  10.831  21.100  1.00  0.00     0.042 A 
HETATM   21  H8  UNL     1       3.442  11.808  19.222  1.00  0.00     0.165 HD
HETATM   22  C8  UNL     1       2.658   9.701  20.982  1.00  0.00     0.030 A 
HETATM   23  C12 UNL     1       4.140  11.166  22.282  1.00  0.00    -0.002 A 
HETATM   24  C9  UNL     1       2.515   8.885  22.108  1.00  0.00     0.002 A 
HETATM   25  C10 UNL     1       3.165   9.190  23.302  1.00  0.00     0.001 A 
HETATM   26  C11 UNL     1       3.980  10.324  23.402  1.00  0.00     0.014 A 
ENDBRANCH  16  17
ENDBRANCH  11  16
ENDBRANCH   8  11
ENDBRANCH   6   7
ENDBRANCH   5   6
ENDBRANCH   3   5
ENDBRANCH   2   3
ENDBRANCH   1   2
BRANCH   1  27
HETATM   27  C18 UNL     1       7.319   9.467  16.070  1.00  0.00     0.185 C 
HETATM   28  O6  UNL     1       6.604   9.869  16.992  1.00  0.00    -0.292 OA
BRANCH  27  29
HETATM   29  C19 UNL     1       6.845   9.488  14.597  1.00  0.00     0.128 C 
HETATM   30  C20 UNL     1       7.933   8.901  13.639  1.00  0.00     0.047 C 
HETATM   31  C21 UNL     1       7.196   8.091  12.557  1.00  0.00     0.009 C 
HETATM   32  C22 UNL     1       5.737   8.487  12.739  1.00  0.00     0.002 C 
HETATM   33  C23 UNL     1       4.651   7.637  12.060  1.00  0.00    -0.002 C 
HETATM   34  C36 UNL     1       5.582   8.614  14.277  1.00  0.00     0.001 C 
HETATM   35  C24 UNL     1       4.922   7.535  10.550  1.00  0.00     0.010 C 
HETATM   36  C33 UNL     1       3.268   8.308  12.328  1.00  0.00     0.031 C 
HETATM   37  C25 UNL     1       3.808   6.812   9.812  1.00  0.00     0.035 C 
HETATM   38  C26 UNL     1       2.467   7.452  10.076  1.00  0.00    -0.068 C 
HETATM   39  C27 UNL     1       1.689   7.832   9.049  1.00  0.00     0.053 C 
HETATM   40  C31 UNL     1       2.074   7.612  11.556  1.00  0.00    -0.014 C 
HETATM   41  C28 UNL     1       0.308   8.323   9.262  1.00  0.00     0.149 C 
HETATM   42  O8  UNL     1      -0.354   8.706   8.299  1.00  0.00    -0.293 OA
HETATM   43  C29 UNL     1      -0.260   8.238  10.654  1.00  0.00     0.084 C 
HETATM   44  C30 UNL     1       0.825   8.532  11.678  1.00  0.00     0.022 C 
HETATM   45  C32 UNL     1       1.716   6.208  12.088  1.00  0.00     0.020 C 
HETATM   46  C34 UNL     1       3.025   8.549  13.848  1.00  0.00     0.124 C 
HETATM   47  C35 UNL     1       4.205   9.266  14.543  1.00  0.00     0.045 C 
HETATM   48  C37 UNL     1       5.688   7.256  15.018  1.00  0.00     0.019 C 
BRANCH  29  49
HETATM   49  O7  UNL     1       6.597  10.841  14.204  1.00  0.00    -0.381 OA
HETATM   50  H20 UNL     1       7.459  11.298  14.146  1.00  0.00     0.211 HD
ENDBRANCH  29  49
BRANCH  46  51
HETATM   51  O9  UNL     1       2.756   7.327  14.520  1.00  0.00    -0.395 OA
HETATM   52  H41 UNL     1       2.466   7.542  15.424  1.00  0.00     0.210 HD
ENDBRANCH  46  51
ENDBRANCH  27  29
ENDBRANCH   1  27
TORSDOF 14
ENDMDL
MODEL 7
REMARK minimizedAffinity -9.71380138
REMARK CNNscore 0.240550444
REMARK CNNaffinity 6.6980195
REMARK  14 active torsions:
REMARK  status: ('A' for Active; 'I' for Inactive)
REMARK    1  A    between atoms: O1_2  and  C2_3 
REMARK    2  A    between atoms: C2_3  and  C3_5 
REMARK    3  A    between atoms: C3_5  and  C4_6 
REMARK    4  A    between atoms: C3_5  and  N2_16 
REMARK    5  A    between atoms: C4_6  and  C5_7 
REMARK       I    between atoms: N2_16  and  C13_17 
REMARK    6  A    between atoms: C13_17  and  C14_19 
REMARK    7  A    between atoms: C14_19  and  C15_20 
REMARK    8  A    between atoms: C15_20  and  C16_21 
REMARK    9  A    between atoms: C16_21  and  O5_23 
REMARK   10  A    between atoms: O5_23  and  C17_24 
REMARK   11  A    between atoms: C17_24  and  C18_25 
REMARK   12  A    between atoms: C18_25  and  C19_27 
REMARK   13  A    between atoms: C19_27  and  O7_28 
REMARK   14  A    between atoms: C34_44  and  O9_45 
ROOT
HETATM    1  C17 UNL     1       0.185   7.657  14.703  1.00  0.00     0.260 C 
ENDROOT
BRANCH   1   2
HETATM    2  O5  UNL     1       1.324   7.447  15.536  1.00  0.00    -0.314 OA
BRANCH   2   3
HETATM    3  C16 UNL     1       1.785   8.597  16.100  1.00  0.00     0.259 C 
HETATM    4  O4  UNL     1       2.330   8.659  17.195  1.00  0.00    -0.265 OA
BRANCH   3   5
HETATM    5  C15 UNL     1       1.426   9.812  15.280  1.00  0.00     0.120 C 
BRANCH   5   6
HETATM    6  C14 UNL     1       2.221  11.066  15.624  1.00  0.00     0.112 C 
BRANCH   6   7
HETATM    7  C13 UNL     1       1.595  11.851  16.755  1.00  0.00     0.218 C 
HETATM    8  N2  UNL     1       0.537  11.201  17.339  1.00  0.00    -0.347 N 
HETATM    9  H13 UNL     1       0.179  10.344  16.936  1.00  0.00     0.163 HD
HETATM   10  O3  UNL     1       2.008  12.938  17.135  1.00  0.00    -0.274 OA
BRANCH   8  11
HETATM   11  C3  UNL     1      -0.220  11.771  18.471  1.00  0.00     0.188 C 
BRANCH  11  12
HETATM   12  C2  UNL     1      -1.735  11.716  18.176  1.00  0.00     0.281 C 
HETATM   13  O2  UNL     1      -2.610  12.248  18.850  1.00  0.00    -0.263 OA
BRANCH  12  14
HETATM   14  O1  UNL     1      -1.990  10.957  17.058  1.00  0.00    -0.325 OA
HETATM   15  C1  UNL     1      -2.729   9.763  17.336  1.00  0.00     0.213 C 
ENDBRANCH  12  14
ENDBRANCH  11  12
BRANCH  11  16
HETATM   16  C4  UNL     1       0.095  10.991  19.757  1.00  0.00     0.076 C 
BRANCH  16  17
HETATM   17  C5  UNL     1       1.215  11.571  20.564  1.00  0.00    -0.028 A 
HETATM   18  C6  UNL     1       1.541  12.910  20.673  1.00  0.00     0.096 A 
HETATM   19  N1  UNL     1       2.630  13.024  21.495  1.00  0.00    -0.365 N 
HETATM   20  C7  UNL     1       3.010  11.787  21.955  1.00  0.00     0.042 A 
HETATM   21  H8  UNL     1       3.087  13.891  21.743  1.00  0.00     0.165 HD
HETATM   22  C8  UNL     1       4.048  11.429  22.824  1.00  0.00     0.030 A 
HETATM   23  C12 UNL     1       2.143  10.851  21.386  1.00  0.00    -0.002 A 
HETATM   24  C9  UNL     1       4.206  10.073  23.121  1.00  0.00     0.002 A 
HETATM   25  C10 UNL     1       3.357   9.114  22.570  1.00  0.00     0.001 A 
HETATM   26  C11 UNL     1       2.323   9.490  21.704  1.00  0.00     0.014 A 
ENDBRANCH  16  17
ENDBRANCH  11  16
ENDBRANCH   8  11
ENDBRANCH   6   7
ENDBRANCH   5   6
ENDBRANCH   3   5
ENDBRANCH   2   3
ENDBRANCH   1   2
BRANCH   1  27
HETATM   27  C18 UNL     1       0.089   6.547  13.675  1.00  0.00     0.185 C 
HETATM   28  O6  UNL     1       1.075   5.852  13.417  1.00  0.00    -0.292 OA
BRANCH  27  29
HETATM   29  C19 UNL     1      -1.264   6.352  12.949  1.00  0.00     0.128 C 
HETATM   30  C20 UNL     1      -1.243   5.084  12.033  1.00  0.00     0.047 C 
HETATM   31  C21 UNL     1      -2.629   4.423  12.140  1.00  0.00     0.009 C 
HETATM   32  C22 UNL     1      -3.478   5.473  12.844  1.00  0.00     0.002 C 
HETATM   33  C23 UNL     1      -4.837   5.055  13.427  1.00  0.00    -0.002 C 
HETATM   34  C36 UNL     1      -2.504   6.098  13.877  1.00  0.00     0.001 C 
HETATM   35  C24 UNL     1      -5.706   4.406  12.337  1.00  0.00     0.010 C 
HETATM   36  C33 UNL     1      -5.533   6.327  14.003  1.00  0.00     0.031 C 
HETATM   37  C25 UNL     1      -7.108   4.091  12.830  1.00  0.00     0.035 C 
HETATM   38  C26 UNL     1      -7.781   5.316  13.397  1.00  0.00    -0.068 C 
HETATM   39  C27 UNL     1      -8.989   5.691  12.942  1.00  0.00     0.053 C 
HETATM   40  C31 UNL     1      -7.012   6.060  14.502  1.00  0.00    -0.014 C 
HETATM   41  C28 UNL     1      -9.748   6.795  13.575  1.00  0.00     0.149 C 
HETATM   42  O8  UNL     1     -10.828   7.138  13.098  1.00  0.00    -0.293 OA
HETATM   43  C29 UNL     1      -9.197   7.387  14.845  1.00  0.00     0.084 C 
HETATM   44  C30 UNL     1      -7.679   7.438  14.780  1.00  0.00     0.022 C 
HETATM   45  C32 UNL     1      -7.097   5.197  15.779  1.00  0.00     0.020 C 
HETATM   46  C34 UNL     1      -4.618   7.082  15.012  1.00  0.00     0.124 C 
HETATM   47  C35 UNL     1      -3.200   7.352  14.458  1.00  0.00     0.045 C 
HETATM   48  C37 UNL     1      -2.110   5.123  15.016  1.00  0.00     0.019 C 
BRANCH  29  49
HETATM   49  O7  UNL     1      -1.519   7.489  12.119  1.00  0.00    -0.381 OA
HETATM   50  H20 UNL     1      -0.885   7.464  11.376  1.00  0.00     0.211 HD
ENDBRANCH  29  49
BRANCH  46  51
HETATM   51  O9  UNL     1      -4.517   6.372  16.238  1.00  0.00    -0.395 OA
HETATM   52  H41 UNL     1      -4.066   6.948  16.879  1.00  0.00     0.210 HD
ENDBRANCH  46  51
ENDBRANCH  27  29
ENDBRANCH   1  27
TORSDOF 14
ENDMDL
MODEL 8
REMARK minimizedAffinity -8.16196918
REMARK CNNscore 0.237844154
REMARK CNNaffinity 6.59720469
REMARK  14 active torsions:
REMARK  status: ('A' for Active; 'I' for Inactive)
REMARK    1  A    between atoms: O1_2  and  C2_3 
REMARK    2  A    between atoms: C2_3  and  C3_5 
REMARK    3  A    between atoms: C3_5  and  C4_6 
REMARK    4  A    between atoms: C3_5  and  N2_16 
REMARK    5  A    between atoms: C4_6  and  C5_7 
REMARK       I    between atoms: N2_16  and  C13_17 
REMARK    6  A    between atoms: C13_17  and  C14_19 
REMARK    7  A    between atoms: C14_19  and  C15_20 
REMARK    8  A    between atoms: C15_20  and  C16_21 
REMARK    9  A    between atoms: C16_21  and  O5_23 
REMARK   10  A    between atoms: O5_23  and  C17_24 
REMARK   11  A    between atoms: C17_24  and  C18_25 
REMARK   12  A    between atoms: C18_25  and  C19_27 
REMARK   13  A    between atoms: C19_27  and  O7_28 
REMARK   14  A    between atoms: C34_44  and  O9_45 
ROOT
HETATM    1  C17 UNL     1      -0.650  11.652  15.268  1.00  0.00     0.260 C 
ENDROOT
BRANCH   1   2
HETATM    2  O5  UNL     1      -1.470  11.526  16.428  1.00  0.00    -0.314 OA
BRANCH   2   3
HETATM    3  C16 UNL     1      -1.194  12.466  17.374  1.00  0.00     0.259 C 
HETATM    4  O4  UNL     1      -1.979  13.333  17.736  1.00  0.00    -0.265 OA
BRANCH   3   5
HETATM    5  C15 UNL     1       0.243  12.401  17.831  1.00  0.00     0.120 C 
BRANCH   5   6
HETATM    6  C14 UNL     1       0.425  12.025  19.297  1.00  0.00     0.112 C 
BRANCH   6   7
HETATM    7  C13 UNL     1       1.646  12.674  19.910  1.00  0.00     0.218 C 
HETATM    8  N2  UNL     1       1.339  13.534  20.934  1.00  0.00    -0.347 N 
HETATM    9  H13 UNL     1       0.374  13.767  21.134  1.00  0.00     0.163 HD
HETATM   10  O3  UNL     1       2.791  12.432  19.556  1.00  0.00    -0.274 OA
BRANCH   8  11
HETATM   11  C3  UNL     1       2.371  14.272  21.689  1.00  0.00     0.188 C 
BRANCH  11  12
HETATM   12  C2  UNL     1       1.899  15.718  21.956  1.00  0.00     0.281 C 
HETATM   13  O2  UNL     1       0.739  16.063  22.152  1.00  0.00    -0.263 OA
BRANCH  12  14
HETATM   14  O1  UNL     1       2.957  16.595  21.916  1.00  0.00    -0.325 OA
HETATM   15  C1  UNL     1       3.784  16.439  20.758  1.00  0.00     0.213 C 
ENDBRANCH  12  14
ENDBRANCH  11  12
BRANCH  11  16
HETATM   16  C4  UNL     1       2.659  13.558  23.018  1.00  0.00     0.076 C 
BRANCH  16  17
HETATM   17  C5  UNL     1       3.889  12.704  22.999  1.00  0.00    -0.028 A 
HETATM   18  C6  UNL     1       3.930  11.325  22.911  1.00  0.00     0.096 A 
HETATM   19  N1  UNL     1       5.242  10.930  22.932  1.00  0.00    -0.365 N 
HETATM   20  C7  UNL     1       6.067  12.026  23.001  1.00  0.00     0.042 A 
HETATM   21  H8  UNL     1       5.564   9.973  22.891  1.00  0.00     0.165 HD
HETATM   22  C8  UNL     1       7.465  12.100  23.026  1.00  0.00     0.030 A 
HETATM   23  C12 UNL     1       5.248  13.157  23.047  1.00  0.00    -0.002 A 
HETATM   24  C9  UNL     1       8.045  13.369  23.102  1.00  0.00     0.002 A 
HETATM   25  C10 UNL     1       7.257  14.517  23.150  1.00  0.00     0.001 A 
HETATM   26  C11 UNL     1       5.860  14.425  23.121  1.00  0.00     0.014 A 
ENDBRANCH  16  17
ENDBRANCH  11  16
ENDBRANCH   8  11
ENDBRANCH   6   7
ENDBRANCH   5   6
ENDBRANCH   3   5
ENDBRANCH   2   3
ENDBRANCH   1   2
BRANCH   1  27
HETATM   27  C18 UNL     1      -0.023  10.312  14.935  1.00  0.00     0.185 C 
HETATM   28  O6  UNL     1       1.095  10.023  15.372  1.00  0.00    -0.292 OA
BRANCH  27  29
HETATM   29  C19 UNL     1      -0.813   9.356  14.009  1.00  0.00     0.128 C 
HETATM   30  C20 UNL     1       0.078   8.168  13.521  1.00  0.00     0.047 C 
HETATM   31  C21 UNL     1      -0.811   6.912  13.497  1.00  0.00     0.009 C 
HETATM   32  C22 UNL     1      -2.221   7.463  13.663  1.00  0.00     0.002 C 
HETATM   33  C23 UNL     1      -3.357   6.491  14.020  1.00  0.00    -0.002 C 
HETATM   34  C36 UNL     1      -2.040   8.631  14.668  1.00  0.00     0.001 C 
HETATM   35  C24 UNL     1      -3.422   5.349  12.993  1.00  0.00     0.010 C 
HETATM   36  C33 UNL     1      -4.696   7.292  14.040  1.00  0.00     0.031 C 
HETATM   37  C25 UNL     1      -4.609   4.431  13.227  1.00  0.00     0.035 C 
HETATM   38  C26 UNL     1      -5.905   5.202  13.255  1.00  0.00    -0.068 C 
HETATM   39  C27 UNL     1      -6.921   4.841  12.454  1.00  0.00     0.053 C 
HETATM   40  C31 UNL     1      -5.971   6.376  14.248  1.00  0.00    -0.014 C 
HETATM   41  C28 UNL     1      -8.255   5.474  12.559  1.00  0.00     0.149 C 
HETATM   42  O8  UNL     1      -9.144   5.148  11.775  1.00  0.00    -0.293 OA
HETATM   43  C29 UNL     1      -8.490   6.430  13.699  1.00  0.00     0.084 C 
HETATM   44  C30 UNL     1      -7.233   7.242  13.965  1.00  0.00     0.022 C 
HETATM   45  C32 UNL     1      -6.085   5.773  15.664  1.00  0.00     0.020 C 
HETATM   46  C34 UNL     1      -4.614   8.537  14.971  1.00  0.00     0.124 C 
HETATM   47  C35 UNL     1      -3.372   9.417  14.697  1.00  0.00     0.045 C 
HETATM   48  C37 UNL     1      -1.661   8.159  16.095  1.00  0.00     0.019 C 
BRANCH  29  49
HETATM   49  O7  UNL     1      -1.254  10.078  12.855  1.00  0.00    -0.381 OA
HETATM   50  H20 UNL     1      -0.467  10.282  12.313  1.00  0.00     0.211 HD
ENDBRANCH  29  49
BRANCH  46  51
HETATM   51  O9  UNL     1      -4.625   8.152  16.338  1.00  0.00    -0.395 OA
HETATM   52  H41 UNL     1      -4.724   8.959  16.874  1.00  0.00     0.210 HD
ENDBRANCH  46  51
ENDBRANCH  27  29
ENDBRANCH   1  27
TORSDOF 14
ENDMDL
MODEL 9
REMARK minimizedAffinity -8.17089081
REMARK CNNscore 0.232412145
REMARK CNNaffinity 6.21596956
REMARK  14 active torsions:
REMARK  status: ('A' for Active; 'I' for Inactive)
REMARK    1  A    between atoms: O1_2  and  C2_3 
REMARK    2  A    between atoms: C2_3  and  C3_5 
REMARK    3  A    between atoms: C3_5  and  C4_6 
REMARK    4  A    between atoms: C3_5  and  N2_16 
REMARK    5  A    between atoms: C4_6  and  C5_7 
REMARK       I    between atoms: N2_16  and  C13_17 
REMARK    6  A    between atoms: C13_17  and  C14_19 
REMARK    7  A    between atoms: C14_19  and  C15_20 
REMARK    8  A    between atoms: C15_20  and  C16_21 
REMARK    9  A    between atoms: C16_21  and  O5_23 
REMARK   10  A    between atoms: O5_23  and  C17_24 
REMARK   11  A    between atoms: C17_24  and  C18_25 
REMARK   12  A    between atoms: C18_25  and  C19_27 
REMARK   13  A    between atoms: C19_27  and  O7_28 
REMARK   14  A    between atoms: C34_44  and  O9_45 
ROOT
HETATM    1  C17 UNL     1      -1.966  10.186  14.678  1.00  0.00     0.260 C 
ENDROOT
BRANCH   1   2
HETATM    2  O5  UNL     1      -2.471   8.859  14.545  1.00  0.00    -0.314 OA
BRANCH   2   3
HETATM    3  C16 UNL     1      -1.658   8.056  13.804  1.00  0.00     0.259 C 
HETATM    4  O4  UNL     1      -1.785   7.867  12.601  1.00  0.00    -0.265 OA
BRANCH   3   5
HETATM    5  C15 UNL     1      -0.663   7.315  14.663  1.00  0.00     0.120 C 
BRANCH   5   6
HETATM    6  C14 UNL     1      -0.739   5.796  14.553  1.00  0.00     0.112 C 
BRANCH   6   7
HETATM    7  C13 UNL     1      -0.417   5.303  13.160  1.00  0.00     0.218 C 
HETATM    8  N2  UNL     1      -1.449   4.605  12.586  1.00  0.00    -0.347 N 
HETATM    9  H13 UNL     1      -2.271   4.369  13.129  1.00  0.00     0.163 HD
HETATM   10  O3  UNL     1       0.641   5.531  12.589  1.00  0.00    -0.274 OA
BRANCH   8  11
HETATM   11  C3  UNL     1      -1.366   4.039  11.225  1.00  0.00     0.188 C 
BRANCH  11  12
HETATM   12  C2  UNL     1      -0.507   2.756  11.236  1.00  0.00     0.281 C 
HETATM   13  O2  UNL     1       0.716   2.719  11.144  1.00  0.00    -0.263 OA
BRANCH  12  14
HETATM   14  O1  UNL     1      -1.297   1.636  11.334  1.00  0.00    -0.325 OA
HETATM   15  C1  UNL     1      -0.789   0.514  10.605  1.00  0.00     0.213 C 
ENDBRANCH  12  14
ENDBRANCH  11  12
BRANCH  11  16
HETATM   16  C4  UNL     1      -2.776   3.724  10.702  1.00  0.00     0.076 C 
BRANCH  16  17
HETATM   17  C5  UNL     1      -3.874   4.072  11.658  1.00  0.00    -0.028 A 
HETATM   18  C6  UNL     1      -3.952   5.208  12.442  1.00  0.00     0.096 A 
HETATM   19  N1  UNL     1      -5.103   5.146  13.180  1.00  0.00    -0.365 N 
HETATM   20  C7  UNL     1      -5.803   4.003  12.875  1.00  0.00     0.042 A 
HETATM   21  H8  UNL     1      -5.408   5.842  13.847  1.00  0.00     0.165 HD
HETATM   22  C8  UNL     1      -7.029   3.541  13.367  1.00  0.00     0.030 A 
HETATM   23  C12 UNL     1      -5.056   3.305  11.924  1.00  0.00    -0.002 A 
HETATM   24  C9  UNL     1      -7.508   2.325  12.873  1.00  0.00     0.002 A 
HETATM   25  C10 UNL     1      -6.787   1.602  11.923  1.00  0.00     0.001 A 
HETATM   26  C11 UNL     1      -5.563   2.081  11.440  1.00  0.00     0.014 A 
ENDBRANCH  16  17
ENDBRANCH  11  16
ENDBRANCH   8  11
ENDBRANCH   6   7
ENDBRANCH   5   6
ENDBRANCH   3   5
ENDBRANCH   2   3
ENDBRANCH   1   2
BRANCH   1  27
HETATM   27  C18 UNL     1      -1.675  10.481  16.136  1.00  0.00     0.185 C 
HETATM   28  O6  UNL     1      -2.599  10.728  16.917  1.00  0.00    -0.292 OA
BRANCH  27  29
HETATM   29  C19 UNL     1      -0.195  10.498  16.588  1.00  0.00     0.128 C 
HETATM   30  C20 UNL     1       0.765  10.789  15.388  1.00  0.00     0.047 C 
HETATM   31  C21 UNL     1       1.894  11.691  15.919  1.00  0.00     0.009 C 
HETATM   32  C22 UNL     1       1.725  11.631  17.431  1.00  0.00     0.002 C 
HETATM   33  C23 UNL     1       2.461  12.666  18.298  1.00  0.00    -0.002 C 
HETATM   34  C36 UNL     1       0.187  11.611  17.626  1.00  0.00     0.001 C 
HETATM   35  C24 UNL     1       3.968  12.638  17.995  1.00  0.00     0.010 C 
HETATM   36  C33 UNL     1       2.192  12.326  19.797  1.00  0.00     0.031 C 
HETATM   37  C25 UNL     1       4.757  13.553  18.917  1.00  0.00     0.035 C 
HETATM   38  C26 UNL     1       4.493  13.233  20.367  1.00  0.00    -0.068 C 
HETATM   39  C27 UNL     1       5.520  12.987  21.199  1.00  0.00     0.053 C 
HETATM   40  C31 UNL     1       3.017  13.230  20.801  1.00  0.00    -0.014 C 
HETATM   41  C28 UNL     1       5.314  12.819  22.656  1.00  0.00     0.149 C 
HETATM   42  O8  UNL     1       6.273  12.546  23.375  1.00  0.00    -0.293 OA
HETATM   43  C29 UNL     1       3.938  13.088  23.206  1.00  0.00     0.084 C 
HETATM   44  C30 UNL     1       2.882  12.611  22.222  1.00  0.00     0.022 C 
HETATM   45  C32 UNL     1       2.551  14.701  20.849  1.00  0.00     0.020 C 
HETATM   46  C34 UNL     1       0.669  12.213  20.102  1.00  0.00     0.124 C 
HETATM   47  C35 UNL     1      -0.079  11.287  19.115  1.00  0.00     0.045 C 
HETATM   48  C37 UNL     1      -0.499  12.945  17.233  1.00  0.00     0.019 C 
BRANCH  29  49
HETATM   49  O7  UNL     1       0.146   9.215  17.122  1.00  0.00    -0.381 OA
HETATM   50  H20 UNL     1       0.168   8.579  16.381  1.00  0.00     0.211 HD
ENDBRANCH  29  49
BRANCH  46  51
HETATM   51  O9  UNL     1       0.054  13.493  20.104  1.00  0.00    -0.395 OA
HETATM   52  H41 UNL     1      -0.852  13.387  20.444  1.00  0.00     0.210 HD
ENDBRANCH  46  51
ENDBRANCH  27  29
ENDBRANCH   1  27
TORSDOF 14
ENDMDL
