MODEL 1
REMARK minimizedAffinity -9.3500042
REMARK  6 active torsions:
REMARK  status: ('A' for Active; 'I' for Inactive)
REMARK    1  A    between atoms: C2_2  and  C3_3 
REMARK    2  A    between atoms: C5_5  and  C6_6 
REMARK    3  A    between atoms: C6_6  and  C7_7 
REMARK    4  A    between atoms: C8_8  and  C9_9 
REMARK       I    between atoms: C9_9  and  N1_11 
REMARK    5  A    between atoms: N1_11  and  C10_12 
REMARK    6  A    between atoms: C10_12  and  C12_14 
ROOT
HETATM    1  C7  UNL     1      -2.703  50.902 -22.731  1.00  0.00     0.036 C 
HETATM    2  C8  UNL     1      -3.269  51.580 -23.971  1.00  0.00     0.011 C 
HETATM    3  C18 UNL     1      -4.594  51.768 -24.084  1.00  0.00    -0.013 C 
HETATM    4  C19 UNL     1      -5.492  51.229 -23.022  1.00  0.00     0.034 C 
HETATM    5  C20 UNL     1      -5.100  49.774 -22.668  1.00  0.00     0.005 C 
HETATM    6  C21 UNL     1      -6.048  49.150 -21.579  1.00  0.00    -0.043 C 
HETATM    7  C22 UNL     1      -7.445  48.875 -22.193  1.00  0.00     0.015 C 
HETATM    8  C23 UNL     1      -6.274  50.068 -20.358  1.00  0.00     0.015 C 
HETATM    9  C24 UNL     1      -5.476  47.795 -21.130  1.00  0.00     0.009 C 
HETATM   10  C25 UNL     1      -4.085  47.880 -20.524  1.00  0.00     0.002 C 
HETATM   11  C26 UNL     1      -3.235  49.051 -21.010  1.00  0.00     0.010 C 
HETATM   12  C27 UNL     1      -3.523  49.558 -22.443  1.00  0.00    -0.031 C 
HETATM   13  C28 UNL     1      -3.051  48.456 -23.435  1.00  0.00     0.016 C 
ENDROOT
BRANCH   2  14
HETATM   14  C9  UNL     1      -2.420  52.077 -25.079  1.00  0.00     0.248 C 
HETATM   15  O1  UNL     1      -1.978  53.217 -25.095  1.00  0.00    -0.268 OA
HETATM   16  N1  UNL     1      -2.209  51.124 -26.042  1.00  0.00    -0.349 N 
HETATM   17  H11 UNL     1      -2.758  50.276 -25.991  1.00  0.00     0.163 HD
BRANCH  16  18
HETATM   18  C10 UNL     1      -1.604  51.455 -27.319  1.00  0.00     0.114 C 
HETATM   19  C11 UNL     1      -2.171  52.777 -27.843  1.00  0.00     0.037 C 
BRANCH  18  20
HETATM   20  C12 UNL     1      -0.092  51.477 -27.177  1.00  0.00    -0.036 A 
HETATM   21  C13 UNL     1       0.698  51.898 -28.260  1.00  0.00     0.009 A 
HETATM   22  C14 UNL     1       2.090  51.917 -28.165  1.00  0.00     0.001 A 
HETATM   23  C15 UNL     1       2.715  51.505 -26.991  1.00  0.00     0.000 A 
HETATM   24  C16 UNL     1       1.949  51.061 -25.914  1.00  0.00     0.001 A 
HETATM   25  C17 UNL     1       0.556  51.043 -26.008  1.00  0.00     0.009 A 
ENDBRANCH  18  20
ENDBRANCH  16  18
ENDBRANCH   2  14
BRANCH   1  26
HETATM   26  C6  UNL     1      -1.147  50.790 -22.780  1.00  0.00     0.038 C 
BRANCH  26  27
HETATM   27  C5  UNL     1      -0.389  51.909 -22.113  1.00  0.00    -0.019 C 
HETATM   28  C3  UNL     1      -0.037  52.036 -20.816  1.00  0.00    -0.067 C 
HETATM   29  C4  UNL     1      -0.371  51.028 -19.746  1.00  0.00     0.048 C 
BRANCH  28  30
HETATM   30  C2  UNL     1       0.716  53.223 -20.416  1.00  0.00    -0.004 C 
HETATM   31  C1  UNL     1       1.395  54.049 -21.223  1.00  0.00     0.012 C 
ENDBRANCH  28  30
ENDBRANCH  26  27
ENDBRANCH   1  26
TORSDOF 6
ENDMDL
MODEL 2
REMARK minimizedAffinity -9.17546558
REMARK  6 active torsions:
REMARK  status: ('A' for Active; 'I' for Inactive)
REMARK    1  A    between atoms: C2_2  and  C3_3 
REMARK    2  A    between atoms: C5_5  and  C6_6 
REMARK    3  A    between atoms: C6_6  and  C7_7 
REMARK    4  A    between atoms: C8_8  and  C9_9 
REMARK       I    between atoms: C9_9  and  N1_11 
REMARK    5  A    between atoms: N1_11  and  C10_12 
REMARK    6  A    between atoms: C10_12  and  C12_14 
ROOT
HETATM    1  C7  UNL     1      -2.631  52.173 -23.421  1.00  0.00     0.036 C 
HETATM    2  C8  UNL     1      -1.700  51.778 -22.284  1.00  0.00     0.011 C 
HETATM    3  C18 UNL     1      -0.371  51.900 -22.434  1.00  0.00    -0.013 C 
HETATM    4  C19 UNL     1       0.167  52.345 -23.752  1.00  0.00     0.034 C 
HETATM    5  C20 UNL     1      -0.519  51.575 -24.906  1.00  0.00     0.005 C 
HETATM    6  C21 UNL     1       0.048  51.984 -26.315  1.00  0.00    -0.043 C 
HETATM    7  C22 UNL     1       1.487  51.429 -26.484  1.00  0.00     0.015 C 
HETATM    8  C23 UNL     1       0.135  53.511 -26.525  1.00  0.00     0.015 C 
HETATM    9  C24 UNL     1      -0.817  51.342 -27.412  1.00  0.00     0.009 C 
HETATM   10  C25 UNL     1      -2.278  51.760 -27.373  1.00  0.00     0.002 C 
HETATM   11  C26 UNL     1      -2.800  52.169 -25.999  1.00  0.00     0.010 C 
HETATM   12  C27 UNL     1      -2.120  51.501 -24.780  1.00  0.00    -0.031 C 
HETATM   13  C28 UNL     1      -2.524  49.998 -24.783  1.00  0.00     0.016 C 
ENDROOT
BRANCH   2  14
HETATM   14  C9  UNL     1      -2.189  51.274 -20.978  1.00  0.00     0.248 C 
HETATM   15  O1  UNL     1      -3.330  51.477 -20.591  1.00  0.00    -0.268 OA
HETATM   16  N1  UNL     1      -1.223  50.579 -20.294  1.00  0.00    -0.349 N 
HETATM   17  H11 UNL     1      -0.277  50.618 -20.649  1.00  0.00     0.163 HD
BRANCH  16  18
HETATM   18  C10 UNL     1      -1.403  50.195 -18.906  1.00  0.00     0.114 C 
HETATM   19  C11 UNL     1      -1.449  48.670 -18.784  1.00  0.00     0.037 C 
BRANCH  18  20
HETATM   20  C12 UNL     1      -0.310  50.822 -18.058  1.00  0.00    -0.036 A 
HETATM   21  C13 UNL     1       0.084  50.194 -16.865  1.00  0.00     0.009 A 
HETATM   22  C14 UNL     1       1.076  50.752 -16.057  1.00  0.00     0.001 A 
HETATM   23  C15 UNL     1       1.683  51.950 -16.424  1.00  0.00     0.000 A 
HETATM   24  C16 UNL     1       1.289  52.599 -17.593  1.00  0.00     0.001 A 
HETATM   25  C17 UNL     1       0.297  52.042 -18.402  1.00  0.00     0.009 A 
ENDBRANCH  18  20
ENDBRANCH  16  18
ENDBRANCH   2  14
BRANCH   1  26
HETATM   26  C6  UNL     1      -4.134  51.974 -23.049  1.00  0.00     0.038 C 
BRANCH  26  27
HETATM   27  C5  UNL     1      -4.840  50.848 -23.759  1.00  0.00    -0.019 C 
HETATM   28  C3  UNL     1      -5.817  50.039 -23.296  1.00  0.00    -0.067 C 
HETATM   29  C4  UNL     1      -6.395  50.119 -21.907  1.00  0.00     0.048 C 
BRANCH  28  30
HETATM   30  C2  UNL     1      -6.354  49.019 -24.194  1.00  0.00    -0.004 C 
HETATM   31  C1  UNL     1      -5.653  48.229 -25.018  1.00  0.00     0.012 C 
ENDBRANCH  28  30
ENDBRANCH  26  27
ENDBRANCH   1  26
TORSDOF 6
ENDMDL
MODEL 3
REMARK minimizedAffinity -9.08985329
REMARK  6 active torsions:
REMARK  status: ('A' for Active; 'I' for Inactive)
REMARK    1  A    between atoms: C2_2  and  C3_3 
REMARK    2  A    between atoms: C5_5  and  C6_6 
REMARK    3  A    between atoms: C6_6  and  C7_7 
REMARK    4  A    between atoms: C8_8  and  C9_9 
REMARK       I    between atoms: C9_9  and  N1_11 
REMARK    5  A    between atoms: N1_11  and  C10_12 
REMARK    6  A    between atoms: C10_12  and  C12_14 
ROOT
HETATM    1  C7  UNL     1      -1.895  51.786 -21.694  1.00  0.00     0.036 C 
HETATM    2  C8  UNL     1      -0.668  51.453 -20.858  1.00  0.00     0.011 C 
HETATM    3  C18 UNL     1       0.554  51.797 -21.295  1.00  0.00    -0.013 C 
HETATM    4  C19 UNL     1       0.686  52.429 -22.640  1.00  0.00     0.034 C 
HETATM    5  C20 UNL     1      -0.152  51.656 -23.687  1.00  0.00     0.005 C 
HETATM    6  C21 UNL     1      -0.011  52.264 -25.130  1.00  0.00    -0.043 C 
HETATM    7  C22 UNL     1       1.404  51.961 -25.691  1.00  0.00     0.015 C 
HETATM    8  C23 UNL     1      -0.185  53.797 -25.174  1.00  0.00     0.015 C 
HETATM    9  C24 UNL     1      -1.024  51.583 -26.065  1.00  0.00     0.009 C 
HETATM   10  C25 UNL     1      -2.473  51.758 -25.641  1.00  0.00     0.002 C 
HETATM   11  C26 UNL     1      -2.691  51.966 -24.145  1.00  0.00     0.010 C 
HETATM   12  C27 UNL     1      -1.648  51.317 -23.204  1.00  0.00    -0.031 C 
HETATM   13  C28 UNL     1      -1.834  49.775 -23.290  1.00  0.00     0.016 C 
ENDROOT
BRANCH   2  14
HETATM   14  C9  UNL     1      -0.747  50.773 -19.543  1.00  0.00     0.248 C 
HETATM   15  O1  UNL     1      -1.479  49.813 -19.353  1.00  0.00    -0.268 OA
HETATM   16  N1  UNL     1       0.079  51.346 -18.609  1.00  0.00    -0.349 N 
HETATM   17  H11 UNL     1       0.511  52.229 -18.845  1.00  0.00     0.163 HD
BRANCH  16  18
HETATM   18  C10 UNL     1      -0.004  50.994 -17.204  1.00  0.00     0.114 C 
HETATM   19  C11 UNL     1      -0.264  49.493 -17.052  1.00  0.00     0.037 C 
BRANCH  18  20
HETATM   20  C12 UNL     1       1.257  51.450 -16.490  1.00  0.00    -0.036 A 
HETATM   21  C13 UNL     1       2.078  52.420 -17.088  1.00  0.00     0.009 A 
HETATM   22  C14 UNL     1       3.250  52.850 -16.464  1.00  0.00     0.001 A 
HETATM   23  C15 UNL     1       3.625  52.309 -15.237  1.00  0.00     0.000 A 
HETATM   24  C16 UNL     1       2.835  51.328 -14.639  1.00  0.00     0.001 A 
HETATM   25  C17 UNL     1       1.662  50.899 -15.262  1.00  0.00     0.009 A 
ENDBRANCH  18  20
ENDBRANCH  16  18
ENDBRANCH   2  14
BRANCH   1  26
HETATM   26  C6  UNL     1      -3.219  51.320 -21.011  1.00  0.00     0.038 C 
BRANCH  26  27
HETATM   27  C5  UNL     1      -4.382  51.076 -21.937  1.00  0.00    -0.019 C 
HETATM   28  C3  UNL     1      -5.569  50.493 -21.666  1.00  0.00    -0.067 C 
HETATM   29  C4  UNL     1      -5.954  49.943 -20.316  1.00  0.00     0.048 C 
BRANCH  28  30
HETATM   30  C2  UNL     1      -6.550  50.385 -22.744  1.00  0.00    -0.004 C 
HETATM   31  C1  UNL     1      -7.491  49.442 -22.878  1.00  0.00     0.012 C 
ENDBRANCH  28  30
ENDBRANCH  26  27
ENDBRANCH   1  26
TORSDOF 6
ENDMDL
MODEL 4
REMARK minimizedAffinity -8.9424057
REMARK  6 active torsions:
REMARK  status: ('A' for Active; 'I' for Inactive)
REMARK    1  A    between atoms: C2_2  and  C3_3 
REMARK    2  A    between atoms: C5_5  and  C6_6 
REMARK    3  A    between atoms: C6_6  and  C7_7 
REMARK    4  A    between atoms: C8_8  and  C9_9 
REMARK       I    between atoms: C9_9  and  N1_11 
REMARK    5  A    between atoms: N1_11  and  C10_12 
REMARK    6  A    between atoms: C10_12  and  C12_14 
ROOT
HETATM    1  C7  UNL     1      -1.552  50.240 -23.618  1.00  0.00     0.036 C 
HETATM    2  C8  UNL     1      -2.557  49.545 -24.525  1.00  0.00     0.011 C 
HETATM    3  C18 UNL     1      -2.373  49.548 -25.855  1.00  0.00    -0.013 C 
HETATM    4  C19 UNL     1      -1.222  50.310 -26.421  1.00  0.00     0.034 C 
HETATM    5  C20 UNL     1      -1.134  51.716 -25.780  1.00  0.00     0.005 C 
HETATM    6  C21 UNL     1       0.043  52.570 -26.377  1.00  0.00    -0.043 C 
HETATM    7  C22 UNL     1      -0.300  52.995 -27.829  1.00  0.00     0.015 C 
HETATM    8  C23 UNL     1       1.386  51.811 -26.443  1.00  0.00     0.015 C 
HETATM    9  C24 UNL     1       0.199  53.859 -25.553  1.00  0.00     0.009 C 
HETATM   10  C25 UNL     1       0.511  53.623 -24.085  1.00  0.00     0.002 C 
HETATM   11  C26 UNL     1       0.006  52.298 -23.519  1.00  0.00     0.010 C 
HETATM   12  C27 UNL     1      -1.265  51.712 -24.177  1.00  0.00    -0.031 C 
HETATM   13  C28 UNL     1      -2.458  52.636 -23.800  1.00  0.00     0.016 C 
ENDROOT
BRANCH   2  14
HETATM   14  C9  UNL     1      -3.748  48.827 -24.010  1.00  0.00     0.248 C 
HETATM   15  O1  UNL     1      -3.693  48.103 -23.027  1.00  0.00    -0.268 OA
HETATM   16  N1  UNL     1      -4.871  49.077 -24.759  1.00  0.00    -0.349 N 
HETATM   17  H11 UNL     1      -4.750  49.565 -25.636  1.00  0.00     0.163 HD
BRANCH  16  18
HETATM   18  C10 UNL     1      -6.089  48.309 -24.581  1.00  0.00     0.114 C 
HETATM   19  C11 UNL     1      -7.180  49.190 -23.968  1.00  0.00     0.037 C 
BRANCH  18  20
HETATM   20  C12 UNL     1      -6.502  47.695 -25.907  1.00  0.00    -0.036 A 
HETATM   21  C13 UNL     1      -5.727  47.939 -27.053  1.00  0.00     0.009 A 
HETATM   22  C14 UNL     1      -6.088  47.400 -28.289  1.00  0.00     0.001 A 
HETATM   23  C15 UNL     1      -7.234  46.618 -28.401  1.00  0.00     0.000 A 
HETATM   24  C16 UNL     1      -8.029  46.384 -27.280  1.00  0.00     0.001 A 
HETATM   25  C17 UNL     1      -7.668  46.922 -26.043  1.00  0.00     0.009 A 
ENDBRANCH  18  20
ENDBRANCH  16  18
ENDBRANCH   2  14
BRANCH   1  26
HETATM   26  C6  UNL     1      -1.932  50.113 -22.109  1.00  0.00     0.038 C 
BRANCH  26  27
HETATM   27  C5  UNL     1      -0.953  50.716 -21.135  1.00  0.00    -0.019 C 
HETATM   28  C3  UNL     1      -1.203  51.337 -19.963  1.00  0.00    -0.067 C 
HETATM   29  C4  UNL     1      -2.583  51.559 -19.399  1.00  0.00     0.048 C 
BRANCH  28  30
HETATM   30  C2  UNL     1      -0.067  51.828 -19.184  1.00  0.00    -0.004 C 
HETATM   31  C1  UNL     1       0.646  52.936 -19.422  1.00  0.00     0.012 C 
ENDBRANCH  28  30
ENDBRANCH  26  27
ENDBRANCH   1  26
TORSDOF 6
ENDMDL
MODEL 5
REMARK minimizedAffinity -8.90710545
REMARK  6 active torsions:
REMARK  status: ('A' for Active; 'I' for Inactive)
REMARK    1  A    between atoms: C2_2  and  C3_3 
REMARK    2  A    between atoms: C5_5  and  C6_6 
REMARK    3  A    between atoms: C6_6  and  C7_7 
REMARK    4  A    between atoms: C8_8  and  C9_9 
REMARK       I    between atoms: C9_9  and  N1_11 
REMARK    5  A    between atoms: N1_11  and  C10_12 
REMARK    6  A    between atoms: C10_12  and  C12_14 
ROOT
HETATM    1  C7  UNL     1      -1.681  50.323 -23.246  1.00  0.00     0.036 C 
HETATM    2  C8  UNL     1      -2.718  49.462 -23.954  1.00  0.00     0.011 C 
HETATM    3  C18 UNL     1      -2.568  49.170 -25.256  1.00  0.00    -0.013 C 
HETATM    4  C19 UNL     1      -1.423  49.769 -26.001  1.00  0.00     0.034 C 
HETATM    5  C20 UNL     1      -1.303  51.280 -25.688  1.00  0.00     0.005 C 
HETATM    6  C21 UNL     1      -0.132  51.962 -26.485  1.00  0.00    -0.043 C 
HETATM    7  C22 UNL     1      -0.508  52.063 -27.987  1.00  0.00     0.015 C 
HETATM    8  C23 UNL     1       1.200  51.184 -26.413  1.00  0.00     0.015 C 
HETATM    9  C24 UNL     1       0.060  53.398 -25.969  1.00  0.00     0.009 C 
HETATM   10  C25 UNL     1       0.407  53.484 -24.492  1.00  0.00     0.002 C 
HETATM   11  C26 UNL     1      -0.098  52.325 -23.637  1.00  0.00     0.010 C 
HETATM   12  C27 UNL     1      -1.392  51.630 -24.121  1.00  0.00    -0.031 C 
HETATM   13  C28 UNL     1      -2.565  52.635 -23.929  1.00  0.00     0.016 C 
ENDROOT
BRANCH   2  14
HETATM   14  C9  UNL     1      -3.903  48.895 -23.267  1.00  0.00     0.248 C 
HETATM   15  O1  UNL     1      -3.816  47.946 -22.502  1.00  0.00    -0.268 OA
HETATM   16  N1  UNL     1      -5.061  49.554 -23.596  1.00  0.00    -0.349 N 
HETATM   17  H11 UNL     1      -5.022  50.217 -24.358  1.00  0.00     0.163 HD
BRANCH  16  18
HETATM   18  C10 UNL     1      -6.363  49.033 -23.226  1.00  0.00     0.114 C 
HETATM   19  C11 UNL     1      -7.133  50.073 -22.408  1.00  0.00     0.037 C 
BRANCH  18  20
HETATM   20  C12 UNL     1      -7.109  48.594 -24.474  1.00  0.00    -0.036 A 
HETATM   21  C13 UNL     1      -8.453  48.968 -24.643  1.00  0.00     0.009 A 
HETATM   22  C14 UNL     1      -9.170  48.569 -25.772  1.00  0.00     0.001 A 
HETATM   23  C15 UNL     1      -8.559  47.782 -26.744  1.00  0.00     0.000 A 
HETATM   24  C16 UNL     1      -7.233  47.382 -26.583  1.00  0.00     0.001 A 
HETATM   25  C17 UNL     1      -6.515  47.781 -25.454  1.00  0.00     0.009 A 
ENDBRANCH  18  20
ENDBRANCH  16  18
ENDBRANCH   2  14
BRANCH   1  26
HETATM   26  C6  UNL     1      -2.023  50.536 -21.738  1.00  0.00     0.038 C 
BRANCH  26  27
HETATM   27  C5  UNL     1      -1.296  51.666 -21.055  1.00  0.00    -0.019 C 
HETATM   28  C3  UNL     1      -0.565  51.636 -19.920  1.00  0.00    -0.067 C 
HETATM   29  C4  UNL     1      -0.349  50.401 -19.084  1.00  0.00     0.048 C 
BRANCH  28  30
HETATM   30  C2  UNL     1       0.060  52.877 -19.467  1.00  0.00    -0.004 C 
HETATM   31  C1  UNL     1       0.645  53.805 -20.236  1.00  0.00     0.012 C 
ENDBRANCH  28  30
ENDBRANCH  26  27
ENDBRANCH   1  26
TORSDOF 6
ENDMDL
MODEL 6
REMARK minimizedAffinity -8.88148403
REMARK  6 active torsions:
REMARK  status: ('A' for Active; 'I' for Inactive)
REMARK    1  A    between atoms: C2_2  and  C3_3 
REMARK    2  A    between atoms: C5_5  and  C6_6 
REMARK    3  A    between atoms: C6_6  and  C7_7 
REMARK    4  A    between atoms: C8_8  and  C9_9 
REMARK       I    between atoms: C9_9  and  N1_11 
REMARK    5  A    between atoms: N1_11  and  C10_12 
REMARK    6  A    between atoms: C10_12  and  C12_14 
ROOT
HETATM    1  C7  UNL     1      -3.067  49.349 -23.573  1.00  0.00     0.036 C 
HETATM    2  C8  UNL     1      -2.281  50.267 -22.649  1.00  0.00     0.011 C 
HETATM    3  C18 UNL     1      -2.639  50.387 -21.360  1.00  0.00    -0.013 C 
HETATM    4  C19 UNL     1      -3.860  49.673 -20.884  1.00  0.00     0.034 C 
HETATM    5  C20 UNL     1      -5.031  49.881 -21.875  1.00  0.00     0.005 C 
HETATM    6  C21 UNL     1      -6.352  49.178 -21.391  1.00  0.00    -0.043 C 
HETATM    7  C22 UNL     1      -6.937  49.942 -20.173  1.00  0.00     0.015 C 
HETATM    8  C23 UNL     1      -6.145  47.717 -20.939  1.00  0.00     0.015 C 
HETATM    9  C24 UNL     1      -7.400  49.248 -22.514  1.00  0.00     0.009 C 
HETATM   10  C25 UNL     1      -6.972  48.566 -23.803  1.00  0.00     0.002 C 
HETATM   11  C26 UNL     1      -5.465  48.509 -24.038  1.00  0.00     0.010 C 
HETATM   12  C27 UNL     1      -4.630  49.652 -23.415  1.00  0.00    -0.031 C 
HETATM   13  C28 UNL     1      -4.971  50.958 -24.189  1.00  0.00     0.016 C 
ENDROOT
BRANCH   2  14
HETATM   14  C9  UNL     1      -1.097  51.042 -23.094  1.00  0.00     0.248 C 
HETATM   15  O1  UNL     1       0.015  50.851 -22.625  1.00  0.00    -0.268 OA
HETATM   16  N1  UNL     1      -1.411  51.962 -24.061  1.00  0.00    -0.349 N 
HETATM   17  H11 UNL     1      -2.390  52.131 -24.248  1.00  0.00     0.163 HD
BRANCH  16  18
HETATM   18  C10 UNL     1      -0.464  52.981 -24.477  1.00  0.00     0.114 C 
HETATM   19  C11 UNL     1       0.497  53.303 -23.330  1.00  0.00     0.037 C 
BRANCH  18  20
HETATM   20  C12 UNL     1       0.252  52.527 -25.737  1.00  0.00    -0.036 A 
HETATM   21  C13 UNL     1       1.550  51.998 -25.642  1.00  0.00     0.009 A 
HETATM   22  C14 UNL     1       2.239  51.585 -26.783  1.00  0.00     0.001 A 
HETATM   23  C15 UNL     1       1.647  51.704 -28.037  1.00  0.00     0.000 A 
HETATM   24  C16 UNL     1       0.369  52.248 -28.154  1.00  0.00     0.001 A 
HETATM   25  C17 UNL     1      -0.322  52.661 -27.013  1.00  0.00     0.009 A 
ENDBRANCH  18  20
ENDBRANCH  16  18
ENDBRANCH   2  14
BRANCH   1  26
HETATM   26  C6  UNL     1      -2.487  49.335 -25.023  1.00  0.00     0.038 C 
BRANCH  26  27
HETATM   27  C5  UNL     1      -3.327  48.629 -26.056  1.00  0.00    -0.019 C 
HETATM   28  C3  UNL     1      -3.666  49.045 -27.295  1.00  0.00    -0.067 C 
HETATM   29  C4  UNL     1      -3.250  50.366 -27.889  1.00  0.00     0.048 C 
BRANCH  28  30
HETATM   30  C2  UNL     1      -4.488  48.161 -28.120  1.00  0.00    -0.004 C 
HETATM   31  C1  UNL     1      -5.773  47.843 -27.916  1.00  0.00     0.012 C 
ENDBRANCH  28  30
ENDBRANCH  26  27
ENDBRANCH   1  26
TORSDOF 6
ENDMDL
MODEL 7
REMARK minimizedAffinity -8.86637688
REMARK  6 active torsions:
REMARK  status: ('A' for Active; 'I' for Inactive)
REMARK    1  A    between atoms: C2_2  and  C3_3 
REMARK    2  A    between atoms: C5_5  and  C6_6 
REMARK    3  A    between atoms: C6_6  and  C7_7 
REMARK    4  A    between atoms: C8_8  and  C9_9 
REMARK       I    between atoms: C9_9  and  N1_11 
REMARK    5  A    between atoms: N1_11  and  C10_12 
REMARK    6  A    between atoms: C10_12  and  C12_14 
ROOT
HETATM    1  C7  UNL     1      -2.392  50.263 -21.654  1.00  0.00     0.036 C 
HETATM    2  C8  UNL     1      -2.343  51.487 -22.558  1.00  0.00     0.011 C 
HETATM    3  C18 UNL     1      -3.482  52.107 -22.908  1.00  0.00    -0.013 C 
HETATM    4  C19 UNL     1      -4.783  51.526 -22.464  1.00  0.00     0.034 C 
HETATM    5  C20 UNL     1      -4.808  49.999 -22.711  1.00  0.00     0.005 C 
HETATM    6  C21 UNL     1      -6.178  49.350 -22.295  1.00  0.00    -0.043 C 
HETATM    7  C22 UNL     1      -7.284  49.769 -23.299  1.00  0.00     0.015 C 
HETATM    8  C23 UNL     1      -6.665  49.781 -20.895  1.00  0.00     0.015 C 
HETATM    9  C24 UNL     1      -6.055  47.819 -22.370  1.00  0.00     0.009 C 
HETATM   10  C25 UNL     1      -4.985  47.238 -21.460  1.00  0.00     0.002 C 
HETATM   11  C26 UNL     1      -3.826  48.178 -21.139  1.00  0.00     0.010 C 
HETATM   12  C27 UNL     1      -3.482  49.235 -22.214  1.00  0.00    -0.031 C 
HETATM   13  C28 UNL     1      -2.885  48.483 -23.438  1.00  0.00     0.016 C 
ENDROOT
BRANCH   2  14
HETATM   14  C9  UNL     1      -1.077  52.062 -23.072  1.00  0.00     0.248 C 
HETATM   15  O1  UNL     1      -0.015  51.917 -22.486  1.00  0.00    -0.268 OA
HETATM   16  N1  UNL     1      -1.256  52.752 -24.244  1.00  0.00    -0.349 N 
HETATM   17  H11 UNL     1      -2.206  52.934 -24.541  1.00  0.00     0.163 HD
BRANCH  16  18
HETATM   18  C10 UNL     1      -0.208  53.586 -24.803  1.00  0.00     0.114 C 
HETATM   19  C11 UNL     1       0.778  53.996 -23.706  1.00  0.00     0.037 C 
BRANCH  18  20
HETATM   20  C12 UNL     1       0.461  52.860 -25.957  1.00  0.00    -0.036 A 
HETATM   21  C13 UNL     1      -0.029  53.037 -27.262  1.00  0.00     0.009 A 
HETATM   22  C14 UNL     1       0.556  52.373 -28.341  1.00  0.00     0.001 A 
HETATM   23  C15 UNL     1       1.631  51.514 -28.132  1.00  0.00     0.000 A 
HETATM   24  C16 UNL     1       2.115  51.307 -26.842  1.00  0.00     0.001 A 
HETATM   25  C17 UNL     1       1.532  51.971 -25.761  1.00  0.00     0.009 A 
ENDBRANCH  18  20
ENDBRANCH  16  18
ENDBRANCH   2  14
BRANCH   1  26
HETATM   26  C6  UNL     1      -0.968  49.697 -21.352  1.00  0.00     0.038 C 
BRANCH  26  27
HETATM   27  C5  UNL     1      -0.633  49.516 -19.894  1.00  0.00    -0.019 C 
HETATM   28  C3  UNL     1      -0.435  50.460 -18.950  1.00  0.00    -0.067 C 
HETATM   29  C4  UNL     1      -0.506  51.943 -19.207  1.00  0.00     0.048 C 
BRANCH  28  30
HETATM   30  C2  UNL     1      -0.132  50.024 -17.588  1.00  0.00    -0.004 C 
HETATM   31  C1  UNL     1       0.176  50.808 -16.546  1.00  0.00     0.012 C 
ENDBRANCH  28  30
ENDBRANCH  26  27
ENDBRANCH   1  26
TORSDOF 6
ENDMDL
MODEL 8
REMARK minimizedAffinity -8.81306553
REMARK  6 active torsions:
REMARK  status: ('A' for Active; 'I' for Inactive)
REMARK    1  A    between atoms: C2_2  and  C3_3 
REMARK    2  A    between atoms: C5_5  and  C6_6 
REMARK    3  A    between atoms: C6_6  and  C7_7 
REMARK    4  A    between atoms: C8_8  and  C9_9 
REMARK       I    between atoms: C9_9  and  N1_11 
REMARK    5  A    between atoms: N1_11  and  C10_12 
REMARK    6  A    between atoms: C10_12  and  C12_14 
ROOT
HETATM    1  C7  UNL     1      -2.165  49.981 -24.723  1.00  0.00     0.036 C 
HETATM    2  C8  UNL     1      -3.174  49.760 -25.840  1.00  0.00     0.011 C 
HETATM    3  C18 UNL     1      -2.905  50.197 -27.081  1.00  0.00    -0.013 C 
HETATM    4  C19 UNL     1      -1.650  50.967 -27.317  1.00  0.00     0.034 C 
HETATM    5  C20 UNL     1      -1.463  52.048 -26.225  1.00  0.00     0.005 C 
HETATM    6  C21 UNL     1      -0.170  52.912 -26.458  1.00  0.00    -0.043 C 
HETATM    7  C22 UNL     1      -0.375  53.845 -27.680  1.00  0.00     0.015 C 
HETATM    8  C23 UNL     1       1.091  52.071 -26.749  1.00  0.00     0.015 C 
HETATM    9  C24 UNL     1       0.060  53.814 -25.234  1.00  0.00     0.009 C 
HETATM   10  C25 UNL     1       0.252  53.055 -23.932  1.00  0.00     0.002 C 
HETATM   11  C26 UNL     1      -0.419  51.685 -23.874  1.00  0.00     0.010 C 
HETATM   12  C27 UNL     1      -1.697  51.511 -24.728  1.00  0.00    -0.031 C 
HETATM   13  C28 UNL     1      -2.814  52.382 -24.083  1.00  0.00     0.016 C 
ENDROOT
BRANCH   2  14
HETATM   14  C9  UNL     1      -4.462  49.053 -25.638  1.00  0.00     0.248 C 
HETATM   15  O1  UNL     1      -4.842  48.171 -26.394  1.00  0.00    -0.268 OA
HETATM   16  N1  UNL     1      -5.138  49.507 -24.534  1.00  0.00    -0.349 N 
HETATM   17  H11 UNL     1      -4.793  50.345 -24.085  1.00  0.00     0.163 HD
BRANCH  16  18
HETATM   18  C10 UNL     1      -6.513  49.125 -24.274  1.00  0.00     0.114 C 
HETATM   19  C11 UNL     1      -6.781  47.721 -24.823  1.00  0.00     0.037 C 
BRANCH  18  20
HETATM   20  C12 UNL     1      -6.803  49.242 -22.788  1.00  0.00    -0.036 A 
HETATM   21  C13 UNL     1      -6.010  50.088 -21.994  1.00  0.00     0.009 A 
HETATM   22  C14 UNL     1      -6.243  50.207 -20.623  1.00  0.00     0.001 A 
HETATM   23  C15 UNL     1      -7.264  49.476 -20.022  1.00  0.00     0.000 A 
HETATM   24  C16 UNL     1      -8.046  48.614 -20.790  1.00  0.00     0.001 A 
HETATM   25  C17 UNL     1      -7.815  48.495 -22.161  1.00  0.00     0.009 A 
ENDBRANCH  18  20
ENDBRANCH  16  18
ENDBRANCH   2  14
BRANCH   1  26
HETATM   26  C6  UNL     1      -2.652  49.390 -23.362  1.00  0.00     0.038 C 
BRANCH  26  27
HETATM   27  C5  UNL     1      -1.858  49.800 -22.149  1.00  0.00    -0.019 C 
HETATM   28  C3  UNL     1      -1.256  49.016 -21.229  1.00  0.00    -0.067 C 
HETATM   29  C4  UNL     1      -1.287  47.509 -21.251  1.00  0.00     0.048 C 
BRANCH  28  30
HETATM   30  C2  UNL     1      -0.526  49.662 -20.141  1.00  0.00    -0.004 C 
HETATM   31  C1  UNL     1      -0.335  50.977 -19.975  1.00  0.00     0.012 C 
ENDBRANCH  28  30
ENDBRANCH  26  27
ENDBRANCH   1  26
TORSDOF 6
ENDMDL
MODEL 9
REMARK minimizedAffinity -8.76542091
REMARK  6 active torsions:
REMARK  status: ('A' for Active; 'I' for Inactive)
REMARK    1  A    between atoms: C2_2  and  C3_3 
REMARK    2  A    between atoms: C5_5  and  C6_6 
REMARK    3  A    between atoms: C6_6  and  C7_7 
REMARK    4  A    between atoms: C8_8  and  C9_9 
REMARK       I    between atoms: C9_9  and  N1_11 
REMARK    5  A    between atoms: N1_11  and  C10_12 
REMARK    6  A    between atoms: C10_12  and  C12_14 
ROOT
HETATM    1  C7  UNL     1      -2.372  49.530 -24.508  1.00  0.00     0.036 C 
HETATM    2  C8  UNL     1      -3.197  49.280 -25.762  1.00  0.00     0.011 C 
HETATM    3  C18 UNL     1      -2.749  49.706 -26.955  1.00  0.00    -0.013 C 
HETATM    4  C19 UNL     1      -1.483  50.494 -27.008  1.00  0.00     0.034 C 
HETATM    5  C20 UNL     1      -1.480  51.591 -25.916  1.00  0.00     0.005 C 
HETATM    6  C21 UNL     1      -0.179  52.473 -25.962  1.00  0.00    -0.043 C 
HETATM    7  C22 UNL     1      -0.209  53.389 -27.214  1.00  0.00     0.015 C 
HETATM    8  C23 UNL     1       1.124  51.649 -26.046  1.00  0.00     0.015 C 
HETATM    9  C24 UNL     1      -0.151  53.393 -24.730  1.00  0.00     0.009 C 
HETATM   10  C25 UNL     1      -0.148  52.652 -23.403  1.00  0.00     0.002 C 
HETATM   11  C26 UNL     1      -0.799  51.272 -23.429  1.00  0.00     0.010 C 
HETATM   12  C27 UNL     1      -1.930  51.067 -24.464  1.00  0.00    -0.031 C 
HETATM   13  C28 UNL     1      -3.144  51.928 -24.008  1.00  0.00     0.016 C 
ENDROOT
BRANCH   2  14
HETATM   14  C9  UNL     1      -4.489  48.554 -25.748  1.00  0.00     0.248 C 
HETATM   15  O1  UNL     1      -4.954  48.079 -24.722  1.00  0.00    -0.268 OA
HETATM   16  N1  UNL     1      -5.066  48.492 -26.992  1.00  0.00    -0.349 N 
HETATM   17  H11 UNL     1      -4.507  48.783 -27.782  1.00  0.00     0.163 HD
BRANCH  16  18
HETATM   18  C10 UNL     1      -6.210  47.639 -27.257  1.00  0.00     0.114 C 
HETATM   19  C11 UNL     1      -7.254  47.802 -26.150  1.00  0.00     0.037 C 
BRANCH  18  20
HETATM   20  C12 UNL     1      -6.762  47.944 -28.639  1.00  0.00    -0.036 A 
HETATM   21  C13 UNL     1      -5.887  47.998 -29.736  1.00  0.00     0.009 A 
HETATM   22  C14 UNL     1      -6.362  48.290 -31.016  1.00  0.00     0.001 A 
HETATM   23  C15 UNL     1      -7.717  48.542 -31.217  1.00  0.00     0.000 A 
HETATM   24  C16 UNL     1      -8.597  48.515 -30.136  1.00  0.00     0.001 A 
HETATM   25  C17 UNL     1      -8.122  48.223 -28.856  1.00  0.00     0.009 A 
ENDBRANCH  18  20
ENDBRANCH  16  18
ENDBRANCH   2  14
BRANCH   1  26
HETATM   26  C6  UNL     1      -3.051  48.947 -23.229  1.00  0.00     0.038 C 
BRANCH  26  27
HETATM   27  C5  UNL     1      -2.665  49.600 -21.927  1.00  0.00    -0.019 C 
HETATM   28  C3  UNL     1      -1.838  49.139 -20.965  1.00  0.00    -0.067 C 
HETATM   29  C4  UNL     1      -1.127  47.811 -21.023  1.00  0.00     0.048 C 
BRANCH  28  30
HETATM   30  C2  UNL     1      -1.611  49.976 -19.789  1.00  0.00    -0.004 C 
HETATM   31  C1  UNL     1      -0.432  50.241 -19.211  1.00  0.00     0.012 C 
ENDBRANCH  28  30
ENDBRANCH  26  27
ENDBRANCH   1  26
TORSDOF 6
ENDMDL
