MODEL 1
REMARK minimizedAffinity -9.95441246
REMARK  8 active torsions:
REMARK  status: ('A' for Active; 'I' for Inactive)
REMARK    1  A    between atoms: C5_5  and  C6_6 
REMARK    2  A    between atoms: C6_6  and  O1_9 
REMARK    3  A    between atoms: C14_16  and  C15_17 
REMARK    4  A    between atoms: C16_19  and  O4_20 
REMARK    5  A    between atoms: C17_21  and  C18_22 
REMARK    6  A    between atoms: C19_24  and  O6_25 
REMARK    7  A    between atoms: C21_27  and  C22_28 
REMARK    8  A    between atoms: C22_28  and  C23_29 
ROOT
HETATM    1  C1  UNL     1      -5.819  46.696 -22.411  1.00  0.00     0.043 C 
HETATM    2  C2  UNL     1      -4.752  47.124 -21.430  1.00  0.00    -0.087 C 
HETATM    3  C3  UNL     1      -4.394  46.315 -20.415  1.00  0.00    -0.024 C 
HETATM    4  C4  UNL     1      -3.363  46.371 -19.310  1.00  0.00     0.035 C 
HETATM    5  C5  UNL     1      -2.574  47.621 -18.784  1.00  0.00     0.023 C 
HETATM    6  C9  UNL     1      -1.494  48.051 -19.832  1.00  0.00     0.011 C 
HETATM    7  C10 UNL     1      -1.053  49.459 -20.266  1.00  0.00     0.039 C 
HETATM    8  C11 UNL     1      -1.778  50.415 -21.275  1.00  0.00     0.068 C 
HETATM    9  C12 UNL     1      -2.867  51.258 -20.566  1.00  0.00     0.047 C 
HETATM   10  O2  UNL     1      -0.734  51.420 -21.512  1.00  0.00    -0.338 OA
HETATM   11  C13 UNL     1      -0.641  52.101 -22.699  1.00  0.00     0.095 A 
HETATM   12  C14 UNL     1       0.430  53.022 -22.782  1.00  0.00     0.070 A 
HETATM   13  C16 UNL     1       0.667  53.716 -23.972  1.00  0.00     0.097 A 
HETATM   14  C17 UNL     1      -0.131  53.443 -25.088  1.00  0.00     0.069 A 
HETATM   15  C19 UNL     1      -1.175  52.505 -25.002  1.00  0.00     0.091 A 
HETATM   16  C20 UNL     1      -1.504  51.864 -23.796  1.00  0.00     0.015 A 
HETATM   17  C21 UNL     1      -2.720  50.959 -23.549  1.00  0.00     0.031 C 
HETATM   18  C26 UNL     1      -2.172  49.784 -22.669  1.00  0.00     0.029 C 
HETATM   19  C27 UNL     1      -3.006  48.482 -22.664  1.00  0.00     0.012 C 
HETATM   20  C28 UNL     1      -4.180  48.482 -21.702  1.00  0.00     0.034 C 
ENDROOT
BRANCH   5  21
HETATM   21  C6  UNL     1      -3.383  48.621 -17.890  1.00  0.00     0.054 C 
HETATM   22  C7  UNL     1      -2.471  49.691 -17.250  1.00  0.00     0.045 C 
HETATM   23  C8  UNL     1      -4.442  49.382 -18.698  1.00  0.00     0.045 C 
BRANCH  21  24
HETATM   24  O1  UNL     1      -4.045  47.977 -16.816  1.00  0.00    -0.390 OA
HETATM   25  H14 UNL     1      -3.364  47.685 -16.181  1.00  0.00     0.210 HD
ENDBRANCH  21  24
ENDBRANCH   5  21
BRANCH  17  26
HETATM   26  C22 UNL     1      -3.628  50.552 -24.739  1.00  0.00     0.014 C 
BRANCH  26  27
HETATM   27  C23 UNL     1      -3.454  49.080 -25.201  1.00  0.00    -0.022 C 
HETATM   28  C24 UNL     1      -4.812  48.490 -25.589  1.00  0.00     0.009 C 
HETATM   29  C25 UNL     1      -2.498  48.972 -26.396  1.00  0.00     0.009 C 
ENDBRANCH  26  27
ENDBRANCH  17  26
BRANCH  12  30
HETATM   30  C15 UNL     1       1.285  53.223 -21.578  1.00  0.00     0.275 C 
HETATM   31  O3  UNL     1       1.707  54.308 -21.199  1.00  0.00    -0.301 OA
ENDBRANCH  12  30
BRANCH  13  32
HETATM   32  O4  UNL     1       1.659  54.658 -24.023  1.00  0.00    -0.359 OA
HETATM   33  H23 UNL     1       1.746  55.000 -24.939  1.00  0.00     0.217 HD
ENDBRANCH  13  32
BRANCH  15  34
HETATM   34  O6  UNL     1      -1.833  52.202 -26.162  1.00  0.00    -0.359 OA
HETATM   35  H25 UNL     1      -1.542  51.306 -26.422  1.00  0.00     0.217 HD
ENDBRANCH  15  34
BRANCH  14  36
HETATM   36  C18 UNL     1       0.118  54.131 -26.375  1.00  0.00     0.275 C 
HETATM   37  O5  UNL     1       0.225  55.353 -26.431  1.00  0.00    -0.301 OA
ENDBRANCH  14  36
TORSDOF 8
ENDMDL
MODEL 2
REMARK minimizedAffinity -9.70532608
REMARK  8 active torsions:
REMARK  status: ('A' for Active; 'I' for Inactive)
REMARK    1  A    between atoms: C5_5  and  C6_6 
REMARK    2  A    between atoms: C6_6  and  O1_9 
REMARK    3  A    between atoms: C14_16  and  C15_17 
REMARK    4  A    between atoms: C16_19  and  O4_20 
REMARK    5  A    between atoms: C17_21  and  C18_22 
REMARK    6  A    between atoms: C19_24  and  O6_25 
REMARK    7  A    between atoms: C21_27  and  C22_28 
REMARK    8  A    between atoms: C22_28  and  C23_29 
ROOT
HETATM    1  C1  UNL     1       0.722  51.227 -17.036  1.00  0.00     0.043 C 
HETATM    2  C2  UNL     1      -0.561  50.698 -17.633  1.00  0.00    -0.087 C 
HETATM    3  C3  UNL     1      -1.608  50.395 -16.842  1.00  0.00    -0.024 C 
HETATM    4  C4  UNL     1      -3.024  49.917 -17.071  1.00  0.00     0.035 C 
HETATM    5  C5  UNL     1      -3.631  49.272 -18.367  1.00  0.00     0.023 C 
HETATM    6  C9  UNL     1      -3.805  50.364 -19.474  1.00  0.00     0.011 C 
HETATM    7  C10 UNL     1      -3.565  50.271 -20.991  1.00  0.00     0.039 C 
HETATM    8  C11 UNL     1      -2.194  50.353 -21.745  1.00  0.00     0.068 C 
HETATM    9  C12 UNL     1      -1.508  48.966 -21.815  1.00  0.00     0.047 C 
HETATM   10  O2  UNL     1      -2.644  50.529 -23.132  1.00  0.00    -0.338 OA
HETATM   11  C13 UNL     1      -1.893  51.213 -24.054  1.00  0.00     0.095 A 
HETATM   12  C14 UNL     1      -2.471  51.315 -25.342  1.00  0.00     0.070 A 
HETATM   13  C16 UNL     1      -1.830  52.055 -26.340  1.00  0.00     0.097 A 
HETATM   14  C17 UNL     1      -0.647  52.734 -26.030  1.00  0.00     0.069 A 
HETATM   15  C19 UNL     1      -0.098  52.648 -24.738  1.00  0.00     0.091 A 
HETATM   16  C20 UNL     1      -0.661  51.834 -23.741  1.00  0.00     0.015 A 
HETATM   17  C21 UNL     1      -0.054  51.534 -22.362  1.00  0.00     0.031 C 
HETATM   18  C26 UNL     1      -1.269  51.578 -21.373  1.00  0.00     0.029 C 
HETATM   19  C27 UNL     1      -0.932  51.804 -19.881  1.00  0.00     0.012 C 
HETATM   20  C28 UNL     1      -0.528  50.552 -19.123  1.00  0.00     0.034 C 
ENDROOT
BRANCH   5  21
HETATM   21  C6  UNL     1      -3.230  47.785 -18.649  1.00  0.00     0.054 C 
HETATM   22  C7  UNL     1      -3.483  46.877 -17.426  1.00  0.00     0.045 C 
HETATM   23  C8  UNL     1      -4.039  47.185 -19.808  1.00  0.00     0.045 C 
BRANCH  21  24
HETATM   24  O1  UNL     1      -1.857  47.642 -18.967  1.00  0.00    -0.390 OA
HETATM   25  H14 UNL     1      -1.347  47.810 -18.154  1.00  0.00     0.210 HD
ENDBRANCH  21  24
ENDBRANCH   5  21
BRANCH  17  26
HETATM   26  C22 UNL     1       1.223  52.286 -21.906  1.00  0.00     0.014 C 
BRANCH  26  27
HETATM   27  C23 UNL     1       0.949  53.646 -21.210  1.00  0.00    -0.022 C 
HETATM   28  C24 UNL     1       1.470  53.611 -19.771  1.00  0.00     0.009 C 
HETATM   29  C25 UNL     1       1.615  54.808 -21.959  1.00  0.00     0.009 C 
ENDBRANCH  26  27
ENDBRANCH  17  26
BRANCH  12  30
HETATM   30  C15 UNL     1      -3.766  50.622 -25.595  1.00  0.00     0.275 C 
HETATM   31  O3  UNL     1      -3.920  49.711 -26.398  1.00  0.00    -0.301 OA
ENDBRANCH  12  30
BRANCH  13  32
HETATM   32  O4  UNL     1      -2.357  52.090 -27.604  1.00  0.00    -0.359 OA
HETATM   33  H23 UNL     1      -1.836  52.705 -28.164  1.00  0.00     0.217 HD
ENDBRANCH  13  32
BRANCH  15  34
HETATM   34  O6  UNL     1       0.991  53.433 -24.475  1.00  0.00    -0.359 OA
HETATM   35  H25 UNL     1       0.679  54.156 -23.895  1.00  0.00     0.217 HD
ENDBRANCH  15  34
BRANCH  14  36
HETATM   36  C18 UNL     1       0.035  53.559 -27.052  1.00  0.00     0.275 C 
HETATM   37  O5  UNL     1       0.118  54.779 -26.931  1.00  0.00    -0.301 OA
ENDBRANCH  14  36
TORSDOF 8
ENDMDL
MODEL 3
REMARK minimizedAffinity -9.2635498
REMARK  8 active torsions:
REMARK  status: ('A' for Active; 'I' for Inactive)
REMARK    1  A    between atoms: C5_5  and  C6_6 
REMARK    2  A    between atoms: C6_6  and  O1_9 
REMARK    3  A    between atoms: C14_16  and  C15_17 
REMARK    4  A    between atoms: C16_19  and  O4_20 
REMARK    5  A    between atoms: C17_21  and  C18_22 
REMARK    6  A    between atoms: C19_24  and  O6_25 
REMARK    7  A    between atoms: C21_27  and  C22_28 
REMARK    8  A    between atoms: C22_28  and  C23_29 
ROOT
HETATM    1  C1  UNL     1       0.884  52.215 -22.246  1.00  0.00     0.043 C 
HETATM    2  C2  UNL     1      -0.357  51.664 -21.583  1.00  0.00    -0.087 C 
HETATM    3  C3  UNL     1      -0.721  52.087 -20.357  1.00  0.00    -0.024 C 
HETATM    4  C4  UNL     1      -1.887  51.821 -19.432  1.00  0.00     0.035 C 
HETATM    5  C5  UNL     1      -2.919  50.639 -19.490  1.00  0.00     0.023 C 
HETATM    6  C9  UNL     1      -3.901  50.847 -20.690  1.00  0.00     0.011 C 
HETATM    7  C10 UNL     1      -4.487  49.815 -21.669  1.00  0.00     0.039 C 
HETATM    8  C11 UNL     1      -3.787  49.186 -22.922  1.00  0.00     0.068 C 
HETATM    9  C12 UNL     1      -2.942  47.948 -22.530  1.00  0.00     0.047 C 
HETATM   10  O2  UNL     1      -4.929  48.561 -23.600  1.00  0.00    -0.338 OA
HETATM   11  C13 UNL     1      -4.964  48.405 -24.963  1.00  0.00     0.095 A 
HETATM   12  C14 UNL     1      -6.142  47.804 -25.469  1.00  0.00     0.070 A 
HETATM   13  C16 UNL     1      -6.319  47.664 -26.848  1.00  0.00     0.097 A 
HETATM   14  C17 UNL     1      -5.347  48.175 -27.714  1.00  0.00     0.069 A 
HETATM   15  C19 UNL     1      -4.195  48.797 -27.200  1.00  0.00     0.091 A 
HETATM   16  C20 UNL     1      -3.937  48.864 -25.821  1.00  0.00     0.015 A 
HETATM   17  C21 UNL     1      -2.643  49.362 -25.161  1.00  0.00     0.031 C 
HETATM   18  C26 UNL     1      -3.120  50.204 -23.929  1.00  0.00     0.029 C 
HETATM   19  C27 UNL     1      -2.107  51.225 -23.360  1.00  0.00     0.012 C 
HETATM   20  C28 UNL     1      -1.085  50.642 -22.400  1.00  0.00     0.034 C 
ENDROOT
BRANCH   5  21
HETATM   21  C6  UNL     1      -2.397  49.244 -19.008  1.00  0.00     0.054 C 
HETATM   22  C7  UNL     1      -1.228  48.733 -19.879  1.00  0.00     0.045 C 
HETATM   23  C8  UNL     1      -1.873  49.295 -17.567  1.00  0.00     0.045 C 
BRANCH  21  24
HETATM   24  O1  UNL     1      -3.396  48.240 -19.065  1.00  0.00    -0.390 OA
HETATM   25  H14 UNL     1      -3.569  48.048 -20.005  1.00  0.00     0.210 HD
ENDBRANCH  21  24
ENDBRANCH   5  21
BRANCH  17  26
HETATM   26  C22 UNL     1      -1.533  50.003 -26.035  1.00  0.00     0.014 C 
BRANCH  26  27
HETATM   27  C23 UNL     1      -2.031  51.138 -26.969  1.00  0.00    -0.022 C 
HETATM   28  C24 UNL     1      -2.730  52.222 -26.146  1.00  0.00     0.009 C 
HETATM   29  C25 UNL     1      -0.877  51.769 -27.758  1.00  0.00     0.009 C 
ENDBRANCH  26  27
ENDBRANCH  17  26
BRANCH  12  30
HETATM   30  C15 UNL     1      -7.171  47.335 -24.498  1.00  0.00     0.275 C 
HETATM   31  O3  UNL     1      -7.954  46.417 -24.706  1.00  0.00    -0.301 OA
ENDBRANCH  12  30
BRANCH  13  32
HETATM   32  O4  UNL     1      -7.426  47.016 -27.328  1.00  0.00    -0.359 OA
HETATM   33  H23 UNL     1      -7.441  47.065 -28.309  1.00  0.00     0.217 HD
ENDBRANCH  13  32
BRANCH  15  34
HETATM   34  O6  UNL     1      -3.349  49.379 -28.104  1.00  0.00    -0.359 OA
HETATM   35  H25 UNL     1      -3.465  50.345 -28.010  1.00  0.00     0.217 HD
ENDBRANCH  15  34
BRANCH  14  36
HETATM   36  C18 UNL     1      -5.523  48.080 -29.181  1.00  0.00     0.275 C 
HETATM   37  O5  UNL     1      -4.604  47.712 -29.907  1.00  0.00    -0.301 OA
ENDBRANCH  14  36
TORSDOF 8
ENDMDL
MODEL 4
REMARK minimizedAffinity -9.11864853
REMARK  8 active torsions:
REMARK  status: ('A' for Active; 'I' for Inactive)
REMARK    1  A    between atoms: C5_5  and  C6_6 
REMARK    2  A    between atoms: C6_6  and  O1_9 
REMARK    3  A    between atoms: C14_16  and  C15_17 
REMARK    4  A    between atoms: C16_19  and  O4_20 
REMARK    5  A    between atoms: C17_21  and  C18_22 
REMARK    6  A    between atoms: C19_24  and  O6_25 
REMARK    7  A    between atoms: C21_27  and  C22_28 
REMARK    8  A    between atoms: C22_28  and  C23_29 
ROOT
HETATM    1  C1  UNL     1      -2.627  50.864 -17.579  1.00  0.00     0.043 C 
HETATM    2  C2  UNL     1      -3.361  49.877 -18.456  1.00  0.00    -0.087 C 
HETATM    3  C3  UNL     1      -4.373  49.140 -17.958  1.00  0.00    -0.024 C 
HETATM    4  C4  UNL     1      -5.347  48.131 -18.523  1.00  0.00     0.035 C 
HETATM    5  C5  UNL     1      -5.248  47.343 -19.876  1.00  0.00     0.023 C 
HETATM    6  C9  UNL     1      -5.529  48.307 -21.077  1.00  0.00     0.011 C 
HETATM    7  C10 UNL     1      -4.855  48.377 -22.457  1.00  0.00     0.039 C 
HETATM    8  C11 UNL     1      -3.482  49.044 -22.814  1.00  0.00     0.068 C 
HETATM    9  C12 UNL     1      -2.305  48.066 -22.578  1.00  0.00     0.047 C 
HETATM   10  O2  UNL     1      -3.554  49.072 -24.281  1.00  0.00    -0.338 OA
HETATM   11  C13 UNL     1      -2.917  50.038 -25.018  1.00  0.00     0.095 A 
HETATM   12  C14 UNL     1      -3.098  49.942 -26.418  1.00  0.00     0.070 A 
HETATM   13  C16 UNL     1      -2.558  50.916 -27.262  1.00  0.00     0.097 A 
HETATM   14  C17 UNL     1      -1.891  52.009 -26.700  1.00  0.00     0.069 A 
HETATM   15  C19 UNL     1      -1.742  52.109 -25.305  1.00  0.00     0.091 A 
HETATM   16  C20 UNL     1      -2.184  51.098 -24.435  1.00  0.00     0.015 A 
HETATM   17  C21 UNL     1      -1.925  51.023 -22.922  1.00  0.00     0.031 C 
HETATM   18  C26 UNL     1      -3.278  50.527 -22.308  1.00  0.00     0.029 C 
HETATM   19  C27 UNL     1      -3.497  50.815 -20.805  1.00  0.00     0.012 C 
HETATM   20  C28 UNL     1      -2.853  49.813 -19.864  1.00  0.00     0.034 C 
ENDROOT
BRANCH   5  21
HETATM   21  C6  UNL     1      -4.219  46.164 -19.914  1.00  0.00     0.054 C 
HETATM   22  C7  UNL     1      -3.227  46.224 -18.731  1.00  0.00     0.045 C 
HETATM   23  C8  UNL     1      -4.911  44.797 -19.829  1.00  0.00     0.045 C 
BRANCH  21  24
HETATM   24  O1  UNL     1      -3.427  46.170 -21.090  1.00  0.00    -0.390 OA
HETATM   25  H14 UNL     1      -2.820  46.931 -21.033  1.00  0.00     0.210 HD
ENDBRANCH  21  24
ENDBRANCH   5  21
BRANCH  17  26
HETATM   26  C22 UNL     1      -1.246  52.216 -22.200  1.00  0.00     0.014 C 
BRANCH  26  27
HETATM   27  C23 UNL     1       0.231  51.961 -21.795  1.00  0.00    -0.022 C 
HETATM   28  C24 UNL     1       0.831  53.230 -21.184  1.00  0.00     0.009 C 
HETATM   29  C25 UNL     1       0.350  50.811 -20.787  1.00  0.00     0.009 C 
ENDBRANCH  26  27
ENDBRANCH  17  26
BRANCH  12  30
HETATM   30  C15 UNL     1      -3.872  48.787 -26.955  1.00  0.00     0.275 C 
HETATM   31  O3  UNL     1      -3.614  48.203 -27.999  1.00  0.00    -0.301 OA
ENDBRANCH  12  30
BRANCH  13  32
HETATM   32  O4  UNL     1      -2.674  50.778 -28.620  1.00  0.00    -0.359 OA
HETATM   33  H23 UNL     1      -2.311  51.574 -29.067  1.00  0.00     0.217 HD
ENDBRANCH  13  32
BRANCH  15  34
HETATM   34  O6  UNL     1      -1.188  53.262 -24.822  1.00  0.00    -0.359 OA
HETATM   35  H25 UNL     1      -1.915  53.770 -24.411  1.00  0.00     0.217 HD
ENDBRANCH  15  34
BRANCH  14  36
HETATM   36  C18 UNL     1      -1.342  53.080 -27.563  1.00  0.00     0.275 C 
HETATM   37  O5  UNL     1      -2.083  53.883 -28.125  1.00  0.00    -0.301 OA
ENDBRANCH  14  36
TORSDOF 8
ENDMDL
MODEL 5
REMARK minimizedAffinity -9.11820221
REMARK  8 active torsions:
REMARK  status: ('A' for Active; 'I' for Inactive)
REMARK    1  A    between atoms: C5_5  and  C6_6 
REMARK    2  A    between atoms: C6_6  and  O1_9 
REMARK    3  A    between atoms: C14_16  and  C15_17 
REMARK    4  A    between atoms: C16_19  and  O4_20 
REMARK    5  A    between atoms: C17_21  and  C18_22 
REMARK    6  A    between atoms: C19_24  and  O6_25 
REMARK    7  A    between atoms: C21_27  and  C22_28 
REMARK    8  A    between atoms: C22_28  and  C23_29 
ROOT
HETATM    1  C1  UNL     1      -3.451  48.343 -26.291  1.00  0.00     0.043 C 
HETATM    2  C2  UNL     1      -2.809  49.709 -26.220  1.00  0.00    -0.087 C 
HETATM    3  C3  UNL     1      -3.072  50.637 -27.160  1.00  0.00    -0.024 C 
HETATM    4  C4  UNL     1      -2.681  52.080 -27.384  1.00  0.00     0.035 C 
HETATM    5  C5  UNL     1      -1.507  52.880 -26.716  1.00  0.00     0.023 C 
HETATM    6  C9  UNL     1      -1.855  53.190 -25.222  1.00  0.00     0.011 C 
HETATM    7  C10 UNL     1      -0.949  53.174 -23.980  1.00  0.00     0.039 C 
HETATM    8  C11 UNL     1      -0.488  51.924 -23.154  1.00  0.00     0.068 C 
HETATM    9  C12 UNL     1       0.781  51.283 -23.767  1.00  0.00     0.047 C 
HETATM   10  O2  UNL     1       0.057  52.566 -21.951  1.00  0.00    -0.338 OA
HETATM   11  C13 UNL     1       0.042  51.943 -20.728  1.00  0.00     0.095 A 
HETATM   12  C14 UNL     1       0.585  52.699 -19.662  1.00  0.00     0.070 A 
HETATM   13  C16 UNL     1       0.552  52.194 -18.359  1.00  0.00     0.097 A 
HETATM   14  C17 UNL     1      -0.073  50.966 -18.121  1.00  0.00     0.069 A 
HETATM   15  C19 UNL     1      -0.635  50.237 -19.184  1.00  0.00     0.091 A 
HETATM   16  C20 UNL     1      -0.532  50.667 -20.518  1.00  0.00     0.015 A 
HETATM   17  C21 UNL     1      -0.954  49.874 -21.764  1.00  0.00     0.031 C 
HETATM   18  C26 UNL     1      -1.631  50.932 -22.701  1.00  0.00     0.029 C 
HETATM   19  C27 UNL     1      -2.581  50.379 -23.788  1.00  0.00     0.012 C 
HETATM   20  C28 UNL     1      -1.891  49.894 -25.051  1.00  0.00     0.034 C 
ENDROOT
BRANCH   5  21
HETATM   21  C6  UNL     1      -0.067  52.553 -27.237  1.00  0.00     0.054 C 
HETATM   22  C7  UNL     1       0.273  51.053 -27.095  1.00  0.00     0.045 C 
HETATM   23  C8  UNL     1       0.095  52.895 -28.725  1.00  0.00     0.045 C 
BRANCH  21  24
HETATM   24  O1  UNL     1       0.940  53.253 -26.527  1.00  0.00    -0.390 OA
HETATM   25  H14 UNL     1       0.987  52.872 -25.630  1.00  0.00     0.210 HD
ENDBRANCH  21  24
ENDBRANCH   5  21
BRANCH  17  26
HETATM   26  C22 UNL     1      -1.710  48.529 -21.598  1.00  0.00     0.014 C 
BRANCH  26  27
HETATM   27  C23 UNL     1      -3.254  48.647 -21.707  1.00  0.00    -0.022 C 
HETATM   28  C24 UNL     1      -3.876  47.254 -21.839  1.00  0.00     0.009 C 
HETATM   29  C25 UNL     1      -3.854  49.353 -20.485  1.00  0.00     0.009 C 
ENDBRANCH  26  27
ENDBRANCH  17  26
BRANCH  12  30
HETATM   30  C15 UNL     1       1.181  54.029 -19.969  1.00  0.00     0.275 C 
HETATM   31  O3  UNL     1       1.586  54.370 -21.073  1.00  0.00    -0.301 OA
ENDBRANCH  12  30
BRANCH  13  32
HETATM   32  O4  UNL     1       1.144  52.896 -17.343  1.00  0.00    -0.359 OA
HETATM   33  H23 UNL     1       0.973  52.450 -16.486  1.00  0.00     0.217 HD
ENDBRANCH  13  32
BRANCH  15  34
HETATM   34  O6  UNL     1      -1.334  49.107 -18.861  1.00  0.00    -0.359 OA
HETATM   35  H25 UNL     1      -2.280  49.318 -18.989  1.00  0.00     0.217 HD
ENDBRANCH  15  34
BRANCH  14  36
HETATM   36  C18 UNL     1      -0.161  50.422 -16.746  1.00  0.00     0.275 C 
HETATM   37  O5  UNL     1       0.258  49.297 -16.482  1.00  0.00    -0.301 OA
ENDBRANCH  14  36
TORSDOF 8
ENDMDL
MODEL 6
REMARK minimizedAffinity -9.00298786
REMARK  8 active torsions:
REMARK  status: ('A' for Active; 'I' for Inactive)
REMARK    1  A    between atoms: C5_5  and  C6_6 
REMARK    2  A    between atoms: C6_6  and  O1_9 
REMARK    3  A    between atoms: C14_16  and  C15_17 
REMARK    4  A    between atoms: C16_19  and  O4_20 
REMARK    5  A    between atoms: C17_21  and  C18_22 
REMARK    6  A    between atoms: C19_24  and  O6_25 
REMARK    7  A    between atoms: C21_27  and  C22_28 
REMARK    8  A    between atoms: C22_28  and  C23_29 
ROOT
HETATM    1  C1  UNL     1      -2.296  52.589 -24.432  1.00  0.00     0.043 C 
HETATM    2  C2  UNL     1      -2.527  51.294 -23.689  1.00  0.00    -0.087 C 
HETATM    3  C3  UNL     1      -2.941  50.193 -24.347  1.00  0.00    -0.024 C 
HETATM    4  C4  UNL     1      -3.210  48.754 -23.970  1.00  0.00     0.035 C 
HETATM    5  C5  UNL     1      -3.421  48.153 -22.536  1.00  0.00     0.023 C 
HETATM    6  C9  UNL     1      -2.058  48.113 -21.768  1.00  0.00     0.011 C 
HETATM    7  C10 UNL     1      -1.755  48.407 -20.289  1.00  0.00     0.039 C 
HETATM    8  C11 UNL     1      -1.592  49.811 -19.612  1.00  0.00     0.068 C 
HETATM    9  C12 UNL     1      -2.963  50.386 -19.176  1.00  0.00     0.047 C 
HETATM   10  O2  UNL     1      -1.006  49.435 -18.319  1.00  0.00    -0.338 OA
HETATM   11  C13 UNL     1      -0.165  50.276 -17.634  1.00  0.00     0.095 A 
HETATM   12  C14 UNL     1       0.335  49.762 -16.414  1.00  0.00     0.070 A 
HETATM   13  C16 UNL     1       1.259  50.502 -15.670  1.00  0.00     0.097 A 
HETATM   14  C17 UNL     1       1.720  51.721 -16.176  1.00  0.00     0.069 A 
HETATM   15  C19 UNL     1       1.238  52.208 -17.404  1.00  0.00     0.091 A 
HETATM   16  C20 UNL     1       0.235  51.540 -18.128  1.00  0.00     0.015 A 
HETATM   17  C21 UNL     1      -0.482  52.062 -19.382  1.00  0.00     0.031 C 
HETATM   18  C26 UNL     1      -0.602  50.815 -20.323  1.00  0.00     0.029 C 
HETATM   19  C27 UNL     1      -0.822  51.106 -21.825  1.00  0.00     0.012 C 
HETATM   20  C28 UNL     1      -2.264  51.377 -22.217  1.00  0.00     0.034 C 
ENDROOT
BRANCH   5  21
HETATM   21  C6  UNL     1      -4.805  48.444 -21.862  1.00  0.00     0.054 C 
HETATM   22  C7  UNL     1      -4.993  47.637 -20.558  1.00  0.00     0.045 C 
HETATM   23  C8  UNL     1      -4.956  49.923 -21.482  1.00  0.00     0.045 C 
BRANCH  21  24
HETATM   24  O1  UNL     1      -5.898  48.103 -22.695  1.00  0.00    -0.390 OA
HETATM   25  H14 UNL     1      -5.933  47.130 -22.754  1.00  0.00     0.210 HD
ENDBRANCH  21  24
ENDBRANCH   5  21
BRANCH  17  26
HETATM   26  C22 UNL     1       0.001  53.376 -20.052  1.00  0.00     0.014 C 
BRANCH  26  27
HETATM   27  C23 UNL     1       1.437  53.304 -20.636  1.00  0.00    -0.022 C 
HETATM   28  C24 UNL     1       1.634  51.980 -21.378  1.00  0.00     0.009 C 
HETATM   29  C25 UNL     1       1.715  54.467 -21.597  1.00  0.00     0.009 C 
ENDBRANCH  26  27
ENDBRANCH  17  26
BRANCH  12  30
HETATM   30  C15 UNL     1      -0.146  48.428 -15.957  1.00  0.00     0.275 C 
HETATM   31  O3  UNL     1       0.483  47.677 -15.223  1.00  0.00    -0.301 OA
ENDBRANCH  12  30
BRANCH  13  32
HETATM   32  O4  UNL     1       1.683  50.033 -14.455  1.00  0.00    -0.359 OA
HETATM   33  H23 UNL     1       2.379  50.624 -14.095  1.00  0.00     0.217 HD
ENDBRANCH  13  32
BRANCH  15  34
HETATM   34  O6  UNL     1       1.821  53.343 -17.894  1.00  0.00    -0.359 OA
HETATM   35  H25 UNL     1       2.384  53.066 -18.644  1.00  0.00     0.217 HD
ENDBRANCH  15  34
BRANCH  14  36
HETATM   36  C18 UNL     1       2.729  52.510 -15.433  1.00  0.00     0.275 C 
HETATM   37  O5  UNL     1       3.754  52.907 -15.983  1.00  0.00    -0.301 OA
ENDBRANCH  14  36
TORSDOF 8
ENDMDL
MODEL 7
REMARK minimizedAffinity -8.86491966
REMARK  8 active torsions:
REMARK  status: ('A' for Active; 'I' for Inactive)
REMARK    1  A    between atoms: C5_5  and  C6_6 
REMARK    2  A    between atoms: C6_6  and  O1_9 
REMARK    3  A    between atoms: C14_16  and  C15_17 
REMARK    4  A    between atoms: C16_19  and  O4_20 
REMARK    5  A    between atoms: C17_21  and  C18_22 
REMARK    6  A    between atoms: C19_24  and  O6_25 
REMARK    7  A    between atoms: C21_27  and  C22_28 
REMARK    8  A    between atoms: C22_28  and  C23_29 
ROOT
HETATM    1  C1  UNL     1      -5.650  48.150 -25.923  1.00  0.00     0.043 C 
HETATM    2  C2  UNL     1      -5.769  47.977 -24.427  1.00  0.00    -0.087 C 
HETATM    3  C3  UNL     1      -6.449  46.935 -23.912  1.00  0.00    -0.024 C 
HETATM    4  C4  UNL     1      -6.724  46.415 -22.519  1.00  0.00     0.035 C 
HETATM    5  C5  UNL     1      -6.565  47.172 -21.154  1.00  0.00     0.023 C 
HETATM    6  C9  UNL     1      -5.047  47.336 -20.808  1.00  0.00     0.011 C 
HETATM    7  C10 UNL     1      -4.307  48.528 -20.179  1.00  0.00     0.039 C 
HETATM    8  C11 UNL     1      -3.834  49.840 -20.894  1.00  0.00     0.068 C 
HETATM    9  C12 UNL     1      -4.965  50.898 -20.932  1.00  0.00     0.047 C 
HETATM   10  O2  UNL     1      -2.936  50.407 -19.880  1.00  0.00    -0.338 OA
HETATM   11  C13 UNL     1      -1.863  51.192 -20.222  1.00  0.00     0.095 A 
HETATM   12  C14 UNL     1      -1.080  51.645 -19.133  1.00  0.00     0.070 A 
HETATM   13  C16 UNL     1       0.079  52.390 -19.368  1.00  0.00     0.097 A 
HETATM   14  C17 UNL     1       0.480  52.627 -20.687  1.00  0.00     0.069 A 
HETATM   15  C19 UNL     1      -0.291  52.147 -21.760  1.00  0.00     0.091 A 
HETATM   16  C20 UNL     1      -1.513  51.483 -21.561  1.00  0.00     0.015 A 
HETATM   17  C21 UNL     1      -2.512  51.070 -22.653  1.00  0.00     0.031 C 
HETATM   18  C26 UNL     1      -3.006  49.646 -22.226  1.00  0.00     0.029 C 
HETATM   19  C27 UNL     1      -3.623  48.770 -23.339  1.00  0.00     0.012 C 
HETATM   20  C28 UNL     1      -5.088  49.047 -23.631  1.00  0.00     0.034 C 
ENDROOT
BRANCH   5  21
HETATM   21  C6  UNL     1      -7.665  48.237 -20.823  1.00  0.00     0.054 C 
HETATM   22  C7  UNL     1      -7.634  49.424 -21.810  1.00  0.00     0.045 C 
HETATM   23  C8  UNL     1      -9.078  47.643 -20.904  1.00  0.00     0.045 C 
BRANCH  21  24
HETATM   24  O1  UNL     1      -7.509  48.796 -19.531  1.00  0.00    -0.390 OA
HETATM   25  H14 UNL     1      -6.716  49.363 -19.548  1.00  0.00     0.210 HD
ENDBRANCH  21  24
ENDBRANCH   5  21
BRANCH  17  26
HETATM   26  C22 UNL     1      -2.130  51.238 -24.147  1.00  0.00     0.014 C 
BRANCH  26  27
HETATM   27  C23 UNL     1      -2.949  52.322 -24.898  1.00  0.00    -0.022 C 
HETATM   28  C24 UNL     1      -2.756  52.169 -26.409  1.00  0.00     0.009 C 
HETATM   29  C25 UNL     1      -4.444  52.230 -24.568  1.00  0.00     0.009 C 
ENDBRANCH  26  27
ENDBRANCH  17  26
BRANCH  12  30
HETATM   30  C15 UNL     1      -1.524  51.307 -17.752  1.00  0.00     0.275 C 
HETATM   31  O3  UNL     1      -2.671  51.430 -17.342  1.00  0.00    -0.301 OA
ENDBRANCH  12  30
BRANCH  13  32
HETATM   32  O4  UNL     1       0.793  52.887 -18.310  1.00  0.00    -0.359 OA
HETATM   33  H23 UNL     1       1.612  53.320 -18.635  1.00  0.00     0.217 HD
ENDBRANCH  13  32
BRANCH  15  34
HETATM   34  O6  UNL     1       0.224  52.311 -23.016  1.00  0.00    -0.359 OA
HETATM   35  H25 UNL     1       0.521  51.428 -23.314  1.00  0.00     0.217 HD
ENDBRANCH  15  34
BRANCH  14  36
HETATM   36  C18 UNL     1       1.725  53.376 -20.970  1.00  0.00     0.275 C 
HETATM   37  O5  UNL     1       1.716  54.599 -21.086  1.00  0.00    -0.301 OA
ENDBRANCH  14  36
TORSDOF 8
ENDMDL
MODEL 8
REMARK minimizedAffinity -8.84197235
REMARK  8 active torsions:
REMARK  status: ('A' for Active; 'I' for Inactive)
REMARK    1  A    between atoms: C5_5  and  C6_6 
REMARK    2  A    between atoms: C6_6  and  O1_9 
REMARK    3  A    between atoms: C14_16  and  C15_17 
REMARK    4  A    between atoms: C16_19  and  O4_20 
REMARK    5  A    between atoms: C17_21  and  C18_22 
REMARK    6  A    between atoms: C19_24  and  O6_25 
REMARK    7  A    between atoms: C21_27  and  C22_28 
REMARK    8  A    between atoms: C22_28  and  C23_29 
ROOT
HETATM    1  C1  UNL     1       0.732  53.101 -22.157  1.00  0.00     0.043 C 
HETATM    2  C2  UNL     1       0.431  52.559 -23.535  1.00  0.00    -0.087 C 
HETATM    3  C3  UNL     1       1.396  52.507 -24.473  1.00  0.00    -0.024 C 
HETATM    4  C4  UNL     1       1.487  51.994 -25.893  1.00  0.00     0.035 C 
HETATM    5  C5  UNL     1       0.313  51.647 -26.874  1.00  0.00     0.023 C 
HETATM    6  C9  UNL     1      -0.384  50.320 -26.424  1.00  0.00     0.011 C 
HETATM    7  C10 UNL     1      -1.875  49.946 -26.422  1.00  0.00     0.039 C 
HETATM    8  C11 UNL     1      -2.958  50.356 -25.366  1.00  0.00     0.068 C 
HETATM    9  C12 UNL     1      -3.573  51.738 -25.698  1.00  0.00     0.047 C 
HETATM   10  O2  UNL     1      -4.058  49.451 -25.722  1.00  0.00    -0.338 OA
HETATM   11  C13 UNL     1      -4.961  49.007 -24.789  1.00  0.00     0.095 A 
HETATM   12  C14 UNL     1      -5.950  48.123 -25.284  1.00  0.00     0.070 A 
HETATM   13  C16 UNL     1      -6.876  47.549 -24.408  1.00  0.00     0.097 A 
HETATM   14  C17 UNL     1      -6.773  47.815 -23.039  1.00  0.00     0.069 A 
HETATM   15  C19 UNL     1      -5.768  48.671 -22.556  1.00  0.00     0.091 A 
HETATM   16  C20 UNL     1      -4.885  49.344 -23.417  1.00  0.00     0.015 A 
HETATM   17  C21 UNL     1      -3.869  50.424 -23.016  1.00  0.00     0.031 C 
HETATM   18  C26 UNL     1      -2.585  50.097 -23.852  1.00  0.00     0.029 C 
HETATM   19  C27 UNL     1      -1.254  50.681 -23.326  1.00  0.00     0.012 C 
HETATM   20  C28 UNL     1      -0.988  52.121 -23.725  1.00  0.00     0.034 C 
ENDROOT
BRANCH   5  21
HETATM   21  C6  UNL     1      -0.438  52.866 -27.510  1.00  0.00     0.054 C 
HETATM   22  C7  UNL     1      -1.970  52.671 -27.496  1.00  0.00     0.045 C 
HETATM   23  C8  UNL     1      -0.160  54.169 -26.749  1.00  0.00     0.045 C 
BRANCH  21  24
HETATM   24  O1  UNL     1      -0.082  53.078 -28.865  1.00  0.00    -0.390 OA
HETATM   25  H14 UNL     1      -0.460  52.346 -29.387  1.00  0.00     0.210 HD
ENDBRANCH  21  24
ENDBRANCH   5  21
BRANCH  17  26
HETATM   26  C22 UNL     1      -3.641  50.744 -21.516  1.00  0.00     0.014 C 
BRANCH  26  27
HETATM   27  C23 UNL     1      -3.019  49.577 -20.701  1.00  0.00    -0.022 C 
HETATM   28  C24 UNL     1      -2.229  48.654 -21.632  1.00  0.00     0.009 C 
HETATM   29  C25 UNL     1      -2.090  50.092 -19.595  1.00  0.00     0.009 C 
ENDBRANCH  26  27
ENDBRANCH  17  26
BRANCH  12  30
HETATM   30  C15 UNL     1      -5.971  47.829 -26.744  1.00  0.00     0.275 C 
HETATM   31  O3  UNL     1      -5.055  48.081 -27.516  1.00  0.00    -0.301 OA
ENDBRANCH  12  30
BRANCH  13  32
HETATM   32  O4  UNL     1      -7.875  46.753 -24.902  1.00  0.00    -0.359 OA
HETATM   33  H23 UNL     1      -8.393  46.371 -24.161  1.00  0.00     0.217 HD
ENDBRANCH  13  32
BRANCH  15  34
HETATM   34  O6  UNL     1      -5.653  48.789 -21.198  1.00  0.00    -0.359 OA
HETATM   35  H25 UNL     1      -4.845  48.299 -20.944  1.00  0.00     0.217 HD
ENDBRANCH  15  34
BRANCH  14  36
HETATM   36  C18 UNL     1      -7.712  47.191 -22.080  1.00  0.00     0.275 C 
HETATM   37  O5  UNL     1      -8.268  47.858 -21.211  1.00  0.00    -0.301 OA
ENDBRANCH  14  36
TORSDOF 8
ENDMDL
MODEL 9
REMARK minimizedAffinity -8.79911041
REMARK  8 active torsions:
REMARK  status: ('A' for Active; 'I' for Inactive)
REMARK    1  A    between atoms: C5_5  and  C6_6 
REMARK    2  A    between atoms: C6_6  and  O1_9 
REMARK    3  A    between atoms: C14_16  and  C15_17 
REMARK    4  A    between atoms: C16_19  and  O4_20 
REMARK    5  A    between atoms: C17_21  and  C18_22 
REMARK    6  A    between atoms: C19_24  and  O6_25 
REMARK    7  A    between atoms: C21_27  and  C22_28 
REMARK    8  A    between atoms: C22_28  and  C23_29 
ROOT
HETATM    1  C1  UNL     1      -4.578  49.218 -18.218  1.00  0.00     0.043 C 
HETATM    2  C2  UNL     1      -5.320  49.134 -19.532  1.00  0.00    -0.087 C 
HETATM    3  C3  UNL     1      -6.664  49.058 -19.553  1.00  0.00    -0.024 C 
HETATM    4  C4  UNL     1      -7.721  49.022 -20.634  1.00  0.00     0.035 C 
HETATM    5  C5  UNL     1      -7.535  48.708 -22.160  1.00  0.00     0.023 C 
HETATM    6  C9  UNL     1      -6.829  49.911 -22.870  1.00  0.00     0.011 C 
HETATM    7  C10 UNL     1      -5.754  49.907 -23.970  1.00  0.00     0.039 C 
HETATM    8  C11 UNL     1      -4.213  49.677 -23.795  1.00  0.00     0.068 C 
HETATM    9  C12 UNL     1      -3.866  48.168 -23.814  1.00  0.00     0.047 C 
HETATM   10  O2  UNL     1      -3.712  50.111 -25.105  1.00  0.00    -0.338 OA
HETATM   11  C13 UNL     1      -2.458  50.647 -25.259  1.00  0.00     0.095 A 
HETATM   12  C14 UNL     1      -2.128  51.037 -26.579  1.00  0.00     0.070 A 
HETATM   13  C16 UNL     1      -0.906  51.663 -26.838  1.00  0.00     0.097 A 
HETATM   14  C17 UNL     1      -0.047  51.948 -25.772  1.00  0.00     0.069 A 
HETATM   15  C19 UNL     1      -0.398  51.582 -24.460  1.00  0.00     0.091 A 
HETATM   16  C20 UNL     1      -1.571  50.862 -24.177  1.00  0.00     0.015 A 
HETATM   17  C21 UNL     1      -1.966  50.266 -22.817  1.00  0.00     0.031 C 
HETATM   18  C26 UNL     1      -3.502  50.549 -22.687  1.00  0.00     0.029 C 
HETATM   19  C27 UNL     1      -4.087  50.520 -21.257  1.00  0.00     0.012 C 
HETATM   20  C28 UNL     1      -4.432  49.135 -20.738  1.00  0.00     0.034 C 
ENDROOT
BRANCH   5  21
HETATM   21  C6  UNL     1      -7.302  47.204 -22.531  1.00  0.00     0.054 C 
HETATM   22  C7  UNL     1      -8.344  46.277 -21.867  1.00  0.00     0.045 C 
HETATM   23  C8  UNL     1      -7.411  46.965 -24.043  1.00  0.00     0.045 C 
BRANCH  21  24
HETATM   24  O1  UNL     1      -6.033  46.731 -22.114  1.00  0.00    -0.390 OA
HETATM   25  H14 UNL     1      -6.046  46.672 -21.141  1.00  0.00     0.210 HD
ENDBRANCH  21  24
ENDBRANCH   5  21
BRANCH  17  26
HETATM   26  C22 UNL     1      -1.108  50.579 -21.563  1.00  0.00     0.014 C 
BRANCH  26  27
HETATM   27  C23 UNL     1      -0.611  49.322 -20.800  1.00  0.00    -0.022 C 
HETATM   28  C24 UNL     1      -0.939  49.453 -19.310  1.00  0.00     0.009 C 
HETATM   29  C25 UNL     1      -1.250  48.040 -21.346  1.00  0.00     0.009 C 
ENDBRANCH  26  27
ENDBRANCH  17  26
BRANCH  12  30
HETATM   30  C15 UNL     1      -3.111  50.763 -27.664  1.00  0.00     0.275 C 
HETATM   31  O3  UNL     1      -3.307  49.662 -28.162  1.00  0.00    -0.301 OA
ENDBRANCH  12  30
BRANCH  13  32
HETATM   32  O4  UNL     1      -0.562  51.972 -28.128  1.00  0.00    -0.359 OA
HETATM   33  H23 UNL     1       0.284  52.469 -28.136  1.00  0.00     0.217 HD
ENDBRANCH  13  32
BRANCH  15  34
HETATM   34  O6  UNL     1       0.431  51.999 -23.457  1.00  0.00    -0.359 OA
HETATM   35  H25 UNL     1      -0.037  52.719 -22.989  1.00  0.00     0.217 HD
ENDBRANCH  15  34
BRANCH  14  36
HETATM   36  C18 UNL     1       1.236  52.647 -26.008  1.00  0.00     0.275 C 
HETATM   37  O5  UNL     1       2.059  52.210 -26.808  1.00  0.00    -0.301 OA
ENDBRANCH  14  36
TORSDOF 8
ENDMDL
