MODEL 1
REMARK minimizedAffinity -6.18147278
REMARK CNNscore 0.588257849
REMARK CNNaffinity 6.61413193
REMARK  4 active torsions:
REMARK  status: ('A' for Active; 'I' for Inactive)
REMARK    1  A    between atoms: C2_2  and  C4_4 
REMARK    2  A    between atoms: C4_4  and  C5_5 
REMARK    3  A    between atoms: C5_5  and  O1_6 
REMARK    4  A    between atoms: C8_9  and  C9_10 
ROOT
HETATM    1  C9  UNL     1     -13.124 -11.253  27.194  1.00  0.00     0.001 C 
HETATM    2  C10 UNL     1     -14.556 -11.639  26.740  1.00  0.00     0.007 C 
HETATM    3  C11 UNL     1     -15.531 -10.714  27.489  1.00  0.00     0.011 C 
HETATM    4  C12 UNL     1     -14.654  -9.589  28.074  1.00  0.00    -0.032 C 
HETATM    5  C13 UNL     1     -14.458  -8.540  26.934  1.00  0.00     0.016 C 
HETATM    6  C14 UNL     1     -15.240  -8.907  29.338  1.00  0.00     0.004 C 
HETATM    7  C15 UNL     1     -16.470  -8.034  29.058  1.00  0.00     0.007 C 
HETATM    8  C16 UNL     1     -17.031  -7.507  30.372  1.00  0.00     0.007 C 
HETATM    9  C17 UNL     1     -16.108  -6.445  31.006  1.00  0.00     0.010 C 
HETATM   10  C18 UNL     1     -16.283  -4.979  30.437  1.00  0.00     0.018 C 
HETATM   11  C19 UNL     1     -16.376  -3.956  31.595  1.00  0.00     0.023 C 
HETATM   12  C20 UNL     1     -17.565  -4.762  29.601  1.00  0.00     0.023 C 
HETATM   13  C21 UNL     1     -15.067  -4.602  29.578  1.00  0.00     0.135 C 
HETATM   14  O2  UNL     1     -15.182  -4.133  28.443  1.00  0.00    -0.297 OA
HETATM   15  C22 UNL     1     -13.691  -4.741  30.190  1.00  0.00     0.080 C 
HETATM   16  C23 UNL     1     -13.655  -5.784  31.291  1.00  0.00     0.018 C 
HETATM   17  C24 UNL     1     -14.624  -6.913  31.004  1.00  0.00    -0.026 A 
HETATM   18  C25 UNL     1     -14.301  -8.229  31.663  1.00  0.00     0.021 A 
HETATM   19  C26 UNL     1     -14.170  -8.136  30.149  1.00  0.00    -0.027 A 
HETATM   20  C27 UNL     1     -12.739  -8.135  29.590  1.00  0.00     0.011 C 
HETATM   21  C28 UNL     1     -12.260  -9.369  28.803  1.00  0.00     0.011 C 
HETATM   22  C29 UNL     1     -13.359 -10.386  28.472  1.00  0.00    -0.032 C 
HETATM   23  C30 UNL     1     -13.538 -11.297  29.717  1.00  0.00     0.016 C 
ENDROOT
BRANCH   1  24
HETATM   24  C8  UNL     1     -12.116 -12.431  27.150  1.00  0.00     0.014 C 
HETATM   25  C7  UNL     1     -10.957 -12.325  26.144  1.00  0.00     0.010 C 
HETATM   26  C6  UNL     1     -10.601 -13.680  25.535  1.00  0.00     0.041 C 
HETATM   27  C4  UNL     1     -10.611 -14.831  26.571  1.00  0.00     0.085 C 
HETATM   28  O3  UNL     1     -11.849 -14.853  27.323  1.00  0.00    -0.377 OA
HETATM   29  C31 UNL     1     -12.782 -13.806  27.062  1.00  0.00     0.174 C 
BRANCH  27  30
HETATM   30  C2  UNL     1      -9.462 -14.680  27.633  1.00  0.00     0.014 C 
HETATM   31  C1  UNL     1      -8.044 -14.593  27.062  1.00  0.00     0.012 C 
HETATM   32  C3  UNL     1      -9.495 -15.774  28.713  1.00  0.00     0.012 C 
ENDBRANCH  27  30
BRANCH  27  33
HETATM   33  C5  UNL     1     -10.565 -16.188  25.816  1.00  0.00     0.202 C 
BRANCH  33  34
HETATM   34  O1  UNL     1      -9.927 -16.122  24.546  1.00  0.00    -0.398 OA
HETATM   35  H10 UNL     1     -10.545 -15.700  23.928  1.00  0.00     0.209 HD
ENDBRANCH  33  34
ENDBRANCH  27  33
ENDBRANCH   1  24
TORSDOF 4
ENDMDL
MODEL 2
REMARK minimizedAffinity -7.43310928
REMARK CNNscore 0.565197945
REMARK CNNaffinity 6.63837814
REMARK  4 active torsions:
REMARK  status: ('A' for Active; 'I' for Inactive)
REMARK    1  A    between atoms: C2_2  and  C4_4 
REMARK    2  A    between atoms: C4_4  and  C5_5 
REMARK    3  A    between atoms: C5_5  and  O1_6 
REMARK    4  A    between atoms: C8_9  and  C9_10 
ROOT
HETATM    1  C9  UNL     1     -13.459   6.071  23.235  1.00  0.00     0.001 C 
HETATM    2  C10 UNL     1     -14.902   6.341  22.731  1.00  0.00     0.007 C 
HETATM    3  C11 UNL     1     -15.041   7.865  22.562  1.00  0.00     0.011 C 
HETATM    4  C12 UNL     1     -13.601   8.413  22.618  1.00  0.00    -0.032 C 
HETATM    5  C13 UNL     1     -13.012   8.258  21.180  1.00  0.00     0.016 C 
HETATM    6  C14 UNL     1     -13.491   9.886  23.090  1.00  0.00     0.004 C 
HETATM    7  C15 UNL     1     -14.020  10.905  22.073  1.00  0.00     0.007 C 
HETATM    8  C16 UNL     1     -13.971  12.302  22.677  1.00  0.00     0.007 C 
HETATM    9  C17 UNL     1     -12.523  12.816  22.818  1.00  0.00     0.010 C 
HETATM   10  C18 UNL     1     -11.906  13.450  21.506  1.00  0.00     0.018 C 
HETATM   11  C19 UNL     1     -11.219  14.799  21.829  1.00  0.00     0.023 C 
HETATM   12  C20 UNL     1     -12.938  13.775  20.402  1.00  0.00     0.023 C 
HETATM   13  C21 UNL     1     -10.841  12.512  20.922  1.00  0.00     0.135 C 
HETATM   14  O2  UNL     1     -10.834  12.181  19.734  1.00  0.00    -0.297 OA
HETATM   15  C22 UNL     1      -9.722  12.051  21.829  1.00  0.00     0.080 C 
HETATM   16  C23 UNL     1     -10.128  12.060  23.291  1.00  0.00     0.018 C 
HETATM   17  C24 UNL     1     -11.599  11.735  23.450  1.00  0.00    -0.026 A 
HETATM   18  C25 UNL     1     -11.997  11.165  24.787  1.00  0.00     0.021 A 
HETATM   19  C26 UNL     1     -12.066  10.252  23.570  1.00  0.00    -0.027 A 
HETATM   20  C27 UNL     1     -10.997   9.151  23.487  1.00  0.00     0.011 C 
HETATM   21  C28 UNL     1     -11.440   7.687  23.673  1.00  0.00     0.011 C 
HETATM   22  C29 UNL     1     -12.958   7.474  23.703  1.00  0.00    -0.032 C 
HETATM   23  C30 UNL     1     -13.439   7.763  25.150  1.00  0.00     0.016 C 
ENDROOT
BRANCH   1  24
HETATM   24  C8  UNL     1     -13.333   4.796  24.110  1.00  0.00     0.014 C 
HETATM   25  C7  UNL     1     -13.336   3.442  23.381  1.00  0.00     0.010 C 
HETATM   26  C6  UNL     1     -14.064   2.362  24.178  1.00  0.00     0.041 C 
HETATM   27  C4  UNL     1     -13.750   2.414  25.694  1.00  0.00     0.085 C 
HETATM   28  O3  UNL     1     -13.946   3.746  26.229  1.00  0.00    -0.377 OA
HETATM   29  C31 UNL     1     -14.296   4.770  25.299  1.00  0.00     0.174 C 
BRANCH  27  30
HETATM   30  C2  UNL     1     -12.254   2.041  26.001  1.00  0.00     0.014 C 
HETATM   31  C1  UNL     1     -11.631   0.998  25.068  1.00  0.00     0.012 C 
HETATM   32  C3  UNL     1     -12.032   1.600  27.457  1.00  0.00     0.012 C 
ENDBRANCH  27  30
BRANCH  27  33
HETATM   33  C5  UNL     1     -14.768   1.515  26.450  1.00  0.00     0.202 C 
BRANCH  33  34
HETATM   34  O1  UNL     1     -15.766   0.943  25.614  1.00  0.00    -0.398 OA
HETATM   35  H10 UNL     1     -16.407   1.640  25.402  1.00  0.00     0.209 HD
ENDBRANCH  33  34
ENDBRANCH  27  33
ENDBRANCH   1  24
TORSDOF 4
ENDMDL
MODEL 3
REMARK minimizedAffinity -6.88500071
REMARK CNNscore 0.478140354
REMARK CNNaffinity 5.9307785
REMARK  4 active torsions:
REMARK  status: ('A' for Active; 'I' for Inactive)
REMARK    1  A    between atoms: C2_2  and  C4_4 
REMARK    2  A    between atoms: C4_4  and  C5_5 
REMARK    3  A    between atoms: C5_5  and  O1_6 
REMARK    4  A    between atoms: C8_9  and  C9_10 
ROOT
HETATM    1  C9  UNL     1     -16.174  -1.241  13.616  1.00  0.00     0.001 C 
HETATM    2  C10 UNL     1     -17.592  -1.499  13.041  1.00  0.00     0.007 C 
HETATM    3  C11 UNL     1     -18.392  -0.196  13.216  1.00  0.00     0.011 C 
HETATM    4  C12 UNL     1     -17.343   0.884  13.547  1.00  0.00    -0.032 C 
HETATM    5  C13 UNL     1     -16.759   1.368  12.182  1.00  0.00     0.016 C 
HETATM    6  C14 UNL     1     -17.892   2.088  14.356  1.00  0.00     0.004 C 
HETATM    7  C15 UNL     1     -18.826   3.001  13.553  1.00  0.00     0.007 C 
HETATM    8  C16 UNL     1     -19.394   4.079  14.466  1.00  0.00     0.007 C 
HETATM    9  C17 UNL     1     -18.322   5.112  14.872  1.00  0.00     0.010 C 
HETATM   10  C18 UNL     1     -18.061   6.259  13.815  1.00  0.00     0.018 C 
HETATM   11  C19 UNL     1     -18.039   7.642  14.512  1.00  0.00     0.023 C 
HETATM   12  C20 UNL     1     -19.140   6.378  12.715  1.00  0.00     0.023 C 
HETATM   13  C21 UNL     1     -16.696   6.053  13.144  1.00  0.00     0.135 C 
HETATM   14  O2  UNL     1     -16.554   6.071  11.919  1.00  0.00    -0.297 OA
HETATM   15  C22 UNL     1     -15.480   5.904  14.032  1.00  0.00     0.080 C 
HETATM   16  C23 UNL     1     -15.835   5.366  15.406  1.00  0.00     0.018 C 
HETATM   17  C24 UNL     1     -17.010   4.412  15.330  1.00  0.00    -0.026 A 
HETATM   18  C25 UNL     1     -17.102   3.407  16.449  1.00  0.00     0.021 A 
HETATM   19  C26 UNL     1     -16.771   2.896  15.054  1.00  0.00    -0.027 A 
HETATM   20  C27 UNL     1     -15.326   2.422  14.830  1.00  0.00     0.011 C 
HETATM   21  C28 UNL     1     -15.075   0.916  14.626  1.00  0.00     0.011 C 
HETATM   22  C29 UNL     1     -16.341   0.072  14.446  1.00  0.00    -0.032 C 
HETATM   23  C30 UNL     1     -16.887  -0.253  15.863  1.00  0.00     0.016 C 
ENDROOT
BRANCH   1  24
HETATM   24  C8  UNL     1     -15.489  -2.513  14.181  1.00  0.00     0.014 C 
HETATM   25  C7  UNL     1     -15.642  -3.810  13.369  1.00  0.00     0.010 C 
HETATM   26  C6  UNL     1     -15.771  -5.038  14.268  1.00  0.00     0.041 C 
HETATM   27  C4  UNL     1     -14.807  -5.005  15.480  1.00  0.00     0.085 C 
HETATM   28  O3  UNL     1     -14.915  -3.754  16.204  1.00  0.00    -0.377 OA
HETATM   29  C31 UNL     1     -15.787  -2.765  15.660  1.00  0.00     0.174 C 
BRANCH  27  30
HETATM   30  C2  UNL     1     -13.302  -5.122  15.042  1.00  0.00     0.014 C 
HETATM   31  C1  UNL     1     -12.649  -3.818  14.576  1.00  0.00     0.012 C 
HETATM   32  C3  UNL     1     -13.070  -6.202  13.972  1.00  0.00     0.012 C 
ENDBRANCH  27  30
BRANCH  27  33
HETATM   33  C5  UNL     1     -15.233  -6.103  16.492  1.00  0.00     0.202 C 
BRANCH  33  34
HETATM   34  O1  UNL     1     -15.160  -5.696  17.853  1.00  0.00    -0.398 OA
HETATM   35  H10 UNL     1     -14.223  -5.700  18.111  1.00  0.00     0.209 HD
ENDBRANCH  33  34
ENDBRANCH  27  33
ENDBRANCH   1  24
TORSDOF 4
ENDMDL
MODEL 4
REMARK minimizedAffinity -5.88064384
REMARK CNNscore 0.437320232
REMARK CNNaffinity 5.87211561
REMARK  4 active torsions:
REMARK  status: ('A' for Active; 'I' for Inactive)
REMARK    1  A    between atoms: C2_2  and  C4_4 
REMARK    2  A    between atoms: C4_4  and  C5_5 
REMARK    3  A    between atoms: C5_5  and  O1_6 
REMARK    4  A    between atoms: C8_9  and  C9_10 
ROOT
HETATM    1  C9  UNL     1     -10.007  -9.691   8.052  1.00  0.00     0.001 C 
HETATM    2  C10 UNL     1     -10.764  -8.356   8.282  1.00  0.00     0.007 C 
HETATM    3  C11 UNL     1     -11.154  -7.815   6.896  1.00  0.00     0.011 C 
HETATM    4  C12 UNL     1     -10.945  -8.995   5.926  1.00  0.00    -0.032 C 
HETATM    5  C13 UNL     1     -12.238  -9.867   6.004  1.00  0.00     0.016 C 
HETATM    6  C14 UNL     1     -10.663  -8.580   4.459  1.00  0.00     0.004 C 
HETATM    7  C15 UNL     1     -11.877  -7.982   3.738  1.00  0.00     0.007 C 
HETATM    8  C16 UNL     1     -11.465  -7.507   2.351  1.00  0.00     0.007 C 
HETATM    9  C17 UNL     1     -11.167  -8.688   1.404  1.00  0.00     0.010 C 
HETATM   10  C18 UNL     1     -12.438  -9.333   0.716  1.00  0.00     0.018 C 
HETATM   11  C19 UNL     1     -12.193  -9.524  -0.801  1.00  0.00     0.023 C 
HETATM   12  C20 UNL     1     -13.724  -8.482   0.815  1.00  0.00     0.023 C 
HETATM   13  C21 UNL     1     -12.716 -10.717   1.321  1.00  0.00     0.135 C 
HETATM   14  O2  UNL     1     -13.833 -11.046   1.727  1.00  0.00    -0.297 OA
HETATM   15  C22 UNL     1     -11.590 -11.726   1.340  1.00  0.00     0.080 C 
HETATM   16  C23 UNL     1     -10.225 -11.064   1.341  1.00  0.00     0.018 C 
HETATM   17  C24 UNL     1     -10.258  -9.748   2.092  1.00  0.00    -0.026 A 
HETATM   18  C25 UNL     1      -8.937  -9.285   2.650  1.00  0.00     0.021 A 
HETATM   19  C26 UNL     1     -10.016  -9.719   3.632  1.00  0.00    -0.027 A 
HETATM   20  C27 UNL     1      -9.782 -11.056   4.351  1.00  0.00     0.011 C 
HETATM   21  C28 UNL     1      -9.475 -11.030   5.860  1.00  0.00     0.011 C 
HETATM   22  C29 UNL     1      -9.657  -9.664   6.530  1.00  0.00    -0.032 C 
HETATM   23  C30 UNL     1      -8.355  -8.852   6.291  1.00  0.00     0.016 C 
ENDROOT
BRANCH   1  24
HETATM   24  C8  UNL     1      -8.960 -10.012   9.151  1.00  0.00     0.014 C 
HETATM   25  C7  UNL     1      -8.717  -8.935  10.222  1.00  0.00     0.010 C 
HETATM   26  C6  UNL     1      -7.251  -8.872  10.649  1.00  0.00     0.041 C 
HETATM   27  C4  UNL     1      -6.607 -10.271  10.811  1.00  0.00     0.085 C 
HETATM   28  O3  UNL     1      -6.823 -11.090   9.636  1.00  0.00    -0.377 OA
HETATM   29  C31 UNL     1      -7.632 -10.535   8.600  1.00  0.00     0.174 C 
BRANCH  27  30
HETATM   30  C2  UNL     1      -7.225 -11.071  12.015  1.00  0.00     0.014 C 
HETATM   31  C1  UNL     1      -7.500 -10.250  13.278  1.00  0.00     0.012 C 
HETATM   32  C3  UNL     1      -6.401 -12.311  12.399  1.00  0.00     0.012 C 
ENDBRANCH  27  30
BRANCH  27  33
HETATM   33  C5  UNL     1      -5.066 -10.106  10.919  1.00  0.00     0.202 C 
BRANCH  33  34
HETATM   34  O1  UNL     1      -4.657  -9.025  11.748  1.00  0.00    -0.398 OA
HETATM   35  H10 UNL     1      -4.797  -8.203  11.250  1.00  0.00     0.209 HD
ENDBRANCH  33  34
ENDBRANCH  27  33
ENDBRANCH   1  24
TORSDOF 4
ENDMDL
MODEL 5
REMARK minimizedAffinity -6.50656748
REMARK CNNscore 0.419596851
REMARK CNNaffinity 5.8621521
REMARK  4 active torsions:
REMARK  status: ('A' for Active; 'I' for Inactive)
REMARK    1  A    between atoms: C2_2  and  C4_4 
REMARK    2  A    between atoms: C4_4  and  C5_5 
REMARK    3  A    between atoms: C5_5  and  O1_6 
REMARK    4  A    between atoms: C8_9  and  C9_10 
ROOT
HETATM    1  C9  UNL     1     -16.452   4.157  15.415  1.00  0.00     0.001 C 
HETATM    2  C10 UNL     1     -17.858   4.318  16.052  1.00  0.00     0.007 C 
HETATM    3  C11 UNL     1     -18.538   2.939  15.997  1.00  0.00     0.011 C 
HETATM    4  C12 UNL     1     -17.409   1.942  15.670  1.00  0.00    -0.032 C 
HETATM    5  C13 UNL     1     -16.714   1.599  17.026  1.00  0.00     0.016 C 
HETATM    6  C14 UNL     1     -17.880   0.645  14.963  1.00  0.00     0.004 C 
HETATM    7  C15 UNL     1     -18.682  -0.299  15.868  1.00  0.00     0.007 C 
HETATM    8  C16 UNL     1     -19.190  -1.480  15.051  1.00  0.00     0.007 C 
HETATM    9  C17 UNL     1     -18.046  -2.432  14.646  1.00  0.00     0.010 C 
HETATM   10  C18 UNL     1     -17.624  -3.483  15.751  1.00  0.00     0.018 C 
HETATM   11  C19 UNL     1     -17.505  -4.898  15.135  1.00  0.00     0.023 C 
HETATM   12  C20 UNL     1     -18.630  -3.631  16.914  1.00  0.00     0.023 C 
HETATM   13  C21 UNL     1     -16.253  -3.110  16.332  1.00  0.00     0.135 C 
HETATM   14  O2  UNL     1     -16.049  -3.039  17.546  1.00  0.00    -0.297 OA
HETATM   15  C22 UNL     1     -15.103  -2.906  15.371  1.00  0.00     0.080 C 
HETATM   16  C23 UNL     1     -15.576  -2.489  13.990  1.00  0.00     0.018 C 
HETATM   17  C24 UNL     1     -16.831  -1.645  14.076  1.00  0.00    -0.026 A 
HETATM   18  C25 UNL     1     -17.074  -0.724  12.908  1.00  0.00     0.021 A 
HETATM   19  C26 UNL     1     -16.724  -0.099  14.251  1.00  0.00    -0.027 A 
HETATM   20  C27 UNL     1     -15.322   0.519  14.367  1.00  0.00     0.011 C 
HETATM   21  C28 UNL     1     -15.205   2.051  14.471  1.00  0.00     0.011 C 
HETATM   22  C29 UNL     1     -16.535   2.786  14.672  1.00  0.00    -0.032 C 
HETATM   23  C30 UNL     1     -17.180   2.969  13.271  1.00  0.00     0.016 C 
ENDROOT
BRANCH   1  24
HETATM   24  C8  UNL     1     -15.921   5.449  14.740  1.00  0.00     0.014 C 
HETATM   25  C7  UNL     1     -16.109   6.768  15.509  1.00  0.00     0.010 C 
HETATM   26  C6  UNL     1     -16.410   7.939  14.575  1.00  0.00     0.041 C 
HETATM   27  C4  UNL     1     -15.552   7.921  13.286  1.00  0.00     0.085 C 
HETATM   28  O3  UNL     1     -15.620   6.633  12.625  1.00  0.00    -0.377 OA
HETATM   29  C31 UNL     1     -16.362   5.607  13.284  1.00  0.00     0.174 C 
BRANCH  27  30
HETATM   30  C2  UNL     1     -14.029   8.173  13.585  1.00  0.00     0.014 C 
HETATM   31  C1  UNL     1     -13.490   9.539  13.152  1.00  0.00     0.012 C 
HETATM   32  C3  UNL     1     -13.115   7.075  13.015  1.00  0.00     0.012 C 
ENDBRANCH  27  30
BRANCH  27  33
HETATM   33  C5  UNL     1     -16.147   8.934  12.271  1.00  0.00     0.202 C 
BRANCH  33  34
HETATM   34  O1  UNL     1     -16.084   8.503  10.917  1.00  0.00    -0.398 OA
HETATM   35  H10 UNL     1     -15.166   8.609  10.617  1.00  0.00     0.209 HD
ENDBRANCH  33  34
ENDBRANCH  27  33
ENDBRANCH   1  24
TORSDOF 4
ENDMDL
MODEL 6
REMARK minimizedAffinity -7.06178951
REMARK CNNscore 0.415391415
REMARK CNNaffinity 6.10279608
REMARK  4 active torsions:
REMARK  status: ('A' for Active; 'I' for Inactive)
REMARK    1  A    between atoms: C2_2  and  C4_4 
REMARK    2  A    between atoms: C4_4  and  C5_5 
REMARK    3  A    between atoms: C5_5  and  O1_6 
REMARK    4  A    between atoms: C8_9  and  C9_10 
ROOT
HETATM    1  C9  UNL     1      -0.453  11.610  16.558  1.00  0.00     0.001 C 
HETATM    2  C10 UNL     1      -1.145  12.964  16.864  1.00  0.00     0.007 C 
HETATM    3  C11 UNL     1      -0.494  13.524  18.141  1.00  0.00     0.011 C 
HETATM    4  C12 UNL     1       0.784  12.687  18.346  1.00  0.00    -0.032 C 
HETATM    5  C13 UNL     1       1.885  13.330  17.444  1.00  0.00     0.016 C 
HETATM    6  C14 UNL     1       1.272  12.606  19.815  1.00  0.00     0.004 C 
HETATM    7  C15 UNL     1       1.846  13.922  20.353  1.00  0.00     0.007 C 
HETATM    8  C16 UNL     1       2.188  13.766  21.829  1.00  0.00     0.007 C 
HETATM    9  C17 UNL     1       3.414  12.853  22.040  1.00  0.00     0.010 C 
HETATM   10  C18 UNL     1       4.817  13.565  21.874  1.00  0.00     0.018 C 
HETATM   11  C19 UNL     1       5.754  13.196  23.051  1.00  0.00     0.023 C 
HETATM   12  C20 UNL     1       4.758  15.109  21.873  1.00  0.00     0.023 C 
HETATM   13  C21 UNL     1       5.491  13.098  20.577  1.00  0.00     0.135 C 
HETATM   14  O2  UNL     1       5.957  13.890  19.754  1.00  0.00    -0.297 OA
HETATM   15  C22 UNL     1       5.655  11.611  20.353  1.00  0.00     0.080 C 
HETATM   16  C23 UNL     1       4.613  10.800  21.102  1.00  0.00     0.018 C 
HETATM   17  C24 UNL     1       3.301  11.552  21.195  1.00  0.00    -0.026 A 
HETATM   18  C25 UNL     1       2.075  10.696  21.382  1.00  0.00     0.021 A 
HETATM   19  C26 UNL     1       2.243  11.424  20.056  1.00  0.00    -0.027 A 
HETATM   20  C27 UNL     1       2.593  10.551  18.841  1.00  0.00     0.011 C 
HETATM   21  C28 UNL     1       1.528  10.364  17.745  1.00  0.00     0.011 C 
HETATM   22  C29 UNL     1       0.296  11.265  17.885  1.00  0.00    -0.032 C 
HETATM   23  C30 UNL     1      -0.671  10.577  18.886  1.00  0.00     0.016 C 
ENDROOT
BRANCH   1  24
HETATM   24  C8  UNL     1      -1.365  10.596  15.819  1.00  0.00     0.014 C 
HETATM   25  C7  UNL     1      -2.851  10.571  16.217  1.00  0.00     0.010 C 
HETATM   26  C6  UNL     1      -3.428   9.157  16.186  1.00  0.00     0.041 C 
HETATM   27  C4  UNL     1      -2.950   8.334  14.964  1.00  0.00     0.085 C 
HETATM   28  O3  UNL     1      -1.507   8.362  14.842  1.00  0.00    -0.377 OA
HETATM   29  C31 UNL     1      -0.795   9.177  15.772  1.00  0.00     0.174 C 
BRANCH  27  30
HETATM   30  C2  UNL     1      -3.510   8.906  13.611  1.00  0.00     0.014 C 
HETATM   31  C1  UNL     1      -4.839   8.306  13.143  1.00  0.00     0.012 C 
HETATM   32  C3  UNL     1      -2.495   8.823  12.459  1.00  0.00     0.012 C 
ENDBRANCH  27  30
BRANCH  27  33
HETATM   33  C5  UNL     1      -3.314   6.841  15.190  1.00  0.00     0.202 C 
BRANCH  33  34
HETATM   34  O1  UNL     1      -3.299   6.442  16.555  1.00  0.00    -0.398 OA
HETATM   35  H10 UNL     1      -2.371   6.346  16.824  1.00  0.00     0.209 HD
ENDBRANCH  33  34
ENDBRANCH  27  33
ENDBRANCH   1  24
TORSDOF 4
ENDMDL
MODEL 7
REMARK minimizedAffinity -6.48631668
REMARK CNNscore 0.402584821
REMARK CNNaffinity 6.2502017
REMARK  4 active torsions:
REMARK  status: ('A' for Active; 'I' for Inactive)
REMARK    1  A    between atoms: C2_2  and  C4_4 
REMARK    2  A    between atoms: C4_4  and  C5_5 
REMARK    3  A    between atoms: C5_5  and  O1_6 
REMARK    4  A    between atoms: C8_9  and  C9_10 
ROOT
HETATM    1  C9  UNL     1     -14.157   6.757  24.415  1.00  0.00     0.001 C 
HETATM    2  C10 UNL     1     -14.447   7.665  25.639  1.00  0.00     0.007 C 
HETATM    3  C11 UNL     1     -14.034   9.095  25.248  1.00  0.00     0.011 C 
HETATM    4  C12 UNL     1     -13.857   9.061  23.717  1.00  0.00    -0.032 C 
HETATM    5  C13 UNL     1     -15.280   9.251  23.102  1.00  0.00     0.016 C 
HETATM    6  C14 UNL     1     -12.881  10.129  23.158  1.00  0.00     0.004 C 
HETATM    7  C15 UNL     1     -13.420  11.563  23.233  1.00  0.00     0.007 C 
HETATM    8  C16 UNL     1     -12.346  12.537  22.767  1.00  0.00     0.007 C 
HETATM    9  C17 UNL     1     -12.104  12.440  21.247  1.00  0.00     0.010 C 
HETATM   10  C18 UNL     1     -13.120  13.259  20.352  1.00  0.00     0.018 C 
HETATM   11  C19 UNL     1     -12.359  14.078  19.281  1.00  0.00     0.023 C 
HETATM   12  C20 UNL     1     -13.968  14.293  21.125  1.00  0.00     0.023 C 
HETATM   13  C21 UNL     1     -14.065  12.296  19.619  1.00  0.00     0.135 C 
HETATM   14  O2  UNL     1     -15.290  12.441  19.629  1.00  0.00    -0.297 OA
HETATM   15  C22 UNL     1     -13.454  11.186  18.794  1.00  0.00     0.080 C 
HETATM   16  C23 UNL     1     -12.072  10.798  19.288  1.00  0.00     0.018 C 
HETATM   17  C24 UNL     1     -11.966  10.959  20.791  1.00  0.00    -0.026 A 
HETATM   18  C25 UNL     1     -10.915  10.112  21.460  1.00  0.00     0.021 A 
HETATM   19  C26 UNL     1     -12.377   9.787  21.734  1.00  0.00    -0.027 A 
HETATM   20  C27 UNL     1     -12.918   8.500  21.093  1.00  0.00     0.011 C 
HETATM   21  C28 UNL     1     -13.262   7.314  22.013  1.00  0.00     0.011 C 
HETATM   22  C29 UNL     1     -13.232   7.633  23.512  1.00  0.00    -0.032 C 
HETATM   23  C30 UNL     1     -11.756   7.519  23.981  1.00  0.00     0.016 C 
ENDROOT
BRANCH   1  24
HETATM   24  C8  UNL     1     -13.822   5.290  24.792  1.00  0.00     0.014 C 
HETATM   25  C7  UNL     1     -13.563   4.311  23.634  1.00  0.00     0.010 C 
HETATM   26  C6  UNL     1     -14.101   2.914  23.933  1.00  0.00     0.041 C 
HETATM   27  C4  UNL     1     -13.836   2.461  25.391  1.00  0.00     0.085 C 
HETATM   28  O3  UNL     1     -14.282   3.460  26.342  1.00  0.00    -0.377 OA
HETATM   29  C31 UNL     1     -14.791   4.680  25.807  1.00  0.00     0.174 C 
BRANCH  27  30
HETATM   30  C2  UNL     1     -12.304   2.249  25.673  1.00  0.00     0.014 C 
HETATM   31  C1  UNL     1     -11.566   1.359  24.668  1.00  0.00     0.012 C 
HETATM   32  C3  UNL     1     -12.022   1.732  27.094  1.00  0.00     0.012 C 
ENDBRANCH  27  30
BRANCH  27  33
HETATM   33  C5  UNL     1     -14.690   1.199  25.690  1.00  0.00     0.202 C 
BRANCH  33  34
HETATM   34  O1  UNL     1     -16.071   1.350  25.385  1.00  0.00    -0.398 OA
HETATM   35  H10 UNL     1     -16.469   1.891  26.086  1.00  0.00     0.209 HD
ENDBRANCH  33  34
ENDBRANCH  27  33
ENDBRANCH   1  24
TORSDOF 4
ENDMDL
MODEL 8
REMARK minimizedAffinity -6.41503286
REMARK CNNscore 0.379175663
REMARK CNNaffinity 5.9364953
REMARK  4 active torsions:
REMARK  status: ('A' for Active; 'I' for Inactive)
REMARK    1  A    between atoms: C2_2  and  C4_4 
REMARK    2  A    between atoms: C4_4  and  C5_5 
REMARK    3  A    between atoms: C5_5  and  O1_6 
REMARK    4  A    between atoms: C8_9  and  C9_10 
ROOT
HETATM    1  C9  UNL     1      -7.426 -10.486   6.911  1.00  0.00     0.001 C 
HETATM    2  C10 UNL     1      -8.220  -9.598   5.916  1.00  0.00     0.007 C 
HETATM    3  C11 UNL     1      -7.405  -9.542   4.612  1.00  0.00     0.011 C 
HETATM    4  C12 UNL     1      -6.358 -10.665   4.740  1.00  0.00    -0.032 C 
HETATM    5  C13 UNL     1      -7.067 -11.985   4.297  1.00  0.00     0.016 C 
HETATM    6  C14 UNL     1      -5.069 -10.441   3.908  1.00  0.00     0.004 C 
HETATM    7  C15 UNL     1      -5.276 -10.575   2.394  1.00  0.00     0.007 C 
HETATM    8  C16 UNL     1      -3.983 -10.227   1.669  1.00  0.00     0.007 C 
HETATM    9  C17 UNL     1      -2.902 -11.308   1.871  1.00  0.00     0.010 C 
HETATM   10  C18 UNL     1      -3.012 -12.556   0.904  1.00  0.00     0.018 C 
HETATM   11  C19 UNL     1      -1.629 -12.891   0.293  1.00  0.00     0.023 C 
HETATM   12  C20 UNL     1      -3.950 -12.349  -0.307  1.00  0.00     0.023 C 
HETATM   13  C21 UNL     1      -3.486 -13.787   1.689  1.00  0.00     0.135 C 
HETATM   14  O2  UNL     1      -4.423 -14.492   1.306  1.00  0.00    -0.297 OA
HETATM   15  C22 UNL     1      -2.716 -14.182   2.929  1.00  0.00     0.080 C 
HETATM   16  C23 UNL     1      -2.002 -13.002   3.561  1.00  0.00     0.018 C 
HETATM   17  C24 UNL     1      -2.788 -11.721   3.367  1.00  0.00    -0.026 A 
HETATM   18  C25 UNL     1      -2.521 -10.636   4.377  1.00  0.00     0.021 A 
HETATM   19  C26 UNL     1      -3.885 -11.312   4.397  1.00  0.00    -0.027 A 
HETATM   20  C27 UNL     1      -4.157 -12.259   5.576  1.00  0.00     0.011 C 
HETATM   21  C28 UNL     1      -5.190 -11.829   6.635  1.00  0.00     0.011 C 
HETATM   22  C29 UNL     1      -6.005 -10.584   6.270  1.00  0.00    -0.032 C 
HETATM   23  C30 UNL     1      -5.154  -9.343   6.654  1.00  0.00     0.016 C 
ENDROOT
BRANCH   1  24
HETATM   24  C8  UNL     1      -7.655 -10.113   8.399  1.00  0.00     0.014 C 
HETATM   25  C7  UNL     1      -8.149  -8.687   8.696  1.00  0.00     0.010 C 
HETATM   26  C6  UNL     1      -7.542  -8.126   9.981  1.00  0.00     0.041 C 
HETATM   27  C4  UNL     1      -7.479  -9.167  11.126  1.00  0.00     0.085 C 
HETATM   28  O3  UNL     1      -6.848 -10.396  10.687  1.00  0.00    -0.377 OA
HETATM   29  C31 UNL     1      -6.481 -10.478   9.310  1.00  0.00     0.174 C 
BRANCH  27  30
HETATM   30  C2  UNL     1      -8.910  -9.574  11.634  1.00  0.00     0.014 C 
HETATM   31  C1  UNL     1      -9.329  -8.967  12.976  1.00  0.00     0.012 C 
HETATM   32  C3  UNL     1      -9.115 -11.097  11.693  1.00  0.00     0.012 C 
ENDBRANCH  27  30
BRANCH  27  33
HETATM   33  C5  UNL     1      -6.566  -8.618  12.256  1.00  0.00     0.202 C 
BRANCH  33  34
HETATM   34  O1  UNL     1      -6.534  -7.198  12.334  1.00  0.00    -0.398 OA
HETATM   35  H10 UNL     1      -5.975  -6.876  11.608  1.00  0.00     0.209 HD
ENDBRANCH  33  34
ENDBRANCH  27  33
ENDBRANCH   1  24
TORSDOF 4
ENDMDL
MODEL 9
REMARK minimizedAffinity -6.24003124
REMARK CNNscore 0.378810227
REMARK CNNaffinity 6.40915918
REMARK  4 active torsions:
REMARK  status: ('A' for Active; 'I' for Inactive)
REMARK    1  A    between atoms: C2_2  and  C4_4 
REMARK    2  A    between atoms: C4_4  and  C5_5 
REMARK    3  A    between atoms: C5_5  and  O1_6 
REMARK    4  A    between atoms: C8_9  and  C9_10 
ROOT
HETATM    1  C9  UNL     1      -8.324 -10.579   6.924  1.00  0.00     0.001 C 
HETATM    2  C10 UNL     1      -9.579  -9.818   6.420  1.00  0.00     0.007 C 
HETATM    3  C11 UNL     1      -9.367  -9.543   4.921  1.00  0.00     0.011 C 
HETATM    4  C12 UNL     1      -8.188 -10.445   4.505  1.00  0.00    -0.032 C 
HETATM    5  C13 UNL     1      -8.791 -11.855   4.211  1.00  0.00     0.016 C 
HETATM    6  C14 UNL     1      -7.388  -9.934   3.279  1.00  0.00     0.004 C 
HETATM    7  C15 UNL     1      -8.152 -10.035   1.953  1.00  0.00     0.007 C 
HETATM    8  C16 UNL     1      -7.326  -9.406   0.838  1.00  0.00     0.007 C 
HETATM    9  C17 UNL     1      -6.094 -10.264   0.483  1.00  0.00     0.010 C 
HETATM   10  C18 UNL     1      -6.375 -11.462  -0.511  1.00  0.00     0.018 C 
HETATM   11  C19 UNL     1      -5.312 -11.492  -1.637  1.00  0.00     0.023 C 
HETATM   12  C20 UNL     1      -7.735 -11.387  -1.240  1.00  0.00     0.023 C 
HETATM   13  C21 UNL     1      -6.294 -12.798   0.242  1.00  0.00     0.135 C 
HETATM   14  O2  UNL     1      -7.178 -13.654   0.162  1.00  0.00    -0.297 OA
HETATM   15  C22 UNL     1      -5.043 -13.092   1.039  1.00  0.00     0.080 C 
HETATM   16  C23 UNL     1      -4.338 -11.826   1.490  1.00  0.00     0.018 C 
HETATM   17  C24 UNL     1      -5.333 -10.716   1.763  1.00  0.00    -0.026 A 
HETATM   18  C25 UNL     1      -4.867  -9.648   2.718  1.00  0.00     0.021 A 
HETATM   19  C26 UNL     1      -5.984 -10.578   3.174  1.00  0.00    -0.027 A 
HETATM   20  C27 UNL     1      -5.610 -11.614   4.245  1.00  0.00     0.011 C 
HETATM   21  C28 UNL     1      -6.194 -11.444   5.660  1.00  0.00     0.011 C 
HETATM   22  C29 UNL     1      -7.277 -10.367   5.784  1.00  0.00    -0.032 C 
HETATM   23  C30 UNL     1      -6.556  -9.003   5.961  1.00  0.00     0.016 C 
ENDROOT
BRANCH   1  24
HETATM   24  C8  UNL     1      -8.002 -10.328   8.420  1.00  0.00     0.014 C 
HETATM   25  C7  UNL     1      -9.173  -9.917   9.329  1.00  0.00     0.010 C 
HETATM   26  C6  UNL     1      -8.746  -8.908  10.393  1.00  0.00     0.041 C 
HETATM   27  C4  UNL     1      -7.369  -9.236  11.022  1.00  0.00     0.085 C 
HETATM   28  O3  UNL     1      -6.362  -9.449  10.002  1.00  0.00    -0.377 OA
HETATM   29  C31 UNL     1      -6.798  -9.411   8.644  1.00  0.00     0.174 C 
BRANCH  27  30
HETATM   30  C2  UNL     1      -7.408 -10.556  11.873  1.00  0.00     0.014 C 
HETATM   31  C1  UNL     1      -7.811 -10.381  13.341  1.00  0.00     0.012 C 
HETATM   32  C3  UNL     1      -6.092 -11.349  11.812  1.00  0.00     0.012 C 
ENDBRANCH  27  30
BRANCH  27  33
HETATM   33  C5  UNL     1      -6.879  -8.004  11.831  1.00  0.00     0.202 C 
BRANCH  33  34
HETATM   34  O1  UNL     1      -7.031  -6.766  11.148  1.00  0.00    -0.398 OA
HETATM   35  H10 UNL     1      -6.331  -6.712  10.478  1.00  0.00     0.209 HD
ENDBRANCH  33  34
ENDBRANCH  27  33
ENDBRANCH   1  24
TORSDOF 4
ENDMDL
