MODEL 1
REMARK minimizedAffinity -9.88215637
REMARK CNNscore 0.455818474
REMARK CNNaffinity 6.74435234
REMARK  14 active torsions:
REMARK  status: ('A' for Active; 'I' for Inactive)
REMARK    1  A    between atoms: O1_2  and  C2_3 
REMARK    2  A    between atoms: C6_8  and  C7_9 
REMARK    3  A    between atoms: C7_9  and  O3_11 
REMARK    4  A    between atoms: C8_12  and  C9_13 
REMARK    5  A    between atoms: C9_13  and  C10_14 
REMARK    6  A    between atoms: C10_14  and  N2_15 
REMARK       I    between atoms: N2_15  and  C11_16 
REMARK    7  A    between atoms: C11_16  and  C12_18 
REMARK    8  A    between atoms: C12_18  and  C13_19 
REMARK    9  A    between atoms: C13_19  and  C14_20 
REMARK   10  A    between atoms: C14_20  and  O6_22 
REMARK   11  A    between atoms: O6_22  and  C15_23 
REMARK   12  A    between atoms: C15_23  and  C16_24 
REMARK   13  A    between atoms: C16_24  and  C17_26 
REMARK   14  A    between atoms: C17_26  and  O8_27 
ROOT
HETATM    1  C14 UNL     1      -7.203  47.352 -25.204  1.00  0.00     0.259 C 
HETATM    2  O5  UNL     1      -7.695  46.363 -24.679  1.00  0.00    -0.265 OA
ENDROOT
BRANCH   1   3
HETATM    3  C13 UNL     1      -6.269  48.309 -24.505  1.00  0.00     0.120 C 
BRANCH   3   4
HETATM    4  C12 UNL     1      -4.982  48.469 -25.307  1.00  0.00     0.112 C 
BRANCH   4   5
HETATM    5  C11 UNL     1      -4.004  49.392 -24.606  1.00  0.00     0.218 C 
HETATM    6  N2  UNL     1      -3.555  50.419 -25.403  1.00  0.00    -0.361 N 
HETATM    7  H12 UNL     1      -3.950  50.539 -26.328  1.00  0.00     0.162 HD
HETATM    8  O4  UNL     1      -3.653  49.227 -23.443  1.00  0.00    -0.274 OA
BRANCH   6   9
HETATM    9  C10 UNL     1      -2.701  51.471 -24.878  1.00  0.00     0.127 C 
BRANCH   9  10
HETATM   10  C9  UNL     1      -1.219  51.087 -24.859  1.00  0.00     0.061 C 
BRANCH  10  11
HETATM   11  C8  UNL     1      -0.349  52.206 -24.359  1.00  0.00    -0.011 A 
HETATM   12  C6  UNL     1       0.258  53.215 -25.106  1.00  0.00     0.114 A 
HETATM   13  N1  UNL     1       0.950  54.008 -24.218  1.00  0.00    -0.350 N 
HETATM   14  C5  UNL     1       0.834  53.541 -22.935  1.00  0.00     0.043 A 
HETATM   15  H6  UNL     1       1.486  54.821 -24.492  1.00  0.00     0.166 HD
HETATM   16  C4  UNL     1       1.386  54.029 -21.748  1.00  0.00     0.033 A 
HETATM   17  C36 UNL     1       0.024  52.412 -22.985  1.00  0.00     0.002 A 
HETATM   18  C3  UNL     1       1.096  53.333 -20.572  1.00  0.00     0.039 A 
HETATM   19  C2  UNL     1       0.285  52.198 -20.575  1.00  0.00     0.069 A 
HETATM   20  C37 UNL     1      -0.257  51.729 -21.778  1.00  0.00     0.051 A 
BRANCH  12  21
HETATM   21  C7  UNL     1       0.279  53.519 -26.513  1.00  0.00     0.194 C 
HETATM   22  O2  UNL     1      -0.369  54.389 -27.074  1.00  0.00    -0.645 OA
BRANCH  21  23
HETATM   23  O3  UNL     1       1.131  52.737 -27.193  1.00  0.00    -0.772 OA
HETATM   24  H7  UNL     1       1.075  53.036 -28.122  1.00  0.00     0.167 HD
ENDBRANCH  21  23
ENDBRANCH  12  21
BRANCH  19  25
HETATM   25  O1  UNL     1       0.098  51.632 -19.342  1.00  0.00    -0.356 OA
HETATM   26  C1  UNL     1       0.497  52.399 -18.213  1.00  0.00     0.210 C 
ENDBRANCH  19  25
ENDBRANCH  10  11
ENDBRANCH   9  10
ENDBRANCH   6   9
ENDBRANCH   4   5
ENDBRANCH   3   4
ENDBRANCH   1   3
BRANCH   1  27
HETATM   27  O6  UNL     1      -7.422  47.742 -26.494  1.00  0.00    -0.314 OA
BRANCH  27  28
HETATM   28  C15 UNL     1      -8.805  47.871 -26.812  1.00  0.00     0.260 C 
BRANCH  28  29
HETATM   29  C16 UNL     1      -9.209  46.925 -27.935  1.00  0.00     0.185 C 
HETATM   30  O7  UNL     1      -8.382  46.127 -28.389  1.00  0.00    -0.292 OA
BRANCH  29  31
HETATM   31  C17 UNL     1     -10.693  46.936 -28.400  1.00  0.00     0.128 C 
HETATM   32  C18 UNL     1     -10.909  45.977 -29.610  1.00  0.00     0.047 C 
HETATM   33  C19 UNL     1     -12.307  45.353 -29.447  1.00  0.00     0.009 C 
HETATM   34  C20 UNL     1     -12.922  46.091 -28.265  1.00  0.00     0.002 C 
HETATM   35  C21 UNL     1     -14.093  45.425 -27.530  1.00  0.00    -0.004 C 
HETATM   36  C34 UNL     1     -11.710  46.391 -27.346  1.00  0.00    -0.002 C 
HETATM   37  C22 UNL     1     -15.259  45.126 -28.484  1.00  0.00     0.010 C 
HETATM   38  C31 UNL     1     -14.577  46.359 -26.379  1.00  0.00     0.002 C 
HETATM   39  C23 UNL     1     -16.423  44.478 -27.745  1.00  0.00     0.035 C 
HETATM   40  C24 UNL     1     -16.877  45.297 -26.557  1.00  0.00    -0.068 C 
HETATM   41  C25 UNL     1     -18.185  45.567 -26.401  1.00  0.00     0.053 C 
HETATM   42  C29 UNL     1     -15.790  45.750 -25.573  1.00  0.00    -0.016 C 
HETATM   43  C26 UNL     1     -18.702  46.250 -25.194  1.00  0.00     0.149 C 
HETATM   44  O9  UNL     1     -19.905  46.488 -25.100  1.00  0.00    -0.293 OA
HETATM   45  C27 UNL     1     -17.736  46.541 -24.074  1.00  0.00     0.084 C 
HETATM   46  C28 UNL     1     -16.353  46.852 -24.626  1.00  0.00     0.022 C 
HETATM   47  C30 UNL     1     -15.372  44.527 -24.725  1.00  0.00     0.020 C 
HETATM   48  C32 UNL     1     -13.404  46.836 -25.485  1.00  0.00     0.007 C 
HETATM   49  C33 UNL     1     -12.206  47.387 -26.282  1.00  0.00     0.013 C 
HETATM   50  C35 UNL     1     -11.142  45.122 -26.654  1.00  0.00     0.019 C 
BRANCH  31  51
HETATM   51  O8  UNL     1     -11.094  48.229 -28.865  1.00  0.00    -0.381 OA
HETATM   52  H19 UNL     1     -10.738  48.904 -28.261  1.00  0.00     0.211 HD
ENDBRANCH  31  51
ENDBRANCH  29  31
ENDBRANCH  28  29
ENDBRANCH  27  28
ENDBRANCH   1  27
TORSDOF 14
ENDMDL
MODEL 2
REMARK minimizedAffinity -9.0337038
REMARK CNNscore 0.322498083
REMARK CNNaffinity 7.2199173
REMARK  14 active torsions:
REMARK  status: ('A' for Active; 'I' for Inactive)
REMARK    1  A    between atoms: O1_2  and  C2_3 
REMARK    2  A    between atoms: C6_8  and  C7_9 
REMARK    3  A    between atoms: C7_9  and  O3_11 
REMARK    4  A    between atoms: C8_12  and  C9_13 
REMARK    5  A    between atoms: C9_13  and  C10_14 
REMARK    6  A    between atoms: C10_14  and  N2_15 
REMARK       I    between atoms: N2_15  and  C11_16 
REMARK    7  A    between atoms: C11_16  and  C12_18 
REMARK    8  A    between atoms: C12_18  and  C13_19 
REMARK    9  A    between atoms: C13_19  and  C14_20 
REMARK   10  A    between atoms: C14_20  and  O6_22 
REMARK   11  A    between atoms: O6_22  and  C15_23 
REMARK   12  A    between atoms: C15_23  and  C16_24 
REMARK   13  A    between atoms: C16_24  and  C17_26 
REMARK   14  A    between atoms: C17_26  and  O8_27 
ROOT
HETATM    1  C14 UNL     1       0.555  51.138 -16.346  1.00  0.00     0.259 C 
HETATM    2  O5  UNL     1       1.402  51.717 -15.680  1.00  0.00    -0.265 OA
ENDROOT
BRANCH   1   3
HETATM    3  C13 UNL     1       0.304  51.395 -17.811  1.00  0.00     0.120 C 
BRANCH   3   4
HETATM    4  C12 UNL     1       0.785  52.791 -18.190  1.00  0.00     0.112 C 
BRANCH   4   5
HETATM    5  C11 UNL     1       0.755  52.999 -19.692  1.00  0.00     0.218 C 
HETATM    6  N2  UNL     1       0.144  51.970 -20.372  1.00  0.00    -0.361 N 
HETATM    7  H12 UNL     1      -0.299  51.223 -19.851  1.00  0.00     0.162 HD
HETATM    8  O4  UNL     1       1.233  53.987 -20.236  1.00  0.00    -0.274 OA
BRANCH   6   9
HETATM    9  C10 UNL     1      -0.084  52.037 -21.806  1.00  0.00     0.127 C 
BRANCH   9  10
HETATM   10  C9  UNL     1      -1.428  51.439 -22.229  1.00  0.00     0.061 C 
BRANCH  10  11
HETATM   11  C8  UNL     1      -1.838  51.880 -23.606  1.00  0.00    -0.011 A 
HETATM   12  C6  UNL     1      -3.126  52.151 -24.068  1.00  0.00     0.114 A 
HETATM   13  N1  UNL     1      -3.006  52.522 -25.389  1.00  0.00    -0.350 N 
HETATM   14  C5  UNL     1      -1.701  52.479 -25.804  1.00  0.00     0.043 A 
HETATM   15  H6  UNL     1      -3.792  52.777 -25.973  1.00  0.00     0.166 HD
HETATM   16  C4  UNL     1      -1.147  52.756 -27.056  1.00  0.00     0.033 A 
HETATM   17  C36 UNL     1      -0.939  52.083 -24.711  1.00  0.00     0.002 A 
HETATM   18  C3  UNL     1       0.237  52.619 -27.191  1.00  0.00     0.039 A 
HETATM   19  C2  UNL     1       1.040  52.227 -26.120  1.00  0.00     0.069 A 
HETATM   20  C37 UNL     1       0.461  51.956 -24.874  1.00  0.00     0.051 A 
BRANCH  12  21
HETATM   21  C7  UNL     1      -4.423  52.101 -23.447  1.00  0.00     0.194 C 
HETATM   22  O2  UNL     1      -4.659  52.213 -22.254  1.00  0.00    -0.645 OA
BRANCH  21  23
HETATM   23  O3  UNL     1      -5.411  51.932 -24.339  1.00  0.00    -0.772 OA
HETATM   24  H7  UNL     1      -6.237  51.927 -23.816  1.00  0.00     0.167 HD
ENDBRANCH  21  23
ENDBRANCH  12  21
BRANCH  19  25
HETATM   25  O1  UNL     1       2.375  52.140 -26.414  1.00  0.00    -0.356 OA
HETATM   26  C1  UNL     1       2.719  51.756 -27.739  1.00  0.00     0.210 C 
ENDBRANCH  19  25
ENDBRANCH  10  11
ENDBRANCH   9  10
ENDBRANCH   6   9
ENDBRANCH   4   5
ENDBRANCH   3   4
ENDBRANCH   1   3
BRANCH   1  27
HETATM   27  O6  UNL     1      -0.290  50.177 -15.869  1.00  0.00    -0.314 OA
BRANCH  27  28
HETATM   28  C15 UNL     1       0.024  49.765 -14.542  1.00  0.00     0.260 C 
BRANCH  28  29
HETATM   29  C16 UNL     1      -1.101  50.102 -13.573  1.00  0.00     0.185 C 
HETATM   30  O7  UNL     1      -1.890  49.219 -13.222  1.00  0.00    -0.292 OA
BRANCH  29  31
HETATM   31  C17 UNL     1      -1.148  51.539 -12.980  1.00  0.00     0.128 C 
HETATM   32  C18 UNL     1      -2.509  51.809 -12.268  1.00  0.00     0.047 C 
HETATM   33  C19 UNL     1      -2.211  52.702 -11.051  1.00  0.00     0.009 C 
HETATM   34  C20 UNL     1      -0.739  53.067 -11.190  1.00  0.00     0.002 C 
HETATM   35  C21 UNL     1       0.008  53.540  -9.937  1.00  0.00    -0.004 C 
HETATM   36  C34 UNL     1      -0.109  51.810 -11.844  1.00  0.00    -0.002 C 
HETATM   37  C22 UNL     1      -0.665  54.771  -9.312  1.00  0.00     0.010 C 
HETATM   38  C31 UNL     1       1.483  53.878 -10.312  1.00  0.00     0.002 C 
HETATM   39  C23 UNL     1       0.090  55.244  -8.077  1.00  0.00     0.035 C 
HETATM   40  C24 UNL     1       1.553  55.500  -8.359  1.00  0.00    -0.068 C 
HETATM   41  C25 UNL     1       2.113  56.656  -7.960  1.00  0.00     0.053 C 
HETATM   42  C29 UNL     1       2.325  54.383  -9.076  1.00  0.00    -0.016 C 
HETATM   43  C26 UNL     1       3.565  56.906  -8.093  1.00  0.00     0.149 C 
HETATM   44  O9  UNL     1       4.031  57.983  -7.725  1.00  0.00    -0.293 OA
HETATM   45  C27 UNL     1       4.438  55.781  -8.588  1.00  0.00     0.084 C 
HETATM   46  C28 UNL     1       3.688  54.926  -9.599  1.00  0.00     0.022 C 
HETATM   47  C30 UNL     1       2.594  53.255  -8.054  1.00  0.00     0.020 C 
HETATM   48  C32 UNL     1       2.158  52.730 -11.106  1.00  0.00     0.007 C 
HETATM   49  C33 UNL     1       1.311  52.213 -12.284  1.00  0.00     0.013 C 
HETATM   50  C35 UNL     1      -0.035  50.595 -10.880  1.00  0.00     0.019 C 
BRANCH  31  51
HETATM   51  O8  UNL     1      -1.049  52.538 -14.001  1.00  0.00    -0.381 OA
HETATM   52  H19 UNL     1      -0.368  52.265 -14.641  1.00  0.00     0.211 HD
ENDBRANCH  31  51
ENDBRANCH  29  31
ENDBRANCH  28  29
ENDBRANCH  27  28
ENDBRANCH   1  27
TORSDOF 14
ENDMDL
MODEL 3
REMARK minimizedAffinity -9.05518818
REMARK CNNscore 0.280326009
REMARK CNNaffinity 6.43377495
REMARK  14 active torsions:
REMARK  status: ('A' for Active; 'I' for Inactive)
REMARK    1  A    between atoms: O1_2  and  C2_3 
REMARK    2  A    between atoms: C6_8  and  C7_9 
REMARK    3  A    between atoms: C7_9  and  O3_11 
REMARK    4  A    between atoms: C8_12  and  C9_13 
REMARK    5  A    between atoms: C9_13  and  C10_14 
REMARK    6  A    between atoms: C10_14  and  N2_15 
REMARK       I    between atoms: N2_15  and  C11_16 
REMARK    7  A    between atoms: C11_16  and  C12_18 
REMARK    8  A    between atoms: C12_18  and  C13_19 
REMARK    9  A    between atoms: C13_19  and  C14_20 
REMARK   10  A    between atoms: C14_20  and  O6_22 
REMARK   11  A    between atoms: O6_22  and  C15_23 
REMARK   12  A    between atoms: C15_23  and  C16_24 
REMARK   13  A    between atoms: C16_24  and  C17_26 
REMARK   14  A    between atoms: C17_26  and  O8_27 
ROOT
HETATM    1  C14 UNL     1     -10.082  47.679 -20.018  1.00  0.00     0.259 C 
HETATM    2  O5  UNL     1     -10.902  47.669 -19.110  1.00  0.00    -0.265 OA
ENDROOT
BRANCH   1   3
HETATM    3  C13 UNL     1     -10.168  46.812 -21.250  1.00  0.00     0.120 C 
BRANCH   3   4
HETATM    4  C12 UNL     1     -11.529  46.127 -21.317  1.00  0.00     0.112 C 
BRANCH   4   5
HETATM    5  C11 UNL     1     -12.300  46.549 -22.553  1.00  0.00     0.218 C 
HETATM    6  N2  UNL     1     -13.658  46.359 -22.440  1.00  0.00    -0.361 N 
HETATM    7  H12 UNL     1     -14.045  46.048 -21.557  1.00  0.00     0.162 HD
HETATM    8  O4  UNL     1     -11.756  47.010 -23.549  1.00  0.00    -0.274 OA
BRANCH   6   9
HETATM    9  C10 UNL     1     -14.576  46.806 -23.474  1.00  0.00     0.127 C 
BRANCH   9  10
HETATM   10  C9  UNL     1     -15.625  45.753 -23.842  1.00  0.00     0.061 C 
BRANCH  10  11
HETATM   11  C8  UNL     1     -16.936  45.989 -23.145  1.00  0.00    -0.011 A 
HETATM   12  C6  UNL     1     -18.219  45.870 -23.678  1.00  0.00     0.114 A 
HETATM   13  N1  UNL     1     -19.101  46.182 -22.668  1.00  0.00    -0.350 N 
HETATM   14  C5  UNL     1     -18.442  46.518 -21.514  1.00  0.00     0.043 A 
HETATM   15  H6  UNL     1     -20.107  46.174 -22.779  1.00  0.00     0.166 HD
HETATM   16  C4  UNL     1     -18.947  46.913 -20.273  1.00  0.00     0.033 A 
HETATM   17  C36 UNL     1     -17.081  46.405 -21.776  1.00  0.00     0.002 A 
HETATM   18  C3  UNL     1     -18.022  47.204 -19.266  1.00  0.00     0.039 A 
HETATM   19  C2  UNL     1     -16.648  47.102 -19.484  1.00  0.00     0.069 A 
HETATM   20  C37 UNL     1     -16.167  46.703 -20.738  1.00  0.00     0.051 A 
BRANCH  12  21
HETATM   21  C7  UNL     1     -18.713  45.519 -24.984  1.00  0.00     0.194 C 
HETATM   22  O2  UNL     1     -19.367  46.234 -25.726  1.00  0.00    -0.645 OA
BRANCH  21  23
HETATM   23  O3  UNL     1     -18.358  44.277 -25.347  1.00  0.00    -0.772 OA
HETATM   24  H7  UNL     1     -18.729  44.151 -26.243  1.00  0.00     0.167 HD
ENDBRANCH  21  23
ENDBRANCH  12  21
BRANCH  19  25
HETATM   25  O1  UNL     1     -15.876  47.421 -18.399  1.00  0.00    -0.356 OA
HETATM   26  C1  UNL     1     -14.490  47.633 -18.633  1.00  0.00     0.210 C 
ENDBRANCH  19  25
ENDBRANCH  10  11
ENDBRANCH   9  10
ENDBRANCH   6   9
ENDBRANCH   4   5
ENDBRANCH   3   4
ENDBRANCH   1   3
BRANCH   1  27
HETATM   27  O6  UNL     1      -8.969  48.468 -20.056  1.00  0.00    -0.314 OA
BRANCH  27  28
HETATM   28  C15 UNL     1      -7.812  47.783 -20.528  1.00  0.00     0.260 C 
BRANCH  28  29
HETATM   29  C16 UNL     1      -6.621  48.722 -20.655  1.00  0.00     0.185 C 
HETATM   30  O7  UNL     1      -6.549  49.720 -19.930  1.00  0.00    -0.292 OA
BRANCH  29  31
HETATM   31  C17 UNL     1      -5.480  48.325 -21.635  1.00  0.00     0.128 C 
HETATM   32  C18 UNL     1      -6.037  47.520 -22.849  1.00  0.00     0.047 C 
HETATM   33  C19 UNL     1      -5.207  47.927 -24.079  1.00  0.00     0.009 C 
HETATM   34  C20 UNL     1      -4.095  48.807 -23.520  1.00  0.00     0.002 C 
HETATM   35  C21 UNL     1      -3.376  49.758 -24.485  1.00  0.00    -0.004 C 
HETATM   36  C34 UNL     1      -4.765  49.532 -22.325  1.00  0.00    -0.002 C 
HETATM   37  C22 UNL     1      -2.749  48.998 -25.663  1.00  0.00     0.010 C 
HETATM   38  C31 UNL     1      -2.270  50.538 -23.711  1.00  0.00     0.002 C 
HETATM   39  C23 UNL     1      -2.025  49.948 -26.608  1.00  0.00     0.035 C 
HETATM   40  C24 UNL     1      -1.000  50.800 -25.894  1.00  0.00    -0.068 C 
HETATM   41  C25 UNL     1       0.246  50.895 -26.392  1.00  0.00     0.053 C 
HETATM   42  C29 UNL     1      -1.472  51.539 -24.634  1.00  0.00    -0.016 C 
HETATM   43  C26 UNL     1       1.250  51.814 -25.811  1.00  0.00     0.149 C 
HETATM   44  O9  UNL     1       2.381  51.857 -26.292  1.00  0.00    -0.293 OA
HETATM   45  C27 UNL     1       0.811  52.739 -24.705  1.00  0.00     0.084 C 
HETATM   46  C28 UNL     1      -0.245  52.073 -23.836  1.00  0.00     0.022 C 
HETATM   47  C30 UNL     1      -2.340  52.739 -25.080  1.00  0.00     0.020 C 
HETATM   48  C32 UNL     1      -2.815  51.182 -22.409  1.00  0.00     0.007 C 
HETATM   49  C33 UNL     1      -3.631  50.210 -21.535  1.00  0.00     0.013 C 
HETATM   50  C35 UNL     1      -5.807  50.596 -22.766  1.00  0.00     0.019 C 
BRANCH  31  51
HETATM   51  O8  UNL     1      -4.523  47.462 -21.014  1.00  0.00    -0.381 OA
HETATM   52  H19 UNL     1      -4.341  47.791 -20.116  1.00  0.00     0.211 HD
ENDBRANCH  31  51
ENDBRANCH  29  31
ENDBRANCH  28  29
ENDBRANCH  27  28
ENDBRANCH   1  27
TORSDOF 14
ENDMDL
MODEL 4
REMARK minimizedAffinity -9.98438072
REMARK CNNscore 0.255031168
REMARK CNNaffinity 6.6625104
REMARK  14 active torsions:
REMARK  status: ('A' for Active; 'I' for Inactive)
REMARK    1  A    between atoms: O1_2  and  C2_3 
REMARK    2  A    between atoms: C6_8  and  C7_9 
REMARK    3  A    between atoms: C7_9  and  O3_11 
REMARK    4  A    between atoms: C8_12  and  C9_13 
REMARK    5  A    between atoms: C9_13  and  C10_14 
REMARK    6  A    between atoms: C10_14  and  N2_15 
REMARK       I    between atoms: N2_15  and  C11_16 
REMARK    7  A    between atoms: C11_16  and  C12_18 
REMARK    8  A    between atoms: C12_18  and  C13_19 
REMARK    9  A    between atoms: C13_19  and  C14_20 
REMARK   10  A    between atoms: C14_20  and  O6_22 
REMARK   11  A    between atoms: O6_22  and  C15_23 
REMARK   12  A    between atoms: C15_23  and  C16_24 
REMARK   13  A    between atoms: C16_24  and  C17_26 
REMARK   14  A    between atoms: C17_26  and  O8_27 
ROOT
HETATM    1  C14 UNL     1      -6.437  46.847 -29.296  1.00  0.00     0.259 C 
HETATM    2  O5  UNL     1      -5.871  46.602 -30.352  1.00  0.00    -0.265 OA
ENDROOT
BRANCH   1   3
HETATM    3  C13 UNL     1      -5.835  47.663 -28.179  1.00  0.00     0.120 C 
BRANCH   3   4
HETATM    4  C12 UNL     1      -4.643  48.463 -28.695  1.00  0.00     0.112 C 
BRANCH   4   5
HETATM    5  C11 UNL     1      -3.818  49.026 -27.554  1.00  0.00     0.218 C 
HETATM    6  N2  UNL     1      -3.184  50.206 -27.870  1.00  0.00    -0.361 N 
HETATM    7  H12 UNL     1      -3.366  50.644 -28.765  1.00  0.00     0.162 HD
HETATM    8  O4  UNL     1      -3.731  48.475 -26.463  1.00  0.00    -0.274 OA
BRANCH   6   9
HETATM    9  C10 UNL     1      -2.439  50.958 -26.874  1.00  0.00     0.127 C 
BRANCH   9  10
HETATM   10  C9  UNL     1      -1.093  50.319 -26.522  1.00  0.00     0.061 C 
BRANCH  10  11
HETATM   11  C8  UNL     1      -0.234  51.227 -25.688  1.00  0.00    -0.011 A 
HETATM   12  C6  UNL     1       0.930  51.892 -26.073  1.00  0.00     0.114 A 
HETATM   13  N1  UNL     1       1.363  52.605 -24.978  1.00  0.00    -0.350 N 
HETATM   14  C5  UNL     1       0.542  52.411 -23.898  1.00  0.00     0.043 A 
HETATM   15  H6  UNL     1       2.192  53.185 -24.978  1.00  0.00     0.166 HD
HETATM   16  C4  UNL     1       0.626  52.924 -22.601  1.00  0.00     0.033 A 
HETATM   17  C36 UNL     1      -0.473  51.553 -24.308  1.00  0.00     0.002 A 
HETATM   18  C3  UNL     1      -0.365  52.542 -21.694  1.00  0.00     0.039 A 
HETATM   19  C2  UNL     1      -1.403  51.686 -22.062  1.00  0.00     0.069 A 
HETATM   20  C37 UNL     1      -1.466  51.185 -23.369  1.00  0.00     0.051 A 
BRANCH  12  21
HETATM   21  C7  UNL     1       1.675  51.937 -27.304  1.00  0.00     0.194 C 
HETATM   22  O2  UNL     1       1.208  52.033 -28.428  1.00  0.00    -0.645 OA
BRANCH  21  23
HETATM   23  O3  UNL     1       3.000  51.881 -27.103  1.00  0.00    -0.772 OA
HETATM   24  H7  UNL     1       3.401  51.933 -27.993  1.00  0.00     0.167 HD
ENDBRANCH  21  23
ENDBRANCH  12  21
BRANCH  19  25
HETATM   25  O1  UNL     1      -2.293  51.408 -21.059  1.00  0.00    -0.356 OA
HETATM   26  C1  UNL     1      -1.751  51.164 -19.767  1.00  0.00     0.210 C 
ENDBRANCH  19  25
ENDBRANCH  10  11
ENDBRANCH   9  10
ENDBRANCH   6   9
ENDBRANCH   4   5
ENDBRANCH   3   4
ENDBRANCH   1   3
BRANCH   1  27
HETATM   27  O6  UNL     1      -7.691  46.421 -28.965  1.00  0.00    -0.314 OA
BRANCH  27  28
HETATM   28  C15 UNL     1      -8.715  47.320 -29.384  1.00  0.00     0.260 C 
BRANCH  28  29
HETATM   29  C16 UNL     1      -9.775  47.497 -28.306  1.00  0.00     0.185 C 
HETATM   30  O7  UNL     1      -9.442  47.865 -27.175  1.00  0.00    -0.292 OA
BRANCH  29  31
HETATM   31  C17 UNL     1     -11.265  47.301 -28.709  1.00  0.00     0.128 C 
HETATM   32  C18 UNL     1     -11.404  46.258 -29.860  1.00  0.00     0.047 C 
HETATM   33  C19 UNL     1     -12.706  45.479 -29.607  1.00  0.00     0.009 C 
HETATM   34  C20 UNL     1     -13.366  46.199 -28.438  1.00  0.00     0.002 C 
HETATM   35  C21 UNL     1     -14.419  45.436 -27.623  1.00  0.00    -0.004 C 
HETATM   36  C34 UNL     1     -12.169  46.694 -27.587  1.00  0.00    -0.002 C 
HETATM   37  C22 UNL     1     -15.571  44.946 -28.511  1.00  0.00     0.010 C 
HETATM   38  C31 UNL     1     -14.974  46.364 -26.500  1.00  0.00     0.002 C 
HETATM   39  C23 UNL     1     -16.619  44.202 -27.692  1.00  0.00     0.035 C 
HETATM   40  C24 UNL     1     -17.129  45.021 -26.529  1.00  0.00    -0.068 C 
HETATM   41  C25 UNL     1     -18.454  45.138 -26.331  1.00  0.00     0.053 C 
HETATM   42  C29 UNL     1     -16.072  45.657 -25.615  1.00  0.00    -0.016 C 
HETATM   43  C26 UNL     1     -19.008  45.817 -25.139  1.00  0.00     0.149 C 
HETATM   44  O9  UNL     1     -20.227  45.911 -25.007  1.00  0.00    -0.293 OA
HETATM   45  C27 UNL     1     -18.047  46.284 -24.076  1.00  0.00     0.084 C 
HETATM   46  C28 UNL     1     -16.733  46.731 -24.700  1.00  0.00     0.022 C 
HETATM   47  C30 UNL     1     -15.476  44.542 -24.725  1.00  0.00     0.020 C 
HETATM   48  C32 UNL     1     -13.838  47.029 -25.681  1.00  0.00     0.007 C 
HETATM   49  C33 UNL     1     -12.746  47.678 -26.553  1.00  0.00     0.013 C 
HETATM   50  C35 UNL     1     -11.423  45.543 -26.858  1.00  0.00     0.019 C 
BRANCH  31  51
HETATM   51  O8  UNL     1     -11.840  48.509 -29.220  1.00  0.00    -0.381 OA
HETATM   52  H19 UNL     1     -11.549  49.253 -28.664  1.00  0.00     0.211 HD
ENDBRANCH  31  51
ENDBRANCH  29  31
ENDBRANCH  28  29
ENDBRANCH  27  28
ENDBRANCH   1  27
TORSDOF 14
ENDMDL
MODEL 5
REMARK minimizedAffinity -9.19227314
REMARK CNNscore 0.25260523
REMARK CNNaffinity 6.04996157
REMARK  14 active torsions:
REMARK  status: ('A' for Active; 'I' for Inactive)
REMARK    1  A    between atoms: O1_2  and  C2_3 
REMARK    2  A    between atoms: C6_8  and  C7_9 
REMARK    3  A    between atoms: C7_9  and  O3_11 
REMARK    4  A    between atoms: C8_12  and  C9_13 
REMARK    5  A    between atoms: C9_13  and  C10_14 
REMARK    6  A    between atoms: C10_14  and  N2_15 
REMARK       I    between atoms: N2_15  and  C11_16 
REMARK    7  A    between atoms: C11_16  and  C12_18 
REMARK    8  A    between atoms: C12_18  and  C13_19 
REMARK    9  A    between atoms: C13_19  and  C14_20 
REMARK   10  A    between atoms: C14_20  and  O6_22 
REMARK   11  A    between atoms: O6_22  and  C15_23 
REMARK   12  A    between atoms: C15_23  and  C16_24 
REMARK   13  A    between atoms: C16_24  and  C17_26 
REMARK   14  A    between atoms: C17_26  and  O8_27 
ROOT
HETATM    1  C14 UNL     1      -9.644  47.994 -25.353  1.00  0.00     0.259 C 
HETATM    2  O5  UNL     1      -9.430  49.197 -25.302  1.00  0.00    -0.265 OA
ENDROOT
BRANCH   1   3
HETATM    3  C13 UNL     1     -10.938  47.380 -25.830  1.00  0.00     0.120 C 
BRANCH   3   4
HETATM    4  C12 UNL     1     -11.503  46.448 -24.763  1.00  0.00     0.112 C 
BRANCH   4   5
HETATM    5  C11 UNL     1     -13.012  46.567 -24.668  1.00  0.00     0.218 C 
HETATM    6  N2  UNL     1     -13.456  46.865 -23.400  1.00  0.00    -0.361 N 
HETATM    7  H12 UNL     1     -12.782  47.061 -22.670  1.00  0.00     0.162 HD
HETATM    8  O4  UNL     1     -13.752  46.409 -25.631  1.00  0.00    -0.274 OA
BRANCH   6   9
HETATM    9  C10 UNL     1     -14.859  47.131 -23.130  1.00  0.00     0.127 C 
BRANCH   9  10
HETATM   10  C9  UNL     1     -15.463  46.174 -22.099  1.00  0.00     0.061 C 
BRANCH  10  11
HETATM   11  C8  UNL     1     -16.957  46.067 -22.231  1.00  0.00    -0.011 A 
HETATM   12  C6  UNL     1     -17.913  46.163 -21.219  1.00  0.00     0.114 A 
HETATM   13  N1  UNL     1     -19.143  46.003 -21.817  1.00  0.00    -0.350 N 
HETATM   14  C5  UNL     1     -19.021  45.785 -23.164  1.00  0.00     0.043 A 
HETATM   15  H6  UNL     1     -20.019  46.031 -21.312  1.00  0.00     0.166 HD
HETATM   16  C4  UNL     1     -20.003  45.558 -24.131  1.00  0.00     0.033 A 
HETATM   17  C36 UNL     1     -17.663  45.821 -23.460  1.00  0.00     0.002 A 
HETATM   18  C3  UNL     1     -19.577  45.359 -25.446  1.00  0.00     0.039 A 
HETATM   19  C2  UNL     1     -18.225  45.389 -25.788  1.00  0.00     0.069 A 
HETATM   20  C37 UNL     1     -17.258  45.620 -24.801  1.00  0.00     0.051 A 
BRANCH  12  21
HETATM   21  C7  UNL     1     -17.822  46.373 -19.798  1.00  0.00     0.194 C 
HETATM   22  O2  UNL     1     -17.444  45.559 -18.970  1.00  0.00    -0.645 OA
BRANCH  21  23
HETATM   23  O3  UNL     1     -18.189  47.612 -19.440  1.00  0.00    -0.772 OA
HETATM   24  H7  UNL     1     -18.076  47.647 -18.469  1.00  0.00     0.167 HD
ENDBRANCH  21  23
ENDBRANCH  12  21
BRANCH  19  25
HETATM   25  O1  UNL     1     -17.971  45.176 -27.118  1.00  0.00    -0.356 OA
HETATM   26  C1  UNL     1     -16.618  44.946 -27.487  1.00  0.00     0.210 C 
ENDBRANCH  19  25
ENDBRANCH  10  11
ENDBRANCH   9  10
ENDBRANCH   6   9
ENDBRANCH   4   5
ENDBRANCH   3   4
ENDBRANCH   1   3
BRANCH   1  27
HETATM   27  O6  UNL     1      -8.753  47.027 -24.987  1.00  0.00    -0.314 OA
BRANCH  27  28
HETATM   28  C15 UNL     1      -7.982  47.381 -23.842  1.00  0.00     0.260 C 
BRANCH  28  29
HETATM   29  C16 UNL     1      -6.709  48.118 -24.235  1.00  0.00     0.185 C 
HETATM   30  O7  UNL     1      -6.110  47.797 -25.266  1.00  0.00    -0.292 OA
BRANCH  29  31
HETATM   31  C17 UNL     1      -6.266  49.327 -23.362  1.00  0.00     0.128 C 
HETATM   32  C18 UNL     1      -7.035  49.351 -22.005  1.00  0.00     0.047 C 
HETATM   33  C19 UNL     1      -6.052  49.870 -20.940  1.00  0.00     0.009 C 
HETATM   34  C20 UNL     1      -4.819  50.295 -21.727  1.00  0.00     0.002 C 
HETATM   35  C21 UNL     1      -3.488  50.412 -20.973  1.00  0.00    -0.004 C 
HETATM   36  C34 UNL     1      -4.771  49.290 -22.907  1.00  0.00    -0.002 C 
HETATM   37  C22 UNL     1      -3.591  51.398 -19.800  1.00  0.00     0.010 C 
HETATM   38  C31 UNL     1      -2.376  50.878 -21.960  1.00  0.00     0.002 C 
HETATM   39  C23 UNL     1      -2.262  51.520 -19.066  1.00  0.00     0.035 C 
HETATM   40  C24 UNL     1      -1.123  51.881 -19.992  1.00  0.00    -0.068 C 
HETATM   41  C25 UNL     1      -0.296  52.890 -19.664  1.00  0.00     0.053 C 
HETATM   42  C29 UNL     1      -0.969  51.032 -21.262  1.00  0.00    -0.016 C 
HETATM   43  C26 UNL     1       0.909  53.202 -20.464  1.00  0.00     0.149 C 
HETATM   44  O9  UNL     1       1.629  54.143 -20.133  1.00  0.00    -0.293 OA
HETATM   45  C27 UNL     1       1.261  52.285 -21.607  1.00  0.00     0.084 C 
HETATM   46  C28 UNL     1       0.001  51.733 -22.259  1.00  0.00     0.022 C 
HETATM   47  C30 UNL     1      -0.366  49.667 -20.855  1.00  0.00     0.020 C 
HETATM   48  C32 UNL     1      -2.346  50.019 -23.251  1.00  0.00     0.007 C 
HETATM   49  C33 UNL     1      -3.730  49.835 -23.902  1.00  0.00     0.013 C 
HETATM   50  C35 UNL     1      -4.376  47.854 -22.468  1.00  0.00     0.019 C 
BRANCH  31  51
HETATM   51  O8  UNL     1      -6.570  50.576 -23.992  1.00  0.00    -0.381 OA
HETATM   52  H19 UNL     1      -6.346  50.512 -24.937  1.00  0.00     0.211 HD
ENDBRANCH  31  51
ENDBRANCH  29  31
ENDBRANCH  28  29
ENDBRANCH  27  28
ENDBRANCH   1  27
TORSDOF 14
ENDMDL
MODEL 6
REMARK minimizedAffinity -9.28188419
REMARK CNNscore 0.251705647
REMARK CNNaffinity 6.25819159
REMARK  14 active torsions:
REMARK  status: ('A' for Active; 'I' for Inactive)
REMARK    1  A    between atoms: O1_2  and  C2_3 
REMARK    2  A    between atoms: C6_8  and  C7_9 
REMARK    3  A    between atoms: C7_9  and  O3_11 
REMARK    4  A    between atoms: C8_12  and  C9_13 
REMARK    5  A    between atoms: C9_13  and  C10_14 
REMARK    6  A    between atoms: C10_14  and  N2_15 
REMARK       I    between atoms: N2_15  and  C11_16 
REMARK    7  A    between atoms: C11_16  and  C12_18 
REMARK    8  A    between atoms: C12_18  and  C13_19 
REMARK    9  A    between atoms: C13_19  and  C14_20 
REMARK   10  A    between atoms: C14_20  and  O6_22 
REMARK   11  A    between atoms: O6_22  and  C15_23 
REMARK   12  A    between atoms: C15_23  and  C16_24 
REMARK   13  A    between atoms: C16_24  and  C17_26 
REMARK   14  A    between atoms: C17_26  and  O8_27 
ROOT
HETATM    1  C14 UNL     1      -9.448  48.785 -26.001  1.00  0.00     0.259 C 
HETATM    2  O5  UNL     1      -9.783  49.954 -25.874  1.00  0.00    -0.265 OA
ENDROOT
BRANCH   1   3
HETATM    3  C13 UNL     1      -9.649  47.975 -27.259  1.00  0.00     0.120 C 
BRANCH   3   4
HETATM    4  C12 UNL     1      -8.479  48.185 -28.213  1.00  0.00     0.112 C 
BRANCH   4   5
HETATM    5  C11 UNL     1      -7.990  46.870 -28.788  1.00  0.00     0.218 C 
HETATM    6  N2  UNL     1      -8.777  46.397 -29.814  1.00  0.00    -0.361 N 
HETATM    7  H12 UNL     1      -9.539  46.968 -30.159  1.00  0.00     0.162 HD
HETATM    8  O4  UNL     1      -6.994  46.292 -28.370  1.00  0.00    -0.274 OA
BRANCH   6   9
HETATM    9  C10 UNL     1      -8.410  45.210 -30.567  1.00  0.00     0.127 C 
BRANCH   9  10
HETATM   10  C9  UNL     1      -7.875  45.528 -31.966  1.00  0.00     0.061 C 
BRANCH  10  11
HETATM   11  C8  UNL     1      -6.442  45.107 -32.136  1.00  0.00    -0.011 A 
HETATM   12  C6  UNL     1      -5.299  45.892 -31.993  1.00  0.00     0.114 A 
HETATM   13  N1  UNL     1      -4.220  45.074 -32.243  1.00  0.00    -0.350 N 
HETATM   14  C5  UNL     1      -4.618  43.803 -32.563  1.00  0.00     0.043 A 
HETATM   15  H6  UNL     1      -3.258  45.387 -32.206  1.00  0.00     0.166 HD
HETATM   16  C4  UNL     1      -3.858  42.681 -32.900  1.00  0.00     0.033 A 
HETATM   17  C36 UNL     1      -6.008  43.786 -32.503  1.00  0.00     0.002 A 
HETATM   18  C3  UNL     1      -4.549  41.500 -33.189  1.00  0.00     0.039 A 
HETATM   19  C2  UNL     1      -5.941  41.437 -33.139  1.00  0.00     0.069 A 
HETATM   20  C37 UNL     1      -6.681  42.576 -32.796  1.00  0.00     0.051 A 
BRANCH  12  21
HETATM   21  C7  UNL     1      -5.093  47.279 -31.668  1.00  0.00     0.194 C 
HETATM   22  O2  UNL     1      -4.967  47.748 -30.547  1.00  0.00    -0.645 OA
BRANCH  21  23
HETATM   23  O3  UNL     1      -5.029  48.056 -32.759  1.00  0.00    -0.772 OA
HETATM   24  H7  UNL     1      -4.875  48.962 -32.425  1.00  0.00     0.167 HD
ENDBRANCH  21  23
ENDBRANCH  12  21
BRANCH  19  25
HETATM   25  O1  UNL     1      -6.465  40.210 -33.447  1.00  0.00    -0.356 OA
HETATM   26  C1  UNL     1      -6.791  39.356 -32.358  1.00  0.00     0.210 C 
ENDBRANCH  19  25
ENDBRANCH  10  11
ENDBRANCH   9  10
ENDBRANCH   6   9
ENDBRANCH   4   5
ENDBRANCH   3   4
ENDBRANCH   1   3
BRANCH   1  27
HETATM   27  O6  UNL     1      -8.845  48.036 -25.033  1.00  0.00    -0.314 OA
BRANCH  27  28
HETATM   28  C15 UNL     1      -7.564  48.534 -24.657  1.00  0.00     0.260 C 
BRANCH  28  29
HETATM   29  C16 UNL     1      -7.272  48.268 -23.186  1.00  0.00     0.185 C 
HETATM   30  O7  UNL     1      -7.431  47.132 -22.728  1.00  0.00    -0.292 OA
BRANCH  29  31
HETATM   31  C17 UNL     1      -6.682  49.429 -22.337  1.00  0.00     0.128 C 
HETATM   32  C18 UNL     1      -7.135  49.323 -20.849  1.00  0.00     0.047 C 
HETATM   33  C19 UNL     1      -5.957  49.807 -19.984  1.00  0.00     0.009 C 
HETATM   34  C20 UNL     1      -4.938  50.340 -20.983  1.00  0.00     0.002 C 
HETATM   35  C21 UNL     1      -3.478  50.461 -20.527  1.00  0.00    -0.004 C 
HETATM   36  C34 UNL     1      -5.123  49.425 -22.221  1.00  0.00    -0.002 C 
HETATM   37  C22 UNL     1      -3.348  51.356 -19.286  1.00  0.00     0.010 C 
HETATM   38  C31 UNL     1      -2.621  51.044 -21.692  1.00  0.00     0.002 C 
HETATM   39  C23 UNL     1      -1.894  51.483 -18.849  1.00  0.00     0.035 C 
HETATM   40  C24 UNL     1      -0.996  51.958 -19.969  1.00  0.00    -0.068 C 
HETATM   41  C25 UNL     1      -0.145  52.976 -19.748  1.00  0.00     0.053 C 
HETATM   42  C29 UNL     1      -1.100  51.209 -21.304  1.00  0.00    -0.016 C 
HETATM   43  C26 UNL     1       0.847  53.396 -20.763  1.00  0.00     0.149 C 
HETATM   44  O9  UNL     1       1.597  54.341 -20.522  1.00  0.00    -0.293 OA
HETATM   45  C27 UNL     1       0.965  52.579 -22.024  1.00  0.00     0.084 C 
HETATM   46  C28 UNL     1      -0.392  52.021 -22.429  1.00  0.00     0.022 C 
HETATM   47  C30 UNL     1      -0.387  49.846 -21.146  1.00  0.00     0.020 C 
HETATM   48  C32 UNL     1      -2.852  50.281 -23.022  1.00  0.00     0.007 C 
HETATM   49  C33 UNL     1      -4.340  50.084 -23.371  1.00  0.00     0.013 C 
HETATM   50  C35 UNL     1      -4.603  47.979 -21.992  1.00  0.00     0.019 C 
BRANCH  31  51
HETATM   51  O8  UNL     1      -7.149  50.706 -22.786  1.00  0.00    -0.381 OA
HETATM   52  H19 UNL     1      -7.136  50.719 -23.759  1.00  0.00     0.211 HD
ENDBRANCH  31  51
ENDBRANCH  29  31
ENDBRANCH  28  29
ENDBRANCH  27  28
ENDBRANCH   1  27
TORSDOF 14
ENDMDL
MODEL 7
REMARK minimizedAffinity -9.52702904
REMARK CNNscore 0.234782413
REMARK CNNaffinity 6.36406088
REMARK  14 active torsions:
REMARK  status: ('A' for Active; 'I' for Inactive)
REMARK    1  A    between atoms: O1_2  and  C2_3 
REMARK    2  A    between atoms: C6_8  and  C7_9 
REMARK    3  A    between atoms: C7_9  and  O3_11 
REMARK    4  A    between atoms: C8_12  and  C9_13 
REMARK    5  A    between atoms: C9_13  and  C10_14 
REMARK    6  A    between atoms: C10_14  and  N2_15 
REMARK       I    between atoms: N2_15  and  C11_16 
REMARK    7  A    between atoms: C11_16  and  C12_18 
REMARK    8  A    between atoms: C12_18  and  C13_19 
REMARK    9  A    between atoms: C13_19  and  C14_20 
REMARK   10  A    between atoms: C14_20  and  O6_22 
REMARK   11  A    between atoms: O6_22  and  C15_23 
REMARK   12  A    between atoms: C15_23  and  C16_24 
REMARK   13  A    between atoms: C16_24  and  C17_26 
REMARK   14  A    between atoms: C17_26  and  O8_27 
ROOT
HETATM    1  C14 UNL     1      -9.515  48.953 -25.755  1.00  0.00     0.259 C 
HETATM    2  O5  UNL     1      -9.954  50.044 -26.090  1.00  0.00    -0.265 OA
ENDROOT
BRANCH   1   3
HETATM    3  C13 UNL     1      -9.381  47.770 -26.683  1.00  0.00     0.120 C 
BRANCH   3   4
HETATM    4  C12 UNL     1      -7.915  47.537 -27.030  1.00  0.00     0.112 C 
BRANCH   4   5
HETATM    5  C11 UNL     1      -7.599  48.000 -28.439  1.00  0.00     0.218 C 
HETATM    6  N2  UNL     1      -8.708  48.421 -29.136  1.00  0.00    -0.361 N 
HETATM    7  H12 UNL     1      -9.602  48.474 -28.663  1.00  0.00     0.162 HD
HETATM    8  O4  UNL     1      -6.464  47.993 -28.902  1.00  0.00    -0.274 OA
BRANCH   6   9
HETATM    9  C10 UNL     1      -8.596  49.007 -30.461  1.00  0.00     0.127 C 
BRANCH   9  10
HETATM   10  C9  UNL     1      -9.207  48.131 -31.558  1.00  0.00     0.061 C 
BRANCH  10  11
HETATM   11  C8  UNL     1      -8.673  46.726 -31.527  1.00  0.00    -0.011 A 
HETATM   12  C6  UNL     1      -9.370  45.554 -31.237  1.00  0.00     0.114 A 
HETATM   13  N1  UNL     1      -8.468  44.518 -31.335  1.00  0.00    -0.350 N 
HETATM   14  C5  UNL     1      -7.215  44.974 -31.653  1.00  0.00     0.043 A 
HETATM   15  H6  UNL     1      -8.707  43.548 -31.176  1.00  0.00     0.166 HD
HETATM   16  C4  UNL     1      -6.020  44.272 -31.828  1.00  0.00     0.033 A 
HETATM   17  C36 UNL     1      -7.307  46.356 -31.784  1.00  0.00     0.002 A 
HETATM   18  C3  UNL     1      -4.880  45.014 -32.146  1.00  0.00     0.039 A 
HETATM   19  C2  UNL     1      -4.926  46.400 -32.290  1.00  0.00     0.069 A 
HETATM   20  C37 UNL     1      -6.137  47.082 -32.111  1.00  0.00     0.051 A 
BRANCH  12  21
HETATM   21  C7  UNL     1     -10.739  45.287 -30.881  1.00  0.00     0.194 C 
HETATM   22  O2  UNL     1     -11.223  45.366 -29.763  1.00  0.00    -0.645 OA
BRANCH  21  23
HETATM   23  O3  UNL     1     -11.485  44.944 -31.941  1.00  0.00    -0.772 OA
HETATM   24  H7  UNL     1     -12.387  44.802 -31.590  1.00  0.00     0.167 HD
ENDBRANCH  21  23
ENDBRANCH  12  21
BRANCH  19  25
HETATM   25  O1  UNL     1      -3.725  46.978 -32.604  1.00  0.00    -0.356 OA
HETATM   26  C1  UNL     1      -3.702  47.845 -33.731  1.00  0.00     0.210 C 
ENDBRANCH  19  25
ENDBRANCH  10  11
ENDBRANCH   9  10
ENDBRANCH   6   9
ENDBRANCH   4   5
ENDBRANCH   3   4
ENDBRANCH   1   3
BRANCH   1  27
HETATM   27  O6  UNL     1      -9.083  48.637 -24.500  1.00  0.00    -0.314 OA
BRANCH  27  28
HETATM   28  C15 UNL     1      -7.682  48.384 -24.438  1.00  0.00     0.260 C 
BRANCH  28  29
HETATM   29  C16 UNL     1      -7.225  48.122 -23.010  1.00  0.00     0.185 C 
HETATM   30  O7  UNL     1      -7.252  46.971 -22.561  1.00  0.00    -0.292 OA
BRANCH  29  31
HETATM   31  C17 UNL     1      -6.643  49.315 -22.199  1.00  0.00     0.128 C 
HETATM   32  C18 UNL     1      -7.099  49.258 -20.709  1.00  0.00     0.047 C 
HETATM   33  C19 UNL     1      -5.926  49.776 -19.858  1.00  0.00     0.009 C 
HETATM   34  C20 UNL     1      -4.907  50.279 -20.873  1.00  0.00     0.002 C 
HETATM   35  C21 UNL     1      -3.449  50.422 -20.418  1.00  0.00    -0.004 C 
HETATM   36  C34 UNL     1      -5.084  49.322 -22.079  1.00  0.00    -0.002 C 
HETATM   37  C22 UNL     1      -3.326  51.360 -19.208  1.00  0.00     0.010 C 
HETATM   38  C31 UNL     1      -2.592  50.969 -21.600  1.00  0.00     0.002 C 
HETATM   39  C23 UNL     1      -1.874  51.509 -18.772  1.00  0.00     0.035 C 
HETATM   40  C24 UNL     1      -0.975  51.949 -19.905  1.00  0.00    -0.068 C 
HETATM   41  C25 UNL     1      -0.129  52.978 -19.717  1.00  0.00     0.053 C 
HETATM   42  C29 UNL     1      -1.073  51.155 -21.214  1.00  0.00    -0.016 C 
HETATM   43  C26 UNL     1       0.864  53.368 -20.743  1.00  0.00     0.149 C 
HETATM   44  O9  UNL     1       1.608  54.324 -20.533  1.00  0.00    -0.293 OA
HETATM   45  C27 UNL     1       0.988  52.509 -21.975  1.00  0.00     0.084 C 
HETATM   46  C28 UNL     1      -0.365  51.931 -22.365  1.00  0.00     0.022 C 
HETATM   47  C30 UNL     1      -0.353  49.801 -21.008  1.00  0.00     0.020 C 
HETATM   48  C32 UNL     1      -2.815  50.160 -22.904  1.00  0.00     0.007 C 
HETATM   49  C33 UNL     1      -4.301  49.945 -23.249  1.00  0.00     0.013 C 
HETATM   50  C35 UNL     1      -4.558  47.887 -21.800  1.00  0.00     0.019 C 
BRANCH  31  51
HETATM   51  O8  UNL     1      -7.115  50.573 -22.692  1.00  0.00    -0.381 OA
HETATM   52  H19 UNL     1      -7.100  50.553 -23.666  1.00  0.00     0.211 HD
ENDBRANCH  31  51
ENDBRANCH  29  31
ENDBRANCH  28  29
ENDBRANCH  27  28
ENDBRANCH   1  27
TORSDOF 14
ENDMDL
MODEL 8
REMARK minimizedAffinity -9.40171337
REMARK CNNscore 0.229113251
REMARK CNNaffinity 7.49335861
REMARK  14 active torsions:
REMARK  status: ('A' for Active; 'I' for Inactive)
REMARK    1  A    between atoms: O1_2  and  C2_3 
REMARK    2  A    between atoms: C6_8  and  C7_9 
REMARK    3  A    between atoms: C7_9  and  O3_11 
REMARK    4  A    between atoms: C8_12  and  C9_13 
REMARK    5  A    between atoms: C9_13  and  C10_14 
REMARK    6  A    between atoms: C10_14  and  N2_15 
REMARK       I    between atoms: N2_15  and  C11_16 
REMARK    7  A    between atoms: C11_16  and  C12_18 
REMARK    8  A    between atoms: C12_18  and  C13_19 
REMARK    9  A    between atoms: C13_19  and  C14_20 
REMARK   10  A    between atoms: C14_20  and  O6_22 
REMARK   11  A    between atoms: O6_22  and  C15_23 
REMARK   12  A    between atoms: C15_23  and  C16_24 
REMARK   13  A    between atoms: C16_24  and  C17_26 
REMARK   14  A    between atoms: C17_26  and  O8_27 
ROOT
HETATM    1  C14 UNL     1      -1.701  49.818 -16.024  1.00  0.00     0.259 C 
HETATM    2  O5  UNL     1      -1.775  48.600 -15.937  1.00  0.00    -0.265 OA
ENDROOT
BRANCH   1   3
HETATM    3  C13 UNL     1      -1.592  50.572 -17.327  1.00  0.00     0.120 C 
BRANCH   3   4
HETATM    4  C12 UNL     1      -0.146  50.581 -17.810  1.00  0.00     0.112 C 
BRANCH   4   5
HETATM    5  C11 UNL     1       0.125  51.761 -18.723  1.00  0.00     0.218 C 
HETATM    6  N2  UNL     1      -0.271  51.546 -20.024  1.00  0.00    -0.361 N 
HETATM    7  H12 UNL     1      -0.768  50.696 -20.258  1.00  0.00     0.162 HD
HETATM    8  O4  UNL     1       0.648  52.797 -18.331  1.00  0.00    -0.274 OA
BRANCH   6   9
HETATM    9  C10 UNL     1      -0.199  52.599 -21.023  1.00  0.00     0.127 C 
BRANCH   9  10
HETATM   10  C9  UNL     1       0.154  52.078 -22.419  1.00  0.00     0.061 C 
BRANCH  10  11
HETATM   11  C8  UNL     1      -0.954  52.311 -23.408  1.00  0.00    -0.011 A 
HETATM   12  C6  UNL     1      -0.898  53.038 -24.597  1.00  0.00     0.114 A 
HETATM   13  N1  UNL     1      -2.150  52.970 -25.166  1.00  0.00    -0.350 N 
HETATM   14  C5  UNL     1      -3.016  52.251 -24.384  1.00  0.00     0.043 A 
HETATM   15  H6  UNL     1      -2.392  53.411 -26.043  1.00  0.00     0.166 HD
HETATM   16  C4  UNL     1      -4.368  51.957 -24.577  1.00  0.00     0.033 A 
HETATM   17  C36 UNL     1      -2.299  51.819 -23.274  1.00  0.00     0.002 A 
HETATM   18  C3  UNL     1      -5.007  51.197 -23.594  1.00  0.00     0.039 A 
HETATM   19  C2  UNL     1      -4.325  50.741 -22.465  1.00  0.00     0.069 A 
HETATM   20  C37 UNL     1      -2.969  51.047 -22.295  1.00  0.00     0.051 A 
BRANCH  12  21
HETATM   21  C7  UNL     1       0.152  53.776 -25.249  1.00  0.00     0.194 C 
HETATM   22  O2  UNL     1       0.291  54.990 -25.246  1.00  0.00    -0.645 OA
BRANCH  21  23
HETATM   23  O3  UNL     1       1.024  52.977 -25.879  1.00  0.00    -0.772 OA
HETATM   24  H7  UNL     1       1.692  53.575 -26.269  1.00  0.00     0.167 HD
ENDBRANCH  21  23
ENDBRANCH  12  21
BRANCH  19  25
HETATM   25  O1  UNL     1      -5.092  50.009 -21.597  1.00  0.00    -0.356 OA
HETATM   26  C1  UNL     1      -4.854  50.200 -20.209  1.00  0.00     0.210 C 
ENDBRANCH  19  25
ENDBRANCH  10  11
ENDBRANCH   9  10
ENDBRANCH   6   9
ENDBRANCH   4   5
ENDBRANCH   3   4
ENDBRANCH   1   3
BRANCH   1  27
HETATM   27  O6  UNL     1      -1.705  50.677 -14.964  1.00  0.00    -0.314 OA
BRANCH  27  28
HETATM   28  C15 UNL     1      -3.017  51.050 -14.551  1.00  0.00     0.260 C 
BRANCH  28  29
HETATM   29  C16 UNL     1      -3.204  50.861 -13.052  1.00  0.00     0.185 C 
HETATM   30  O7  UNL     1      -3.438  49.735 -12.603  1.00  0.00    -0.292 OA
BRANCH  29  31
HETATM   31  C17 UNL     1      -2.989  52.094 -12.128  1.00  0.00     0.128 C 
HETATM   32  C18 UNL     1      -3.844  51.978 -10.829  1.00  0.00     0.047 C 
HETATM   33  C19 UNL     1      -3.015  52.593  -9.688  1.00  0.00     0.009 C 
HETATM   34  C20 UNL     1      -1.799  53.200 -10.377  1.00  0.00     0.002 C 
HETATM   35  C21 UNL     1      -0.551  53.473  -9.529  1.00  0.00    -0.004 C 
HETATM   36  C34 UNL     1      -1.537  52.244 -11.569  1.00  0.00    -0.002 C 
HETATM   37  C22 UNL     1      -0.864  54.404  -8.349  1.00  0.00     0.010 C 
HETATM   38  C31 UNL     1       0.554  54.110 -10.426  1.00  0.00     0.002 C 
HETATM   39  C23 UNL     1       0.383  54.682  -7.520  1.00  0.00     0.035 C 
HETATM   40  C24 UNL     1       1.523  55.216  -8.356  1.00  0.00    -0.068 C 
HETATM   41  C25 UNL     1       2.182  56.317  -7.952  1.00  0.00     0.053 C 
HETATM   42  C29 UNL     1       1.876  54.431  -9.627  1.00  0.00    -0.016 C 
HETATM   43  C26 UNL     1       3.386  56.809  -8.659  1.00  0.00     0.149 C 
HETATM   44  O9  UNL     1       3.948  57.827  -8.260  1.00  0.00    -0.293 OA
HETATM   45  C27 UNL     1       3.935  55.978  -9.790  1.00  0.00     0.084 C 
HETATM   46  C28 UNL     1       2.808  55.282 -10.540  1.00  0.00     0.022 C 
HETATM   47  C30 UNL     1       2.628  53.147  -9.203  1.00  0.00     0.020 C 
HETATM   48  C32 UNL     1       0.786  53.298 -11.726  1.00  0.00     0.007 C 
HETATM   49  C33 UNL     1      -0.513  52.950 -12.477  1.00  0.00     0.013 C 
HETATM   50  C35 UNL     1      -0.983  50.861 -11.129  1.00  0.00     0.019 C 
BRANCH  31  51
HETATM   51  O8  UNL     1      -3.414  53.308 -12.755  1.00  0.00    -0.381 OA
HETATM   52  H19 UNL     1      -3.120  53.301 -13.683  1.00  0.00     0.211 HD
ENDBRANCH  31  51
ENDBRANCH  29  31
ENDBRANCH  28  29
ENDBRANCH  27  28
ENDBRANCH   1  27
TORSDOF 14
ENDMDL
MODEL 9
REMARK minimizedAffinity -9.00068283
REMARK CNNscore 0.228289783
REMARK CNNaffinity 6.45101929
REMARK  14 active torsions:
REMARK  status: ('A' for Active; 'I' for Inactive)
REMARK    1  A    between atoms: O1_2  and  C2_3 
REMARK    2  A    between atoms: C6_8  and  C7_9 
REMARK    3  A    between atoms: C7_9  and  O3_11 
REMARK    4  A    between atoms: C8_12  and  C9_13 
REMARK    5  A    between atoms: C9_13  and  C10_14 
REMARK    6  A    between atoms: C10_14  and  N2_15 
REMARK       I    between atoms: N2_15  and  C11_16 
REMARK    7  A    between atoms: C11_16  and  C12_18 
REMARK    8  A    between atoms: C12_18  and  C13_19 
REMARK    9  A    between atoms: C13_19  and  C14_20 
REMARK   10  A    between atoms: C14_20  and  O6_22 
REMARK   11  A    between atoms: O6_22  and  C15_23 
REMARK   12  A    between atoms: C15_23  and  C16_24 
REMARK   13  A    between atoms: C16_24  and  C17_26 
REMARK   14  A    between atoms: C17_26  and  O8_27 
ROOT
HETATM    1  C14 UNL     1      10.900  63.067 -33.240  1.00  0.00     0.259 C 
HETATM    2  O5  UNL     1      11.863  63.113 -32.487  1.00  0.00    -0.265 OA
ENDROOT
BRANCH   1   3
HETATM    3  C13 UNL     1      10.954  62.553 -34.658  1.00  0.00     0.120 C 
BRANCH   3   4
HETATM    4  C12 UNL     1      11.678  63.555 -35.552  1.00  0.00     0.112 C 
BRANCH   4   5
HETATM    5  C11 UNL     1      13.116  63.140 -35.798  1.00  0.00     0.218 C 
HETATM    6  N2  UNL     1      13.278  62.380 -36.933  1.00  0.00    -0.361 N 
HETATM    7  H12 UNL     1      12.486  62.227 -37.546  1.00  0.00     0.162 HD
HETATM    8  O4  UNL     1      14.034  63.453 -35.049  1.00  0.00    -0.274 OA
BRANCH   6   9
HETATM    9  C10 UNL     1      14.596  61.981 -37.398  1.00  0.00     0.127 C 
BRANCH   9  10
HETATM   10  C9  UNL     1      15.266  60.948 -36.488  1.00  0.00     0.061 C 
BRANCH  10  11
HETATM   11  C8  UNL     1      15.352  59.593 -37.134  1.00  0.00    -0.011 A 
HETATM   12  C6  UNL     1      16.038  58.470 -36.672  1.00  0.00     0.114 A 
HETATM   13  N1  UNL     1      15.825  57.467 -37.592  1.00  0.00    -0.350 N 
HETATM   14  C5  UNL     1      15.051  57.902 -38.636  1.00  0.00     0.043 A 
HETATM   15  H6  UNL     1      16.208  56.535 -37.505  1.00  0.00     0.166 HD
HETATM   16  C4  UNL     1      14.618  57.223 -39.778  1.00  0.00     0.033 A 
HETATM   17  C36 UNL     1      14.733  59.231 -38.381  1.00  0.00     0.002 A 
HETATM   18  C3  UNL     1      13.833  57.934 -40.689  1.00  0.00     0.039 A 
HETATM   19  C2  UNL     1      13.488  59.268 -40.472  1.00  0.00     0.069 A 
HETATM   20  C37 UNL     1      13.934  59.926 -39.319  1.00  0.00     0.051 A 
BRANCH  12  21
HETATM   21  C7  UNL     1      16.853  58.224 -35.513  1.00  0.00     0.194 C 
HETATM   22  O2  UNL     1      17.139  57.131 -35.048  1.00  0.00    -0.645 OA
BRANCH  21  23
HETATM   23  O3  UNL     1      17.317  59.357 -34.964  1.00  0.00    -0.772 OA
HETATM   24  H7  UNL     1      17.863  59.074 -34.203  1.00  0.00     0.167 HD
ENDBRANCH  21  23
ENDBRANCH  12  21
BRANCH  19  25
HETATM   25  O1  UNL     1      12.715  59.821 -41.458  1.00  0.00    -0.356 OA
HETATM   26  C1  UNL     1      12.188  58.935 -42.437  1.00  0.00     0.210 C 
ENDBRANCH  19  25
ENDBRANCH  10  11
ENDBRANCH   9  10
ENDBRANCH   6   9
ENDBRANCH   4   5
ENDBRANCH   3   4
ENDBRANCH   1   3
BRANCH   1  27
HETATM   27  O6  UNL     1       9.637  63.470 -32.917  1.00  0.00    -0.314 OA
BRANCH  27  28
HETATM   28  C15 UNL     1       8.738  63.431 -34.021  1.00  0.00     0.260 C 
BRANCH  28  29
HETATM   29  C16 UNL     1       7.597  64.423 -33.846  1.00  0.00     0.185 C 
HETATM   30  O7  UNL     1       7.712  65.351 -33.038  1.00  0.00    -0.292 OA
BRANCH  29  31
HETATM   31  C17 UNL     1       6.359  64.285 -34.777  1.00  0.00     0.128 C 
HETATM   32  C18 UNL     1       5.061  64.028 -33.952  1.00  0.00     0.047 C 
HETATM   33  C19 UNL     1       3.915  64.757 -34.675  1.00  0.00     0.009 C 
HETATM   34  C20 UNL     1       4.535  65.257 -35.974  1.00  0.00     0.002 C 
HETATM   35  C21 UNL     1       3.836  66.409 -36.708  1.00  0.00    -0.004 C 
HETATM   36  C34 UNL     1       6.001  65.576 -35.583  1.00  0.00    -0.002 C 
HETATM   37  C22 UNL     1       2.382  66.057 -37.053  1.00  0.00     0.010 C 
HETATM   38  C31 UNL     1       4.624  66.741 -38.012  1.00  0.00     0.002 C 
HETATM   39  C23 UNL     1       1.700  67.199 -37.795  1.00  0.00     0.035 C 
HETATM   40  C24 UNL     1       2.470  67.628 -39.024  1.00  0.00    -0.068 C 
HETATM   41  C25 UNL     1       1.825  67.762 -40.196  1.00  0.00     0.053 C 
HETATM   42  C29 UNL     1       3.967  67.915 -38.837  1.00  0.00    -0.016 C 
HETATM   43  C26 UNL     1       2.497  68.303 -41.399  1.00  0.00     0.149 C 
HETATM   44  O9  UNL     1       1.871  68.395 -42.453  1.00  0.00    -0.293 OA
HETATM   45  C27 UNL     1       3.908  68.814 -41.255  1.00  0.00     0.084 C 
HETATM   46  C28 UNL     1       4.672  67.997 -40.224  1.00  0.00     0.022 C 
HETATM   47  C30 UNL     1       4.107  69.280 -38.123  1.00  0.00     0.020 C 
HETATM   48  C32 UNL     1       6.139  66.932 -37.744  1.00  0.00     0.007 C 
HETATM   49  C33 UNL     1       6.764  65.804 -36.901  1.00  0.00     0.013 C 
HETATM   50  C35 UNL     1       6.130  66.830 -34.676  1.00  0.00     0.019 C 
BRANCH  31  51
HETATM   51  O8  UNL     1       6.478  63.160 -35.656  1.00  0.00    -0.381 OA
HETATM   52  H19 UNL     1       7.389  63.127 -35.999  1.00  0.00     0.211 HD
ENDBRANCH  31  51
ENDBRANCH  29  31
ENDBRANCH  28  29
ENDBRANCH  27  28
ENDBRANCH   1  27
TORSDOF 14
ENDMDL
