MODEL 1
REMARK minimizedAffinity -6.61867046
REMARK CNNscore 0.88594079
REMARK CNNaffinity 7.49413061
REMARK  10 active torsions:
REMARK  status: ('A' for Active; 'I' for Inactive)
REMARK    1  A    between atoms: C2_2  and  O1_3 
REMARK    2  A    between atoms: O1_3  and  C3_4 
REMARK    3  A    between atoms: C3_4  and  C4_6 
REMARK    4  A    between atoms: C4_6  and  C5_7 
REMARK    5  A    between atoms: C5_7  and  C6_8 
REMARK    6  A    between atoms: C6_8  and  C8_10 
REMARK    7  A    between atoms: C13_15  and  O3_16 
REMARK    8  A    between atoms: C17_21  and  O4_22 
REMARK    9  A    between atoms: C24_29  and  O5_30 
REMARK   10  A    between atoms: O5_30  and  C25_31 
ROOT
HETATM    1  C8  UNL     1      -0.199  50.764 -11.215  1.00  0.00     0.000 C 
HETATM    2  C9  UNL     1       0.454  49.738 -10.244  1.00  0.00     0.006 C 
HETATM    3  C10 UNL     1       1.524  50.478  -9.440  1.00  0.00     0.006 C 
HETATM    4  C11 UNL     1       1.331  51.941  -9.807  1.00  0.00     0.003 C 
HETATM    5  C12 UNL     1       2.449  52.950  -9.464  1.00  0.00     0.025 C 
HETATM    6  C13 UNL     1       3.894  52.409  -9.397  1.00  0.00     0.137 C 
HETATM    7  C14 UNL     1       4.920  53.542  -9.606  1.00  0.00     0.092 C 
HETATM    8 BR1  UNL     1       6.713  52.984  -9.054  1.00  0.00    -0.088 Br
HETATM    9  C15 UNL     1       4.511  54.898  -8.997  1.00  0.00     0.013 C 
HETATM   10  C16 UNL     1       4.415  54.889  -7.459  1.00  0.00     0.038 C 
HETATM   11  C17 UNL     1       4.118  56.282  -6.899  1.00  0.00     0.118 C 
HETATM   12  C18 UNL     1       3.057  57.050  -7.685  1.00  0.00     0.032 C 
HETATM   13  C19 UNL     1       2.268  56.147  -8.633  1.00  0.00     0.012 C 
HETATM   14  C20 UNL     1       3.166  55.411  -9.668  1.00  0.00    -0.035 C 
HETATM   15  C21 UNL     1       3.550  56.422 -10.783  1.00  0.00     0.016 C 
HETATM   16  C22 UNL     1       2.388  54.217 -10.353  1.00  0.00     0.003 C 
HETATM   17  C23 UNL     1       0.941  54.501 -10.774  1.00  0.00     0.039 C 
HETATM   18  C24 UNL     1       0.307  53.362 -11.624  1.00  0.00     0.141 C 
HETATM   19  C27 UNL     1       0.856  51.931 -11.283  1.00  0.00    -0.009 C 
HETATM   20  C28 UNL     1       1.995  51.549 -12.263  1.00  0.00     0.018 C 
ENDROOT
BRANCH   1  21
HETATM   21  C6  UNL     1      -0.670  50.081 -12.538  1.00  0.00    -0.013 C 
HETATM   22  C7  UNL     1      -2.072  50.584 -12.927  1.00  0.00     0.010 C 
BRANCH  21  23
HETATM   23  C5  UNL     1       0.318  50.302 -13.708  1.00  0.00     0.014 C 
BRANCH  23  24
HETATM   24  C4  UNL     1      -0.302  50.825 -15.007  1.00  0.00     0.111 C 
BRANCH  24  25
HETATM   25  C3  UNL     1       0.667  50.806 -16.166  1.00  0.00     0.258 C 
HETATM   26  O2  UNL     1       0.393  50.438 -17.300  1.00  0.00    -0.265 OA
BRANCH  25  27
HETATM   27  O1  UNL     1       1.892  51.230 -15.752  1.00  0.00    -0.322 OA
BRANCH  27  28
HETATM   28  C2  UNL     1       2.299  52.485 -16.312  1.00  0.00     0.174 C 
HETATM   29  C1  UNL     1       3.803  52.602 -16.167  1.00  0.00     0.034 C 
ENDBRANCH  27  28
ENDBRANCH  25  27
ENDBRANCH  24  25
ENDBRANCH  23  24
ENDBRANCH  21  23
ENDBRANCH   1  21
BRANCH  18  30
HETATM   30  O5  UNL     1      -1.119  53.415 -11.386  1.00  0.00    -0.316 OA
BRANCH  30  31
HETATM   31  C25 UNL     1      -1.521  53.929 -10.192  1.00  0.00     0.255 C 
HETATM   32  C26 UNL     1      -1.677  55.416 -10.298  1.00  0.00     0.126 C 
HETATM   33  O6  UNL     1      -1.707  53.289  -9.166  1.00  0.00    -0.266 OA
ENDBRANCH  30  31
ENDBRANCH  18  30
BRANCH   6  34
HETATM   34  O3  UNL     1       4.045  51.774  -8.126  1.00  0.00    -0.394 OA
HETATM   35  H22 UNL     1       4.994  51.575  -8.011  1.00  0.00     0.210 HD
ENDBRANCH   6  34
BRANCH  11  36
HETATM   36  O4  UNL     1       3.706  56.152  -5.540  1.00  0.00    -0.396 OA
HETATM   37  H28 UNL     1       2.895  55.616  -5.522  1.00  0.00     0.210 HD
ENDBRANCH  11  36
TORSDOF 10
ENDMDL
MODEL 2
REMARK minimizedAffinity -7.33078671
REMARK CNNscore 0.815128207
REMARK CNNaffinity 7.11762857
REMARK  10 active torsions:
REMARK  status: ('A' for Active; 'I' for Inactive)
REMARK    1  A    between atoms: C2_2  and  O1_3 
REMARK    2  A    between atoms: O1_3  and  C3_4 
REMARK    3  A    between atoms: C3_4  and  C4_6 
REMARK    4  A    between atoms: C4_6  and  C5_7 
REMARK    5  A    between atoms: C5_7  and  C6_8 
REMARK    6  A    between atoms: C6_8  and  C8_10 
REMARK    7  A    between atoms: C13_15  and  O3_16 
REMARK    8  A    between atoms: C17_21  and  O4_22 
REMARK    9  A    between atoms: C24_29  and  O5_30 
REMARK   10  A    between atoms: O5_30  and  C25_31 
ROOT
HETATM    1  C8  UNL     1       3.067  56.041  -8.913  1.00  0.00     0.000 C 
HETATM    2  C9  UNL     1       3.596  55.996 -10.376  1.00  0.00     0.006 C 
HETATM    3  C10 UNL     1       2.581  55.214 -11.212  1.00  0.00     0.006 C 
HETATM    4  C11 UNL     1       1.402  55.002 -10.275  1.00  0.00     0.003 C 
HETATM    5  C12 UNL     1       0.333  53.951 -10.649  1.00  0.00     0.025 C 
HETATM    6  C13 UNL     1       0.787  52.758 -11.518  1.00  0.00     0.137 C 
HETATM    7  C14 UNL     1      -0.167  51.556 -11.351  1.00  0.00     0.092 C 
HETATM    8 BR1  UNL     1       0.099  50.239 -12.773  1.00  0.00    -0.088 Br
HETATM    9  C15 UNL     1      -1.651  51.936 -11.170  1.00  0.00     0.013 C 
HETATM   10  C16 UNL     1      -2.276  52.620 -12.401  1.00  0.00     0.038 C 
HETATM   11  C17 UNL     1      -3.773  52.872 -12.212  1.00  0.00     0.118 C 
HETATM   12  C18 UNL     1      -4.141  53.402 -10.827  1.00  0.00     0.032 C 
HETATM   13  C19 UNL     1      -2.921  53.902 -10.054  1.00  0.00     0.012 C 
HETATM   14  C20 UNL     1      -1.831  52.810  -9.856  1.00  0.00    -0.035 C 
HETATM   15  C21 UNL     1      -2.294  51.861  -8.717  1.00  0.00     0.016 C 
HETATM   16  C22 UNL     1      -0.454  53.450  -9.413  1.00  0.00     0.003 C 
HETATM   17  C23 UNL     1      -0.529  54.552  -8.349  1.00  0.00     0.039 C 
HETATM   18  C24 UNL     1       0.865  54.989  -7.810  1.00  0.00     0.141 C 
HETATM   19  C27 UNL     1       2.023  54.862  -8.862  1.00  0.00    -0.009 C 
HETATM   20  C28 UNL     1       2.767  53.515  -8.678  1.00  0.00     0.018 C 
ENDROOT
BRANCH   1  21
HETATM   21  C6  UNL     1       4.239  56.070  -7.881  1.00  0.00    -0.013 C 
HETATM   22  C7  UNL     1       5.559  55.668  -8.565  1.00  0.00     0.010 C 
BRANCH  21  23
HETATM   23  C5  UNL     1       4.394  57.447  -7.193  1.00  0.00     0.014 C 
BRANCH  23  24
HETATM   24  C4  UNL     1       5.762  57.719  -6.560  1.00  0.00     0.111 C 
BRANCH  24  25
HETATM   25  C3  UNL     1       5.747  57.583  -5.056  1.00  0.00     0.258 C 
HETATM   26  O2  UNL     1       4.975  58.167  -4.308  1.00  0.00    -0.265 OA
BRANCH  25  27
HETATM   27  O1  UNL     1       6.738  56.739  -4.658  1.00  0.00    -0.322 OA
BRANCH  27  28
HETATM   28  C2  UNL     1       7.759  56.526  -5.641  1.00  0.00     0.174 C 
HETATM   29  C1  UNL     1       9.055  57.104  -5.111  1.00  0.00     0.034 C 
ENDBRANCH  27  28
ENDBRANCH  25  27
ENDBRANCH  24  25
ENDBRANCH  23  24
ENDBRANCH  21  23
ENDBRANCH   1  21
BRANCH  18  30
HETATM   30  O5  UNL     1       0.730  56.365  -7.384  1.00  0.00    -0.316 OA
BRANCH  30  31
HETATM   31  C25 UNL     1       0.456  56.573  -6.067  1.00  0.00     0.255 C 
HETATM   32  C26 UNL     1       1.539  55.981  -5.217  1.00  0.00     0.126 C 
HETATM   33  O6  UNL     1      -0.536  57.135  -5.625  1.00  0.00    -0.266 OA
ENDBRANCH  30  31
ENDBRANCH  18  30
BRANCH   6  34
HETATM   34  O3  UNL     1       0.840  53.219 -12.870  1.00  0.00    -0.394 OA
HETATM   35  H22 UNL     1       0.966  52.437 -13.439  1.00  0.00     0.210 HD
ENDBRANCH   6  34
BRANCH  11  36
HETATM   36  O4  UNL     1      -4.213  53.794 -13.208  1.00  0.00    -0.396 OA
HETATM   37  H28 UNL     1      -3.725  54.626 -13.083  1.00  0.00     0.210 HD
ENDBRANCH  11  36
TORSDOF 10
ENDMDL
MODEL 3
REMARK minimizedAffinity -7.29277611
REMARK CNNscore 0.810497344
REMARK CNNaffinity 7.23080111
REMARK  10 active torsions:
REMARK  status: ('A' for Active; 'I' for Inactive)
REMARK    1  A    between atoms: C2_2  and  O1_3 
REMARK    2  A    between atoms: O1_3  and  C3_4 
REMARK    3  A    between atoms: C3_4  and  C4_6 
REMARK    4  A    between atoms: C4_6  and  C5_7 
REMARK    5  A    between atoms: C5_7  and  C6_8 
REMARK    6  A    between atoms: C6_8  and  C8_10 
REMARK    7  A    between atoms: C13_15  and  O3_16 
REMARK    8  A    between atoms: C17_21  and  O4_22 
REMARK    9  A    between atoms: C24_29  and  O5_30 
REMARK   10  A    between atoms: O5_30  and  C25_31 
ROOT
HETATM    1  C8  UNL     1       2.958  56.033  -8.816  1.00  0.00     0.000 C 
HETATM    2  C9  UNL     1       3.506  56.024 -10.273  1.00  0.00     0.006 C 
HETATM    3  C10 UNL     1       2.518  55.236 -11.134  1.00  0.00     0.006 C 
HETATM    4  C11 UNL     1       1.332  54.984 -10.217  1.00  0.00     0.003 C 
HETATM    5  C12 UNL     1       0.289  53.919 -10.623  1.00  0.00     0.025 C 
HETATM    6  C13 UNL     1       0.778  52.750 -11.506  1.00  0.00     0.137 C 
HETATM    7  C14 UNL     1      -0.152  51.527 -11.372  1.00  0.00     0.092 C 
HETATM    8 BR1  UNL     1       0.158  50.240 -12.813  1.00  0.00    -0.088 Br
HETATM    9  C15 UNL     1      -1.646  51.873 -11.203  1.00  0.00     0.013 C 
HETATM   10  C16 UNL     1      -2.269  52.566 -12.431  1.00  0.00     0.038 C 
HETATM   11  C17 UNL     1      -3.774  52.784 -12.257  1.00  0.00     0.118 C 
HETATM   12  C18 UNL     1      -4.170  53.282 -10.867  1.00  0.00     0.032 C 
HETATM   13  C19 UNL     1      -2.970  53.793 -10.070  1.00  0.00     0.012 C 
HETATM   14  C20 UNL     1      -1.860  52.721  -9.877  1.00  0.00    -0.035 C 
HETATM   15  C21 UNL     1      -2.318  51.743  -8.760  1.00  0.00     0.016 C 
HETATM   16  C22 UNL     1      -0.503  53.380  -9.405  1.00  0.00     0.003 C 
HETATM   17  C23 UNL     1      -0.613  54.462  -8.323  1.00  0.00     0.039 C 
HETATM   18  C24 UNL     1       0.765  54.918  -7.760  1.00  0.00     0.141 C 
HETATM   19  C27 UNL     1       1.939  54.832  -8.798  1.00  0.00    -0.009 C 
HETATM   20  C28 UNL     1       2.707  53.497  -8.628  1.00  0.00     0.018 C 
ENDROOT
BRANCH   1  21
HETATM   21  C6  UNL     1       4.116  56.068  -7.769  1.00  0.00    -0.013 C 
HETATM   22  C7  UNL     1       5.447  55.671  -8.435  1.00  0.00     0.010 C 
BRANCH  21  23
HETATM   23  C5  UNL     1       4.256  57.445  -7.079  1.00  0.00     0.014 C 
BRANCH  23  24
HETATM   24  C4  UNL     1       5.581  57.688  -6.350  1.00  0.00     0.111 C 
BRANCH  24  25
HETATM   25  C3  UNL     1       5.391  58.034  -4.892  1.00  0.00     0.258 C 
HETATM   26  O2  UNL     1       6.201  58.641  -4.206  1.00  0.00    -0.265 OA
BRANCH  25  27
HETATM   27  O1  UNL     1       4.199  57.546  -4.452  1.00  0.00    -0.322 OA
BRANCH  27  28
HETATM   28  C2  UNL     1       3.246  58.555  -4.095  1.00  0.00     0.174 C 
HETATM   29  C1  UNL     1       3.977  59.878  -3.984  1.00  0.00     0.034 C 
ENDBRANCH  27  28
ENDBRANCH  25  27
ENDBRANCH  24  25
ENDBRANCH  23  24
ENDBRANCH  21  23
ENDBRANCH   1  21
BRANCH  18  30
HETATM   30  O5  UNL     1       0.596  56.282  -7.312  1.00  0.00    -0.316 OA
BRANCH  30  31
HETATM   31  C25 UNL     1       0.328  56.464  -5.990  1.00  0.00     0.255 C 
HETATM   32  C26 UNL     1       1.249  55.623  -5.159  1.00  0.00     0.126 C 
HETATM   33  O6  UNL     1      -0.549  57.182  -5.532  1.00  0.00    -0.266 OA
ENDBRANCH  30  31
ENDBRANCH  18  30
BRANCH   6  34
HETATM   34  O3  UNL     1       0.839  53.235 -12.849  1.00  0.00    -0.394 OA
HETATM   35  H22 UNL     1       0.989  52.466 -13.430  1.00  0.00     0.210 HD
ENDBRANCH   6  34
BRANCH  11  36
HETATM   36  O4  UNL     1      -4.220  53.714 -13.242  1.00  0.00    -0.396 OA
HETATM   37  H28 UNL     1      -3.751  54.554 -13.096  1.00  0.00     0.210 HD
ENDBRANCH  11  36
TORSDOF 10
ENDMDL
MODEL 4
REMARK minimizedAffinity -7.25556564
REMARK CNNscore 0.733711183
REMARK CNNaffinity 6.9736619
REMARK  10 active torsions:
REMARK  status: ('A' for Active; 'I' for Inactive)
REMARK    1  A    between atoms: C2_2  and  O1_3 
REMARK    2  A    between atoms: O1_3  and  C3_4 
REMARK    3  A    between atoms: C3_4  and  C4_6 
REMARK    4  A    between atoms: C4_6  and  C5_7 
REMARK    5  A    between atoms: C5_7  and  C6_8 
REMARK    6  A    between atoms: C6_8  and  C8_10 
REMARK    7  A    between atoms: C13_15  and  O3_16 
REMARK    8  A    between atoms: C17_21  and  O4_22 
REMARK    9  A    between atoms: C24_29  and  O5_30 
REMARK   10  A    between atoms: O5_30  and  C25_31 
ROOT
HETATM    1  C8  UNL     1       2.824  56.174  -8.439  1.00  0.00     0.000 C 
HETATM    2  C9  UNL     1       3.411  56.227  -9.879  1.00  0.00     0.006 C 
HETATM    3  C10 UNL     1       2.476  55.429 -10.789  1.00  0.00     0.006 C 
HETATM    4  C11 UNL     1       1.275  55.108  -9.912  1.00  0.00     0.003 C 
HETATM    5  C12 UNL     1       0.284  54.018 -10.376  1.00  0.00     0.025 C 
HETATM    6  C13 UNL     1       0.839  52.893 -11.277  1.00  0.00     0.137 C 
HETATM    7  C14 UNL     1      -0.049  51.634 -11.202  1.00  0.00     0.092 C 
HETATM    8 BR1  UNL     1       0.347  50.400 -12.669  1.00  0.00    -0.088 Br
HETATM    9  C15 UNL     1      -1.558  51.920 -11.065  1.00  0.00     0.013 C 
HETATM   10  C16 UNL     1      -2.174  52.625 -12.290  1.00  0.00     0.038 C 
HETATM   11  C17 UNL     1      -3.689  52.784 -12.152  1.00  0.00     0.118 C 
HETATM   12  C18 UNL     1      -4.140  53.227 -10.761  1.00  0.00     0.032 C 
HETATM   13  C19 UNL     1      -2.982  53.758  -9.917  1.00  0.00     0.012 C 
HETATM   14  C20 UNL     1      -1.839  52.722  -9.723  1.00  0.00    -0.035 C 
HETATM   15  C21 UNL     1      -2.290  51.696  -8.647  1.00  0.00     0.016 C 
HETATM   16  C22 UNL     1      -0.520  53.416  -9.196  1.00  0.00     0.003 C 
HETATM   17  C23 UNL     1      -0.698  54.462  -8.088  1.00  0.00     0.039 C 
HETATM   18  C24 UNL     1       0.646  54.951  -7.474  1.00  0.00     0.141 C 
HETATM   19  C27 UNL     1       1.849  54.938  -8.482  1.00  0.00    -0.009 C 
HETATM   20  C28 UNL     1       2.662  53.627  -8.327  1.00  0.00     0.018 C 
ENDROOT
BRANCH   1  21
HETATM   21  C6  UNL     1       3.952  56.221  -7.359  1.00  0.00    -0.013 C 
HETATM   22  C7  UNL     1       3.660  55.203  -6.241  1.00  0.00     0.010 C 
BRANCH  21  23
HETATM   23  C5  UNL     1       5.357  55.970  -7.954  1.00  0.00     0.014 C 
BRANCH  23  24
HETATM   24  C4  UNL     1       6.133  54.798  -7.345  1.00  0.00     0.111 C 
BRANCH  24  25
HETATM   25  C3  UNL     1       6.503  53.749  -8.367  1.00  0.00     0.258 C 
HETATM   26  O2  UNL     1       6.978  53.983  -9.469  1.00  0.00    -0.265 OA
BRANCH  25  27
HETATM   27  O1  UNL     1       6.201  52.510  -7.890  1.00  0.00    -0.322 OA
BRANCH  27  28
HETATM   28  C2  UNL     1       5.796  51.575  -8.897  1.00  0.00     0.174 C 
HETATM   29  C1  UNL     1       6.901  50.550  -9.063  1.00  0.00     0.034 C 
ENDBRANCH  27  28
ENDBRANCH  25  27
ENDBRANCH  24  25
ENDBRANCH  23  24
ENDBRANCH  21  23
ENDBRANCH   1  21
BRANCH  18  30
HETATM   30  O5  UNL     1       0.415  56.295  -6.994  1.00  0.00    -0.316 OA
BRANCH  30  31
HETATM   31  C25 UNL     1       0.140  56.432  -5.668  1.00  0.00     0.255 C 
HETATM   32  C26 UNL     1       1.111  57.382  -5.037  1.00  0.00     0.126 C 
HETATM   33  O6  UNL     1      -0.749  55.852  -5.060  1.00  0.00    -0.266 OA
ENDBRANCH  30  31
ENDBRANCH  18  30
BRANCH   6  34
HETATM   34  O3  UNL     1       0.918  53.418 -12.604  1.00  0.00    -0.394 OA
HETATM   35  H22 UNL     1       1.111  52.672 -13.201  1.00  0.00     0.210 HD
ENDBRANCH   6  34
BRANCH  11  36
HETATM   36  O4  UNL     1      -4.143  53.725 -13.123  1.00  0.00    -0.396 OA
HETATM   37  H28 UNL     1      -3.710  54.576 -12.941  1.00  0.00     0.210 HD
ENDBRANCH  11  36
TORSDOF 10
ENDMDL
MODEL 5
REMARK minimizedAffinity -6.52954054
REMARK CNNscore 0.620742917
REMARK CNNaffinity 7.12982368
REMARK  10 active torsions:
REMARK  status: ('A' for Active; 'I' for Inactive)
REMARK    1  A    between atoms: C2_2  and  O1_3 
REMARK    2  A    between atoms: O1_3  and  C3_4 
REMARK    3  A    between atoms: C3_4  and  C4_6 
REMARK    4  A    between atoms: C4_6  and  C5_7 
REMARK    5  A    between atoms: C5_7  and  C6_8 
REMARK    6  A    between atoms: C6_8  and  C8_10 
REMARK    7  A    between atoms: C13_15  and  O3_16 
REMARK    8  A    between atoms: C17_21  and  O4_22 
REMARK    9  A    between atoms: C24_29  and  O5_30 
REMARK   10  A    between atoms: O5_30  and  C25_31 
ROOT
HETATM    1  C8  UNL     1       1.121  50.053 -14.132  1.00  0.00     0.000 C 
HETATM    2  C9  UNL     1       2.627  49.935 -13.761  1.00  0.00     0.006 C 
HETATM    3  C10 UNL     1       2.887  50.868 -12.577  1.00  0.00     0.006 C 
HETATM    4  C11 UNL     1       1.505  51.347 -12.160  1.00  0.00     0.003 C 
HETATM    5  C12 UNL     1       1.390  52.572 -11.227  1.00  0.00     0.025 C 
HETATM    6  C13 UNL     1       2.526  53.617 -11.288  1.00  0.00     0.137 C 
HETATM    7  C14 UNL     1       2.045  54.988 -10.770  1.00  0.00     0.092 C 
HETATM    8 BR1  UNL     1       3.557  56.170 -10.388  1.00  0.00    -0.088 Br
HETATM    9  C15 UNL     1       1.042  54.917  -9.601  1.00  0.00     0.013 C 
HETATM   10  C16 UNL     1       1.632  54.322  -8.307  1.00  0.00     0.038 C 
HETATM   11  C17 UNL     1       0.634  54.378  -7.149  1.00  0.00     0.118 C 
HETATM   12  C18 UNL     1      -0.790  53.987  -7.541  1.00  0.00     0.032 C 
HETATM   13  C19 UNL     1      -0.848  53.287  -8.898  1.00  0.00     0.012 C 
HETATM   14  C20 UNL     1      -0.271  54.148 -10.057  1.00  0.00    -0.035 C 
HETATM   15  C21 UNL     1      -1.331  55.215 -10.445  1.00  0.00     0.016 C 
HETATM   16  C22 UNL     1       0.011  53.268 -11.340  1.00  0.00     0.003 C 
HETATM   17  C23 UNL     1      -1.070  52.245 -11.712  1.00  0.00     0.039 C 
HETATM   18  C24 UNL     1      -0.830  51.563 -13.091  1.00  0.00     0.141 C 
HETATM   19  C27 UNL     1       0.684  51.416 -13.475  1.00  0.00    -0.009 C 
HETATM   20  C28 UNL     1       1.123  52.597 -14.378  1.00  0.00     0.018 C 
ENDROOT
BRANCH   1  21
HETATM   21  C6  UNL     1       0.890  49.834 -15.661  1.00  0.00    -0.013 C 
HETATM   22  C7  UNL     1       0.289  48.439 -15.913  1.00  0.00     0.010 C 
BRANCH  21  23
HETATM   23  C5  UNL     1      -0.011  50.923 -16.291  1.00  0.00     0.014 C 
BRANCH  23  24
HETATM   24  C4  UNL     1      -0.125  50.886 -17.818  1.00  0.00     0.111 C 
BRANCH  24  25
HETATM   25  C3  UNL     1      -1.090  51.915 -18.357  1.00  0.00     0.258 C 
HETATM   26  O2  UNL     1      -2.308  51.808 -18.342  1.00  0.00    -0.265 OA
BRANCH  25  27
HETATM   27  O1  UNL     1      -0.401  52.963 -18.887  1.00  0.00    -0.322 OA
BRANCH  27  28
HETATM   28  C2  UNL     1       0.175  52.697 -20.173  1.00  0.00     0.174 C 
HETATM   29  C1  UNL     1       1.200  53.776 -20.464  1.00  0.00     0.034 C 
ENDBRANCH  27  28
ENDBRANCH  25  27
ENDBRANCH  24  25
ENDBRANCH  23  24
ENDBRANCH  21  23
ENDBRANCH   1  21
BRANCH  18  30
HETATM   30  O5  UNL     1      -1.453  50.259 -13.019  1.00  0.00    -0.316 OA
BRANCH  30  31
HETATM   31  C25 UNL     1      -2.712  50.154 -13.527  1.00  0.00     0.255 C 
HETATM   32  C26 UNL     1      -3.564  49.322 -12.618  1.00  0.00     0.126 C 
HETATM   33  O6  UNL     1      -3.098  50.639 -14.581  1.00  0.00    -0.266 OA
ENDBRANCH  30  31
ENDBRANCH  18  30
BRANCH   6  34
HETATM   34  O3  UNL     1       3.612  53.101 -10.515  1.00  0.00    -0.394 OA
HETATM   35  H22 UNL     1       4.265  53.819 -10.415  1.00  0.00     0.210 HD
ENDBRANCH   6  34
BRANCH  11  36
HETATM   36  O4  UNL     1       1.094  53.523  -6.104  1.00  0.00    -0.396 OA
HETATM   37  H28 UNL     1       1.134  52.616  -6.454  1.00  0.00     0.210 HD
ENDBRANCH  11  36
TORSDOF 10
ENDMDL
MODEL 6
REMARK minimizedAffinity -6.56695223
REMARK CNNscore 0.600628376
REMARK CNNaffinity 6.45606565
REMARK  10 active torsions:
REMARK  status: ('A' for Active; 'I' for Inactive)
REMARK    1  A    between atoms: C2_2  and  O1_3 
REMARK    2  A    between atoms: O1_3  and  C3_4 
REMARK    3  A    between atoms: C3_4  and  C4_6 
REMARK    4  A    between atoms: C4_6  and  C5_7 
REMARK    5  A    between atoms: C5_7  and  C6_8 
REMARK    6  A    between atoms: C6_8  and  C8_10 
REMARK    7  A    between atoms: C13_15  and  O3_16 
REMARK    8  A    between atoms: C17_21  and  O4_22 
REMARK    9  A    between atoms: C24_29  and  O5_30 
REMARK   10  A    between atoms: O5_30  and  C25_31 
ROOT
HETATM    1  C8  UNL     1     -12.602  45.692 -28.008  1.00  0.00     0.000 C 
HETATM    2  C9  UNL     1     -12.852  44.409 -28.851  1.00  0.00     0.006 C 
HETATM    3  C10 UNL     1     -11.762  44.338 -29.922  1.00  0.00     0.006 C 
HETATM    4  C11 UNL     1     -10.796  45.453 -29.554  1.00  0.00     0.003 C 
HETATM    5  C12 UNL     1      -9.758  45.916 -30.600  1.00  0.00     0.025 C 
HETATM    6  C13 UNL     1     -10.132  45.749 -32.089  1.00  0.00     0.137 C 
HETATM    7  C14 UNL     1      -9.319  46.715 -32.976  1.00  0.00     0.092 C 
HETATM    8 BR1  UNL     1      -9.414  46.195 -34.861  1.00  0.00    -0.088 Br
HETATM    9  C15 UNL     1      -7.870  46.953 -32.504  1.00  0.00     0.013 C 
HETATM   10  C16 UNL     1      -6.978  45.698 -32.566  1.00  0.00     0.038 C 
HETATM   11  C17 UNL     1      -5.527  46.013 -32.196  1.00  0.00     0.118 C 
HETATM   12  C18 UNL     1      -5.383  46.943 -30.992  1.00  0.00     0.032 C 
HETATM   13  C19 UNL     1      -6.685  47.072 -30.201  1.00  0.00     0.012 C 
HETATM   14  C20 UNL     1      -7.871  47.603 -31.054  1.00  0.00    -0.035 C 
HETATM   15  C21 UNL     1      -7.700  49.137 -31.225  1.00  0.00     0.016 C 
HETATM   16  C22 UNL     1      -9.254  47.356 -30.329  1.00  0.00     0.003 C 
HETATM   17  C23 UNL     1      -9.296  47.658 -28.825  1.00  0.00     0.039 C 
HETATM   18  C24 UNL     1     -10.728  47.594 -28.220  1.00  0.00     0.141 C 
HETATM   19  C27 UNL     1     -11.678  46.569 -28.935  1.00  0.00    -0.009 C 
HETATM   20  C28 UNL     1     -12.541  47.293 -29.999  1.00  0.00     0.018 C 
ENDROOT
BRANCH   1  21
HETATM   21  C6  UNL     1     -13.939  46.295 -27.473  1.00  0.00    -0.013 C 
HETATM   22  C7  UNL     1     -15.139  45.511 -28.035  1.00  0.00     0.010 C 
BRANCH  21  23
HETATM   23  C5  UNL     1     -14.002  46.329 -25.927  1.00  0.00     0.014 C 
BRANCH  23  24
HETATM   24  C4  UNL     1     -15.358  45.967 -25.313  1.00  0.00     0.111 C 
BRANCH  24  25
HETATM   25  C3  UNL     1     -15.834  46.988 -24.306  1.00  0.00     0.258 C 
HETATM   26  O2  UNL     1     -15.192  47.961 -23.940  1.00  0.00    -0.265 OA
BRANCH  25  27
HETATM   27  O1  UNL     1     -17.070  46.645 -23.849  1.00  0.00    -0.322 OA
BRANCH  27  28
HETATM   28  C2  UNL     1     -18.105  46.720 -24.837  1.00  0.00     0.174 C 
HETATM   29  C1  UNL     1     -19.415  46.334 -24.181  1.00  0.00     0.034 C 
ENDBRANCH  27  28
ENDBRANCH  25  27
ENDBRANCH  24  25
ENDBRANCH  23  24
ENDBRANCH  21  23
ENDBRANCH   1  21
BRANCH  18  30
HETATM   30  O5  UNL     1     -10.571  47.237 -26.827  1.00  0.00    -0.316 OA
BRANCH  30  31
HETATM   31  C25 UNL     1      -9.928  48.137 -26.034  1.00  0.00     0.255 C 
HETATM   32  C26 UNL     1      -8.838  47.457 -25.264  1.00  0.00     0.126 C 
HETATM   33  O6  UNL     1     -10.203  49.324 -25.934  1.00  0.00    -0.266 OA
ENDBRANCH  30  31
ENDBRANCH  18  30
BRANCH   6  34
HETATM   34  O3  UNL     1      -9.898  44.381 -32.429  1.00  0.00    -0.394 OA
HETATM   35  H22 UNL     1      -9.975  44.304 -33.399  1.00  0.00     0.210 HD
ENDBRANCH   6  34
BRANCH  11  36
HETATM   36  O4  UNL     1      -4.842  44.788 -31.939  1.00  0.00    -0.396 OA
HETATM   37  H28 UNL     1      -5.280  44.352 -31.188  1.00  0.00     0.210 HD
ENDBRANCH  11  36
TORSDOF 10
ENDMDL
MODEL 7
REMARK minimizedAffinity -6.43454218
REMARK CNNscore 0.594983399
REMARK CNNaffinity 5.97676086
REMARK  10 active torsions:
REMARK  status: ('A' for Active; 'I' for Inactive)
REMARK    1  A    between atoms: C2_2  and  O1_3 
REMARK    2  A    between atoms: O1_3  and  C3_4 
REMARK    3  A    between atoms: C3_4  and  C4_6 
REMARK    4  A    between atoms: C4_6  and  C5_7 
REMARK    5  A    between atoms: C5_7  and  C6_8 
REMARK    6  A    between atoms: C6_8  and  C8_10 
REMARK    7  A    between atoms: C13_15  and  O3_16 
REMARK    8  A    between atoms: C17_21  and  O4_22 
REMARK    9  A    between atoms: C24_29  and  O5_30 
REMARK   10  A    between atoms: O5_30  and  C25_31 
ROOT
HETATM    1  C8  UNL     1     -14.990  45.539 -25.428  1.00  0.00     0.000 C 
HETATM    2  C9  UNL     1     -13.831  44.658 -24.878  1.00  0.00     0.006 C 
HETATM    3  C10 UNL     1     -14.137  44.352 -23.412  1.00  0.00     0.006 C 
HETATM    4  C11 UNL     1     -15.548  44.880 -23.200  1.00  0.00     0.003 C 
HETATM    5  C12 UNL     1     -16.065  45.066 -21.757  1.00  0.00     0.025 C 
HETATM    6  C13 UNL     1     -15.017  45.354 -20.660  1.00  0.00     0.137 C 
HETATM    7  C14 UNL     1     -15.663  46.050 -19.445  1.00  0.00     0.092 C 
HETATM    8 BR1  UNL     1     -14.485  45.986 -17.883  1.00  0.00    -0.088 Br
HETATM    9  C15 UNL     1     -17.095  45.578 -19.122  1.00  0.00     0.013 C 
HETATM   10  C16 UNL     1     -17.183  44.105 -18.679  1.00  0.00     0.038 C 
HETATM   11  C17 UNL     1     -18.604  43.720 -18.263  1.00  0.00     0.118 C 
HETATM   12  C18 UNL     1     -19.689  44.260 -19.194  1.00  0.00     0.032 C 
HETATM   13  C19 UNL     1     -19.119  44.759 -20.521  1.00  0.00     0.012 C 
HETATM   14  C20 UNL     1     -18.057  45.882 -20.349  1.00  0.00    -0.035 C 
HETATM   15  C21 UNL     1     -18.800  47.212 -20.049  1.00  0.00     0.016 C 
HETATM   16  C22 UNL     1     -17.224  46.091 -21.677  1.00  0.00     0.003 C 
HETATM   17  C23 UNL     1     -18.023  46.091 -22.987  1.00  0.00     0.039 C 
HETATM   18  C24 UNL     1     -17.180  46.506 -24.228  1.00  0.00     0.141 C 
HETATM   19  C27 UNL     1     -15.662  46.118 -24.126  1.00  0.00    -0.009 C 
HETATM   20  C28 UNL     1     -14.837  47.321 -23.603  1.00  0.00     0.018 C 
ENDROOT
BRANCH   1  21
HETATM   21  C6  UNL     1     -14.487  46.524 -26.531  1.00  0.00    -0.013 C 
HETATM   22  C7  UNL     1     -13.046  46.973 -26.226  1.00  0.00     0.010 C 
BRANCH  21  23
HETATM   23  C5  UNL     1     -14.567  45.919 -27.952  1.00  0.00     0.014 C 
BRANCH  23  24
HETATM   24  C4  UNL     1     -13.473  46.370 -28.925  1.00  0.00     0.111 C 
BRANCH  24  25
HETATM   25  C3  UNL     1     -12.455  45.289 -29.200  1.00  0.00     0.258 C 
HETATM   26  O2  UNL     1     -12.646  44.091 -29.043  1.00  0.00    -0.265 OA
BRANCH  25  27
HETATM   27  O1  UNL     1     -11.287  45.849 -29.621  1.00  0.00    -0.322 OA
BRANCH  27  28
HETATM   28  C2  UNL     1     -11.453  47.052 -30.382  1.00  0.00     0.174 C 
HETATM   29  C1  UNL     1     -11.039  46.768 -31.812  1.00  0.00     0.034 C 
ENDBRANCH  27  28
ENDBRANCH  25  27
ENDBRANCH  24  25
ENDBRANCH  23  24
ENDBRANCH  21  23
ENDBRANCH   1  21
BRANCH  18  30
HETATM   30  O5  UNL     1     -17.783  45.858 -25.371  1.00  0.00    -0.316 OA
BRANCH  30  31
HETATM   31  C25 UNL     1     -19.143  45.829 -25.411  1.00  0.00     0.255 C 
HETATM   32  C26 UNL     1     -19.618  44.455 -25.772  1.00  0.00     0.126 C 
HETATM   33  O6  UNL     1     -19.883  46.781 -25.209  1.00  0.00    -0.266 OA
ENDBRANCH  30  31
ENDBRANCH  18  30
BRANCH   6  34
HETATM   34  O3  UNL     1     -14.422  44.103 -20.310  1.00  0.00    -0.394 OA
HETATM   35  H22 UNL     1     -13.880  44.251 -19.512  1.00  0.00     0.210 HD
ENDBRANCH   6  34
BRANCH  11  36
HETATM   36  O4  UNL     1     -18.695  42.297 -18.199  1.00  0.00    -0.396 OA
HETATM   37  H28 UNL     1     -18.510  41.945 -19.086  1.00  0.00     0.210 HD
ENDBRANCH  11  36
TORSDOF 10
ENDMDL
MODEL 8
REMARK minimizedAffinity -8.0328722
REMARK CNNscore 0.587641597
REMARK CNNaffinity 6.82507086
REMARK  10 active torsions:
REMARK  status: ('A' for Active; 'I' for Inactive)
REMARK    1  A    between atoms: C2_2  and  O1_3 
REMARK    2  A    between atoms: O1_3  and  C3_4 
REMARK    3  A    between atoms: C3_4  and  C4_6 
REMARK    4  A    between atoms: C4_6  and  C5_7 
REMARK    5  A    between atoms: C5_7  and  C6_8 
REMARK    6  A    between atoms: C6_8  and  C8_10 
REMARK    7  A    between atoms: C13_15  and  O3_16 
REMARK    8  A    between atoms: C17_21  and  O4_22 
REMARK    9  A    between atoms: C24_29  and  O5_30 
REMARK   10  A    between atoms: O5_30  and  C25_31 
ROOT
HETATM    1  C8  UNL     1       4.321  66.412 -35.568  1.00  0.00     0.000 C 
HETATM    2  C9  UNL     1       3.379  65.461 -34.774  1.00  0.00     0.006 C 
HETATM    3  C10 UNL     1       4.220  64.283 -34.279  1.00  0.00     0.006 C 
HETATM    4  C11 UNL     1       5.652  64.672 -34.613  1.00  0.00     0.003 C 
HETATM    5  C12 UNL     1       6.747  63.584 -34.582  1.00  0.00     0.025 C 
HETATM    6  C13 UNL     1       6.309  62.131 -34.872  1.00  0.00     0.137 C 
HETATM    7  C14 UNL     1       7.501  61.278 -35.354  1.00  0.00     0.092 C 
HETATM    8 BR1  UNL     1       7.089  59.368 -35.260  1.00  0.00    -0.088 Br
HETATM    9  C15 UNL     1       8.848  61.624 -34.687  1.00  0.00     0.013 C 
HETATM   10  C16 UNL     1       8.889  61.331 -33.174  1.00  0.00     0.038 C 
HETATM   11  C17 UNL     1      10.279  61.584 -32.584  1.00  0.00     0.118 C 
HETATM   12  C18 UNL     1      10.943  62.863 -33.091  1.00  0.00     0.032 C 
HETATM   13  C19 UNL     1       9.952  63.793 -33.792  1.00  0.00     0.012 C 
HETATM   14  C20 UNL     1       9.242  63.129 -35.006  1.00  0.00    -0.035 C 
HETATM   15  C21 UNL     1      10.235  63.114 -36.201  1.00  0.00     0.016 C 
HETATM   16  C22 UNL     1       7.973  63.960 -35.451  1.00  0.00     0.003 C 
HETATM   17  C23 UNL     1       8.141  65.484 -35.498  1.00  0.00     0.039 C 
HETATM   18  C24 UNL     1       6.930  66.222 -36.139  1.00  0.00     0.141 C 
HETATM   19  C27 UNL     1       5.554  65.499 -35.922  1.00  0.00    -0.009 C 
HETATM   20  C28 UNL     1       5.215  64.616 -37.150  1.00  0.00     0.018 C 
ENDROOT
BRANCH   1  21
HETATM   21  C6  UNL     1       3.558  67.145 -36.717  1.00  0.00    -0.013 C 
HETATM   22  C7  UNL     1       4.507  68.107 -37.455  1.00  0.00     0.010 C 
BRANCH  21  23
HETATM   23  C5  UNL     1       2.906  66.165 -37.720  1.00  0.00     0.014 C 
BRANCH  23  24
HETATM   24  C4  UNL     1       1.449  66.464 -38.084  1.00  0.00     0.111 C 
BRANCH  24  25
HETATM   25  C3  UNL     1       1.270  66.808 -39.544  1.00  0.00     0.258 C 
HETATM   26  O2  UNL     1       2.168  66.822 -40.375  1.00  0.00    -0.265 OA
BRANCH  25  27
HETATM   27  O1  UNL     1      -0.030  67.127 -39.789  1.00  0.00    -0.322 OA
BRANCH  27  28
HETATM   28  C2  UNL     1      -0.212  68.094 -40.832  1.00  0.00     0.174 C 
HETATM   29  C1  UNL     1      -0.773  67.379 -42.046  1.00  0.00     0.034 C 
ENDBRANCH  27  28
ENDBRANCH  25  27
ENDBRANCH  24  25
ENDBRANCH  23  24
ENDBRANCH  21  23
ENDBRANCH   1  21
BRANCH  18  30
HETATM   30  O5  UNL     1       6.894  67.543 -35.552  1.00  0.00    -0.316 OA
BRANCH  30  31
HETATM   31  C25 UNL     1       7.725  68.476 -36.093  1.00  0.00     0.255 C 
HETATM   32  C26 UNL     1       7.873  69.637 -35.158  1.00  0.00     0.126 C 
HETATM   33  O6  UNL     1       8.259  68.404 -37.191  1.00  0.00    -0.266 OA
ENDBRANCH  30  31
ENDBRANCH  18  30
BRANCH   6  34
HETATM   34  O3  UNL     1       5.734  61.619 -33.668  1.00  0.00    -0.394 OA
HETATM   35  H22 UNL     1       5.605  60.660 -33.792  1.00  0.00     0.210 HD
ENDBRANCH   6  34
BRANCH  11  36
HETATM   36  O4  UNL     1      10.172  61.632 -31.162  1.00  0.00    -0.396 OA
HETATM   37  H28 UNL     1       9.582  62.370 -30.931  1.00  0.00     0.210 HD
ENDBRANCH  11  36
TORSDOF 10
ENDMDL
MODEL 9
REMARK minimizedAffinity -8.05386734
REMARK CNNscore 0.574936509
REMARK CNNaffinity 6.62089872
REMARK  10 active torsions:
REMARK  status: ('A' for Active; 'I' for Inactive)
REMARK    1  A    between atoms: C2_2  and  O1_3 
REMARK    2  A    between atoms: O1_3  and  C3_4 
REMARK    3  A    between atoms: C3_4  and  C4_6 
REMARK    4  A    between atoms: C4_6  and  C5_7 
REMARK    5  A    between atoms: C5_7  and  C6_8 
REMARK    6  A    between atoms: C6_8  and  C8_10 
REMARK    7  A    between atoms: C13_15  and  O3_16 
REMARK    8  A    between atoms: C17_21  and  O4_22 
REMARK    9  A    between atoms: C24_29  and  O5_30 
REMARK   10  A    between atoms: O5_30  and  C25_31 
ROOT
HETATM    1  C8  UNL     1      -1.636  50.138 -23.192  1.00  0.00     0.000 C 
HETATM    2  C9  UNL     1      -1.296  49.579 -21.780  1.00  0.00     0.006 C 
HETATM    3  C10 UNL     1      -2.535  48.847 -21.261  1.00  0.00     0.006 C 
HETATM    4  C11 UNL     1      -3.484  48.819 -22.449  1.00  0.00     0.003 C 
HETATM    5  C12 UNL     1      -4.971  48.475 -22.208  1.00  0.00     0.025 C 
HETATM    6  C13 UNL     1      -5.561  48.818 -20.823  1.00  0.00     0.137 C 
HETATM    7  C14 UNL     1      -7.096  48.952 -20.893  1.00  0.00     0.092 C 
HETATM    8 BR1  UNL     1      -7.893  48.904 -19.106  1.00  0.00    -0.088 Br
HETATM    9  C15 UNL     1      -7.782  47.976 -21.870  1.00  0.00     0.013 C 
HETATM   10  C16 UNL     1      -7.649  46.494 -21.469  1.00  0.00     0.038 C 
HETATM   11  C17 UNL     1      -8.440  45.578 -22.406  1.00  0.00     0.118 C 
HETATM   12  C18 UNL     1      -8.306  45.942 -23.884  1.00  0.00     0.032 C 
HETATM   13  C19 UNL     1      -7.145  46.902 -24.142  1.00  0.00     0.012 C 
HETATM   14  C20 UNL     1      -7.263  48.234 -23.349  1.00  0.00    -0.035 C 
HETATM   15  C21 UNL     1      -8.305  49.136 -24.065  1.00  0.00     0.016 C 
HETATM   16  C22 UNL     1      -5.888  49.015 -23.334  1.00  0.00     0.003 C 
HETATM   17  C23 UNL     1      -5.122  49.067 -24.662  1.00  0.00     0.039 C 
HETATM   18  C24 UNL     1      -3.891  50.020 -24.631  1.00  0.00     0.141 C 
HETATM   19  C27 UNL     1      -3.210  50.136 -23.221  1.00  0.00    -0.009 C 
HETATM   20  C28 UNL     1      -3.748  51.380 -22.469  1.00  0.00     0.018 C 
ENDROOT
BRANCH   1  21
HETATM   21  C6  UNL     1      -0.868  51.466 -23.482  1.00  0.00    -0.013 C 
HETATM   22  C7  UNL     1      -1.653  52.325 -24.490  1.00  0.00     0.010 C 
BRANCH  21  23
HETATM   23  C5  UNL     1      -0.580  52.281 -22.199  1.00  0.00     0.014 C 
BRANCH  23  24
HETATM   24  C4  UNL     1       0.897  52.570 -21.916  1.00  0.00     0.111 C 
BRANCH  24  25
HETATM   25  C3  UNL     1       1.097  53.764 -21.013  1.00  0.00     0.258 C 
HETATM   26  O2  UNL     1       1.890  54.672 -21.219  1.00  0.00    -0.265 OA
BRANCH  25  27
HETATM   27  O1  UNL     1       0.285  53.663 -19.925  1.00  0.00    -0.322 OA
BRANCH  27  28
HETATM   28  C2  UNL     1       0.799  52.822 -18.884  1.00  0.00     0.174 C 
HETATM   29  C1  UNL     1      -0.291  51.849 -18.481  1.00  0.00     0.034 C 
ENDBRANCH  27  28
ENDBRANCH  25  27
ENDBRANCH  24  25
ENDBRANCH  23  24
ENDBRANCH  21  23
ENDBRANCH   1  21
BRANCH  18  30
HETATM   30  O5  UNL     1      -2.947  49.504 -25.597  1.00  0.00    -0.316 OA
BRANCH  30  31
HETATM   31  C25 UNL     1      -3.244  49.705 -26.910  1.00  0.00     0.255 C 
HETATM   32  C26 UNL     1      -3.596  48.403 -27.563  1.00  0.00     0.126 C 
HETATM   33  O6  UNL     1      -3.209  50.780 -27.493  1.00  0.00    -0.266 OA
ENDBRANCH  30  31
ENDBRANCH  18  30
BRANCH   6  34
HETATM   34  O3  UNL     1      -5.152  47.784 -19.925  1.00  0.00    -0.394 OA
HETATM   35  H22 UNL     1      -5.650  47.905 -19.095  1.00  0.00     0.210 HD
ENDBRANCH   6  34
BRANCH  11  36
HETATM   36  O4  UNL     1      -8.011  44.233 -22.203  1.00  0.00    -0.396 OA
HETATM   37  H28 UNL     1      -7.065  44.184 -22.424  1.00  0.00     0.210 HD
ENDBRANCH  11  36
TORSDOF 10
ENDMDL
