MODEL 1
REMARK minimizedAffinity -8.9587183
REMARK CNNscore 0.544142783
REMARK CNNaffinity 7.01335001
REMARK  9 active torsions:
REMARK  status: ('A' for Active; 'I' for Inactive)
REMARK    1  A    between atoms: C11_11  and  C13_13 
REMARK    2  A    between atoms: C13_13  and  O2_15 
REMARK    3  A    between atoms: C15_17  and  C16_18 
REMARK    4  A    between atoms: C16_18  and  C17_19 
REMARK    5  A    between atoms: C17_19  and  C18_20 
REMARK    6  A    between atoms: C19_21  and  C20_22 
REMARK    7  A    between atoms: C20_22  and  O3_23 
REMARK    8  A    between atoms: O3_23  and  C21_24 
REMARK    9  A    between atoms: C21_24  and  C22_26 
ROOT
HETATM    1  C16 UNL     1      -1.866  51.351 -22.129  1.00  0.00     0.014 C 
ENDROOT
BRANCH   1   2
HETATM    2  C15 UNL     1      -2.253  50.383 -23.280  1.00  0.00     0.022 C 
HETATM    3  C2  UNL     1      -2.828  49.073 -22.764  1.00  0.00    -0.084 C 
HETATM    4  C1  UNL     1      -2.054  48.039 -22.391  1.00  0.00     0.014 C 
HETATM    5  C3  UNL     1      -4.316  48.941 -22.816  1.00  0.00     0.034 C 
HETATM    6  C4  UNL     1      -4.776  48.988 -24.269  1.00  0.00     0.011 C 
HETATM    7  C5  UNL     1      -4.081  50.049 -25.168  1.00  0.00     0.012 C 
HETATM    8  C6  UNL     1      -3.172  51.074 -24.380  1.00  0.00    -0.032 C 
HETATM    9  C11 UNL     1      -3.431  49.449 -26.469  1.00  0.00     0.049 C 
HETATM   10  C7  UNL     1      -4.140  52.128 -23.752  1.00  0.00     0.016 C 
HETATM   11  C8  UNL     1      -2.249  51.862 -25.363  1.00  0.00     0.010 C 
HETATM   12  C9  UNL     1      -2.828  51.952 -26.767  1.00  0.00     0.002 C 
HETATM   13  C10 UNL     1      -2.898  50.570 -27.412  1.00  0.00     0.020 C 
HETATM   14  C12 UNL     1      -2.270  48.482 -26.153  1.00  0.00     0.026 C 
BRANCH   9  15
HETATM   15  C13 UNL     1      -4.493  48.657 -27.263  1.00  0.00     0.267 C 
HETATM   16  O1  UNL     1      -5.383  47.979 -26.762  1.00  0.00    -0.264 OA
BRANCH  15  17
HETATM   17  O2  UNL     1      -4.308  48.797 -28.609  1.00  0.00    -0.326 OA
HETATM   18  C14 UNL     1      -5.303  48.153 -29.406  1.00  0.00     0.213 C 
ENDBRANCH  15  17
ENDBRANCH   9  15
ENDBRANCH   1   2
BRANCH   1  19
HETATM   19  C17 UNL     1      -0.432  51.181 -21.609  1.00  0.00     0.042 C 
BRANCH  19  20
HETATM   20  C18 UNL     1       0.279  52.492 -21.493  1.00  0.00    -0.024 A 
HETATM   21  C19 UNL     1       0.349  53.325 -20.387  1.00  0.00     0.083 A 
HETATM   22  O5  UNL     1       1.096  54.430 -20.676  1.00  0.00    -0.324 OA
HETATM   23  C28 UNL     1       1.500  54.314 -21.965  1.00  0.00     0.143 A 
HETATM   24  C29 UNL     1       1.030  53.145 -22.512  1.00  0.00     0.034 A 
BRANCH  21  25
HETATM   25  C20 UNL     1      -0.199  53.247 -19.009  1.00  0.00     0.244 C 
BRANCH  25  26
HETATM   26  O3  UNL     1       0.784  52.599 -18.191  1.00  0.00    -0.311 OA
BRANCH  26  27
HETATM   27  C21 UNL     1       0.366  51.503 -17.519  1.00  0.00     0.293 C 
HETATM   28  O4  UNL     1      -0.591  50.800 -17.803  1.00  0.00    -0.259 OA
BRANCH  27  29
HETATM   29  C22 UNL     1       1.252  51.246 -16.348  1.00  0.00     0.039 A 
HETATM   30  C23 UNL     1       0.933  50.178 -15.497  1.00  0.00     0.019 A 
HETATM   31  C24 UNL     1       1.733  49.895 -14.387  1.00  0.00     0.025 A 
HETATM   32  C25 UNL     1       2.856  50.680 -14.125  1.00  0.00     0.034 A 
HETATM   33 CL1  UNL     1       3.842  50.334 -12.759  1.00  0.00    -0.084 Cl
HETATM   34  C26 UNL     1       3.183  51.746 -14.962  1.00  0.00     0.025 A 
HETATM   35  C27 UNL     1       2.382  52.032 -16.073  1.00  0.00     0.019 A 
ENDBRANCH  27  29
ENDBRANCH  26  27
ENDBRANCH  25  26
ENDBRANCH  21  25
ENDBRANCH  19  20
ENDBRANCH   1  19
TORSDOF 9
ENDMDL
MODEL 2
REMARK minimizedAffinity -7.1896143
REMARK CNNscore 0.463069439
REMARK CNNaffinity 6.51988983
REMARK  9 active torsions:
REMARK  status: ('A' for Active; 'I' for Inactive)
REMARK    1  A    between atoms: C11_11  and  C13_13 
REMARK    2  A    between atoms: C13_13  and  O2_15 
REMARK    3  A    between atoms: C15_17  and  C16_18 
REMARK    4  A    between atoms: C16_18  and  C17_19 
REMARK    5  A    between atoms: C17_19  and  C18_20 
REMARK    6  A    between atoms: C19_21  and  C20_22 
REMARK    7  A    between atoms: C20_22  and  O3_23 
REMARK    8  A    between atoms: O3_23  and  C21_24 
REMARK    9  A    between atoms: C21_24  and  C22_26 
ROOT
HETATM    1  C16 UNL     1      -0.567  54.685  -8.734  1.00  0.00     0.014 C 
ENDROOT
BRANCH   1   2
HETATM    2  C15 UNL     1       0.797  55.357  -8.426  1.00  0.00     0.022 C 
HETATM    3  C2  UNL     1       0.906  55.805  -6.977  1.00  0.00    -0.084 C 
HETATM    4  C1  UNL     1       0.427  56.985  -6.545  1.00  0.00     0.014 C 
HETATM    5  C3  UNL     1       1.697  54.918  -6.070  1.00  0.00     0.034 C 
HETATM    6  C4  UNL     1       3.146  54.876  -6.543  1.00  0.00     0.011 C 
HETATM    7  C5  UNL     1       3.356  54.766  -8.080  1.00  0.00     0.012 C 
HETATM    8  C6  UNL     1       2.036  54.475  -8.897  1.00  0.00    -0.032 C 
HETATM    9  C11 UNL     1       4.273  55.897  -8.677  1.00  0.00     0.049 C 
HETATM   10  C7  UNL     1       1.753  52.946  -8.748  1.00  0.00     0.016 C 
HETATM   11  C8  UNL     1       2.263  54.729 -10.421  1.00  0.00     0.010 C 
HETATM   12  C9  UNL     1       3.720  54.568 -10.832  1.00  0.00     0.002 C 
HETATM   13  C10 UNL     1       4.587  55.643 -10.183  1.00  0.00     0.020 C 
HETATM   14  C12 UNL     1       3.641  57.299  -8.538  1.00  0.00     0.026 C 
BRANCH   9  15
HETATM   15  C13 UNL     1       5.625  55.919  -7.931  1.00  0.00     0.267 C 
HETATM   16  O1  UNL     1       6.474  55.038  -7.991  1.00  0.00    -0.264 OA
BRANCH  15  17
HETATM   17  O2  UNL     1       5.752  57.049  -7.175  1.00  0.00    -0.326 OA
HETATM   18  C14 UNL     1       6.307  56.826  -5.878  1.00  0.00     0.213 C 
ENDBRANCH  15  17
ENDBRANCH   9  15
ENDBRANCH   1   2
BRANCH   1  19
HETATM   19  C17 UNL     1      -1.251  55.188 -10.013  1.00  0.00     0.042 C 
BRANCH  19  20
HETATM   20  C18 UNL     1      -2.110  54.134 -10.638  1.00  0.00    -0.024 A 
HETATM   21  C19 UNL     1      -1.703  53.038 -11.383  1.00  0.00     0.083 A 
HETATM   22  O5  UNL     1      -2.786  52.307 -11.776  1.00  0.00    -0.324 OA
HETATM   23  C28 UNL     1      -3.888  52.933 -11.294  1.00  0.00     0.143 A 
HETATM   24  C29 UNL     1      -3.531  54.056 -10.588  1.00  0.00     0.034 A 
BRANCH  21  25
HETATM   25  C20 UNL     1      -0.376  52.524 -11.807  1.00  0.00     0.244 C 
BRANCH  25  26
HETATM   26  O3  UNL     1      -0.380  52.450 -13.239  1.00  0.00    -0.311 OA
BRANCH  26  27
HETATM   27  C21 UNL     1       0.122  51.315 -13.775  1.00  0.00     0.293 C 
HETATM   28  O4  UNL     1       0.500  50.329 -13.161  1.00  0.00    -0.259 OA
BRANCH  27  29
HETATM   29  C22 UNL     1       0.155  51.416 -15.261  1.00  0.00     0.039 A 
HETATM   30  C23 UNL     1      -0.797  50.694 -15.996  1.00  0.00     0.019 A 
HETATM   31  C24 UNL     1      -0.809  50.757 -17.392  1.00  0.00     0.025 A 
HETATM   32  C25 UNL     1       0.131  51.545 -18.058  1.00  0.00     0.034 A 
HETATM   33 CL1  UNL     1       0.117  51.624 -19.776  1.00  0.00    -0.084 Cl
HETATM   34  C26 UNL     1       1.083  52.266 -17.339  1.00  0.00     0.025 A 
HETATM   35  C27 UNL     1       1.098  52.203 -15.942  1.00  0.00     0.019 A 
ENDBRANCH  27  29
ENDBRANCH  26  27
ENDBRANCH  25  26
ENDBRANCH  21  25
ENDBRANCH  19  20
ENDBRANCH   1  19
TORSDOF 9
ENDMDL
MODEL 3
REMARK minimizedAffinity -7.59041452
REMARK CNNscore 0.437317044
REMARK CNNaffinity 6.76313019
REMARK  9 active torsions:
REMARK  status: ('A' for Active; 'I' for Inactive)
REMARK    1  A    between atoms: C11_11  and  C13_13 
REMARK    2  A    between atoms: C13_13  and  O2_15 
REMARK    3  A    between atoms: C15_17  and  C16_18 
REMARK    4  A    between atoms: C16_18  and  C17_19 
REMARK    5  A    between atoms: C17_19  and  C18_20 
REMARK    6  A    between atoms: C19_21  and  C20_22 
REMARK    7  A    between atoms: C20_22  and  O3_23 
REMARK    8  A    between atoms: O3_23  and  C21_24 
REMARK    9  A    between atoms: C21_24  and  C22_26 
ROOT
HETATM    1  C16 UNL     1      -1.212  50.390 -20.792  1.00  0.00     0.014 C 
ENDROOT
BRANCH   1   2
HETATM    2  C15 UNL     1      -2.596  50.221 -21.471  1.00  0.00     0.022 C 
HETATM    3  C2  UNL     1      -2.648  50.868 -22.847  1.00  0.00    -0.084 C 
HETATM    4  C1  UNL     1      -2.917  52.174 -23.024  1.00  0.00     0.014 C 
HETATM    5  C3  UNL     1      -2.513  49.946 -24.015  1.00  0.00     0.034 C 
HETATM    6  C4  UNL     1      -3.689  48.976 -24.030  1.00  0.00     0.011 C 
HETATM    7  C5  UNL     1      -4.107  48.392 -22.651  1.00  0.00     0.012 C 
HETATM    8  C6  UNL     1      -3.097  48.710 -21.478  1.00  0.00    -0.032 C 
HETATM    9  C11 UNL     1      -5.625  48.615 -22.301  1.00  0.00     0.049 C 
HETATM   10  C7  UNL     1      -1.911  47.704 -21.633  1.00  0.00     0.016 C 
HETATM   11  C8  UNL     1      -3.748  48.406 -20.092  1.00  0.00     0.010 C 
HETATM   12  C9  UNL     1      -4.844  47.353 -20.176  1.00  0.00     0.002 C 
HETATM   13  C10 UNL     1      -6.026  47.868 -20.994  1.00  0.00     0.020 C 
HETATM   14  C12 UNL     1      -5.975  50.110 -22.138  1.00  0.00     0.026 C 
BRANCH   9  15
HETATM   15  C13 UNL     1      -6.508  48.050 -23.435  1.00  0.00     0.267 C 
HETATM   16  O1  UNL     1      -6.646  46.860 -23.691  1.00  0.00    -0.264 OA
BRANCH  15  17
HETATM   17  O2  UNL     1      -7.114  49.055 -24.134  1.00  0.00    -0.326 OA
HETATM   18  C14 UNL     1      -8.337  48.673 -24.765  1.00  0.00     0.213 C 
ENDBRANCH  15  17
ENDBRANCH   9  15
ENDBRANCH   1   2
BRANCH   1  19
HETATM   19  C17 UNL     1      -0.097  50.875 -21.729  1.00  0.00     0.042 C 
BRANCH  19  20
HETATM   20  C18 UNL     1       0.383  52.244 -21.365  1.00  0.00    -0.024 A 
HETATM   21  C19 UNL     1       0.207  52.914 -20.163  1.00  0.00     0.083 A 
HETATM   22  O5  UNL     1       0.797  54.143 -20.218  1.00  0.00    -0.324 OA
HETATM   23  C28 UNL     1       1.343  54.270 -21.452  1.00  0.00     0.143 A 
HETATM   24  C29 UNL     1       1.121  53.136 -22.194  1.00  0.00     0.034 A 
BRANCH  21  25
HETATM   25  C20 UNL     1      -0.459  52.563 -18.882  1.00  0.00     0.244 C 
BRANCH  25  26
HETATM   26  O3  UNL     1       0.568  52.382 -17.898  1.00  0.00    -0.311 OA
BRANCH  26  27
HETATM   27  C21 UNL     1       0.588  51.182 -17.277  1.00  0.00     0.293 C 
HETATM   28  O4  UNL     1       0.128  50.136 -17.706  1.00  0.00    -0.259 OA
BRANCH  27  29
HETATM   29  C22 UNL     1       1.268  51.297 -15.956  1.00  0.00     0.039 A 
HETATM   30  C23 UNL     1       0.576  50.863 -14.815  1.00  0.00     0.019 A 
HETATM   31  C24 UNL     1       1.172  50.948 -13.553  1.00  0.00     0.025 A 
HETATM   32  C25 UNL     1       2.461  51.466 -13.429  1.00  0.00     0.034 A 
HETATM   33 CL1  UNL     1       3.195  51.570 -11.876  1.00  0.00    -0.084 Cl
HETATM   34  C26 UNL     1       3.158  51.902 -14.555  1.00  0.00     0.025 A 
HETATM   35  C27 UNL     1       2.564  51.819 -15.818  1.00  0.00     0.019 A 
ENDBRANCH  27  29
ENDBRANCH  26  27
ENDBRANCH  25  26
ENDBRANCH  21  25
ENDBRANCH  19  20
ENDBRANCH   1  19
TORSDOF 9
ENDMDL
MODEL 4
REMARK minimizedAffinity -7.72083473
REMARK CNNscore 0.422225565
REMARK CNNaffinity 6.85235739
REMARK  9 active torsions:
REMARK  status: ('A' for Active; 'I' for Inactive)
REMARK    1  A    between atoms: C11_11  and  C13_13 
REMARK    2  A    between atoms: C13_13  and  O2_15 
REMARK    3  A    between atoms: C15_17  and  C16_18 
REMARK    4  A    between atoms: C16_18  and  C17_19 
REMARK    5  A    between atoms: C17_19  and  C18_20 
REMARK    6  A    between atoms: C19_21  and  C20_22 
REMARK    7  A    between atoms: C20_22  and  O3_23 
REMARK    8  A    between atoms: O3_23  and  C21_24 
REMARK    9  A    between atoms: C21_24  and  C22_26 
ROOT
HETATM    1  C16 UNL     1      -1.099  50.150 -20.513  1.00  0.00     0.014 C 
ENDROOT
BRANCH   1   2
HETATM    2  C15 UNL     1      -2.189  49.635 -21.489  1.00  0.00     0.022 C 
HETATM    3  C2  UNL     1      -2.538  48.175 -21.247  1.00  0.00    -0.084 C 
HETATM    4  C1  UNL     1      -1.832  47.163 -21.781  1.00  0.00     0.014 C 
HETATM    5  C3  UNL     1      -3.797  47.915 -20.485  1.00  0.00     0.034 C 
HETATM    6  C4  UNL     1      -4.986  48.441 -21.281  1.00  0.00     0.011 C 
HETATM    7  C5  UNL     1      -4.789  49.823 -21.965  1.00  0.00     0.012 C 
HETATM    8  C6  UNL     1      -3.470  50.579 -21.533  1.00  0.00    -0.032 C 
HETATM    9  C11 UNL     1      -5.072  49.811 -23.513  1.00  0.00     0.049 C 
HETATM   10  C7  UNL     1      -3.767  51.223 -20.141  1.00  0.00     0.016 C 
HETATM   11  C8  UNL     1      -3.170  51.764 -22.505  1.00  0.00     0.010 C 
HETATM   12  C9  UNL     1      -4.423  52.299 -23.184  1.00  0.00     0.002 C 
HETATM   13  C10 UNL     1      -5.024  51.249 -24.114  1.00  0.00     0.020 C 
HETATM   14  C12 UNL     1      -4.073  48.923 -24.285  1.00  0.00     0.026 C 
BRANCH   9  15
HETATM   15  C13 UNL     1      -6.490  49.257 -23.777  1.00  0.00     0.267 C 
HETATM   16  O1  UNL     1      -7.521  49.708 -23.294  1.00  0.00    -0.264 OA
BRANCH  15  17
HETATM   17  O2  UNL     1      -6.449  48.181 -24.616  1.00  0.00    -0.326 OA
HETATM   18  C14 UNL     1      -7.652  47.971 -25.357  1.00  0.00     0.213 C 
ENDBRANCH  15  17
ENDBRANCH   9  15
ENDBRANCH   1   2
BRANCH   1  19
HETATM   19  C17 UNL     1       0.204  50.596 -21.190  1.00  0.00     0.042 C 
BRANCH  19  20
HETATM   20  C18 UNL     1       0.471  52.053 -20.983  1.00  0.00    -0.024 A 
HETATM   21  C19 UNL     1       0.207  52.813 -19.854  1.00  0.00     0.083 A 
HETATM   22  O5  UNL     1       0.600  54.105 -20.052  1.00  0.00    -0.324 OA
HETATM   23  C28 UNL     1       1.108  54.180 -21.307  1.00  0.00     0.143 A 
HETATM   24  C29 UNL     1       1.055  52.953 -21.921  1.00  0.00     0.034 A 
BRANCH  21  25
HETATM   25  C20 UNL     1      -0.384  52.504 -18.527  1.00  0.00     0.244 C 
BRANCH  25  26
HETATM   26  O3  UNL     1       0.699  52.268 -17.617  1.00  0.00    -0.311 OA
BRANCH  26  27
HETATM   27  C21 UNL     1       0.703  51.065 -17.001  1.00  0.00     0.293 C 
HETATM   28  O4  UNL     1       0.231  50.026 -17.437  1.00  0.00    -0.259 OA
BRANCH  27  29
HETATM   29  C22 UNL     1       1.380  51.165 -15.678  1.00  0.00     0.039 A 
HETATM   30  C23 UNL     1       0.742  50.602 -14.562  1.00  0.00     0.019 A 
HETATM   31  C24 UNL     1       1.337  50.668 -13.299  1.00  0.00     0.025 A 
HETATM   32  C25 UNL     1       2.573  51.297 -13.148  1.00  0.00     0.034 A 
HETATM   33 CL1  UNL     1       3.307  51.379 -11.595  1.00  0.00    -0.084 Cl
HETATM   34  C26 UNL     1       3.216  51.862 -14.248  1.00  0.00     0.025 A 
HETATM   35  C27 UNL     1       2.622  51.798 -15.513  1.00  0.00     0.019 A 
ENDBRANCH  27  29
ENDBRANCH  26  27
ENDBRANCH  25  26
ENDBRANCH  21  25
ENDBRANCH  19  20
ENDBRANCH   1  19
TORSDOF 9
ENDMDL
MODEL 5
REMARK minimizedAffinity -7.75967884
REMARK CNNscore 0.31379807
REMARK CNNaffinity 6.86527491
REMARK  9 active torsions:
REMARK  status: ('A' for Active; 'I' for Inactive)
REMARK    1  A    between atoms: C11_11  and  C13_13 
REMARK    2  A    between atoms: C13_13  and  O2_15 
REMARK    3  A    between atoms: C15_17  and  C16_18 
REMARK    4  A    between atoms: C16_18  and  C17_19 
REMARK    5  A    between atoms: C17_19  and  C18_20 
REMARK    6  A    between atoms: C19_21  and  C20_22 
REMARK    7  A    between atoms: C20_22  and  O3_23 
REMARK    8  A    between atoms: O3_23  and  C21_24 
REMARK    9  A    between atoms: C21_24  and  C22_26 
ROOT
HETATM    1  C16 UNL     1      -2.241  51.336 -21.405  1.00  0.00     0.014 C 
ENDROOT
BRANCH   1   2
HETATM    2  C15 UNL     1      -2.879  49.991 -20.965  1.00  0.00     0.022 C 
HETATM    3  C2  UNL     1      -2.683  48.893 -21.999  1.00  0.00    -0.084 C 
HETATM    4  C1  UNL     1      -3.503  48.735 -23.053  1.00  0.00     0.014 C 
HETATM    5  C3  UNL     1      -1.599  47.905 -21.714  1.00  0.00     0.034 C 
HETATM    6  C4  UNL     1      -1.935  47.141 -20.439  1.00  0.00     0.011 C 
HETATM    7  C5  UNL     1      -2.510  47.989 -19.270  1.00  0.00     0.012 C 
HETATM    8  C6  UNL     1      -2.435  49.550 -19.502  1.00  0.00    -0.032 C 
HETATM    9  C11 UNL     1      -3.889  47.464 -18.723  1.00  0.00     0.049 C 
HETATM   10  C7  UNL     1      -0.963  49.972 -19.187  1.00  0.00     0.016 C 
HETATM   11  C8  UNL     1      -3.334  50.305 -18.471  1.00  0.00     0.010 C 
HETATM   12  C9  UNL     1      -3.538  49.519 -17.184  1.00  0.00     0.002 C 
HETATM   13  C10 UNL     1      -4.334  48.244 -17.449  1.00  0.00     0.020 C 
HETATM   14  C12 UNL     1      -5.013  47.561 -19.776  1.00  0.00     0.026 C 
BRANCH   9  15
HETATM   15  C13 UNL     1      -3.756  45.979 -18.319  1.00  0.00     0.267 C 
HETATM   16  O1  UNL     1      -2.962  45.544 -17.494  1.00  0.00    -0.264 OA
BRANCH  15  17
HETATM   17  O2  UNL     1      -4.634  45.199 -19.016  1.00  0.00    -0.326 OA
HETATM   18  C14 UNL     1      -4.176  43.865 -19.245  1.00  0.00     0.213 C 
ENDBRANCH  15  17
ENDBRANCH   9  15
ENDBRANCH   1   2
BRANCH   1  19
HETATM   19  C17 UNL     1      -0.827  51.210 -21.988  1.00  0.00     0.042 C 
BRANCH  19  20
HETATM   20  C18 UNL     1       0.026  52.390 -21.646  1.00  0.00    -0.024 A 
HETATM   21  C19 UNL     1       0.799  53.156 -22.504  1.00  0.00     0.083 A 
HETATM   22  O5  UNL     1       1.428  54.150 -21.812  1.00  0.00    -0.324 OA
HETATM   23  C28 UNL     1       1.069  54.020 -20.511  1.00  0.00     0.143 A 
HETATM   24  C29 UNL     1       0.209  52.960 -20.354  1.00  0.00     0.034 A 
BRANCH  21  25
HETATM   25  C20 UNL     1       1.056  53.113 -23.967  1.00  0.00     0.244 C 
BRANCH  25  26
HETATM   26  O3  UNL     1       0.210  54.095 -24.581  1.00  0.00    -0.311 OA
BRANCH  26  27
HETATM   27  C21 UNL     1      -0.114  53.870 -25.874  1.00  0.00     0.293 C 
HETATM   28  O4  UNL     1       0.128  54.604 -26.820  1.00  0.00    -0.259 OA
BRANCH  27  29
HETATM   29  C22 UNL     1      -0.828  52.569 -26.009  1.00  0.00     0.039 A 
HETATM   30  C23 UNL     1      -0.179  51.523 -26.681  1.00  0.00     0.019 A 
HETATM   31  C24 UNL     1      -0.805  50.283 -26.832  1.00  0.00     0.025 A 
HETATM   32  C25 UNL     1      -2.083  50.085 -26.309  1.00  0.00     0.034 A 
HETATM   33 CL1  UNL     1      -2.856  48.559 -26.494  1.00  0.00    -0.084 Cl
HETATM   34  C26 UNL     1      -2.740  51.117 -25.640  1.00  0.00     0.025 A 
HETATM   35  C27 UNL     1      -2.115  52.359 -25.490  1.00  0.00     0.019 A 
ENDBRANCH  27  29
ENDBRANCH  26  27
ENDBRANCH  25  26
ENDBRANCH  21  25
ENDBRANCH  19  20
ENDBRANCH   1  19
TORSDOF 9
ENDMDL
MODEL 6
REMARK minimizedAffinity -8.48483467
REMARK CNNscore 0.306857288
REMARK CNNaffinity 6.73389196
REMARK  9 active torsions:
REMARK  status: ('A' for Active; 'I' for Inactive)
REMARK    1  A    between atoms: C11_11  and  C13_13 
REMARK    2  A    between atoms: C13_13  and  O2_15 
REMARK    3  A    between atoms: C15_17  and  C16_18 
REMARK    4  A    between atoms: C16_18  and  C17_19 
REMARK    5  A    between atoms: C17_19  and  C18_20 
REMARK    6  A    between atoms: C19_21  and  C20_22 
REMARK    7  A    between atoms: C20_22  and  O3_23 
REMARK    8  A    between atoms: O3_23  and  C21_24 
REMARK    9  A    between atoms: C21_24  and  C22_26 
ROOT
HETATM    1  C16 UNL     1      -4.184  48.896 -24.298  1.00  0.00     0.014 C 
ENDROOT
BRANCH   1   2
HETATM    2  C15 UNL     1      -3.781  49.618 -22.985  1.00  0.00     0.022 C 
HETATM    3  C2  UNL     1      -4.762  50.717 -22.605  1.00  0.00    -0.084 C 
HETATM    4  C1  UNL     1      -4.685  51.962 -23.107  1.00  0.00     0.014 C 
HETATM    5  C3  UNL     1      -5.749  50.379 -21.536  1.00  0.00     0.034 C 
HETATM    6  C4  UNL     1      -5.006  50.096 -20.235  1.00  0.00     0.011 C 
HETATM    7  C5  UNL     1      -3.711  49.246 -20.363  1.00  0.00     0.012 C 
HETATM    8  C6  UNL     1      -3.492  48.606 -21.791  1.00  0.00    -0.032 C 
HETATM    9  C11 UNL     1      -2.438  49.931 -19.739  1.00  0.00     0.049 C 
HETATM   10  C7  UNL     1      -4.416  47.348 -21.856  1.00  0.00     0.016 C 
HETATM   11  C8  UNL     1      -2.029  48.080 -21.941  1.00  0.00     0.010 C 
HETATM   12  C9  UNL     1      -1.393  47.723 -20.606  1.00  0.00     0.002 C 
HETATM   13  C10 UNL     1      -1.211  48.970 -19.744  1.00  0.00     0.020 C 
HETATM   14  C12 UNL     1      -2.048  51.228 -20.480  1.00  0.00     0.026 C 
BRANCH   9  15
HETATM   15  C13 UNL     1      -2.717  50.301 -18.266  1.00  0.00     0.267 C 
HETATM   16  O1  UNL     1      -3.119  51.393 -17.880  1.00  0.00    -0.264 OA
BRANCH  15  17
HETATM   17  O2  UNL     1      -2.445  49.253 -17.434  1.00  0.00    -0.326 OA
HETATM   18  C14 UNL     1      -3.588  48.470 -17.088  1.00  0.00     0.213 C 
ENDBRANCH  15  17
ENDBRANCH   9  15
ENDBRANCH   1   2
BRANCH   1  19
HETATM   19  C17 UNL     1      -3.096  48.887 -25.380  1.00  0.00     0.042 C 
BRANCH  19  20
HETATM   20  C18 UNL     1      -3.678  48.906 -26.758  1.00  0.00    -0.024 A 
HETATM   21  C19 UNL     1      -3.444  49.828 -27.767  1.00  0.00     0.083 A 
HETATM   22  O5  UNL     1      -4.159  49.499 -28.882  1.00  0.00    -0.324 OA
HETATM   23  C28 UNL     1      -4.858  48.374 -28.591  1.00  0.00     0.143 A 
HETATM   24  C29 UNL     1      -4.600  47.967 -27.305  1.00  0.00     0.034 A 
BRANCH  21  25
HETATM   25  C20 UNL     1      -2.595  51.043 -27.867  1.00  0.00     0.244 C 
BRANCH  25  26
HETATM   26  O3  UNL     1      -2.008  51.266 -26.579  1.00  0.00    -0.311 OA
BRANCH  26  27
HETATM   27  C21 UNL     1      -0.660  51.359 -26.550  1.00  0.00     0.293 C 
HETATM   28  O4  UNL     1       0.110  50.992 -27.424  1.00  0.00    -0.259 OA
BRANCH  27  29
HETATM   29  C22 UNL     1      -0.213  51.989 -25.276  1.00  0.00     0.039 A 
HETATM   30  C23 UNL     1      -0.205  51.202 -24.115  1.00  0.00     0.019 A 
HETATM   31  C24 UNL     1       0.207  51.746 -22.895  1.00  0.00     0.025 A 
HETATM   32  C25 UNL     1       0.615  53.078 -22.833  1.00  0.00     0.034 A 
HETATM   33 CL1  UNL     1       1.124  53.749 -21.333  1.00  0.00    -0.084 Cl
HETATM   34  C26 UNL     1       0.610  53.872 -23.980  1.00  0.00     0.025 A 
HETATM   35  C27 UNL     1       0.196  53.329 -25.201  1.00  0.00     0.019 A 
ENDBRANCH  27  29
ENDBRANCH  26  27
ENDBRANCH  25  26
ENDBRANCH  21  25
ENDBRANCH  19  20
ENDBRANCH   1  19
TORSDOF 9
ENDMDL
MODEL 7
REMARK minimizedAffinity -7.53623247
REMARK CNNscore 0.273018777
REMARK CNNaffinity 6.11869097
REMARK  9 active torsions:
REMARK  status: ('A' for Active; 'I' for Inactive)
REMARK    1  A    between atoms: C11_11  and  C13_13 
REMARK    2  A    between atoms: C13_13  and  O2_15 
REMARK    3  A    between atoms: C15_17  and  C16_18 
REMARK    4  A    between atoms: C16_18  and  C17_19 
REMARK    5  A    between atoms: C17_19  and  C18_20 
REMARK    6  A    between atoms: C19_21  and  C20_22 
REMARK    7  A    between atoms: C20_22  and  O3_23 
REMARK    8  A    between atoms: O3_23  and  C21_24 
REMARK    9  A    between atoms: C21_24  and  C22_26 
ROOT
HETATM    1  C16 UNL     1      -1.782  51.058 -12.663  1.00  0.00     0.014 C 
ENDROOT
BRANCH   1   2
HETATM    2  C15 UNL     1      -1.731  52.240 -11.658  1.00  0.00     0.022 C 
HETATM    3  C2  UNL     1      -2.973  52.308 -10.783  1.00  0.00    -0.084 C 
HETATM    4  C1  UNL     1      -4.104  52.921 -11.175  1.00  0.00     0.014 C 
HETATM    5  C3  UNL     1      -2.832  51.769  -9.396  1.00  0.00     0.034 C 
HETATM    6  C4  UNL     1      -1.808  52.601  -8.632  1.00  0.00     0.011 C 
HETATM    7  C5  UNL     1      -0.529  52.997  -9.422  1.00  0.00     0.012 C 
HETATM    8  C6  UNL     1      -0.379  52.275 -10.820  1.00  0.00    -0.032 C 
HETATM    9  C11 UNL     1      -0.248  54.545  -9.440  1.00  0.00     0.049 C 
HETATM   10  C7  UNL     1       0.158  50.838 -10.518  1.00  0.00     0.016 C 
HETATM   11  C8  UNL     1       0.715  52.975 -11.688  1.00  0.00     0.010 C 
HETATM   12  C9  UNL     1       1.757  53.698 -10.847  1.00  0.00     0.002 C 
HETATM   13  C10 UNL     1       1.128  54.869 -10.096  1.00  0.00     0.020 C 
HETATM   14  C12 UNL     1      -1.346  55.332 -10.188  1.00  0.00     0.026 C 
BRANCH   9  15
HETATM   15  C13 UNL     1      -0.196  55.080  -7.992  1.00  0.00     0.267 C 
HETATM   16  O1  UNL     1       0.141  54.424  -7.013  1.00  0.00    -0.264 OA
BRANCH  15  17
HETATM   17  O2  UNL     1      -0.589  56.386  -7.935  1.00  0.00    -0.326 OA
HETATM   18  C14 UNL     1       0.287  57.228  -7.184  1.00  0.00     0.213 C 
ENDBRANCH  15  17
ENDBRANCH   9  15
ENDBRANCH   1   2
BRANCH   1  19
HETATM   19  C17 UNL     1      -1.434  51.435 -14.109  1.00  0.00     0.042 C 
BRANCH  19  20
HETATM   20  C18 UNL     1      -0.657  50.358 -14.796  1.00  0.00    -0.024 A 
HETATM   21  C19 UNL     1       0.044  50.445 -15.989  1.00  0.00     0.083 A 
HETATM   22  O5  UNL     1       0.627  49.246 -16.282  1.00  0.00    -0.324 OA
HETATM   23  C28 UNL     1       0.297  48.387 -15.287  1.00  0.00     0.143 A 
HETATM   24  C29 UNL     1      -0.486  49.016 -14.349  1.00  0.00     0.034 A 
BRANCH  21  25
HETATM   25  C20 UNL     1       0.281  51.543 -16.960  1.00  0.00     0.244 C 
BRANCH  25  26
HETATM   26  O3  UNL     1      -0.042  51.043 -18.264  1.00  0.00    -0.311 OA
BRANCH  26  27
HETATM   27  C21 UNL     1      -1.009  51.711 -18.931  1.00  0.00     0.293 C 
HETATM   28  O4  UNL     1      -2.121  51.990 -18.510  1.00  0.00    -0.259 OA
BRANCH  27  29
HETATM   29  C22 UNL     1      -0.534  52.083 -20.294  1.00  0.00     0.039 A 
HETATM   30  C23 UNL     1      -1.231  51.574 -21.400  1.00  0.00     0.019 A 
HETATM   31  C24 UNL     1      -0.825  51.894 -22.699  1.00  0.00     0.025 A 
HETATM   32  C25 UNL     1       0.278  52.726 -22.895  1.00  0.00     0.034 A 
HETATM   33 CL1  UNL     1       0.777  53.121 -24.493  1.00  0.00    -0.084 Cl
HETATM   34  C26 UNL     1       0.980  53.236 -21.804  1.00  0.00     0.025 A 
HETATM   35  C27 UNL     1       0.576  52.916 -20.503  1.00  0.00     0.019 A 
ENDBRANCH  27  29
ENDBRANCH  26  27
ENDBRANCH  25  26
ENDBRANCH  21  25
ENDBRANCH  19  20
ENDBRANCH   1  19
TORSDOF 9
ENDMDL
MODEL 8
REMARK minimizedAffinity -8.15790081
REMARK CNNscore 0.249962941
REMARK CNNaffinity 6.47219229
REMARK  9 active torsions:
REMARK  status: ('A' for Active; 'I' for Inactive)
REMARK    1  A    between atoms: C11_11  and  C13_13 
REMARK    2  A    between atoms: C13_13  and  O2_15 
REMARK    3  A    between atoms: C15_17  and  C16_18 
REMARK    4  A    between atoms: C16_18  and  C17_19 
REMARK    5  A    between atoms: C17_19  and  C18_20 
REMARK    6  A    between atoms: C19_21  and  C20_22 
REMARK    7  A    between atoms: C20_22  and  O3_23 
REMARK    8  A    between atoms: O3_23  and  C21_24 
REMARK    9  A    between atoms: C21_24  and  C22_26 
ROOT
HETATM    1  C16 UNL     1      -4.216  48.386 -22.370  1.00  0.00     0.014 C 
ENDROOT
BRANCH   1   2
HETATM    2  C15 UNL     1      -3.626  49.030 -21.087  1.00  0.00     0.022 C 
HETATM    3  C2  UNL     1      -4.318  48.540 -19.824  1.00  0.00    -0.084 C 
HETATM    4  C1  UNL     1      -5.457  49.086 -19.363  1.00  0.00     0.014 C 
HETATM    5  C3  UNL     1      -3.593  47.496 -19.038  1.00  0.00     0.034 C 
HETATM    6  C4  UNL     1      -2.278  48.072 -18.527  1.00  0.00     0.011 C 
HETATM    7  C5  UNL     1      -1.481  48.947 -19.535  1.00  0.00     0.012 C 
HETATM    8  C6  UNL     1      -2.041  48.909 -21.012  1.00  0.00    -0.032 C 
HETATM    9  C11 UNL     1      -1.132  50.382 -18.992  1.00  0.00     0.049 C 
HETATM   10  C7  UNL     1      -1.528  47.576 -21.644  1.00  0.00     0.016 C 
HETATM   11  C8  UNL     1      -1.423  50.062 -21.866  1.00  0.00     0.010 C 
HETATM   12  C9  UNL     1      -0.064  50.511 -21.350  1.00  0.00     0.002 C 
HETATM   13  C10 UNL     1      -0.194  51.151 -19.970  1.00  0.00     0.020 C 
HETATM   14  C12 UNL     1      -2.394  51.239 -18.748  1.00  0.00     0.026 C 
BRANCH   9  15
HETATM   15  C13 UNL     1      -0.383  50.261 -17.647  1.00  0.00     0.267 C 
HETATM   16  O1  UNL     1       0.010  49.211 -17.155  1.00  0.00    -0.264 OA
BRANCH  15  17
HETATM   17  O2  UNL     1      -0.222  51.484 -17.061  1.00  0.00    -0.326 OA
HETATM   18  C14 UNL     1       1.064  51.686 -16.474  1.00  0.00     0.213 C 
ENDBRANCH  15  17
ENDBRANCH   9  15
ENDBRANCH   1   2
BRANCH   1  19
HETATM   19  C17 UNL     1      -5.132  49.310 -23.184  1.00  0.00     0.042 C 
BRANCH  19  20
HETATM   20  C18 UNL     1      -5.652  48.638 -24.415  1.00  0.00    -0.024 A 
HETATM   21  C19 UNL     1      -4.976  48.399 -25.602  1.00  0.00     0.083 A 
HETATM   22  O5  UNL     1      -5.792  47.756 -26.488  1.00  0.00    -0.324 OA
HETATM   23  C28 UNL     1      -6.991  47.588 -25.878  1.00  0.00     0.143 A 
HETATM   24  C29 UNL     1      -6.960  48.108 -24.606  1.00  0.00     0.034 A 
BRANCH  21  25
HETATM   25  C20 UNL     1      -3.596  48.685 -26.071  1.00  0.00     0.244 C 
BRANCH  25  26
HETATM   26  O3  UNL     1      -3.635  49.916 -26.803  1.00  0.00    -0.311 OA
BRANCH  26  27
HETATM   27  C21 UNL     1      -3.171  51.007 -26.153  1.00  0.00     0.293 C 
HETATM   28  O4  UNL     1      -3.824  51.766 -25.454  1.00  0.00    -0.259 OA
BRANCH  27  29
HETATM   29  C22 UNL     1      -1.712  51.173 -26.402  1.00  0.00     0.039 A 
HETATM   30  C23 UNL     1      -0.839  51.094 -25.306  1.00  0.00     0.019 A 
HETATM   31  C24 UNL     1       0.539  51.241 -25.487  1.00  0.00     0.025 A 
HETATM   32  C25 UNL     1       1.049  51.468 -26.766  1.00  0.00     0.034 A 
HETATM   33 CL1  UNL     1       2.744  51.649 -26.991  1.00  0.00    -0.084 Cl
HETATM   34  C26 UNL     1       0.192  51.551 -27.863  1.00  0.00     0.025 A 
HETATM   35  C27 UNL     1      -1.187  51.405 -27.683  1.00  0.00     0.019 A 
ENDBRANCH  27  29
ENDBRANCH  26  27
ENDBRANCH  25  26
ENDBRANCH  21  25
ENDBRANCH  19  20
ENDBRANCH   1  19
TORSDOF 9
ENDMDL
MODEL 9
REMARK minimizedAffinity -8.60361385
REMARK CNNscore 0.246662289
REMARK CNNaffinity 6.45434189
REMARK  9 active torsions:
REMARK  status: ('A' for Active; 'I' for Inactive)
REMARK    1  A    between atoms: C11_11  and  C13_13 
REMARK    2  A    between atoms: C13_13  and  O2_15 
REMARK    3  A    between atoms: C15_17  and  C16_18 
REMARK    4  A    between atoms: C16_18  and  C17_19 
REMARK    5  A    between atoms: C17_19  and  C18_20 
REMARK    6  A    between atoms: C19_21  and  C20_22 
REMARK    7  A    between atoms: C20_22  and  O3_23 
REMARK    8  A    between atoms: O3_23  and  C21_24 
REMARK    9  A    between atoms: C21_24  and  C22_26 
ROOT
HETATM    1  C16 UNL     1      -2.292  49.793 -24.690  1.00  0.00     0.014 C 
ENDROOT
BRANCH   1   2
HETATM    2  C15 UNL     1      -3.122  49.033 -23.622  1.00  0.00     0.022 C 
HETATM    3  C2  UNL     1      -2.590  49.250 -22.214  1.00  0.00    -0.084 C 
HETATM    4  C1  UNL     1      -1.586  48.519 -21.698  1.00  0.00     0.014 C 
HETATM    5  C3  UNL     1      -3.332  50.238 -21.373  1.00  0.00     0.034 C 
HETATM    6  C4  UNL     1      -4.754  49.740 -21.146  1.00  0.00     0.011 C 
HETATM    7  C5  UNL     1      -5.462  49.118 -22.383  1.00  0.00     0.012 C 
HETATM    8  C6  UNL     1      -4.684  49.314 -23.744  1.00  0.00    -0.032 C 
HETATM    9  C11 UNL     1      -6.012  47.664 -22.135  1.00  0.00     0.049 C 
HETATM   10  C7  UNL     1      -4.978  50.776 -24.213  1.00  0.00     0.016 C 
HETATM   11  C8  UNL     1      -5.263  48.377 -24.851  1.00  0.00     0.010 C 
HETATM   12  C9  UNL     1      -6.719  48.008 -24.605  1.00  0.00     0.002 C 
HETATM   13  C10 UNL     1      -6.855  47.158 -23.344  1.00  0.00     0.020 C 
HETATM   14  C12 UNL     1      -4.882  46.648 -21.865  1.00  0.00     0.026 C 
BRANCH   9  15
HETATM   15  C13 UNL     1      -6.943  47.664 -20.903  1.00  0.00     0.267 C 
HETATM   16  O1  UNL     1      -6.693  47.120 -19.834  1.00  0.00    -0.264 OA
BRANCH  15  17
HETATM   17  O2  UNL     1      -8.100  48.342 -21.159  1.00  0.00    -0.326 OA
HETATM   18  C14 UNL     1      -9.136  48.114 -20.203  1.00  0.00     0.213 C 
ENDBRANCH  15  17
ENDBRANCH   9  15
ENDBRANCH   1   2
BRANCH   1  19
HETATM   19  C17 UNL     1      -1.334  50.849 -24.120  1.00  0.00     0.042 C 
BRANCH  19  20
HETATM   20  C18 UNL     1      -0.383  51.358 -25.156  1.00  0.00    -0.024 A 
HETATM   21  C19 UNL     1       0.450  52.464 -25.074  1.00  0.00     0.083 A 
HETATM   22  O5  UNL     1       1.170  52.597 -26.226  1.00  0.00    -0.324 OA
HETATM   23  C28 UNL     1       0.797  51.588 -27.050  1.00  0.00     0.143 A 
HETATM   24  C29 UNL     1      -0.150  50.798 -26.445  1.00  0.00     0.034 A 
BRANCH  21  25
HETATM   25  C20 UNL     1       0.706  53.477 -24.019  1.00  0.00     0.244 C 
BRANCH  25  26
HETATM   26  O3  UNL     1       0.878  52.777 -22.781  1.00  0.00    -0.311 OA
BRANCH  26  27
HETATM   27  C21 UNL     1       1.139  53.543 -21.698  1.00  0.00     0.293 C 
HETATM   28  O4  UNL     1       1.606  54.671 -21.704  1.00  0.00    -0.259 OA
BRANCH  27  29
HETATM   29  C22 UNL     1       0.770  52.816 -20.451  1.00  0.00     0.039 A 
HETATM   30  C23 UNL     1       1.301  53.274 -19.235  1.00  0.00     0.019 A 
HETATM   31  C24 UNL     1       0.983  52.627 -18.037  1.00  0.00     0.025 A 
HETATM   32  C25 UNL     1       0.133  51.521 -18.051  1.00  0.00     0.034 A 
HETATM   33 CL1  UNL     1      -0.259  50.725 -16.578  1.00  0.00    -0.084 Cl
HETATM   34  C26 UNL     1      -0.399  51.056 -19.253  1.00  0.00     0.025 A 
HETATM   35  C27 UNL     1      -0.082  51.700 -20.453  1.00  0.00     0.019 A 
ENDBRANCH  27  29
ENDBRANCH  26  27
ENDBRANCH  25  26
ENDBRANCH  21  25
ENDBRANCH  19  20
ENDBRANCH   1  19
TORSDOF 9
ENDMDL
