MODEL 1
REMARK minimizedAffinity -7.81212997
REMARK CNNscore 0.798545718
REMARK CNNaffinity 7.22923517
REMARK  6 active torsions:
REMARK  status: ('A' for Active; 'I' for Inactive)
REMARK    1  A    between atoms: C2_2  and  C30_32 
REMARK    2  A    between atoms: C3_3  and  C4_4 
REMARK    3  A    between atoms: C4_4  and  C5_6 
REMARK    4  A    between atoms: C5_6  and  C6_7 
REMARK    5  A    between atoms: C6_7  and  C8_9 
REMARK    6  A    between atoms: C30_32  and  O4_34 
ROOT
HETATM    1  C8  UNL     1       0.090  12.080  18.892  1.00  0.00    -0.001 C 
HETATM    2  C9  UNL     1      -1.198  12.836  19.337  1.00  0.00     0.007 C 
HETATM    3  C10 UNL     1      -2.381  12.235  18.558  1.00  0.00     0.015 C 
HETATM    4  C11 UNL     1      -1.826  10.932  17.947  1.00  0.00    -0.013 C 
HETATM    5  C12 UNL     1      -1.928   9.851  19.066  1.00  0.00     0.021 C 
HETATM    6  C13 UNL     1      -2.535  10.348  16.735  1.00  0.00    -0.070 C 
HETATM    7  C14 UNL     1      -3.818  10.608  16.424  1.00  0.00    -0.022 C 
HETATM    8  C15 UNL     1      -4.503   9.923  15.281  1.00  0.00     0.034 C 
HETATM    9  C16 UNL     1      -4.042   8.457  15.246  1.00  0.00     0.013 C 
HETATM   10  C17 UNL     1      -4.912   7.517  14.355  1.00  0.00     0.018 C 
HETATM   11  C18 UNL     1      -6.189   7.104  15.117  1.00  0.00     0.023 C 
HETATM   12  C19 UNL     1      -5.351   8.160  13.026  1.00  0.00     0.023 C 
HETATM   13  C20 UNL     1      -4.139   6.219  14.075  1.00  0.00     0.135 C 
HETATM   14  O2  UNL     1      -4.415   5.489  13.121  1.00  0.00    -0.297 OA
HETATM   15  C21 UNL     1      -3.089   5.794  15.079  1.00  0.00     0.080 C 
HETATM   16  C22 UNL     1      -2.120   6.904  15.503  1.00  0.00     0.017 C 
HETATM   17  C23 UNL     1      -2.490   8.332  15.023  1.00  0.00    -0.031 C 
HETATM   18  C24 UNL     1      -2.072   8.462  13.533  1.00  0.00     0.016 C 
HETATM   19  C25 UNL     1      -1.693   9.485  15.792  1.00  0.00     0.024 C 
HETATM   20  C26 UNL     1      -0.331   9.051  16.388  1.00  0.00     0.010 C 
HETATM   21  C27 UNL     1       0.458  10.140  17.151  1.00  0.00     0.011 C 
HETATM   22  C28 UNL     1      -0.366  11.376  17.570  1.00  0.00    -0.029 C 
HETATM   23  C29 UNL     1      -0.318  12.423  16.411  1.00  0.00     0.016 C 
ENDROOT
BRANCH   1  24
HETATM   24  C6  UNL     1       1.340  13.008  18.888  1.00  0.00    -0.007 C 
HETATM   25  C7  UNL     1       2.077  12.991  17.543  1.00  0.00     0.011 C 
BRANCH  24  26
HETATM   26  C5  UNL     1       2.326  12.591  20.005  1.00  0.00     0.087 C 
BRANCH  26  27
HETATM   27  C4  UNL     1       2.853  11.178  19.824  1.00  0.00     0.150 C 
HETATM   28  O1  UNL     1       3.609  10.890  18.900  1.00  0.00    -0.293 OA
BRANCH  27  29
HETATM   29  C3  UNL     1       2.382  10.156  20.801  1.00  0.00     0.063 C 
HETATM   30  C2  UNL     1       3.015   9.833  21.944  1.00  0.00     0.015 C 
HETATM   31  C1  UNL     1       4.259  10.465  22.491  1.00  0.00     0.055 C 
BRANCH  30  32
HETATM   32  C30 UNL     1       2.367   8.760  22.730  1.00  0.00     0.171 C 
HETATM   33  O3  UNL     1       1.690   7.850  22.286  1.00  0.00    -0.646 OA
BRANCH  32  34
HETATM   34  O4  UNL     1       2.607   8.866  24.046  1.00  0.00    -0.773 OA
HETATM   35  H44 UNL     1       2.138   8.100  24.437  1.00  0.00     0.167 HD
ENDBRANCH  32  34
ENDBRANCH  30  32
ENDBRANCH  27  29
ENDBRANCH  26  27
ENDBRANCH  24  26
ENDBRANCH   1  24
TORSDOF 6
ENDMDL
MODEL 2
REMARK minimizedAffinity -9.04824352
REMARK CNNscore 0.583656251
REMARK CNNaffinity 7.47282457
REMARK  6 active torsions:
REMARK  status: ('A' for Active; 'I' for Inactive)
REMARK    1  A    between atoms: C2_2  and  C30_32 
REMARK    2  A    between atoms: C3_3  and  C4_4 
REMARK    3  A    between atoms: C4_4  and  C5_6 
REMARK    4  A    between atoms: C5_6  and  C6_7 
REMARK    5  A    between atoms: C6_7  and  C8_9 
REMARK    6  A    between atoms: C30_32  and  O4_34 
ROOT
HETATM    1  C8  UNL     1      -5.409   5.287  14.395  1.00  0.00    -0.001 C 
HETATM    2  C9  UNL     1      -4.851   6.315  15.424  1.00  0.00     0.007 C 
HETATM    3  C10 UNL     1      -5.971   7.329  15.718  1.00  0.00     0.015 C 
HETATM    4  C11 UNL     1      -7.245   6.686  15.137  1.00  0.00    -0.013 C 
HETATM    5  C12 UNL     1      -7.766   5.695  16.224  1.00  0.00     0.021 C 
HETATM    6  C13 UNL     1      -8.419   7.592  14.800  1.00  0.00    -0.070 C 
HETATM    7  C14 UNL     1      -8.608   8.803  15.353  1.00  0.00    -0.022 C 
HETATM    8  C15 UNL     1      -9.838   9.612  15.070  1.00  0.00     0.034 C 
HETATM    9  C16 UNL     1     -11.042   8.660  15.005  1.00  0.00     0.013 C 
HETATM   10  C17 UNL     1     -12.436   9.359  15.073  1.00  0.00     0.018 C 
HETATM   11  C18 UNL     1     -12.779   9.704  16.537  1.00  0.00     0.023 C 
HETATM   12  C19 UNL     1     -12.512  10.664  14.258  1.00  0.00     0.023 C 
HETATM   13  C20 UNL     1     -13.521   8.383  14.595  1.00  0.00     0.135 C 
HETATM   14  O2  UNL     1     -14.620   8.774  14.195  1.00  0.00    -0.297 OA
HETATM   15  C21 UNL     1     -13.247   6.900  14.735  1.00  0.00     0.080 C 
HETATM   16  C22 UNL     1     -11.872   6.451  14.226  1.00  0.00     0.017 C 
HETATM   17  C23 UNL     1     -10.891   7.595  13.858  1.00  0.00    -0.031 C 
HETATM   18  C24 UNL     1     -11.291   8.139  12.459  1.00  0.00     0.016 C 
HETATM   19  C25 UNL     1      -9.376   7.107  13.708  1.00  0.00     0.024 C 
HETATM   20  C26 UNL     1      -9.205   5.610  13.346  1.00  0.00     0.010 C 
HETATM   21  C27 UNL     1      -7.751   5.103  13.208  1.00  0.00     0.011 C 
HETATM   22  C28 UNL     1      -6.675   6.016  13.834  1.00  0.00    -0.029 C 
HETATM   23  C29 UNL     1      -6.213   7.051  12.758  1.00  0.00     0.016 C 
ENDROOT
BRANCH   1  24
HETATM   24  C6  UNL     1      -4.305   4.781  13.419  1.00  0.00    -0.007 C 
HETATM   25  C7  UNL     1      -3.242   5.850  13.135  1.00  0.00     0.011 C 
BRANCH  24  26
HETATM   26  C5  UNL     1      -4.934   4.332  12.079  1.00  0.00     0.087 C 
BRANCH  26  27
HETATM   27  C4  UNL     1      -4.856   2.830  11.870  1.00  0.00     0.150 C 
HETATM   28  O1  UNL     1      -5.869   2.139  11.801  1.00  0.00    -0.293 OA
BRANCH  27  29
HETATM   29  C3  UNL     1      -3.492   2.234  11.784  1.00  0.00     0.063 C 
HETATM   30  C2  UNL     1      -2.550   2.592  10.893  1.00  0.00     0.015 C 
HETATM   31  C1  UNL     1      -2.648   3.682   9.869  1.00  0.00     0.055 C 
BRANCH  30  32
HETATM   32  C30 UNL     1      -1.286   1.827  10.986  1.00  0.00     0.171 C 
HETATM   33  O3  UNL     1      -0.213   2.254  11.373  1.00  0.00    -0.646 OA
BRANCH  32  34
HETATM   34  O4  UNL     1      -1.425   0.550  10.600  1.00  0.00    -0.773 OA
HETATM   35  H44 UNL     1      -0.532   0.166  10.721  1.00  0.00     0.167 HD
ENDBRANCH  32  34
ENDBRANCH  30  32
ENDBRANCH  27  29
ENDBRANCH  26  27
ENDBRANCH  24  26
ENDBRANCH   1  24
TORSDOF 6
ENDMDL
MODEL 3
REMARK minimizedAffinity -7.24792194
REMARK CNNscore 0.468748719
REMARK CNNaffinity 6.08359337
REMARK  6 active torsions:
REMARK  status: ('A' for Active; 'I' for Inactive)
REMARK    1  A    between atoms: C2_2  and  C30_32 
REMARK    2  A    between atoms: C3_3  and  C4_4 
REMARK    3  A    between atoms: C4_4  and  C5_6 
REMARK    4  A    between atoms: C5_6  and  C6_7 
REMARK    5  A    between atoms: C6_7  and  C8_9 
REMARK    6  A    between atoms: C30_32  and  O4_34 
ROOT
HETATM    1  C8  UNL     1       3.839  12.118  20.775  1.00  0.00    -0.001 C 
HETATM    2  C9  UNL     1       4.803  11.449  19.750  1.00  0.00     0.007 C 
HETATM    3  C10 UNL     1       3.943  10.887  18.604  1.00  0.00     0.015 C 
HETATM    4  C11 UNL     1       2.556  11.530  18.803  1.00  0.00    -0.013 C 
HETATM    5  C12 UNL     1       2.635  12.941  18.141  1.00  0.00     0.021 C 
HETATM    6  C13 UNL     1       1.350  10.844  18.183  1.00  0.00    -0.070 C 
HETATM    7  C14 UNL     1       1.427   9.996  17.141  1.00  0.00    -0.022 C 
HETATM    8  C15 UNL     1       0.198   9.430  16.497  1.00  0.00     0.034 C 
HETATM    9  C16 UNL     1      -0.875  10.528  16.446  1.00  0.00     0.013 C 
HETATM   10  C17 UNL     1      -2.078  10.227  15.500  1.00  0.00     0.018 C 
HETATM   11  C18 UNL     1      -1.687  10.532  14.038  1.00  0.00     0.023 C 
HETATM   12  C19 UNL     1      -2.556   8.764  15.556  1.00  0.00     0.023 C 
HETATM   13  C20 UNL     1      -3.244  11.168  15.839  1.00  0.00     0.135 C 
HETATM   14  O2  UNL     1      -4.407  10.907  15.523  1.00  0.00    -0.297 OA
HETATM   15  C21 UNL     1      -2.911  12.499  16.480  1.00  0.00     0.080 C 
HETATM   16  C22 UNL     1      -1.939  12.416  17.663  1.00  0.00     0.017 C 
HETATM   17  C23 UNL     1      -1.272  11.032  17.882  1.00  0.00    -0.031 C 
HETATM   18  C24 UNL     1      -2.300  10.111  18.593  1.00  0.00     0.016 C 
HETATM   19  C25 UNL     1      -0.005  11.087  18.855  1.00  0.00     0.024 C 
HETATM   20  C26 UNL     1      -0.002  12.266  19.859  1.00  0.00     0.010 C 
HETATM   21  C27 UNL     1       1.217  12.356  20.804  1.00  0.00     0.011 C 
HETATM   22  C28 UNL     1       2.446  11.528  20.371  1.00  0.00    -0.029 C 
HETATM   23  C29 UNL     1       2.321  10.095  20.979  1.00  0.00     0.016 C 
ENDROOT
BRANCH   1  24
HETATM   24  C6  UNL     1       4.351  11.971  22.239  1.00  0.00    -0.007 C 
HETATM   25  C7  UNL     1       3.564  10.918  23.030  1.00  0.00     0.011 C 
BRANCH  24  26
HETATM   26  C5  UNL     1       4.262  13.326  22.980  1.00  0.00     0.087 C 
BRANCH  26  27
HETATM   27  C4  UNL     1       5.586  14.069  23.005  1.00  0.00     0.150 C 
HETATM   28  O1  UNL     1       5.635  15.284  23.177  1.00  0.00    -0.293 OA
BRANCH  27  29
HETATM   29  C3  UNL     1       6.815  13.257  22.780  1.00  0.00     0.063 C 
HETATM   30  C2  UNL     1       8.059  13.628  23.136  1.00  0.00     0.015 C 
HETATM   31  C1  UNL     1       8.449  14.872  23.873  1.00  0.00     0.055 C 
BRANCH  30  32
HETATM   32  C30 UNL     1       9.121  12.663  22.771  1.00  0.00     0.171 C 
HETATM   33  O3  UNL     1      10.092  12.892  22.072  1.00  0.00    -0.646 OA
BRANCH  32  34
HETATM   34  O4  UNL     1       8.927  11.452  23.313  1.00  0.00    -0.773 OA
HETATM   35  H44 UNL     1       9.695  10.927  23.005  1.00  0.00     0.167 HD
ENDBRANCH  32  34
ENDBRANCH  30  32
ENDBRANCH  27  29
ENDBRANCH  26  27
ENDBRANCH  24  26
ENDBRANCH   1  24
TORSDOF 6
ENDMDL
MODEL 4
REMARK minimizedAffinity -8.0604248
REMARK CNNscore 0.300712556
REMARK CNNaffinity 6.7265439
REMARK  6 active torsions:
REMARK  status: ('A' for Active; 'I' for Inactive)
REMARK    1  A    between atoms: C2_2  and  C30_32 
REMARK    2  A    between atoms: C3_3  and  C4_4 
REMARK    3  A    between atoms: C4_4  and  C5_6 
REMARK    4  A    between atoms: C5_6  and  C6_7 
REMARK    5  A    between atoms: C6_7  and  C8_9 
REMARK    6  A    between atoms: C30_32  and  O4_34 
ROOT
HETATM    1  C8  UNL     1     -10.257   7.671  15.182  1.00  0.00    -0.001 C 
HETATM    2  C9  UNL     1      -9.872   9.168  14.983  1.00  0.00     0.007 C 
HETATM    3  C10 UNL     1     -11.085   9.879  14.358  1.00  0.00     0.015 C 
HETATM    4  C11 UNL     1     -12.251   8.884  14.525  1.00  0.00    -0.013 C 
HETATM    5  C12 UNL     1     -12.792   9.089  15.973  1.00  0.00     0.021 C 
HETATM    6  C13 UNL     1     -13.453   9.024  13.605  1.00  0.00    -0.070 C 
HETATM    7  C14 UNL     1     -13.781  10.168  12.976  1.00  0.00    -0.022 C 
HETATM    8  C15 UNL     1     -15.037  10.286  12.166  1.00  0.00     0.034 C 
HETATM    9  C16 UNL     1     -16.156   9.522  12.890  1.00  0.00     0.013 C 
HETATM   10  C17 UNL     1     -17.598   9.833  12.381  1.00  0.00     0.018 C 
HETATM   11  C18 UNL     1     -18.097  11.159  12.993  1.00  0.00     0.023 C 
HETATM   12  C19 UNL     1     -17.697   9.963  10.849  1.00  0.00     0.023 C 
HETATM   13  C20 UNL     1     -18.561   8.743  12.875  1.00  0.00     0.135 C 
HETATM   14  O2  UNL     1     -19.645   8.533  12.326  1.00  0.00    -0.297 OA
HETATM   15  C21 UNL     1     -18.191   7.996  14.139  1.00  0.00     0.080 C 
HETATM   16  C22 UNL     1     -16.747   7.484  14.183  1.00  0.00     0.017 C 
HETATM   17  C23 UNL     1     -15.824   7.993  13.044  1.00  0.00    -0.031 C 
HETATM   18  C24 UNL     1     -16.135   7.166  11.767  1.00  0.00     0.016 C 
HETATM   19  C25 UNL     1     -14.270   7.758  13.336  1.00  0.00     0.024 C 
HETATM   20  C26 UNL     1     -13.957   6.593  14.308  1.00  0.00     0.010 C 
HETATM   21  C27 UNL     1     -12.463   6.349  14.622  1.00  0.00     0.011 C 
HETATM   22  C28 UNL     1     -11.518   7.517  14.268  1.00  0.00    -0.029 C 
HETATM   23  C29 UNL     1     -11.039   7.341  12.791  1.00  0.00     0.016 C 
ENDROOT
BRANCH   1  24
HETATM   24  C6  UNL     1      -9.035   6.724  14.989  1.00  0.00    -0.007 C 
HETATM   25  C7  UNL     1      -7.802   7.195  15.770  1.00  0.00     0.011 C 
BRANCH  24  26
HETATM   26  C5  UNL     1      -8.668   6.615  13.491  1.00  0.00     0.087 C 
BRANCH  26  27
HETATM   27  C4  UNL     1      -7.381   5.844  13.257  1.00  0.00     0.150 C 
HETATM   28  O1  UNL     1      -6.283   6.384  13.368  1.00  0.00    -0.293 OA
BRANCH  27  29
HETATM   29  C3  UNL     1      -7.517   4.415  12.856  1.00  0.00     0.063 C 
HETATM   30  C2  UNL     1      -6.489   3.586  12.597  1.00  0.00     0.015 C 
HETATM   31  C1  UNL     1      -5.029   3.899  12.719  1.00  0.00     0.055 C 
BRANCH  30  32
HETATM   32  C30 UNL     1      -6.884   2.221  12.182  1.00  0.00     0.171 C 
HETATM   33  O3  UNL     1      -6.249   1.479  11.453  1.00  0.00    -0.646 OA
BRANCH  32  34
HETATM   34  O4  UNL     1      -8.055   1.838  12.712  1.00  0.00    -0.773 OA
HETATM   35  H44 UNL     1      -8.185   0.929  12.370  1.00  0.00     0.167 HD
ENDBRANCH  32  34
ENDBRANCH  30  32
ENDBRANCH  27  29
ENDBRANCH  26  27
ENDBRANCH  24  26
ENDBRANCH   1  24
TORSDOF 6
ENDMDL
MODEL 5
REMARK minimizedAffinity -7.16445732
REMARK CNNscore 0.286781996
REMARK CNNaffinity 6.1420722
REMARK  6 active torsions:
REMARK  status: ('A' for Active; 'I' for Inactive)
REMARK    1  A    between atoms: C2_2  and  C30_32 
REMARK    2  A    between atoms: C3_3  and  C4_4 
REMARK    3  A    between atoms: C4_4  and  C5_6 
REMARK    4  A    between atoms: C5_6  and  C6_7 
REMARK    5  A    between atoms: C6_7  and  C8_9 
REMARK    6  A    between atoms: C30_32  and  O4_34 
ROOT
HETATM    1  C8  UNL     1      -9.930  -7.522  -4.732  1.00  0.00    -0.001 C 
HETATM    2  C9  UNL     1      -8.733  -7.555  -5.729  1.00  0.00     0.007 C 
HETATM    3  C10 UNL     1      -7.570  -8.283  -5.031  1.00  0.00     0.015 C 
HETATM    4  C11 UNL     1      -8.210  -8.954  -3.800  1.00  0.00    -0.013 C 
HETATM    5  C12 UNL     1      -8.829 -10.292  -4.309  1.00  0.00     0.021 C 
HETATM    6  C13 UNL     1      -7.307  -9.327  -2.635  1.00  0.00    -0.070 C 
HETATM    7  C14 UNL     1      -5.982  -9.524  -2.751  1.00  0.00    -0.022 C 
HETATM    8  C15 UNL     1      -5.153  -9.997  -1.595  1.00  0.00     0.034 C 
HETATM    9  C16 UNL     1      -5.964 -11.039  -0.810  1.00  0.00     0.013 C 
HETATM   10  C17 UNL     1      -5.135 -11.889   0.203  1.00  0.00     0.018 C 
HETATM   11  C18 UNL     1      -4.391 -13.017  -0.543  1.00  0.00     0.023 C 
HETATM   12  C19 UNL     1      -4.083 -11.072   0.976  1.00  0.00     0.023 C 
HETATM   13  C20 UNL     1      -6.087 -12.580   1.190  1.00  0.00     0.135 C 
HETATM   14  O2  UNL     1      -5.704 -12.988   2.289  1.00  0.00    -0.297 OA
HETATM   15  C21 UNL     1      -7.503 -12.854   0.729  1.00  0.00     0.080 C 
HETATM   16  C22 UNL     1      -8.204 -11.662   0.067  1.00  0.00     0.017 C 
HETATM   17  C23 UNL     1      -7.298 -10.439  -0.234  1.00  0.00    -0.031 C 
HETATM   18  C24 UNL     1      -7.096  -9.653   1.090  1.00  0.00     0.016 C 
HETATM   19  C25 UNL     1      -7.959  -9.397  -1.251  1.00  0.00     0.024 C 
HETATM   20  C26 UNL     1      -9.507  -9.413  -1.288  1.00  0.00     0.010 C 
HETATM   21  C27 UNL     1     -10.177  -8.426  -2.273  1.00  0.00     0.011 C 
HETATM   22  C28 UNL     1      -9.246  -7.856  -3.364  1.00  0.00    -0.029 C 
HETATM   23  C29 UNL     1      -8.575  -6.555  -2.817  1.00  0.00     0.016 C 
ENDROOT
BRANCH   1  24
HETATM   24  C6  UNL     1     -10.778  -6.224  -4.882  1.00  0.00    -0.007 C 
HETATM   25  C7  UNL     1     -12.109  -6.476  -5.602  1.00  0.00     0.011 C 
BRANCH  24  26
HETATM   26  C5  UNL     1      -9.984  -5.148  -5.659  1.00  0.00     0.087 C 
BRANCH  26  27
HETATM   27  C4  UNL     1     -10.018  -3.790  -4.980  1.00  0.00     0.150 C 
HETATM   28  O1  UNL     1     -11.013  -3.402  -4.372  1.00  0.00    -0.293 OA
BRANCH  27  29
HETATM   29  C3  UNL     1      -8.801  -2.941  -5.115  1.00  0.00     0.063 C 
HETATM   30  C2  UNL     1      -8.511  -2.173  -6.181  1.00  0.00     0.015 C 
HETATM   31  C1  UNL     1      -9.363  -1.964  -7.396  1.00  0.00     0.055 C 
BRANCH  30  32
HETATM   32  C30 UNL     1      -7.222  -1.450  -6.093  1.00  0.00     0.171 C 
HETATM   33  O3  UNL     1      -7.048  -0.262  -6.297  1.00  0.00    -0.646 OA
BRANCH  32  34
HETATM   34  O4  UNL     1      -6.205  -2.248  -5.737  1.00  0.00    -0.773 OA
HETATM   35  H44 UNL     1      -5.431  -1.649  -5.706  1.00  0.00     0.167 HD
ENDBRANCH  32  34
ENDBRANCH  30  32
ENDBRANCH  27  29
ENDBRANCH  26  27
ENDBRANCH  24  26
ENDBRANCH   1  24
TORSDOF 6
ENDMDL
MODEL 6
REMARK minimizedAffinity -7.72298002
REMARK CNNscore 0.281725854
REMARK CNNaffinity 6.51485109
REMARK  6 active torsions:
REMARK  status: ('A' for Active; 'I' for Inactive)
REMARK    1  A    between atoms: C2_2  and  C30_32 
REMARK    2  A    between atoms: C3_3  and  C4_4 
REMARK    3  A    between atoms: C4_4  and  C5_6 
REMARK    4  A    between atoms: C5_6  and  C6_7 
REMARK    5  A    between atoms: C6_7  and  C8_9 
REMARK    6  A    between atoms: C30_32  and  O4_34 
ROOT
HETATM    1  C8  UNL     1      -1.463   9.715  14.844  1.00  0.00    -0.001 C 
HETATM    2  C9  UNL     1      -0.383   9.002  13.975  1.00  0.00     0.007 C 
HETATM    3  C10 UNL     1      -1.020   7.723  13.403  1.00  0.00     0.015 C 
HETATM    4  C11 UNL     1      -2.531   7.889  13.657  1.00  0.00    -0.013 C 
HETATM    5  C12 UNL     1      -3.074   8.763  12.484  1.00  0.00     0.021 C 
HETATM    6  C13 UNL     1      -3.397   6.640  13.685  1.00  0.00    -0.070 C 
HETATM    7  C14 UNL     1      -3.056   5.482  13.090  1.00  0.00    -0.022 C 
HETATM    8  C15 UNL     1      -3.993   4.313  13.052  1.00  0.00     0.034 C 
HETATM    9  C16 UNL     1      -5.418   4.839  12.826  1.00  0.00     0.013 C 
HETATM   10  C17 UNL     1      -6.460   3.754  12.409  1.00  0.00     0.018 C 
HETATM   11  C18 UNL     1      -6.325   3.450  10.902  1.00  0.00     0.023 C 
HETATM   12  C19 UNL     1      -6.301   2.423  13.167  1.00  0.00     0.023 C 
HETATM   13  C20 UNL     1      -7.880   4.304  12.612  1.00  0.00     0.135 C 
HETATM   14  O2  UNL     1      -8.857   3.560  12.724  1.00  0.00    -0.297 OA
HETATM   15  C21 UNL     1      -8.069   5.805  12.557  1.00  0.00     0.080 C 
HETATM   16  C22 UNL     1      -7.068   6.609  13.395  1.00  0.00     0.017 C 
HETATM   17  C23 UNL     1      -5.886   5.794  13.985  1.00  0.00    -0.031 C 
HETATM   18  C24 UNL     1      -6.404   5.034  15.236  1.00  0.00     0.016 C 
HETATM   19  C25 UNL     1      -4.685   6.710  14.509  1.00  0.00     0.024 C 
HETATM   20  C26 UNL     1      -5.091   8.149  14.917  1.00  0.00     0.010 C 
HETATM   21  C27 UNL     1      -3.949   9.064  15.415  1.00  0.00     0.011 C 
HETATM   22  C28 UNL     1      -2.524   8.585  15.067  1.00  0.00    -0.029 C 
HETATM   23  C29 UNL     1      -2.018   7.652  16.214  1.00  0.00     0.016 C 
ENDROOT
BRANCH   1  24
HETATM   24  C6  UNL     1      -0.837  10.447  16.067  1.00  0.00    -0.007 C 
HETATM   25  C7  UNL     1      -1.608  11.718  16.445  1.00  0.00     0.011 C 
BRANCH  24  26
HETATM   26  C5  UNL     1       0.635  10.821  15.777  1.00  0.00     0.087 C 
BRANCH  26  27
HETATM   27  C4  UNL     1       1.612  10.123  16.706  1.00  0.00     0.150 C 
HETATM   28  O1  UNL     1       1.362   9.967  17.898  1.00  0.00    -0.293 OA
BRANCH  27  29
HETATM   29  C3  UNL     1       2.899   9.667  16.107  1.00  0.00     0.063 C 
HETATM   30  C2  UNL     1       3.141   8.422  15.657  1.00  0.00     0.015 C 
HETATM   31  C1  UNL     1       2.171   7.281  15.605  1.00  0.00     0.055 C 
BRANCH  30  32
HETATM   32  C30 UNL     1       4.510   8.206  15.138  1.00  0.00     0.171 C 
HETATM   33  O3  UNL     1       5.124   8.950  14.394  1.00  0.00    -0.646 OA
BRANCH  32  34
HETATM   34  O4  UNL     1       5.059   7.067  15.587  1.00  0.00    -0.773 OA
HETATM   35  H44 UNL     1       5.951   7.057  15.183  1.00  0.00     0.167 HD
ENDBRANCH  32  34
ENDBRANCH  30  32
ENDBRANCH  27  29
ENDBRANCH  26  27
ENDBRANCH  24  26
ENDBRANCH   1  24
TORSDOF 6
ENDMDL
MODEL 7
REMARK minimizedAffinity -9.32422256
REMARK CNNscore 0.239458233
REMARK CNNaffinity 6.82027197
REMARK  6 active torsions:
REMARK  status: ('A' for Active; 'I' for Inactive)
REMARK    1  A    between atoms: C2_2  and  C30_32 
REMARK    2  A    between atoms: C3_3  and  C4_4 
REMARK    3  A    between atoms: C4_4  and  C5_6 
REMARK    4  A    between atoms: C5_6  and  C6_7 
REMARK    5  A    between atoms: C6_7  and  C8_9 
REMARK    6  A    between atoms: C30_32  and  O4_34 
ROOT
HETATM    1  C8  UNL     1      -6.242   7.261  14.432  1.00  0.00    -0.001 C 
HETATM    2  C9  UNL     1      -6.080   8.646  15.127  1.00  0.00     0.007 C 
HETATM    3  C10 UNL     1      -4.588   9.017  15.080  1.00  0.00     0.015 C 
HETATM    4  C11 UNL     1      -3.970   8.029  14.071  1.00  0.00    -0.013 C 
HETATM    5  C12 UNL     1      -4.233   8.632  12.657  1.00  0.00     0.021 C 
HETATM    6  C13 UNL     1      -2.474   7.768  14.143  1.00  0.00    -0.070 C 
HETATM    7  C14 UNL     1      -1.594   8.622  14.697  1.00  0.00    -0.022 C 
HETATM    8  C15 UNL     1      -0.118   8.371  14.646  1.00  0.00     0.034 C 
HETATM    9  C16 UNL     1       0.228   7.781  13.271  1.00  0.00     0.013 C 
HETATM   10  C17 UNL     1       1.748   7.790  12.916  1.00  0.00     0.018 C 
HETATM   11  C18 UNL     1       2.165   9.194  12.428  1.00  0.00     0.023 C 
HETATM   12  C19 UNL     1       2.660   7.422  14.101  1.00  0.00     0.023 C 
HETATM   13  C20 UNL     1       2.006   6.832  11.743  1.00  0.00     0.135 C 
HETATM   14  O2  UNL     1       3.124   6.368  11.514  1.00  0.00    -0.297 OA
HETATM   15  C21 UNL     1       0.859   6.557  10.794  1.00  0.00     0.080 C 
HETATM   16  C22 UNL     1      -0.470   6.211  11.476  1.00  0.00     0.017 C 
HETATM   17  C23 UNL     1      -0.503   6.413  13.014  1.00  0.00    -0.031 C 
HETATM   18  C24 UNL     1       0.212   5.202  13.672  1.00  0.00     0.016 C 
HETATM   19  C25 UNL     1      -1.981   6.416  13.621  1.00  0.00     0.024 C 
HETATM   20  C26 UNL     1      -3.034   5.648  12.782  1.00  0.00     0.010 C 
HETATM   21  C27 UNL     1      -4.477   5.645  13.335  1.00  0.00     0.011 C 
HETATM   22  C28 UNL     1      -4.774   6.719  14.403  1.00  0.00    -0.029 C 
HETATM   23  C29 UNL     1      -4.438   6.129  15.810  1.00  0.00     0.016 C 
ENDROOT
BRANCH   1  24
HETATM   24  C6  UNL     1      -7.373   6.410  15.082  1.00  0.00    -0.007 C 
HETATM   25  C7  UNL     1      -7.259   6.357  16.610  1.00  0.00     0.011 C 
BRANCH  24  26
HETATM   26  C5  UNL     1      -7.350   4.967  14.526  1.00  0.00     0.087 C 
BRANCH  26  27
HETATM   27  C4  UNL     1      -7.823   4.886  13.085  1.00  0.00     0.150 C 
HETATM   28  O1  UNL     1      -8.920   5.324  12.745  1.00  0.00    -0.293 OA
BRANCH  27  29
HETATM   29  C3  UNL     1      -6.908   4.222  12.115  1.00  0.00     0.063 C 
HETATM   30  C2  UNL     1      -6.674   2.897  12.059  1.00  0.00     0.015 C 
HETATM   31  C1  UNL     1      -7.320   1.835  12.894  1.00  0.00     0.055 C 
BRANCH  30  32
HETATM   32  C30 UNL     1      -5.694   2.484  11.029  1.00  0.00     0.171 C 
HETATM   33  O3  UNL     1      -5.027   3.227  10.331  1.00  0.00    -0.646 OA
BRANCH  32  34
HETATM   34  O4  UNL     1      -5.582   1.151  10.928  1.00  0.00    -0.773 OA
HETATM   35  H44 UNL     1      -4.905   1.021  10.232  1.00  0.00     0.167 HD
ENDBRANCH  32  34
ENDBRANCH  30  32
ENDBRANCH  27  29
ENDBRANCH  26  27
ENDBRANCH  24  26
ENDBRANCH   1  24
TORSDOF 6
ENDMDL
MODEL 8
REMARK minimizedAffinity -8.54462242
REMARK CNNscore 0.205852136
REMARK CNNaffinity 6.34115076
REMARK  6 active torsions:
REMARK  status: ('A' for Active; 'I' for Inactive)
REMARK    1  A    between atoms: C2_2  and  C30_32 
REMARK    2  A    between atoms: C3_3  and  C4_4 
REMARK    3  A    between atoms: C4_4  and  C5_6 
REMARK    4  A    between atoms: C5_6  and  C6_7 
REMARK    5  A    between atoms: C6_7  and  C8_9 
REMARK    6  A    between atoms: C30_32  and  O4_34 
ROOT
HETATM    1  C8  UNL     1      -2.517   5.633  13.073  1.00  0.00    -0.001 C 
HETATM    2  C9  UNL     1      -3.355   5.072  14.261  1.00  0.00     0.007 C 
HETATM    3  C10 UNL     1      -3.385   6.152  15.357  1.00  0.00     0.015 C 
HETATM    4  C11 UNL     1      -2.872   7.429  14.663  1.00  0.00    -0.013 C 
HETATM    5  C12 UNL     1      -4.101   8.047  13.928  1.00  0.00     0.021 C 
HETATM    6  C13 UNL     1      -2.302   8.539  15.532  1.00  0.00    -0.070 C 
HETATM    7  C14 UNL     1      -2.598   8.693  16.835  1.00  0.00    -0.022 C 
HETATM    8  C15 UNL     1      -2.097   9.866  17.621  1.00  0.00     0.034 C 
HETATM    9  C16 UNL     1      -2.153  11.112  16.724  1.00  0.00     0.013 C 
HETATM   10  C17 UNL     1      -2.008  12.471  17.478  1.00  0.00     0.018 C 
HETATM   11  C18 UNL     1      -3.357  12.863  18.118  1.00  0.00     0.023 C 
HETATM   12  C19 UNL     1      -0.953  12.445  18.599  1.00  0.00     0.023 C 
HETATM   13  C20 UNL     1      -1.672  13.581  16.471  1.00  0.00     0.135 C 
HETATM   14  O2  UNL     1      -1.144  14.640  16.819  1.00  0.00    -0.297 OA
HETATM   15  C21 UNL     1      -2.112  13.388  15.035  1.00  0.00     0.080 C 
HETATM   16  C22 UNL     1      -1.776  12.016  14.440  1.00  0.00     0.017 C 
HETATM   17  C23 UNL     1      -1.245  10.963  15.449  1.00  0.00    -0.031 C 
HETATM   18  C24 UNL     1       0.252  11.272  15.722  1.00  0.00     0.016 C 
HETATM   19  C25 UNL     1      -1.276   9.470  14.880  1.00  0.00     0.024 C 
HETATM   20  C26 UNL     1      -1.221   9.357  13.336  1.00  0.00     0.010 C 
HETATM   21  C27 UNL     1      -1.264   7.926  12.753  1.00  0.00     0.011 C 
HETATM   22  C28 UNL     1      -1.757   6.835  13.728  1.00  0.00    -0.029 C 
HETATM   23  C29 UNL     1      -0.527   6.274  14.511  1.00  0.00     0.016 C 
ENDROOT
BRANCH   1  24
HETATM   24  C6  UNL     1      -1.719   4.513  12.342  1.00  0.00    -0.007 C 
HETATM   25  C7  UNL     1      -1.156   4.982  10.994  1.00  0.00     0.011 C 
BRANCH  24  26
HETATM   26  C5  UNL     1      -2.617   3.276  12.107  1.00  0.00     0.087 C 
BRANCH  26  27
HETATM   27  C4  UNL     1      -3.790   3.568  11.188  1.00  0.00     0.150 C 
HETATM   28  O1  UNL     1      -3.628   3.766   9.986  1.00  0.00    -0.293 OA
BRANCH  27  29
HETATM   29  C3  UNL     1      -5.137   3.635  11.820  1.00  0.00     0.063 C 
HETATM   30  C2  UNL     1      -6.049   2.645  11.799  1.00  0.00     0.015 C 
HETATM   31  C1  UNL     1      -5.877   1.279  11.207  1.00  0.00     0.055 C 
BRANCH  30  32
HETATM   32  C30 UNL     1      -7.329   2.966  12.468  1.00  0.00     0.171 C 
HETATM   33  O3  UNL     1      -7.731   4.079  12.757  1.00  0.00    -0.646 OA
BRANCH  32  34
HETATM   34  O4  UNL     1      -8.061   1.874  12.734  1.00  0.00    -0.773 OA
HETATM   35  H44 UNL     1      -8.871   2.227  13.158  1.00  0.00     0.167 HD
ENDBRANCH  32  34
ENDBRANCH  30  32
ENDBRANCH  27  29
ENDBRANCH  26  27
ENDBRANCH  24  26
ENDBRANCH   1  24
TORSDOF 6
ENDMDL
MODEL 9
REMARK minimizedAffinity -6.7897296
REMARK CNNscore 0.203052208
REMARK CNNaffinity 6.13026285
REMARK  6 active torsions:
REMARK  status: ('A' for Active; 'I' for Inactive)
REMARK    1  A    between atoms: C2_2  and  C30_32 
REMARK    2  A    between atoms: C3_3  and  C4_4 
REMARK    3  A    between atoms: C4_4  and  C5_6 
REMARK    4  A    between atoms: C5_6  and  C6_7 
REMARK    5  A    between atoms: C6_7  and  C8_9 
REMARK    6  A    between atoms: C30_32  and  O4_34 
ROOT
HETATM    1  C8  UNL     1      -9.786 -14.469  24.959  1.00  0.00    -0.001 C 
HETATM    2  C9  UNL     1      -8.928 -15.579  25.639  1.00  0.00     0.007 C 
HETATM    3  C10 UNL     1      -9.402 -15.702  27.098  1.00  0.00     0.015 C 
HETATM    4  C11 UNL     1     -10.732 -14.925  27.145  1.00  0.00    -0.013 C 
HETATM    5  C12 UNL     1     -11.828 -15.912  26.637  1.00  0.00     0.021 C 
HETATM    6  C13 UNL     1     -11.220 -14.415  28.492  1.00  0.00    -0.070 C 
HETATM    7  C14 UNL     1     -10.839 -14.940  29.670  1.00  0.00    -0.022 C 
HETATM    8  C15 UNL     1     -11.431 -14.474  30.966  1.00  0.00     0.034 C 
HETATM    9  C16 UNL     1     -12.930 -14.217  30.750  1.00  0.00     0.013 C 
HETATM   10  C17 UNL     1     -13.767 -14.071  32.060  1.00  0.00     0.018 C 
HETATM   11  C18 UNL     1     -14.082 -15.467  32.639  1.00  0.00     0.023 C 
HETATM   12  C19 UNL     1     -13.054 -13.262  33.160  1.00  0.00     0.023 C 
HETATM   13  C20 UNL     1     -15.121 -13.425  31.733  1.00  0.00     0.135 C 
HETATM   14  O2  UNL     1     -15.800 -12.861  32.594  1.00  0.00    -0.297 OA
HETATM   15  C21 UNL     1     -15.664 -13.597  30.330  1.00  0.00     0.080 C 
HETATM   16  C22 UNL     1     -14.656 -13.305  29.211  1.00  0.00     0.017 C 
HETATM   17  C23 UNL     1     -13.189 -13.101  29.673  1.00  0.00    -0.031 C 
HETATM   18  C24 UNL     1     -13.060 -11.660  30.238  1.00  0.00     0.016 C 
HETATM   19  C25 UNL     1     -12.132 -13.185  28.477  1.00  0.00     0.024 C 
HETATM   20  C26 UNL     1     -12.701 -12.845  27.076  1.00  0.00     0.010 C 
HETATM   21  C27 UNL     1     -11.706 -12.932  25.896  1.00  0.00     0.011 C 
HETATM   22  C28 UNL     1     -10.412 -13.723  26.184  1.00  0.00    -0.029 C 
HETATM   23  C29 UNL     1      -9.345 -12.738  26.761  1.00  0.00     0.016 C 
ENDROOT
BRANCH   1  24
HETATM   24  C6  UNL     1      -8.973 -13.674  23.895  1.00  0.00    -0.007 C 
HETATM   25  C7  UNL     1      -7.458 -13.811  24.095  1.00  0.00     0.011 C 
BRANCH  24  26
HETATM   26  C5  UNL     1      -9.350 -12.175  23.938  1.00  0.00     0.087 C 
BRANCH  26  27
HETATM   27  C4  UNL     1      -8.182 -11.266  23.601  1.00  0.00     0.150 C 
HETATM   28  O1  UNL     1      -7.301 -11.024  24.422  1.00  0.00    -0.293 OA
BRANCH  27  29
HETATM   29  C3  UNL     1      -8.174 -10.659  22.240  1.00  0.00     0.063 C 
HETATM   30  C2  UNL     1      -9.270 -10.431  21.492  1.00  0.00     0.015 C 
HETATM   31  C1  UNL     1     -10.694 -10.672  21.888  1.00  0.00     0.055 C 
BRANCH  30  32
HETATM   32  C30 UNL     1      -8.999  -9.851  20.157  1.00  0.00     0.171 C 
HETATM   33  O3  UNL     1      -8.186  -8.981  19.901  1.00  0.00    -0.646 OA
BRANCH  32  34
HETATM   34  O4  UNL     1      -9.753 -10.400  19.193  1.00  0.00    -0.773 OA
HETATM   35  H44 UNL     1      -9.468  -9.941  18.376  1.00  0.00     0.167 HD
ENDBRANCH  32  34
ENDBRANCH  30  32
ENDBRANCH  27  29
ENDBRANCH  26  27
ENDBRANCH  24  26
ENDBRANCH   1  24
TORSDOF 6
ENDMDL
