MODEL 1
REMARK minimizedAffinity -8.83509254
REMARK CNNscore 0.464877874
REMARK CNNaffinity 7.2761178
REMARK  19 active torsions:
REMARK  status: ('A' for Active; 'I' for Inactive)
REMARK    1  A    between atoms: C19_20  and  O2_21 
REMARK    2  A    between atoms: C19_20  and  C20_22 
REMARK    3  A    between atoms: C20_22  and  C21_24 
REMARK    4  A    between atoms: C21_24  and  O4_25 
REMARK    5  A    between atoms: O4_25  and  C22_26 
REMARK    6  A    between atoms: C22_26  and  C23_28 
REMARK    7  A    between atoms: C23_28  and  C24_29 
REMARK    8  A    between atoms: C24_29  and  C25_30 
REMARK       I    between atoms: C25_30  and  N1_32 
REMARK    9  A    between atoms: N1_32  and  C26_33 
REMARK   10  A    between atoms: C26_33  and  C27_34 
REMARK   11  A    between atoms: C27_34  and  C28_35 
REMARK   12  A    between atoms: C28_35  and  C29_36 
REMARK   13  A    between atoms: C29_36  and  C30_37 
REMARK   14  A    between atoms: C30_37  and  C31_38 
REMARK       I    between atoms: C31_38  and  N2_40 
REMARK   15  A    between atoms: N2_40  and  C32_41 
REMARK   16  A    between atoms: C32_41  and  C33_42 
REMARK   17  A    between atoms: C33_42  and  C34_43 
REMARK   18  A    between atoms: C37_46  and  O8_47 
REMARK   19  A    between atoms: C38_48  and  O9_49 
ROOT
HETATM    1  C22 UNL     1      -3.282  49.160 -27.389  1.00  0.00     0.259 C 
HETATM    2  O5  UNL     1      -3.416  50.355 -27.624  1.00  0.00    -0.265 OA
ENDROOT
BRANCH   1   3
HETATM    3  O4  UNL     1      -3.723  48.158 -28.198  1.00  0.00    -0.314 OA
BRANCH   3   4
HETATM    4  C21 UNL     1      -5.114  48.166 -28.496  1.00  0.00     0.260 C 
BRANCH   4   5
HETATM    5  C20 UNL     1      -5.654  48.398 -29.919  1.00  0.00     0.185 C 
HETATM    6  O3  UNL     1      -4.950  48.976 -30.753  1.00  0.00    -0.292 OA
BRANCH   5   7
HETATM    7  C19 UNL     1      -7.034  47.803 -30.294  1.00  0.00     0.128 C 
HETATM    8  C14 UNL     1      -6.958  46.405 -30.984  1.00  0.00    -0.002 C 
HETATM    9  C13 UNL     1      -6.746  45.197 -30.048  1.00  0.00     0.013 C 
HETATM   10  C15 UNL     1      -5.862  46.406 -32.085  1.00  0.00     0.019 C 
HETATM   11  C16 UNL     1      -8.385  46.311 -31.565  1.00  0.00     0.002 C 
HETATM   12  C12 UNL     1      -7.619  43.968 -30.388  1.00  0.00     0.007 C 
HETATM   13  C11 UNL     1      -7.927  43.800 -31.898  1.00  0.00     0.002 C 
HETATM   14  C2  UNL     1      -8.692  42.481 -32.285  1.00  0.00    -0.016 C 
HETATM   15  C10 UNL     1      -8.611  45.094 -32.484  1.00  0.00    -0.004 C 
HETATM   16  C1  UNL     1      -8.551  42.261 -33.818  1.00  0.00     0.020 C 
HETATM   17  C3  UNL     1      -8.095  41.233 -31.574  1.00  0.00     0.022 C 
HETATM   18  C7  UNL     1     -10.169  42.567 -31.918  1.00  0.00    -0.068 C 
HETATM   19  C4  UNL     1      -8.853  39.946 -31.892  1.00  0.00     0.084 C 
HETATM   20  C5  UNL     1     -10.340  40.107 -31.687  1.00  0.00     0.149 C 
HETATM   21  O1  UNL     1     -11.092  39.140 -31.579  1.00  0.00    -0.293 OA
HETATM   22  C6  UNL     1     -10.913  41.477 -31.651  1.00  0.00     0.053 C 
HETATM   23  C8  UNL     1     -10.796  43.936 -31.841  1.00  0.00     0.035 C 
HETATM   24  C9  UNL     1     -10.119  44.929 -32.777  1.00  0.00     0.010 C 
HETATM   25  C17 UNL     1      -8.634  47.692 -32.178  1.00  0.00     0.009 C 
HETATM   26  C18 UNL     1      -7.783  48.667 -31.343  1.00  0.00     0.047 C 
BRANCH   7  27
HETATM   27  O2  UNL     1      -7.888  47.750 -29.147  1.00  0.00    -0.381 OA
HETATM   28  H27 UNL     1      -7.955  48.669 -28.817  1.00  0.00     0.211 HD
ENDBRANCH   7  27
ENDBRANCH   5   7
ENDBRANCH   4   5
ENDBRANCH   3   4
ENDBRANCH   1   3
BRANCH   1  29
HETATM   29  C23 UNL     1      -2.644  48.600 -26.147  1.00  0.00     0.120 C 
BRANCH  29  30
HETATM   30  C24 UNL     1      -3.677  48.476 -25.034  1.00  0.00     0.112 C 
BRANCH  30  31
HETATM   31  C25 UNL     1      -3.415  49.419 -23.882  1.00  0.00     0.217 C 
HETATM   32  O6  UNL     1      -3.525  50.635 -23.962  1.00  0.00    -0.274 OA
HETATM   33  N1  UNL     1      -3.050  48.747 -22.733  1.00  0.00    -0.361 N 
HETATM   34  H34 UNL     1      -2.763  47.781 -22.827  1.00  0.00     0.162 HD
BRANCH  33  35
HETATM   35  C26 UNL     1      -2.637  49.456 -21.539  1.00  0.00     0.122 C 
BRANCH  35  36
HETATM   36  C27 UNL     1      -1.327  48.903 -20.982  1.00  0.00     0.020 C 
BRANCH  36  37
HETATM   37  C28 UNL     1      -0.935  49.459 -19.606  1.00  0.00     0.002 C 
BRANCH  37  38
HETATM   38  C29 UNL     1      -1.450  50.872 -19.295  1.00  0.00     0.009 C 
BRANCH  38  39
HETATM   39  C30 UNL     1      -0.343  51.899 -19.046  1.00  0.00     0.103 C 
BRANCH  39  40
HETATM   40  C31 UNL     1       0.299  52.388 -20.331  1.00  0.00     0.217 C 
HETATM   41  O7  UNL     1       1.438  52.837 -20.392  1.00  0.00    -0.274 OA
HETATM   42  N2  UNL     1      -0.539  52.320 -21.423  1.00  0.00    -0.361 N 
HETATM   43  H45 UNL     1      -1.372  51.749 -21.359  1.00  0.00     0.162 HD
BRANCH  42  44
HETATM   44  C32 UNL     1      -0.071  52.674 -22.752  1.00  0.00     0.127 C 
BRANCH  44  45
HETATM   45  C33 UNL     1      -0.162  51.518 -23.756  1.00  0.00     0.058 C 
BRANCH  45  46
HETATM   46  C34 UNL     1      -0.092  51.988 -25.193  1.00  0.00    -0.054 A 
HETATM   47  C35 UNL     1       0.016  51.051 -26.238  1.00  0.00     0.010 A 
HETATM   48  C36 UNL     1       0.061  51.472 -27.568  1.00  0.00     0.040 A 
HETATM   49  C37 UNL     1      -0.003  52.828 -27.852  1.00  0.00     0.098 A 
HETATM   50  C38 UNL     1      -0.106  53.766 -26.829  1.00  0.00     0.099 A 
HETATM   51  C39 UNL     1      -0.155  53.358 -25.499  1.00  0.00     0.046 A 
BRANCH  49  52
HETATM   52  O8  UNL     1       0.039  53.236 -29.154  1.00  0.00    -0.358 OA
HETATM   53  H52 UNL     1      -0.012  54.211 -29.107  1.00  0.00     0.217 HD
ENDBRANCH  49  52
BRANCH  50  54
HETATM   54  O9  UNL     1      -0.160  55.088 -27.182  1.00  0.00    -0.358 OA
HETATM   55  H53 UNL     1      -0.187  55.618 -26.368  1.00  0.00     0.217 HD
ENDBRANCH  50  54
ENDBRANCH  45  46
ENDBRANCH  44  45
ENDBRANCH  42  44
ENDBRANCH  39  40
ENDBRANCH  38  39
ENDBRANCH  37  38
ENDBRANCH  36  37
ENDBRANCH  35  36
ENDBRANCH  33  35
ENDBRANCH  30  31
ENDBRANCH  29  30
ENDBRANCH   1  29
TORSDOF 19
ENDMDL
MODEL 2
REMARK minimizedAffinity -8.79162121
REMARK CNNscore 0.364370733
REMARK CNNaffinity 6.59076262
REMARK  19 active torsions:
REMARK  status: ('A' for Active; 'I' for Inactive)
REMARK    1  A    between atoms: C19_20  and  O2_21 
REMARK    2  A    between atoms: C19_20  and  C20_22 
REMARK    3  A    between atoms: C20_22  and  C21_24 
REMARK    4  A    between atoms: C21_24  and  O4_25 
REMARK    5  A    between atoms: O4_25  and  C22_26 
REMARK    6  A    between atoms: C22_26  and  C23_28 
REMARK    7  A    between atoms: C23_28  and  C24_29 
REMARK    8  A    between atoms: C24_29  and  C25_30 
REMARK       I    between atoms: C25_30  and  N1_32 
REMARK    9  A    between atoms: N1_32  and  C26_33 
REMARK   10  A    between atoms: C26_33  and  C27_34 
REMARK   11  A    between atoms: C27_34  and  C28_35 
REMARK   12  A    between atoms: C28_35  and  C29_36 
REMARK   13  A    between atoms: C29_36  and  C30_37 
REMARK   14  A    between atoms: C30_37  and  C31_38 
REMARK       I    between atoms: C31_38  and  N2_40 
REMARK   15  A    between atoms: N2_40  and  C32_41 
REMARK   16  A    between atoms: C32_41  and  C33_42 
REMARK   17  A    between atoms: C33_42  and  C34_43 
REMARK   18  A    between atoms: C37_46  and  O8_47 
REMARK   19  A    between atoms: C38_48  and  O9_49 
ROOT
HETATM    1  C22 UNL     1      -8.425  46.324 -25.998  1.00  0.00     0.259 C 
HETATM    2  O5  UNL     1      -8.298  45.113 -26.127  1.00  0.00    -0.265 OA
ENDROOT
BRANCH   1   3
HETATM    3  O4  UNL     1      -9.546  46.939 -25.533  1.00  0.00    -0.314 OA
BRANCH   3   4
HETATM    4  C21 UNL     1     -10.342  47.603 -26.507  1.00  0.00     0.260 C 
BRANCH   4   5
HETATM    5  C20 UNL     1     -11.237  46.843 -27.503  1.00  0.00     0.185 C 
HETATM    6  O3  UNL     1     -10.721  46.111 -28.353  1.00  0.00    -0.292 OA
BRANCH   5   7
HETATM    7  C19 UNL     1     -12.774  46.940 -27.341  1.00  0.00     0.128 C 
HETATM    8  C14 UNL     1     -13.340  46.126 -26.134  1.00  0.00    -0.002 C 
HETATM    9  C13 UNL     1     -13.200  46.785 -24.747  1.00  0.00     0.013 C 
HETATM   10  C15 UNL     1     -12.710  44.706 -26.099  1.00  0.00     0.019 C 
HETATM   11  C16 UNL     1     -14.839  46.103 -26.501  1.00  0.00     0.002 C 
HETATM   12  C12 UNL     1     -14.456  46.661 -23.854  1.00  0.00     0.007 C 
HETATM   13  C11 UNL     1     -15.271  45.361 -24.075  1.00  0.00     0.002 C 
HETATM   14  C2  UNL     1     -16.472  45.145 -23.081  1.00  0.00    -0.016 C 
HETATM   15  C10 UNL     1     -15.696  45.208 -25.585  1.00  0.00    -0.004 C 
HETATM   16  C1  UNL     1     -16.905  43.653 -23.150  1.00  0.00     0.020 C 
HETATM   17  C3  UNL     1     -16.070  45.450 -21.610  1.00  0.00     0.022 C 
HETATM   18  C7  UNL     1     -17.656  46.035 -23.438  1.00  0.00    -0.068 C 
HETATM   19  C4  UNL     1     -17.232  45.299 -20.631  1.00  0.00     0.084 C 
HETATM   20  C5  UNL     1     -18.456  46.051 -21.094  1.00  0.00     0.149 C 
HETATM   21  O1  UNL     1     -19.381  46.325 -20.331  1.00  0.00    -0.293 OA
HETATM   22  C6  UNL     1     -18.558  46.440 -22.524  1.00  0.00     0.053 C 
HETATM   23  C8  UNL     1     -17.793  46.482 -24.871  1.00  0.00     0.035 C 
HETATM   24  C9  UNL     1     -17.196  45.474 -25.845  1.00  0.00     0.010 C 
HETATM   25  C17 UNL     1     -14.856  45.775 -27.996  1.00  0.00     0.009 C 
HETATM   26  C18 UNL     1     -13.535  46.338 -28.552  1.00  0.00     0.047 C 
BRANCH   7  27
HETATM   27  O2  UNL     1     -13.187  48.308 -27.260  1.00  0.00    -0.381 OA
HETATM   28  H27 UNL     1     -12.871  48.735 -28.081  1.00  0.00     0.211 HD
ENDBRANCH   7  27
ENDBRANCH   5   7
ENDBRANCH   4   5
ENDBRANCH   3   4
ENDBRANCH   1   3
BRANCH   1  29
HETATM   29  C23 UNL     1      -7.377  47.338 -26.371  1.00  0.00     0.120 C 
BRANCH  29  30
HETATM   30  C24 UNL     1      -7.090  47.271 -27.866  1.00  0.00     0.112 C 
BRANCH  30  31
HETATM   31  C25 UNL     1      -5.734  47.833 -28.228  1.00  0.00     0.217 C 
HETATM   32  O6  UNL     1      -5.177  47.628 -29.298  1.00  0.00    -0.274 OA
HETATM   33  N1  UNL     1      -5.208  48.612 -27.217  1.00  0.00    -0.361 N 
HETATM   34  H34 UNL     1      -5.626  48.532 -26.299  1.00  0.00     0.162 HD
BRANCH  33  35
HETATM   35  C26 UNL     1      -3.867  49.154 -27.298  1.00  0.00     0.122 C 
BRANCH  35  36
HETATM   36  C27 UNL     1      -2.901  48.406 -26.382  1.00  0.00     0.020 C 
BRANCH  36  37
HETATM   37  C28 UNL     1      -2.847  48.936 -24.943  1.00  0.00     0.002 C 
BRANCH  37  38
HETATM   38  C29 UNL     1      -3.961  49.923 -24.562  1.00  0.00     0.009 C 
BRANCH  38  39
HETATM   39  C30 UNL     1      -4.147  50.101 -23.054  1.00  0.00     0.103 C 
BRANCH  39  40
HETATM   40  C31 UNL     1      -2.892  50.605 -22.365  1.00  0.00     0.217 C 
HETATM   41  O7  UNL     1      -2.398  50.069 -21.379  1.00  0.00    -0.274 OA
HETATM   42  N2  UNL     1      -2.380  51.752 -22.931  1.00  0.00    -0.361 N 
HETATM   43  H45 UNL     1      -2.694  52.018 -23.855  1.00  0.00     0.162 HD
BRANCH  42  44
HETATM   44  C32 UNL     1      -1.138  52.336 -22.452  1.00  0.00     0.127 C 
BRANCH  44  45
HETATM   45  C33 UNL     1       0.100  51.831 -23.205  1.00  0.00     0.058 C 
BRANCH  45  46
HETATM   46  C34 UNL     1       0.069  52.181 -24.677  1.00  0.00    -0.054 A 
HETATM   47  C35 UNL     1      -0.012  51.161 -25.644  1.00  0.00     0.010 A 
HETATM   48  C36 UNL     1      -0.061  51.472 -27.004  1.00  0.00     0.040 A 
HETATM   49  C37 UNL     1      -0.030  52.802 -27.395  1.00  0.00     0.098 A 
HETATM   50  C38 UNL     1       0.054  53.821 -26.451  1.00  0.00     0.099 A 
HETATM   51  C39 UNL     1       0.100  53.523 -25.092  1.00  0.00     0.046 A 
BRANCH  49  52
HETATM   52  O8  UNL     1      -0.081  53.103 -28.726  1.00  0.00    -0.358 OA
HETATM   53  H52 UNL     1      -0.039  54.080 -28.758  1.00  0.00     0.217 HD
ENDBRANCH  49  52
BRANCH  50  54
HETATM   54  O9  UNL     1       0.084  55.111 -26.910  1.00  0.00    -0.358 OA
HETATM   55  H53 UNL     1       0.186  55.702 -26.145  1.00  0.00     0.217 HD
ENDBRANCH  50  54
ENDBRANCH  45  46
ENDBRANCH  44  45
ENDBRANCH  42  44
ENDBRANCH  39  40
ENDBRANCH  38  39
ENDBRANCH  37  38
ENDBRANCH  36  37
ENDBRANCH  35  36
ENDBRANCH  33  35
ENDBRANCH  30  31
ENDBRANCH  29  30
ENDBRANCH   1  29
TORSDOF 19
ENDMDL
MODEL 3
REMARK minimizedAffinity -8.15288162
REMARK CNNscore 0.342414975
REMARK CNNaffinity 6.07753801
REMARK  19 active torsions:
REMARK  status: ('A' for Active; 'I' for Inactive)
REMARK    1  A    between atoms: C19_20  and  O2_21 
REMARK    2  A    between atoms: C19_20  and  C20_22 
REMARK    3  A    between atoms: C20_22  and  C21_24 
REMARK    4  A    between atoms: C21_24  and  O4_25 
REMARK    5  A    between atoms: O4_25  and  C22_26 
REMARK    6  A    between atoms: C22_26  and  C23_28 
REMARK    7  A    between atoms: C23_28  and  C24_29 
REMARK    8  A    between atoms: C24_29  and  C25_30 
REMARK       I    between atoms: C25_30  and  N1_32 
REMARK    9  A    between atoms: N1_32  and  C26_33 
REMARK   10  A    between atoms: C26_33  and  C27_34 
REMARK   11  A    between atoms: C27_34  and  C28_35 
REMARK   12  A    between atoms: C28_35  and  C29_36 
REMARK   13  A    between atoms: C29_36  and  C30_37 
REMARK   14  A    between atoms: C30_37  and  C31_38 
REMARK       I    between atoms: C31_38  and  N2_40 
REMARK   15  A    between atoms: N2_40  and  C32_41 
REMARK   16  A    between atoms: C32_41  and  C33_42 
REMARK   17  A    between atoms: C33_42  and  C34_43 
REMARK   18  A    between atoms: C37_46  and  O8_47 
REMARK   19  A    between atoms: C38_48  and  O9_49 
ROOT
HETATM    1  C22 UNL     1      10.824  62.271 -36.386  1.00  0.00     0.259 C 
HETATM    2  O5  UNL     1      10.596  61.599 -37.385  1.00  0.00    -0.265 OA
ENDROOT
BRANCH   1   3
HETATM    3  O4  UNL     1       9.987  62.379 -35.319  1.00  0.00    -0.314 OA
BRANCH   3   4
HETATM    4  C21 UNL     1       8.599  62.449 -35.622  1.00  0.00     0.260 C 
BRANCH   4   5
HETATM    5  C20 UNL     1       7.523  62.637 -34.536  1.00  0.00     0.185 C 
HETATM    6  O3  UNL     1       7.835  62.549 -33.345  1.00  0.00    -0.292 OA
BRANCH   5   7
HETATM    7  C19 UNL     1       6.091  63.036 -34.972  1.00  0.00     0.128 C 
HETATM    8  C14 UNL     1       5.952  64.528 -35.413  1.00  0.00    -0.002 C 
HETATM    9  C13 UNL     1       6.430  64.860 -36.842  1.00  0.00     0.013 C 
HETATM   10  C15 UNL     1       6.671  65.458 -34.397  1.00  0.00     0.019 C 
HETATM   11  C16 UNL     1       4.417  64.680 -35.376  1.00  0.00     0.002 C 
HETATM   12  C12 UNL     1       5.490  65.809 -37.621  1.00  0.00     0.007 C 
HETATM   13  C11 UNL     1       4.746  66.841 -36.735  1.00  0.00     0.002 C 
HETATM   14  C2  UNL     1       3.894  67.908 -37.519  1.00  0.00    -0.016 C 
HETATM   15  C10 UNL     1       3.923  66.123 -35.597  1.00  0.00    -0.004 C 
HETATM   16  C1  UNL     1       3.572  69.084 -36.555  1.00  0.00     0.020 C 
HETATM   17  C3  UNL     1       4.671  68.493 -38.732  1.00  0.00     0.022 C 
HETATM   18  C7  UNL     1       2.594  67.307 -38.040  1.00  0.00    -0.068 C 
HETATM   19  C4  UNL     1       3.848  69.493 -39.541  1.00  0.00     0.084 C 
HETATM   20  C5  UNL     1       2.490  68.939 -39.900  1.00  0.00     0.149 C 
HETATM   21  O1  UNL     1       1.801  69.431 -40.792  1.00  0.00    -0.293 OA
HETATM   22  C6  UNL     1       1.959  67.789 -39.126  1.00  0.00     0.053 C 
HETATM   23  C8  UNL     1       2.024  66.119 -37.307  1.00  0.00     0.035 C 
HETATM   24  C9  UNL     1       2.395  66.125 -35.831  1.00  0.00     0.010 C 
HETATM   25  C17 UNL     1       4.003  64.003 -34.067  1.00  0.00     0.009 C 
HETATM   26  C18 UNL     1       5.067  62.920 -33.813  1.00  0.00     0.047 C 
BRANCH   7  27
HETATM   27  O2  UNL     1       5.617  62.163 -36.003  1.00  0.00    -0.381 OA
HETATM   28  H27 UNL     1       5.655  61.259 -35.631  1.00  0.00     0.211 HD
ENDBRANCH   7  27
ENDBRANCH   5   7
ENDBRANCH   4   5
ENDBRANCH   3   4
ENDBRANCH   1   3
BRANCH   1  29
HETATM   29  C23 UNL     1      12.050  63.121 -36.190  1.00  0.00     0.120 C 
BRANCH  29  30
HETATM   30  C24 UNL     1      13.107  62.767 -37.229  1.00  0.00     0.112 C 
BRANCH  30  31
HETATM   31  C25 UNL     1      14.317  62.091 -36.627  1.00  0.00     0.217 C 
HETATM   32  O6  UNL     1      14.788  62.385 -35.536  1.00  0.00    -0.274 OA
HETATM   33  N1  UNL     1      14.818  61.097 -37.444  1.00  0.00    -0.361 N 
HETATM   34  H34 UNL     1      14.512  61.087 -38.409  1.00  0.00     0.162 HD
BRANCH  33  35
HETATM   35  C26 UNL     1      16.045  60.398 -37.122  1.00  0.00     0.122 C 
BRANCH  35  36
HETATM   36  C27 UNL     1      15.806  58.901 -36.933  1.00  0.00     0.020 C 
BRANCH  36  37
HETATM   37  C28 UNL     1      14.900  58.260 -37.993  1.00  0.00     0.002 C 
BRANCH  37  38
HETATM   38  C29 UNL     1      15.556  57.164 -38.846  1.00  0.00     0.009 C 
BRANCH  38  39
HETATM   39  C30 UNL     1      17.083  57.136 -38.759  1.00  0.00     0.103 C 
BRANCH  39  40
HETATM   40  C31 UNL     1      17.613  55.835 -38.183  1.00  0.00     0.217 C 
HETATM   41  O7  UNL     1      18.734  55.712 -37.705  1.00  0.00    -0.274 OA
HETATM   42  N2  UNL     1      16.723  54.788 -38.288  1.00  0.00    -0.361 N 
HETATM   43  H45 UNL     1      15.752  54.995 -38.486  1.00  0.00     0.162 HD
BRANCH  42  44
HETATM   44  C32 UNL     1      17.027  53.485 -37.722  1.00  0.00     0.127 C 
BRANCH  44  45
HETATM   45  C33 UNL     1      17.360  52.426 -38.781  1.00  0.00     0.058 C 
BRANCH  45  46
HETATM   46  C34 UNL     1      16.754  51.075 -38.464  1.00  0.00    -0.054 A 
HETATM   47  C35 UNL     1      16.353  50.220 -39.507  1.00  0.00     0.010 A 
HETATM   48  C36 UNL     1      15.811  48.964 -39.228  1.00  0.00     0.040 A 
HETATM   49  C37 UNL     1      15.673  48.565 -37.907  1.00  0.00     0.098 A 
HETATM   50  C38 UNL     1      16.062  49.402 -36.865  1.00  0.00     0.099 A 
HETATM   51  C39 UNL     1      16.606  50.655 -37.132  1.00  0.00     0.046 A 
BRANCH  49  52
HETATM   52  O8  UNL     1      15.145  47.335 -37.637  1.00  0.00    -0.358 OA
HETATM   53  H52 UNL     1      15.139  47.280 -36.661  1.00  0.00     0.217 HD
ENDBRANCH  49  52
BRANCH  50  54
HETATM   54  O9  UNL     1      15.892  48.944 -35.586  1.00  0.00    -0.358 OA
HETATM   55  H53 UNL     1      16.167  49.648 -34.974  1.00  0.00     0.217 HD
ENDBRANCH  50  54
ENDBRANCH  45  46
ENDBRANCH  44  45
ENDBRANCH  42  44
ENDBRANCH  39  40
ENDBRANCH  38  39
ENDBRANCH  37  38
ENDBRANCH  36  37
ENDBRANCH  35  36
ENDBRANCH  33  35
ENDBRANCH  30  31
ENDBRANCH  29  30
ENDBRANCH   1  29
TORSDOF 19
ENDMDL
MODEL 4
REMARK minimizedAffinity -9.26102161
REMARK CNNscore 0.299897432
REMARK CNNaffinity 6.70196915
REMARK  19 active torsions:
REMARK  status: ('A' for Active; 'I' for Inactive)
REMARK    1  A    between atoms: C19_20  and  O2_21 
REMARK    2  A    between atoms: C19_20  and  C20_22 
REMARK    3  A    between atoms: C20_22  and  C21_24 
REMARK    4  A    between atoms: C21_24  and  O4_25 
REMARK    5  A    between atoms: O4_25  and  C22_26 
REMARK    6  A    between atoms: C22_26  and  C23_28 
REMARK    7  A    between atoms: C23_28  and  C24_29 
REMARK    8  A    between atoms: C24_29  and  C25_30 
REMARK       I    between atoms: C25_30  and  N1_32 
REMARK    9  A    between atoms: N1_32  and  C26_33 
REMARK   10  A    between atoms: C26_33  and  C27_34 
REMARK   11  A    between atoms: C27_34  and  C28_35 
REMARK   12  A    between atoms: C28_35  and  C29_36 
REMARK   13  A    between atoms: C29_36  and  C30_37 
REMARK   14  A    between atoms: C30_37  and  C31_38 
REMARK       I    between atoms: C31_38  and  N2_40 
REMARK   15  A    between atoms: N2_40  and  C32_41 
REMARK   16  A    between atoms: C32_41  and  C33_42 
REMARK   17  A    between atoms: C33_42  and  C34_43 
REMARK   18  A    between atoms: C37_46  and  O8_47 
REMARK   19  A    between atoms: C38_48  and  O9_49 
ROOT
HETATM    1  C22 UNL     1       1.440  53.995 -21.888  1.00  0.00     0.259 C 
HETATM    2  O5  UNL     1       1.832  54.801 -21.052  1.00  0.00    -0.265 OA
ENDROOT
BRANCH   1   3
HETATM    3  O4  UNL     1       1.294  54.266 -23.214  1.00  0.00    -0.314 OA
BRANCH   3   4
HETATM    4  C21 UNL     1       0.685  53.244 -23.994  1.00  0.00     0.260 C 
BRANCH   4   5
HETATM    5  C20 UNL     1      -0.136  53.548 -25.261  1.00  0.00     0.185 C 
HETATM    6  O3  UNL     1      -0.039  54.655 -25.800  1.00  0.00    -0.292 OA
BRANCH   5   7
HETATM    7  C19 UNL     1      -0.986  52.413 -25.884  1.00  0.00     0.128 C 
HETATM    8  C14 UNL     1      -1.867  51.639 -24.852  1.00  0.00    -0.002 C 
HETATM    9  C13 UNL     1      -3.182  52.328 -24.431  1.00  0.00     0.013 C 
HETATM   10  C15 UNL     1      -1.036  51.293 -23.586  1.00  0.00     0.019 C 
HETATM   11  C16 UNL     1      -2.229  50.393 -25.686  1.00  0.00     0.002 C 
HETATM   12  C12 UNL     1      -4.399  51.380 -24.353  1.00  0.00     0.007 C 
HETATM   13  C11 UNL     1      -4.053  49.929 -23.931  1.00  0.00     0.002 C 
HETATM   14  C2  UNL     1      -5.290  48.982 -23.705  1.00  0.00    -0.016 C 
HETATM   15  C10 UNL     1      -2.974  49.301 -24.893  1.00  0.00    -0.004 C 
HETATM   16  C1  UNL     1      -4.818  47.738 -22.901  1.00  0.00     0.020 C 
HETATM   17  C3  UNL     1      -6.411  49.677 -22.881  1.00  0.00     0.022 C 
HETATM   18  C7  UNL     1      -5.894  48.531 -25.030  1.00  0.00    -0.068 C 
HETATM   19  C4  UNL     1      -7.645  48.798 -22.692  1.00  0.00     0.084 C 
HETATM   20  C5  UNL     1      -8.125  48.219 -24.002  1.00  0.00     0.149 C 
HETATM   21  O1  UNL     1      -9.255  47.753 -24.133  1.00  0.00    -0.293 OA
HETATM   22  C6  UNL     1      -7.189  48.181 -25.153  1.00  0.00     0.053 C 
HETATM   23  C8  UNL     1      -4.994  48.500 -26.239  1.00  0.00     0.035 C 
HETATM   24  C9  UNL     1      -3.541  48.240 -25.864  1.00  0.00     0.010 C 
HETATM   25  C17 UNL     1      -0.910  49.985 -26.347  1.00  0.00     0.009 C 
HETATM   26  C18 UNL     1      -0.111  51.291 -26.502  1.00  0.00     0.047 C 
BRANCH   7  27
HETATM   27  O2  UNL     1      -1.793  52.916 -26.953  1.00  0.00    -0.381 OA
HETATM   28  H27 UNL     1      -1.172  53.313 -27.597  1.00  0.00     0.211 HD
ENDBRANCH   7  27
ENDBRANCH   5   7
ENDBRANCH   4   5
ENDBRANCH   3   4
ENDBRANCH   1   3
BRANCH   1  29
HETATM   29  C23 UNL     1       1.017  52.584 -21.583  1.00  0.00     0.120 C 
BRANCH  29  30
HETATM   30  C24 UNL     1      -0.354  52.579 -20.917  1.00  0.00     0.112 C 
BRANCH  30  31
HETATM   31  C25 UNL     1      -0.271  52.598 -19.408  1.00  0.00     0.217 C 
HETATM   32  O6  UNL     1      -0.243  53.625 -18.742  1.00  0.00    -0.274 OA
HETATM   33  N1  UNL     1      -0.245  51.326 -18.872  1.00  0.00    -0.361 N 
HETATM   34  H34 UNL     1      -0.039  50.559 -19.499  1.00  0.00     0.162 HD
BRANCH  33  35
HETATM   35  C26 UNL     1      -0.049  51.104 -17.454  1.00  0.00     0.122 C 
BRANCH  35  36
HETATM   36  C27 UNL     1       1.351  51.521 -17.008  1.00  0.00     0.020 C 
BRANCH  36  37
HETATM   37  C28 UNL     1       1.381  52.444 -15.782  1.00  0.00     0.002 C 
BRANCH  37  38
HETATM   38  C29 UNL     1       1.607  51.742 -14.434  1.00  0.00     0.009 C 
BRANCH  38  39
HETATM   39  C30 UNL     1       0.603  52.135 -13.349  1.00  0.00     0.103 C 
BRANCH  39  40
HETATM   40  C31 UNL     1       1.269  52.435 -12.018  1.00  0.00     0.217 C 
HETATM   41  O7  UNL     1       0.773  52.156 -10.933  1.00  0.00    -0.274 OA
HETATM   42  N2  UNL     1       2.473  53.093 -12.145  1.00  0.00    -0.361 N 
HETATM   43  H45 UNL     1       2.929  53.101 -13.048  1.00  0.00     0.162 HD
BRANCH  42  44
HETATM   44  C32 UNL     1       3.290  53.395 -10.981  1.00  0.00     0.127 C 
BRANCH  44  45
HETATM   45  C33 UNL     1       3.662  54.879 -10.868  1.00  0.00     0.058 C 
BRANCH  45  46
HETATM   46  C34 UNL     1       3.045  55.544  -9.657  1.00  0.00    -0.054 A 
HETATM   47  C35 UNL     1       3.820  56.394  -8.846  1.00  0.00     0.010 A 
HETATM   48  C36 UNL     1       3.255  57.029  -7.738  1.00  0.00     0.040 A 
HETATM   49  C37 UNL     1       1.918  56.813  -7.443  1.00  0.00     0.098 A 
HETATM   50  C38 UNL     1       1.140  55.971  -8.233  1.00  0.00     0.099 A 
HETATM   51  C39 UNL     1       1.691  55.336  -9.342  1.00  0.00     0.046 A 
BRANCH  49  52
HETATM   52  O8  UNL     1       1.368  57.437  -6.360  1.00  0.00    -0.358 OA
HETATM   53  H52 UNL     1       0.439  57.134  -6.348  1.00  0.00     0.217 HD
ENDBRANCH  49  52
BRANCH  50  54
HETATM   54  O9  UNL     1      -0.172  55.802  -7.880  1.00  0.00    -0.358 OA
HETATM   55  H53 UNL     1      -0.570  55.161  -8.493  1.00  0.00     0.217 HD
ENDBRANCH  50  54
ENDBRANCH  45  46
ENDBRANCH  44  45
ENDBRANCH  42  44
ENDBRANCH  39  40
ENDBRANCH  38  39
ENDBRANCH  37  38
ENDBRANCH  36  37
ENDBRANCH  35  36
ENDBRANCH  33  35
ENDBRANCH  30  31
ENDBRANCH  29  30
ENDBRANCH   1  29
TORSDOF 19
ENDMDL
MODEL 5
REMARK minimizedAffinity -8.6026926
REMARK CNNscore 0.288219869
REMARK CNNaffinity 6.21117401
REMARK  19 active torsions:
REMARK  status: ('A' for Active; 'I' for Inactive)
REMARK    1  A    between atoms: C19_20  and  O2_21 
REMARK    2  A    between atoms: C19_20  and  C20_22 
REMARK    3  A    between atoms: C20_22  and  C21_24 
REMARK    4  A    between atoms: C21_24  and  O4_25 
REMARK    5  A    between atoms: O4_25  and  C22_26 
REMARK    6  A    between atoms: C22_26  and  C23_28 
REMARK    7  A    between atoms: C23_28  and  C24_29 
REMARK    8  A    between atoms: C24_29  and  C25_30 
REMARK       I    between atoms: C25_30  and  N1_32 
REMARK    9  A    between atoms: N1_32  and  C26_33 
REMARK   10  A    between atoms: C26_33  and  C27_34 
REMARK   11  A    between atoms: C27_34  and  C28_35 
REMARK   12  A    between atoms: C28_35  and  C29_36 
REMARK   13  A    between atoms: C29_36  and  C30_37 
REMARK   14  A    between atoms: C30_37  and  C31_38 
REMARK       I    between atoms: C31_38  and  N2_40 
REMARK   15  A    between atoms: N2_40  and  C32_41 
REMARK   16  A    between atoms: C32_41  and  C33_42 
REMARK   17  A    between atoms: C33_42  and  C34_43 
REMARK   18  A    between atoms: C37_46  and  O8_47 
REMARK   19  A    between atoms: C38_48  and  O9_49 
ROOT
HETATM    1  C22 UNL     1     -10.298  46.418 -30.209  1.00  0.00     0.259 C 
HETATM    2  O5  UNL     1     -10.755  47.497 -30.566  1.00  0.00    -0.265 OA
ENDROOT
BRANCH   1   3
HETATM    3  O4  UNL     1     -10.949  45.228 -30.318  1.00  0.00    -0.314 OA
BRANCH   3   4
HETATM    4  C21 UNL     1     -12.213  45.149 -29.669  1.00  0.00     0.260 C 
BRANCH   4   5
HETATM    5  C20 UNL     1     -12.460  44.250 -28.443  1.00  0.00     0.185 C 
HETATM    6  O3  UNL     1     -12.331  43.027 -28.548  1.00  0.00    -0.292 OA
BRANCH   5   7
HETATM    7  C19 UNL     1     -12.764  44.922 -27.081  1.00  0.00     0.128 C 
HETATM    8  C14 UNL     1     -14.287  45.103 -26.787  1.00  0.00    -0.002 C 
HETATM    9  C13 UNL     1     -15.034  43.851 -26.283  1.00  0.00     0.013 C 
HETATM   10  C15 UNL     1     -15.014  45.670 -28.038  1.00  0.00     0.019 C 
HETATM   11  C16 UNL     1     -14.221  46.117 -25.626  1.00  0.00     0.002 C 
HETATM   12  C12 UNL     1     -16.017  44.122 -25.121  1.00  0.00     0.007 C 
HETATM   13  C11 UNL     1     -16.681  45.522 -25.159  1.00  0.00     0.002 C 
HETATM   14  C2  UNL     1     -17.791  45.769 -24.071  1.00  0.00    -0.016 C 
HETATM   15  C10 UNL     1     -15.594  46.664 -25.190  1.00  0.00    -0.004 C 
HETATM   16  C1  UNL     1     -18.629  47.009 -24.495  1.00  0.00     0.020 C 
HETATM   17  C3  UNL     1     -18.764  44.563 -23.950  1.00  0.00     0.022 C 
HETATM   18  C7  UNL     1     -17.177  46.016 -22.697  1.00  0.00    -0.068 C 
HETATM   19  C4  UNL     1     -19.820  44.755 -22.863  1.00  0.00     0.084 C 
HETATM   20  C5  UNL     1     -19.202  45.170 -21.550  1.00  0.00     0.149 C 
HETATM   21  O1  UNL     1     -19.809  45.075 -20.485  1.00  0.00    -0.293 OA
HETATM   22  C6  UNL     1     -17.832  45.743 -21.553  1.00  0.00     0.053 C 
HETATM   23  C8  UNL     1     -15.777  46.572 -22.643  1.00  0.00     0.035 C 
HETATM   24  C9  UNL     1     -15.454  47.433 -23.856  1.00  0.00     0.010 C 
HETATM   25  C17 UNL     1     -13.183  47.146 -26.083  1.00  0.00     0.009 C 
HETATM   26  C18 UNL     1     -12.222  46.373 -27.004  1.00  0.00     0.047 C 
BRANCH   7  27
HETATM   27  O2  UNL     1     -12.130  44.209 -26.015  1.00  0.00    -0.381 OA
HETATM   28  H27 UNL     1     -11.174  44.204 -26.223  1.00  0.00     0.211 HD
ENDBRANCH   7  27
ENDBRANCH   5   7
ENDBRANCH   4   5
ENDBRANCH   3   4
ENDBRANCH   1   3
BRANCH   1  29
HETATM   29  C23 UNL     1      -8.956  46.233 -29.555  1.00  0.00     0.120 C 
BRANCH  29  30
HETATM   30  C24 UNL     1      -8.623  47.440 -28.686  1.00  0.00     0.112 C 
BRANCH  30  31
HETATM   31  C25 UNL     1      -8.165  47.055 -27.298  1.00  0.00     0.217 C 
HETATM   32  O6  UNL     1      -8.220  45.914 -26.857  1.00  0.00    -0.274 OA
HETATM   33  N1  UNL     1      -7.667  48.134 -26.597  1.00  0.00    -0.361 N 
HETATM   34  H34 UNL     1      -7.876  49.059 -26.951  1.00  0.00     0.162 HD
BRANCH  33  35
HETATM   35  C26 UNL     1      -7.281  48.021 -25.206  1.00  0.00     0.122 C 
BRANCH  35  36
HETATM   36  C27 UNL     1      -5.762  48.033 -25.040  1.00  0.00     0.020 C 
BRANCH  36  37
HETATM   37  C28 UNL     1      -4.987  48.453 -26.296  1.00  0.00     0.002 C 
BRANCH  37  38
HETATM   38  C29 UNL     1      -3.458  48.358 -26.189  1.00  0.00     0.009 C 
BRANCH  38  39
HETATM   39  C30 UNL     1      -2.897  48.817 -24.842  1.00  0.00     0.103 C 
BRANCH  39  40
HETATM   40  C31 UNL     1      -2.129  50.123 -24.942  1.00  0.00     0.217 C 
HETATM   41  O7  UNL     1      -1.449  50.437 -25.913  1.00  0.00    -0.274 OA
HETATM   42  N2  UNL     1      -2.235  50.908 -23.815  1.00  0.00    -0.361 N 
HETATM   43  H45 UNL     1      -2.970  50.704 -23.150  1.00  0.00     0.162 HD
BRANCH  42  44
HETATM   44  C32 UNL     1      -1.630  52.227 -23.760  1.00  0.00     0.127 C 
BRANCH  44  45
HETATM   45  C33 UNL     1      -0.122  52.193 -23.484  1.00  0.00     0.058 C 
BRANCH  45  46
HETATM   46  C34 UNL     1       0.211  52.456 -22.031  1.00  0.00    -0.054 A 
HETATM   47  C35 UNL     1       1.059  53.524 -21.683  1.00  0.00     0.010 A 
HETATM   48  C36 UNL     1       1.356  53.789 -20.345  1.00  0.00     0.040 A 
HETATM   49  C37 UNL     1       0.805  52.986 -19.357  1.00  0.00     0.098 A 
HETATM   50  C38 UNL     1      -0.032  51.924 -19.687  1.00  0.00     0.099 A 
HETATM   51  C39 UNL     1      -0.338  51.653 -21.018  1.00  0.00     0.046 A 
BRANCH  49  52
HETATM   52  O8  UNL     1       1.096  53.249 -18.049  1.00  0.00    -0.358 OA
HETATM   53  H52 UNL     1       0.611  52.563 -17.548  1.00  0.00     0.217 HD
ENDBRANCH  49  52
BRANCH  50  54
HETATM   54  O9  UNL     1      -0.537  51.171 -18.661  1.00  0.00    -0.358 OA
HETATM   55  H53 UNL     1      -1.063  50.449 -19.045  1.00  0.00     0.217 HD
ENDBRANCH  50  54
ENDBRANCH  45  46
ENDBRANCH  44  45
ENDBRANCH  42  44
ENDBRANCH  39  40
ENDBRANCH  38  39
ENDBRANCH  37  38
ENDBRANCH  36  37
ENDBRANCH  35  36
ENDBRANCH  33  35
ENDBRANCH  30  31
ENDBRANCH  29  30
ENDBRANCH   1  29
TORSDOF 19
ENDMDL
MODEL 6
REMARK minimizedAffinity -8.91287231
REMARK CNNscore 0.26585108
REMARK CNNaffinity 7.0926528
REMARK  19 active torsions:
REMARK  status: ('A' for Active; 'I' for Inactive)
REMARK    1  A    between atoms: C19_20  and  O2_21 
REMARK    2  A    between atoms: C19_20  and  C20_22 
REMARK    3  A    between atoms: C20_22  and  C21_24 
REMARK    4  A    between atoms: C21_24  and  O4_25 
REMARK    5  A    between atoms: O4_25  and  C22_26 
REMARK    6  A    between atoms: C22_26  and  C23_28 
REMARK    7  A    between atoms: C23_28  and  C24_29 
REMARK    8  A    between atoms: C24_29  and  C25_30 
REMARK       I    between atoms: C25_30  and  N1_32 
REMARK    9  A    between atoms: N1_32  and  C26_33 
REMARK   10  A    between atoms: C26_33  and  C27_34 
REMARK   11  A    between atoms: C27_34  and  C28_35 
REMARK   12  A    between atoms: C28_35  and  C29_36 
REMARK   13  A    between atoms: C29_36  and  C30_37 
REMARK   14  A    between atoms: C30_37  and  C31_38 
REMARK       I    between atoms: C31_38  and  N2_40 
REMARK   15  A    between atoms: N2_40  and  C32_41 
REMARK   16  A    between atoms: C32_41  and  C33_42 
REMARK   17  A    between atoms: C33_42  and  C34_43 
REMARK   18  A    between atoms: C37_46  and  O8_47 
REMARK   19  A    between atoms: C38_48  and  O9_49 
ROOT
HETATM    1  C22 UNL     1      -3.259  49.419 -27.572  1.00  0.00     0.259 C 
HETATM    2  O5  UNL     1      -3.390  50.580 -27.941  1.00  0.00    -0.265 OA
ENDROOT
BRANCH   1   3
HETATM    3  O4  UNL     1      -3.740  48.336 -28.240  1.00  0.00    -0.314 OA
BRANCH   3   4
HETATM    4  C21 UNL     1      -5.104  48.407 -28.639  1.00  0.00     0.260 C 
BRANCH   4   5
HETATM    5  C20 UNL     1      -5.545  48.265 -30.108  1.00  0.00     0.185 C 
HETATM    6  O3  UNL     1      -4.937  48.878 -30.990  1.00  0.00    -0.292 OA
BRANCH   5   7
HETATM    7  C19 UNL     1      -6.682  47.270 -30.447  1.00  0.00     0.128 C 
HETATM    8  C14 UNL     1      -7.695  47.039 -29.281  1.00  0.00    -0.002 C 
HETATM    9  C13 UNL     1      -8.770  48.128 -29.091  1.00  0.00     0.013 C 
HETATM   10  C15 UNL     1      -6.935  46.821 -27.943  1.00  0.00     0.019 C 
HETATM   11  C16 UNL     1      -8.397  45.759 -29.781  1.00  0.00     0.002 C 
HETATM   12  C12 UNL     1     -10.188  47.579 -28.812  1.00  0.00     0.007 C 
HETATM   13  C11 UNL     1     -10.213  46.245 -28.024  1.00  0.00     0.002 C 
HETATM   14  C2  UNL     1     -11.644  45.740 -27.604  1.00  0.00    -0.016 C 
HETATM   15  C10 UNL     1      -9.369  45.136 -28.760  1.00  0.00    -0.004 C 
HETATM   16  C1  UNL     1     -11.480  44.663 -26.495  1.00  0.00     0.020 C 
HETATM   17  C3  UNL     1     -12.516  46.888 -27.019  1.00  0.00     0.022 C 
HETATM   18  C7  UNL     1     -12.392  45.140 -28.789  1.00  0.00    -0.068 C 
HETATM   19  C4  UNL     1     -13.928  46.436 -26.652  1.00  0.00     0.084 C 
HETATM   20  C5  UNL     1     -14.589  45.689 -27.785  1.00  0.00     0.149 C 
HETATM   21  O1  UNL     1     -15.805  45.514 -27.829  1.00  0.00    -0.293 OA
HETATM   22  C6  UNL     1     -13.736  45.119 -28.859  1.00  0.00     0.053 C 
HETATM   23  C8  UNL     1     -11.575  44.571 -29.921  1.00  0.00     0.035 C 
HETATM   24  C9  UNL     1     -10.226  44.048 -29.447  1.00  0.00     0.010 C 
HETATM   25  C17 UNL     1      -7.253  44.869 -30.275  1.00  0.00     0.009 C 
HETATM   26  C18 UNL     1      -6.150  45.840 -30.732  1.00  0.00     0.047 C 
BRANCH   7  27
HETATM   27  O2  UNL     1      -7.370  47.676 -31.635  1.00  0.00    -0.381 OA
HETATM   28  H27 UNL     1      -6.692  47.721 -32.338  1.00  0.00     0.211 HD
ENDBRANCH   7  27
ENDBRANCH   5   7
ENDBRANCH   4   5
ENDBRANCH   3   4
ENDBRANCH   1   3
BRANCH   1  29
HETATM   29  C23 UNL     1      -2.577  49.000 -26.298  1.00  0.00     0.120 C 
BRANCH  29  30
HETATM   30  C24 UNL     1      -3.589  48.389 -25.336  1.00  0.00     0.112 C 
BRANCH  30  31
HETATM   31  C25 UNL     1      -3.568  49.039 -23.972  1.00  0.00     0.217 C 
HETATM   32  O6  UNL     1      -3.996  50.164 -23.749  1.00  0.00    -0.274 OA
HETATM   33  N1  UNL     1      -3.022  48.213 -23.011  1.00  0.00    -0.361 N 
HETATM   34  H34 UNL     1      -2.492  47.412 -23.329  1.00  0.00     0.162 HD
BRANCH  33  35
HETATM   35  C26 UNL     1      -2.793  48.673 -21.657  1.00  0.00     0.122 C 
BRANCH  35  36
HETATM   36  C27 UNL     1      -1.377  48.350 -21.184  1.00  0.00     0.020 C 
BRANCH  36  37
HETATM   37  C28 UNL     1      -1.047  48.850 -19.771  1.00  0.00     0.002 C 
BRANCH  37  38
HETATM   38  C29 UNL     1      -1.770  50.135 -19.341  1.00  0.00     0.009 C 
BRANCH  38  39
HETATM   39  C30 UNL     1      -0.833  51.256 -18.889  1.00  0.00     0.103 C 
BRANCH  39  40
HETATM   40  C31 UNL     1      -0.427  52.174 -20.028  1.00  0.00     0.217 C 
HETATM   41  O7  UNL     1       0.266  53.174 -19.880  1.00  0.00    -0.274 OA
HETATM   42  N2  UNL     1      -0.949  51.797 -21.246  1.00  0.00    -0.361 N 
HETATM   43  H45 UNL     1      -1.323  50.862 -21.345  1.00  0.00     0.162 HD
BRANCH  42  44
HETATM   44  C32 UNL     1      -0.606  52.512 -22.464  1.00  0.00     0.127 C 
BRANCH  44  45
HETATM   45  C33 UNL     1       0.406  51.765 -23.342  1.00  0.00     0.058 C 
BRANCH  45  46
HETATM   46  C34 UNL     1       0.241  52.076 -24.815  1.00  0.00    -0.054 A 
HETATM   47  C35 UNL     1       1.322  51.901 -25.699  1.00  0.00     0.010 A 
HETATM   48  C36 UNL     1       1.175  52.165 -27.062  1.00  0.00     0.040 A 
HETATM   49  C37 UNL     1      -0.051  52.604 -27.538  1.00  0.00     0.098 A 
HETATM   50  C38 UNL     1      -1.128  52.786 -26.675  1.00  0.00     0.099 A 
HETATM   51  C39 UNL     1      -0.994  52.522 -25.314  1.00  0.00     0.046 A 
BRANCH  49  52
HETATM   52  O8  UNL     1      -0.192  52.859 -28.872  1.00  0.00    -0.358 OA
HETATM   53  H52 UNL     1      -1.119  53.156 -28.968  1.00  0.00     0.217 HD
ENDBRANCH  49  52
BRANCH  50  54
HETATM   54  O9  UNL     1      -2.307  53.225 -27.214  1.00  0.00    -0.358 OA
HETATM   55  H53 UNL     1      -2.945  53.344 -26.490  1.00  0.00     0.217 HD
ENDBRANCH  50  54
ENDBRANCH  45  46
ENDBRANCH  44  45
ENDBRANCH  42  44
ENDBRANCH  39  40
ENDBRANCH  38  39
ENDBRANCH  37  38
ENDBRANCH  36  37
ENDBRANCH  35  36
ENDBRANCH  33  35
ENDBRANCH  30  31
ENDBRANCH  29  30
ENDBRANCH   1  29
TORSDOF 19
ENDMDL
MODEL 7
REMARK minimizedAffinity -8.07015991
REMARK CNNscore 0.239480272
REMARK CNNaffinity 6.71056795
REMARK  19 active torsions:
REMARK  status: ('A' for Active; 'I' for Inactive)
REMARK    1  A    between atoms: C19_20  and  O2_21 
REMARK    2  A    between atoms: C19_20  and  C20_22 
REMARK    3  A    between atoms: C20_22  and  C21_24 
REMARK    4  A    between atoms: C21_24  and  O4_25 
REMARK    5  A    between atoms: O4_25  and  C22_26 
REMARK    6  A    between atoms: C22_26  and  C23_28 
REMARK    7  A    between atoms: C23_28  and  C24_29 
REMARK    8  A    between atoms: C24_29  and  C25_30 
REMARK       I    between atoms: C25_30  and  N1_32 
REMARK    9  A    between atoms: N1_32  and  C26_33 
REMARK   10  A    between atoms: C26_33  and  C27_34 
REMARK   11  A    between atoms: C27_34  and  C28_35 
REMARK   12  A    between atoms: C28_35  and  C29_36 
REMARK   13  A    between atoms: C29_36  and  C30_37 
REMARK   14  A    between atoms: C30_37  and  C31_38 
REMARK       I    between atoms: C31_38  and  N2_40 
REMARK   15  A    between atoms: N2_40  and  C32_41 
REMARK   16  A    between atoms: C32_41  and  C33_42 
REMARK   17  A    between atoms: C33_42  and  C34_43 
REMARK   18  A    between atoms: C37_46  and  O8_47 
REMARK   19  A    between atoms: C38_48  and  O9_49 
ROOT
HETATM    1  C22 UNL     1       1.664  52.202 -16.470  1.00  0.00     0.259 C 
HETATM    2  O5  UNL     1       2.684  52.259 -17.145  1.00  0.00    -0.265 OA
ENDROOT
BRANCH   1   3
HETATM    3  O4  UNL     1       1.619  52.376 -15.121  1.00  0.00    -0.314 OA
BRANCH   3   4
HETATM    4  C21 UNL     1       1.630  51.187 -14.340  1.00  0.00     0.260 C 
BRANCH   4   5
HETATM    5  C20 UNL     1       0.641  50.947 -13.184  1.00  0.00     0.185 C 
HETATM    6  O3  UNL     1       0.072  49.856 -13.084  1.00  0.00    -0.292 OA
BRANCH   5   7
HETATM    7  C19 UNL     1       0.468  52.054 -12.114  1.00  0.00     0.128 C 
HETATM    8  C14 UNL     1       1.667  52.172 -11.121  1.00  0.00    -0.002 C 
HETATM    9  C13 UNL     1       2.906  52.932 -11.639  1.00  0.00     0.013 C 
HETATM   10  C15 UNL     1       2.095  50.763 -10.623  1.00  0.00     0.019 C 
HETATM   11  C16 UNL     1       1.017  53.023 -10.010  1.00  0.00     0.002 C 
HETATM   12  C12 UNL     1       3.533  53.900 -10.610  1.00  0.00     0.007 C 
HETATM   13  C11 UNL     1       3.401  53.441  -9.136  1.00  0.00     0.002 C 
HETATM   14  C2  UNL     1       4.154  54.336  -8.083  1.00  0.00    -0.016 C 
HETATM   15  C10 UNL     1       1.892  53.191  -8.753  1.00  0.00    -0.004 C 
HETATM   16  C1  UNL     1       4.281  53.535  -6.756  1.00  0.00     0.020 C 
HETATM   17  C3  UNL     1       5.592  54.698  -8.553  1.00  0.00     0.022 C 
HETATM   18  C7  UNL     1       3.405  55.637  -7.822  1.00  0.00    -0.068 C 
HETATM   19  C4  UNL     1       6.327  55.610  -7.573  1.00  0.00     0.084 C 
HETATM   20  C5  UNL     1       5.493  56.810  -7.192  1.00  0.00     0.149 C 
HETATM   21  O1  UNL     1       5.988  57.811  -6.679  1.00  0.00    -0.293 OA
HETATM   22  C6  UNL     1       4.025  56.759  -7.411  1.00  0.00     0.053 C 
HETATM   23  C8  UNL     1       1.915  55.650  -8.055  1.00  0.00     0.035 C 
HETATM   24  C9  UNL     1       1.289  54.279  -7.835  1.00  0.00     0.010 C 
HETATM   25  C17 UNL     1      -0.363  52.390  -9.809  1.00  0.00     0.009 C 
HETATM   26  C18 UNL     1      -0.736  51.784 -11.174  1.00  0.00     0.047 C 
BRANCH   7  27
HETATM   27  O2  UNL     1       0.206  53.317 -12.735  1.00  0.00    -0.381 OA
HETATM   28  H27 UNL     1      -0.600  53.191 -13.275  1.00  0.00     0.211 HD
ENDBRANCH   7  27
ENDBRANCH   5   7
ENDBRANCH   4   5
ENDBRANCH   3   4
ENDBRANCH   1   3
BRANCH   1  29
HETATM   29  C23 UNL     1       0.296  51.891 -17.013  1.00  0.00     0.120 C 
BRANCH  29  30
HETATM   30  C24 UNL     1       0.245  50.454 -17.518  1.00  0.00     0.112 C 
BRANCH  30  31
HETATM   31  C25 UNL     1      -1.124  50.058 -18.022  1.00  0.00     0.217 C 
HETATM   32  O6  UNL     1      -1.506  48.899 -18.111  1.00  0.00    -0.274 OA
HETATM   33  N1  UNL     1      -1.892  51.156 -18.357  1.00  0.00    -0.361 N 
HETATM   34  H34 UNL     1      -1.417  52.042 -18.470  1.00  0.00     0.162 HD
BRANCH  33  35
HETATM   35  C26 UNL     1      -3.194  51.010 -18.974  1.00  0.00     0.122 C 
BRANCH  35  36
HETATM   36  C27 UNL     1      -3.091  50.935 -20.495  1.00  0.00     0.020 C 
BRANCH  36  37
HETATM   37  C28 UNL     1      -4.427  51.096 -21.234  1.00  0.00     0.002 C 
BRANCH  37  38
HETATM   38  C29 UNL     1      -4.520  52.310 -22.170  1.00  0.00     0.009 C 
BRANCH  38  39
HETATM   39  C30 UNL     1      -4.922  51.962 -23.605  1.00  0.00     0.103 C 
BRANCH  39  40
HETATM   40  C31 UNL     1      -3.730  51.602 -24.474  1.00  0.00     0.217 C 
HETATM   41  O7  UNL     1      -3.694  50.615 -25.200  1.00  0.00    -0.274 OA
HETATM   42  N2  UNL     1      -2.671  52.472 -24.338  1.00  0.00    -0.361 N 
HETATM   43  H45 UNL     1      -2.834  53.371 -23.903  1.00  0.00     0.162 HD
BRANCH  42  44
HETATM   44  C32 UNL     1      -1.473  52.330 -25.148  1.00  0.00     0.127 C 
BRANCH  44  45
HETATM   45  C33 UNL     1      -0.351  51.557 -24.444  1.00  0.00     0.058 C 
BRANCH  45  46
HETATM   46  C34 UNL     1       0.151  52.261 -23.201  1.00  0.00    -0.054 A 
HETATM   47  C35 UNL     1      -0.057  51.688 -21.933  1.00  0.00     0.010 A 
HETATM   48  C36 UNL     1       0.419  52.319 -20.781  1.00  0.00     0.040 A 
HETATM   49  C37 UNL     1       1.102  53.520 -20.901  1.00  0.00     0.098 A 
HETATM   50  C38 UNL     1       1.311  54.100 -22.149  1.00  0.00     0.099 A 
HETATM   51  C39 UNL     1       0.844  53.479 -23.303  1.00  0.00     0.046 A 
BRANCH  49  52
HETATM   52  O8  UNL     1       1.568  54.132 -19.773  1.00  0.00    -0.358 OA
HETATM   53  H52 UNL     1       1.999  54.948 -20.098  1.00  0.00     0.217 HD
ENDBRANCH  49  52
BRANCH  50  54
HETATM   54  O9  UNL     1       1.990  55.288 -22.190  1.00  0.00    -0.358 OA
HETATM   55  H53 UNL     1       2.020  55.588 -23.115  1.00  0.00     0.217 HD
ENDBRANCH  50  54
ENDBRANCH  45  46
ENDBRANCH  44  45
ENDBRANCH  42  44
ENDBRANCH  39  40
ENDBRANCH  38  39
ENDBRANCH  37  38
ENDBRANCH  36  37
ENDBRANCH  35  36
ENDBRANCH  33  35
ENDBRANCH  30  31
ENDBRANCH  29  30
ENDBRANCH   1  29
TORSDOF 19
ENDMDL
MODEL 8
REMARK minimizedAffinity -8.73139381
REMARK CNNscore 0.230547011
REMARK CNNaffinity 7.04308844
REMARK  19 active torsions:
REMARK  status: ('A' for Active; 'I' for Inactive)
REMARK    1  A    between atoms: C19_20  and  O2_21 
REMARK    2  A    between atoms: C19_20  and  C20_22 
REMARK    3  A    between atoms: C20_22  and  C21_24 
REMARK    4  A    between atoms: C21_24  and  O4_25 
REMARK    5  A    between atoms: O4_25  and  C22_26 
REMARK    6  A    between atoms: C22_26  and  C23_28 
REMARK    7  A    between atoms: C23_28  and  C24_29 
REMARK    8  A    between atoms: C24_29  and  C25_30 
REMARK       I    between atoms: C25_30  and  N1_32 
REMARK    9  A    between atoms: N1_32  and  C26_33 
REMARK   10  A    between atoms: C26_33  and  C27_34 
REMARK   11  A    between atoms: C27_34  and  C28_35 
REMARK   12  A    between atoms: C28_35  and  C29_36 
REMARK   13  A    between atoms: C29_36  and  C30_37 
REMARK   14  A    between atoms: C30_37  and  C31_38 
REMARK       I    between atoms: C31_38  and  N2_40 
REMARK   15  A    between atoms: N2_40  and  C32_41 
REMARK   16  A    between atoms: C32_41  and  C33_42 
REMARK   17  A    between atoms: C33_42  and  C34_43 
REMARK   18  A    between atoms: C37_46  and  O8_47 
REMARK   19  A    between atoms: C38_48  and  O9_49 
ROOT
HETATM    1  C22 UNL     1       1.133  53.374 -21.174  1.00  0.00     0.259 C 
HETATM    2  O5  UNL     1       2.278  52.945 -21.233  1.00  0.00    -0.265 OA
ENDROOT
BRANCH   1   3
HETATM    3  O4  UNL     1       0.432  53.854 -22.237  1.00  0.00    -0.314 OA
BRANCH   3   4
HETATM    4  C21 UNL     1       0.829  53.369 -23.515  1.00  0.00     0.260 C 
BRANCH   4   5
HETATM    5  C20 UNL     1       0.051  53.695 -24.803  1.00  0.00     0.185 C 
HETATM    6  O3  UNL     1       0.173  54.807 -25.326  1.00  0.00    -0.292 OA
BRANCH   5   7
HETATM    7  C19 UNL     1      -0.789  52.575 -25.465  1.00  0.00     0.128 C 
HETATM    8  C14 UNL     1      -1.658  51.753 -24.460  1.00  0.00    -0.002 C 
HETATM    9  C13 UNL     1      -2.978  52.411 -24.009  1.00  0.00     0.013 C 
HETATM   10  C15 UNL     1      -0.818  51.368 -23.211  1.00  0.00     0.019 C 
HETATM   11  C16 UNL     1      -2.009  50.534 -25.339  1.00  0.00     0.002 C 
HETATM   12  C12 UNL     1      -4.185  51.446 -23.962  1.00  0.00     0.007 C 
HETATM   13  C11 UNL     1      -3.821  49.984 -23.597  1.00  0.00     0.002 C 
HETATM   14  C2  UNL     1      -5.047  49.016 -23.402  1.00  0.00    -0.016 C 
HETATM   15  C10 UNL     1      -2.739  49.405 -24.586  1.00  0.00    -0.004 C 
HETATM   16  C1  UNL     1      -4.557  47.748 -22.647  1.00  0.00     0.020 C 
HETATM   17  C3  UNL     1      -6.172  49.667 -22.549  1.00  0.00     0.022 C 
HETATM   18  C7  UNL     1      -5.651  48.609 -24.742  1.00  0.00    -0.068 C 
HETATM   19  C4  UNL     1      -7.395  48.767 -22.389  1.00  0.00     0.084 C 
HETATM   20  C5  UNL     1      -7.874  48.233 -23.718  1.00  0.00     0.149 C 
HETATM   21  O1  UNL     1      -8.999  47.759 -23.862  1.00  0.00    -0.293 OA
HETATM   22  C6  UNL     1      -6.941  48.249 -24.873  1.00  0.00     0.053 C 
HETATM   23  C8  UNL     1      -4.755  48.633 -25.954  1.00  0.00     0.035 C 
HETATM   24  C9  UNL     1      -3.297  48.376 -25.594  1.00  0.00     0.010 C 
HETATM   25  C17 UNL     1      -0.688  50.166 -26.020  1.00  0.00     0.009 C 
HETATM   26  C18 UNL     1       0.096  51.487 -26.128  1.00  0.00     0.047 C 
BRANCH   7  27
HETATM   27  O2  UNL     1      -1.606  53.109 -26.512  1.00  0.00    -0.381 OA
HETATM   28  H27 UNL     1      -0.992  53.536 -27.142  1.00  0.00     0.211 HD
ENDBRANCH   7  27
ENDBRANCH   5   7
ENDBRANCH   4   5
ENDBRANCH   3   4
ENDBRANCH   1   3
BRANCH   1  29
HETATM   29  C23 UNL     1       0.322  53.478 -19.911  1.00  0.00     0.120 C 
BRANCH  29  30
HETATM   30  C24 UNL     1       1.127  52.959 -18.726  1.00  0.00     0.112 C 
BRANCH  30  31
HETATM   31  C25 UNL     1       0.374  51.932 -17.912  1.00  0.00     0.217 C 
HETATM   32  O6  UNL     1      -0.718  51.479 -18.231  1.00  0.00    -0.274 OA
HETATM   33  N1  UNL     1       1.067  51.557 -16.778  1.00  0.00    -0.361 N 
HETATM   34  H34 UNL     1       1.835  52.146 -16.484  1.00  0.00     0.162 HD
BRANCH  33  35
HETATM   35  C26 UNL     1       0.483  50.673 -15.791  1.00  0.00     0.122 C 
BRANCH  35  36
HETATM   36  C27 UNL     1       0.327  51.364 -14.438  1.00  0.00     0.020 C 
BRANCH  36  37
HETATM   37  C28 UNL     1      -0.889  50.904 -13.623  1.00  0.00     0.002 C 
BRANCH  37  38
HETATM   38  C29 UNL     1      -2.167  51.734 -13.818  1.00  0.00     0.009 C 
BRANCH  38  39
HETATM   39  C30 UNL     1      -3.382  51.196 -13.061  1.00  0.00     0.103 C 
BRANCH  39  40
HETATM   40  C31 UNL     1      -3.656  51.960 -11.777  1.00  0.00     0.217 C 
HETATM   41  O7  UNL     1      -4.377  51.540 -10.880  1.00  0.00    -0.274 OA
HETATM   42  N2  UNL     1      -3.046  53.194 -11.734  1.00  0.00    -0.361 N 
HETATM   43  H45 UNL     1      -2.301  53.390 -12.391  1.00  0.00     0.162 HD
BRANCH  42  44
HETATM   44  C32 UNL     1      -3.132  54.033 -10.552  1.00  0.00     0.127 C 
BRANCH  44  45
HETATM   45  C33 UNL     1      -2.085  53.689  -9.485  1.00  0.00     0.058 C 
BRANCH  45  46
HETATM   46  C34 UNL     1      -0.671  53.713 -10.026  1.00  0.00    -0.054 A 
HETATM   47  C35 UNL     1       0.001  54.939 -10.189  1.00  0.00     0.010 A 
HETATM   48  C36 UNL     1       1.312  54.972 -10.668  1.00  0.00     0.040 A 
HETATM   49  C37 UNL     1       1.948  53.780 -10.983  1.00  0.00     0.098 A 
HETATM   50  C38 UNL     1       1.293  52.561 -10.832  1.00  0.00     0.099 A 
HETATM   51  C39 UNL     1      -0.012  52.516 -10.351  1.00  0.00     0.046 A 
BRANCH  49  52
HETATM   52  O8  UNL     1       3.231  53.816 -11.450  1.00  0.00    -0.358 OA
HETATM   53  H52 UNL     1       3.460  52.879 -11.607  1.00  0.00     0.217 HD
ENDBRANCH  49  52
BRANCH  50  54
HETATM   54  O9  UNL     1       1.981  51.426 -11.167  1.00  0.00    -0.358 OA
HETATM   55  H53 UNL     1       1.386  50.666 -11.050  1.00  0.00     0.217 HD
ENDBRANCH  50  54
ENDBRANCH  45  46
ENDBRANCH  44  45
ENDBRANCH  42  44
ENDBRANCH  39  40
ENDBRANCH  38  39
ENDBRANCH  37  38
ENDBRANCH  36  37
ENDBRANCH  35  36
ENDBRANCH  33  35
ENDBRANCH  30  31
ENDBRANCH  29  30
ENDBRANCH   1  29
TORSDOF 19
ENDMDL
MODEL 9
REMARK minimizedAffinity -9.24022675
REMARK CNNscore 0.227872133
REMARK CNNaffinity 6.94547462
REMARK  19 active torsions:
REMARK  status: ('A' for Active; 'I' for Inactive)
REMARK    1  A    between atoms: C19_20  and  O2_21 
REMARK    2  A    between atoms: C19_20  and  C20_22 
REMARK    3  A    between atoms: C20_22  and  C21_24 
REMARK    4  A    between atoms: C21_24  and  O4_25 
REMARK    5  A    between atoms: O4_25  and  C22_26 
REMARK    6  A    between atoms: C22_26  and  C23_28 
REMARK    7  A    between atoms: C23_28  and  C24_29 
REMARK    8  A    between atoms: C24_29  and  C25_30 
REMARK       I    between atoms: C25_30  and  N1_32 
REMARK    9  A    between atoms: N1_32  and  C26_33 
REMARK   10  A    between atoms: C26_33  and  C27_34 
REMARK   11  A    between atoms: C27_34  and  C28_35 
REMARK   12  A    between atoms: C28_35  and  C29_36 
REMARK   13  A    between atoms: C29_36  and  C30_37 
REMARK   14  A    between atoms: C30_37  and  C31_38 
REMARK       I    between atoms: C31_38  and  N2_40 
REMARK   15  A    between atoms: N2_40  and  C32_41 
REMARK   16  A    between atoms: C32_41  and  C33_42 
REMARK   17  A    between atoms: C33_42  and  C34_43 
REMARK   18  A    between atoms: C37_46  and  O8_47 
REMARK   19  A    between atoms: C38_48  and  O9_49 
ROOT
HETATM    1  C22 UNL     1      -3.493  49.082 -27.608  1.00  0.00     0.259 C 
HETATM    2  O5  UNL     1      -3.067  48.563 -26.583  1.00  0.00    -0.265 OA
ENDROOT
BRANCH   1   3
HETATM    3  O4  UNL     1      -3.015  50.237 -28.145  1.00  0.00    -0.314 OA
BRANCH   3   4
HETATM    4  C21 UNL     1      -3.154  51.402 -27.340  1.00  0.00     0.260 C 
BRANCH   4   5
HETATM    5  C20 UNL     1      -1.943  52.208 -26.833  1.00  0.00     0.185 C 
HETATM    6  O3  UNL     1      -1.694  53.311 -27.326  1.00  0.00    -0.292 OA
BRANCH   5   7
HETATM    7  C19 UNL     1      -1.130  51.649 -25.639  1.00  0.00     0.128 C 
HETATM    8  C14 UNL     1      -1.904  51.655 -24.283  1.00  0.00    -0.002 C 
HETATM    9  C13 UNL     1      -2.911  50.506 -24.072  1.00  0.00     0.013 C 
HETATM   10  C15 UNL     1      -2.623  53.017 -24.078  1.00  0.00     0.019 C 
HETATM   11  C16 UNL     1      -0.732  51.447 -23.300  1.00  0.00     0.002 C 
HETATM   12  C12 UNL     1      -2.878  49.882 -22.658  1.00  0.00     0.007 C 
HETATM   13  C11 UNL     1      -2.511  50.879 -21.529  1.00  0.00     0.002 C 
HETATM   14  C2  UNL     1      -2.609  50.303 -20.067  1.00  0.00    -0.016 C 
HETATM   15  C10 UNL     1      -1.126  51.576 -21.816  1.00  0.00    -0.004 C 
HETATM   16  C1  UNL     1      -2.629  51.495 -19.069  1.00  0.00     0.020 C 
HETATM   17  C3  UNL     1      -3.915  49.487 -19.851  1.00  0.00     0.022 C 
HETATM   18  C7  UNL     1      -1.429  49.392 -19.748  1.00  0.00    -0.068 C 
HETATM   19  C4  UNL     1      -4.011  48.873 -18.456  1.00  0.00     0.084 C 
HETATM   20  C5  UNL     1      -2.756  48.117 -18.090  1.00  0.00     0.149 C 
HETATM   21  O1  UNL     1      -2.732  47.300 -17.173  1.00  0.00    -0.293 OA
HETATM   22  C6  UNL     1      -1.506  48.401 -18.841  1.00  0.00     0.053 C 
HETATM   23  C8  UNL     1      -0.143  49.618 -20.501  1.00  0.00     0.035 C 
HETATM   24  C9  UNL     1       0.028  51.072 -20.920  1.00  0.00     0.010 C 
HETATM   25  C17 UNL     1       0.358  52.393 -23.808  1.00  0.00     0.009 C 
HETATM   26  C18 UNL     1       0.124  52.508 -25.326  1.00  0.00     0.047 C 
BRANCH   7  27
HETATM   27  O2  UNL     1      -0.642  50.336 -25.932  1.00  0.00    -0.381 OA
HETATM   28  H27 UNL     1      -0.102  50.422 -26.743  1.00  0.00     0.211 HD
ENDBRANCH   7  27
ENDBRANCH   5   7
ENDBRANCH   4   5
ENDBRANCH   3   4
ENDBRANCH   1   3
BRANCH   1  29
HETATM   29  C23 UNL     1      -4.642  48.551 -28.421  1.00  0.00     0.120 C 
BRANCH  29  30
HETATM   30  C24 UNL     1      -5.607  47.781 -27.528  1.00  0.00     0.112 C 
BRANCH  30  31
HETATM   31  C25 UNL     1      -6.919  47.474 -28.212  1.00  0.00     0.217 C 
HETATM   32  O6  UNL     1      -7.425  46.360 -28.243  1.00  0.00    -0.274 OA
HETATM   33  N1  UNL     1      -7.483  48.597 -28.784  1.00  0.00    -0.361 N 
HETATM   34  H34 UNL     1      -6.889  49.407 -28.908  1.00  0.00     0.162 HD
BRANCH  33  35
HETATM   35  C26 UNL     1      -8.681  48.515 -29.593  1.00  0.00     0.122 C 
BRANCH  35  36
HETATM   36  C27 UNL     1      -8.474  49.139 -30.972  1.00  0.00     0.020 C 
BRANCH  36  37
HETATM   37  C28 UNL     1      -8.719  48.184 -32.148  1.00  0.00     0.002 C 
BRANCH  37  38
HETATM   38  C29 UNL     1      -7.574  47.206 -32.452  1.00  0.00     0.009 C 
BRANCH  38  39
HETATM   39  C30 UNL     1      -6.178  47.810 -32.288  1.00  0.00     0.103 C 
BRANCH  39  40
HETATM   40  C31 UNL     1      -5.118  46.762 -31.998  1.00  0.00     0.217 C 
HETATM   41  O7  UNL     1      -4.259  46.888 -31.133  1.00  0.00    -0.274 OA
HETATM   42  N2  UNL     1      -5.187  45.668 -32.833  1.00  0.00    -0.361 N 
HETATM   43  H45 UNL     1      -6.032  45.521 -33.370  1.00  0.00     0.162 HD
BRANCH  42  44
HETATM   44  C32 UNL     1      -4.302  44.530 -32.655  1.00  0.00     0.127 C 
BRANCH  44  45
HETATM   45  C33 UNL     1      -5.047  43.197 -32.510  1.00  0.00     0.058 C 
BRANCH  45  46
HETATM   46  C34 UNL     1      -4.486  42.115 -33.408  1.00  0.00    -0.054 A 
HETATM   47  C35 UNL     1      -5.129  41.798 -34.618  1.00  0.00     0.010 A 
HETATM   48  C36 UNL     1      -4.609  40.816 -35.464  1.00  0.00     0.040 A 
HETATM   49  C37 UNL     1      -3.446  40.155 -35.098  1.00  0.00     0.098 A 
HETATM   50  C38 UNL     1      -2.801  40.455 -33.901  1.00  0.00     0.099 A 
HETATM   51  C39 UNL     1      -3.309  41.435 -33.052  1.00  0.00     0.046 A 
BRANCH  49  52
HETATM   52  O8  UNL     1      -2.939  39.197 -35.928  1.00  0.00    -0.358 OA
HETATM   53  H52 UNL     1      -2.139  38.872 -35.467  1.00  0.00     0.217 HD
ENDBRANCH  49  52
BRANCH  50  54
HETATM   54  O9  UNL     1      -1.661  39.759 -33.603  1.00  0.00    -0.358 OA
HETATM   55  H53 UNL     1      -1.352  40.046 -32.726  1.00  0.00     0.217 HD
ENDBRANCH  50  54
ENDBRANCH  45  46
ENDBRANCH  44  45
ENDBRANCH  42  44
ENDBRANCH  39  40
ENDBRANCH  38  39
ENDBRANCH  37  38
ENDBRANCH  36  37
ENDBRANCH  35  36
ENDBRANCH  33  35
ENDBRANCH  30  31
ENDBRANCH  29  30
ENDBRANCH   1  29
TORSDOF 19
ENDMDL
