MODEL 1
REMARK minimizedAffinity -7.28449726
REMARK CNNscore 0.563402414
REMARK CNNaffinity 6.69201994
REMARK  7 active torsions:
REMARK  status: ('A' for Active; 'I' for Inactive)
REMARK    1  A    between atoms: C4_4  and  C5_5 
REMARK    2  A    between atoms: C5_5  and  O1_6 
REMARK    3  A    between atoms: C5_5  and  C6_7 
REMARK    4  A    between atoms: C6_7  and  C7_8 
REMARK    5  A    between atoms: C7_8  and  C8_9 
REMARK    6  A    between atoms: C7_8  and  C9_11 
REMARK    7  A    between atoms: C8_9  and  O2_10 
ROOT
HETATM    1  C9  UNL     1       1.282   7.032  12.867  1.00  0.00     0.001 C 
HETATM    2  C10 UNL     1       0.179   7.172  11.779  1.00  0.00     0.007 C 
HETATM    3  C11 UNL     1      -0.780   8.274  12.258  1.00  0.00     0.015 C 
HETATM    4  C12 UNL     1      -0.494   8.416  13.767  1.00  0.00    -0.013 C 
HETATM    5  C13 UNL     1      -1.281   7.269  14.471  1.00  0.00     0.021 C 
HETATM    6  C14 UNL     1      -0.892   9.705  14.460  1.00  0.00    -0.070 C 
HETATM    7  C15 UNL     1      -1.775  10.590  13.971  1.00  0.00    -0.022 C 
HETATM    8  C16 UNL     1      -2.052  11.878  14.678  1.00  0.00     0.034 C 
HETATM    9  C17 UNL     1      -2.098  11.773  16.227  1.00  0.00     0.013 C 
HETATM   10  C18 UNL     1      -1.935  13.166  16.924  1.00  0.00     0.018 C 
HETATM   11  C19 UNL     1      -3.072  14.117  16.479  1.00  0.00     0.023 C 
HETATM   12  C20 UNL     1      -0.609  13.887  16.622  1.00  0.00     0.023 C 
HETATM   13  C21 UNL     1      -2.062  12.960  18.439  1.00  0.00     0.135 C 
HETATM   14  O3  UNL     1      -2.766  13.683  19.150  1.00  0.00    -0.297 OA
HETATM   15  C22 UNL     1      -1.289  11.838  19.086  1.00  0.00     0.080 C 
HETATM   16  C23 UNL     1      -0.462  11.015  18.114  1.00  0.00     0.017 C 
HETATM   17  C24 UNL     1      -1.217  10.592  16.829  1.00  0.00    -0.031 C 
HETATM   18  C25 UNL     1      -2.213   9.460  17.234  1.00  0.00     0.016 C 
HETATM   19  C26 UNL     1      -0.182  10.052  15.764  1.00  0.00     0.024 C 
HETATM   20  C27 UNL     1       0.774   8.945  16.292  1.00  0.00     0.010 C 
HETATM   21  C28 UNL     1       1.542   8.099  15.249  1.00  0.00     0.011 C 
HETATM   22  C29 UNL     1       1.072   8.276  13.791  1.00  0.00    -0.029 C 
HETATM   23  C30 UNL     1       1.807   9.515  13.204  1.00  0.00     0.016 C 
ENDROOT
BRANCH   1  24
HETATM   24  C7  UNL     1       2.668   6.622  12.289  1.00  0.00     0.017 C 
BRANCH  24  25
HETATM   25  C6  UNL     1       2.702   6.213  10.791  1.00  0.00     0.043 C 
BRANCH  25  26
HETATM   26  C5  UNL     1       3.335   7.271   9.866  1.00  0.00     0.141 C 
BRANCH  26  27
HETATM   27  C4  UNL     1       2.916   7.047   8.439  1.00  0.00     0.006 C 
HETATM   28  C2  UNL     1       1.833   7.528   7.795  1.00  0.00    -0.089 C 
HETATM   29  C1  UNL     1       0.784   8.425   8.393  1.00  0.00     0.042 C 
HETATM   30  C3  UNL     1       1.589   7.177   6.349  1.00  0.00     0.042 C 
ENDBRANCH  26  27
BRANCH  26  31
HETATM   31  O1  UNL     1       4.754   7.133   9.909  1.00  0.00    -0.392 OA
HETATM   32  H9  UNL     1       5.105   7.634   9.152  1.00  0.00     0.210 HD
ENDBRANCH  26  31
ENDBRANCH  25  26
ENDBRANCH  24  25
BRANCH  24  33
HETATM   33  C8  UNL     1       3.734   7.687  12.590  1.00  0.00     0.169 C 
BRANCH  33  34
HETATM   34  O2  UNL     1       4.712   7.189  13.497  1.00  0.00    -0.400 OA
HETATM   35  H15 UNL     1       4.229   6.879  14.289  1.00  0.00     0.209 HD
ENDBRANCH  33  34
ENDBRANCH  24  33
ENDBRANCH   1  24
TORSDOF 7
ENDMDL
MODEL 2
REMARK minimizedAffinity -8.6835804
REMARK CNNscore 0.512481809
REMARK CNNaffinity 7.02403212
REMARK  7 active torsions:
REMARK  status: ('A' for Active; 'I' for Inactive)
REMARK    1  A    between atoms: C4_4  and  C5_5 
REMARK    2  A    between atoms: C5_5  and  O1_6 
REMARK    3  A    between atoms: C5_5  and  C6_7 
REMARK    4  A    between atoms: C6_7  and  C7_8 
REMARK    5  A    between atoms: C7_8  and  C8_9 
REMARK    6  A    between atoms: C7_8  and  C9_11 
REMARK    7  A    between atoms: C8_9  and  O2_10 
ROOT
HETATM    1  C9  UNL     1       0.750   6.896  12.283  1.00  0.00     0.001 C 
HETATM    2  C10 UNL     1       1.124   5.435  12.666  1.00  0.00     0.007 C 
HETATM    3  C11 UNL     1      -0.180   4.739  13.088  1.00  0.00     0.015 C 
HETATM    4  C12 UNL     1      -1.163   5.891  13.382  1.00  0.00    -0.013 C 
HETATM    5  C13 UNL     1      -0.833   6.393  14.820  1.00  0.00     0.021 C 
HETATM    6  C14 UNL     1      -2.651   5.596  13.355  1.00  0.00    -0.070 C 
HETATM    7  C15 UNL     1      -3.184   4.368  13.445  1.00  0.00    -0.022 C 
HETATM    8  C16 UNL     1      -4.659   4.153  13.328  1.00  0.00     0.034 C 
HETATM    9  C17 UNL     1      -5.530   5.241  14.015  1.00  0.00     0.013 C 
HETATM   10  C18 UNL     1      -7.008   5.236  13.498  1.00  0.00     0.018 C 
HETATM   11  C19 UNL     1      -7.661   3.860  13.775  1.00  0.00     0.023 C 
HETATM   12  C20 UNL     1      -7.165   5.508  11.991  1.00  0.00     0.023 C 
HETATM   13  C21 UNL     1      -7.793   6.293  14.284  1.00  0.00     0.135 C 
HETATM   14  O3  UNL     1      -8.904   6.067  14.775  1.00  0.00    -0.297 OA
HETATM   15  C22 UNL     1      -7.191   7.666  14.456  1.00  0.00     0.080 C 
HETATM   16  C23 UNL     1      -5.825   7.826  13.814  1.00  0.00     0.017 C 
HETATM   17  C24 UNL     1      -4.837   6.670  14.112  1.00  0.00    -0.031 C 
HETATM   18  C25 UNL     1      -4.370   6.837  15.593  1.00  0.00     0.016 C 
HETATM   19  C26 UNL     1      -3.599   6.771  13.136  1.00  0.00     0.024 C 
HETATM   20  C27 UNL     1      -2.905   8.162  13.109  1.00  0.00     0.010 C 
HETATM   21  C28 UNL     1      -1.486   8.248  12.498  1.00  0.00     0.011 C 
HETATM   22  C29 UNL     1      -0.812   6.890  12.219  1.00  0.00    -0.029 C 
HETATM   23  C30 UNL     1      -1.293   6.399  10.823  1.00  0.00     0.016 C 
ENDROOT
BRANCH   1  24
HETATM   24  C7  UNL     1       1.649   7.485  11.157  1.00  0.00     0.017 C 
BRANCH  24  25
HETATM   25  C6  UNL     1       3.034   6.813  10.950  1.00  0.00     0.043 C 
BRANCH  25  26
HETATM   26  C5  UNL     1       3.119   5.924   9.694  1.00  0.00     0.141 C 
BRANCH  26  27
HETATM   27  C4  UNL     1       2.527   6.628   8.505  1.00  0.00     0.006 C 
HETATM   28  C2  UNL     1       2.485   6.219   7.221  1.00  0.00    -0.089 C 
HETATM   29  C1  UNL     1       3.039   4.924   6.695  1.00  0.00     0.042 C 
HETATM   30  C3  UNL     1       1.842   7.085   6.167  1.00  0.00     0.042 C 
ENDBRANCH  26  27
BRANCH  26  31
HETATM   31  O1  UNL     1       2.343   4.747   9.909  1.00  0.00    -0.392 OA
HETATM   32  H9  UNL     1       2.219   4.333   9.037  1.00  0.00     0.210 HD
ENDBRANCH  26  31
ENDBRANCH  25  26
ENDBRANCH  24  25
BRANCH  24  33
HETATM   33  C8  UNL     1       0.884   7.583   9.827  1.00  0.00     0.169 C 
BRANCH  33  34
HETATM   34  O2  UNL     1       0.494   8.925   9.559  1.00  0.00    -0.400 OA
HETATM   35  H15 UNL     1      -0.020   9.229  10.334  1.00  0.00     0.209 HD
ENDBRANCH  33  34
ENDBRANCH  24  33
ENDBRANCH   1  24
TORSDOF 7
ENDMDL
MODEL 3
REMARK minimizedAffinity -6.6004076
REMARK CNNscore 0.43126443
REMARK CNNaffinity 5.81433535
REMARK  7 active torsions:
REMARK  status: ('A' for Active; 'I' for Inactive)
REMARK    1  A    between atoms: C4_4  and  C5_5 
REMARK    2  A    between atoms: C5_5  and  O1_6 
REMARK    3  A    between atoms: C5_5  and  C6_7 
REMARK    4  A    between atoms: C6_7  and  C7_8 
REMARK    5  A    between atoms: C7_8  and  C8_9 
REMARK    6  A    between atoms: C7_8  and  C9_11 
REMARK    7  A    between atoms: C8_9  and  O2_10 
ROOT
HETATM    1  C9  UNL     1      -6.061 -10.325   7.911  1.00  0.00     0.001 C 
HETATM    2  C10 UNL     1      -4.626  -9.725   7.880  1.00  0.00     0.007 C 
HETATM    3  C11 UNL     1      -4.168  -9.746   6.412  1.00  0.00     0.015 C 
HETATM    4  C12 UNL     1      -5.115 -10.748   5.719  1.00  0.00    -0.013 C 
HETATM    5  C13 UNL     1      -4.555 -12.169   6.033  1.00  0.00     0.021 C 
HETATM    6  C14 UNL     1      -5.276 -10.666   4.214  1.00  0.00    -0.070 C 
HETATM    7  C15 UNL     1      -4.419 -10.043   3.389  1.00  0.00    -0.022 C 
HETATM    8  C16 UNL     1      -4.693  -9.938   1.923  1.00  0.00     0.034 C 
HETATM    9  C17 UNL     1      -5.327 -11.205   1.287  1.00  0.00     0.013 C 
HETATM   10  C18 UNL     1      -6.000 -10.906  -0.094  1.00  0.00     0.018 C 
HETATM   11  C19 UNL     1      -4.949 -10.353  -1.086  1.00  0.00     0.023 C 
HETATM   12  C20 UNL     1      -7.147  -9.881  -0.044  1.00  0.00     0.023 C 
HETATM   13  C21 UNL     1      -6.531 -12.228  -0.663  1.00  0.00     0.135 C 
HETATM   14  O3  UNL     1      -6.341 -12.570  -1.834  1.00  0.00    -0.297 OA
HETATM   15  C22 UNL     1      -7.324 -13.141   0.239  1.00  0.00     0.080 C 
HETATM   16  C23 UNL     1      -7.490 -12.618   1.655  1.00  0.00     0.017 C 
HETATM   17  C24 UNL     1      -6.185 -12.085   2.299  1.00  0.00    -0.031 C 
HETATM   18  C25 UNL     1      -5.311 -13.327   2.658  1.00  0.00     0.016 C 
HETATM   19  C26 UNL     1      -6.538 -11.271   3.606  1.00  0.00     0.024 C 
HETATM   20  C27 UNL     1      -7.441 -12.028   4.619  1.00  0.00     0.010 C 
HETATM   21  C28 UNL     1      -7.520 -11.482   6.064  1.00  0.00     0.011 C 
HETATM   22  C29 UNL     1      -6.484 -10.393   6.407  1.00  0.00    -0.029 C 
HETATM   23  C30 UNL     1      -7.064  -9.025   5.947  1.00  0.00     0.016 C 
ENDROOT
BRANCH   1  24
HETATM   24  C7  UNL     1      -6.960  -9.711   9.024  1.00  0.00     0.017 C 
BRANCH  24  25
HETATM   25  C6  UNL     1      -6.227  -9.033  10.214  1.00  0.00     0.043 C 
BRANCH  25  26
HETATM   26  C5  UNL     1      -5.719 -10.021  11.282  1.00  0.00     0.141 C 
BRANCH  26  27
HETATM   27  C4  UNL     1      -6.710 -10.141  12.407  1.00  0.00     0.006 C 
HETATM   28  C2  UNL     1      -7.697 -11.046  12.564  1.00  0.00    -0.089 C 
HETATM   29  C1  UNL     1      -8.021 -12.165  11.613  1.00  0.00     0.042 C 
HETATM   30  C3  UNL     1      -8.595 -10.990  13.774  1.00  0.00     0.042 C 
ENDBRANCH  26  27
BRANCH  26  31
HETATM   31  O1  UNL     1      -4.512  -9.511  11.845  1.00  0.00    -0.392 OA
HETATM   32  H9  UNL     1      -4.351 -10.016  12.662  1.00  0.00     0.210 HD
ENDBRANCH  26  31
ENDBRANCH  25  26
ENDBRANCH  24  25
BRANCH  24  33
HETATM   33  C8  UNL     1      -8.021  -8.772   8.428  1.00  0.00     0.169 C 
BRANCH  33  34
HETATM   34  O2  UNL     1      -8.366  -7.742   9.348  1.00  0.00    -0.400 OA
HETATM   35  H15 UNL     1      -8.649  -8.185  10.173  1.00  0.00     0.209 HD
ENDBRANCH  33  34
ENDBRANCH  24  33
ENDBRANCH   1  24
TORSDOF 7
ENDMDL
MODEL 4
REMARK minimizedAffinity -7.50920296
REMARK CNNscore 0.412861228
REMARK CNNaffinity 6.53371954
REMARK  7 active torsions:
REMARK  status: ('A' for Active; 'I' for Inactive)
REMARK    1  A    between atoms: C4_4  and  C5_5 
REMARK    2  A    between atoms: C5_5  and  O1_6 
REMARK    3  A    between atoms: C5_5  and  C6_7 
REMARK    4  A    between atoms: C6_7  and  C7_8 
REMARK    5  A    between atoms: C7_8  and  C8_9 
REMARK    6  A    between atoms: C7_8  and  C9_11 
REMARK    7  A    between atoms: C8_9  and  O2_10 
ROOT
HETATM    1  C9  UNL     1       1.527   7.745  13.715  1.00  0.00     0.001 C 
HETATM    2  C10 UNL     1       1.099   9.142  13.180  1.00  0.00     0.007 C 
HETATM    3  C11 UNL     1      -0.406   9.060  12.879  1.00  0.00     0.015 C 
HETATM    4  C12 UNL     1      -0.710   7.550  12.801  1.00  0.00    -0.013 C 
HETATM    5  C13 UNL     1      -0.285   7.090  11.374  1.00  0.00     0.021 C 
HETATM    6  C14 UNL     1      -2.142   7.089  12.998  1.00  0.00    -0.070 C 
HETATM    7  C15 UNL     1      -3.218   7.883  12.887  1.00  0.00    -0.022 C 
HETATM    8  C16 UNL     1      -4.592   7.371  13.177  1.00  0.00     0.034 C 
HETATM    9  C17 UNL     1      -4.861   5.920  12.690  1.00  0.00     0.013 C 
HETATM   10  C18 UNL     1      -6.103   5.276  13.393  1.00  0.00     0.018 C 
HETATM   11  C19 UNL     1      -7.370   6.116  13.101  1.00  0.00     0.023 C 
HETATM   12  C20 UNL     1      -5.991   5.158  14.923  1.00  0.00     0.023 C 
HETATM   13  C21 UNL     1      -6.320   3.880  12.795  1.00  0.00     0.135 C 
HETATM   14  O3  UNL     1      -7.430   3.476  12.436  1.00  0.00    -0.297 OA
HETATM   15  C22 UNL     1      -5.133   2.960  12.649  1.00  0.00     0.080 C 
HETATM   16  C23 UNL     1      -3.822   3.565  13.119  1.00  0.00     0.017 C 
HETATM   17  C24 UNL     1      -3.561   5.005  12.611  1.00  0.00    -0.031 C 
HETATM   18  C25 UNL     1      -3.187   4.897  11.099  1.00  0.00     0.016 C 
HETATM   19  C26 UNL     1      -2.365   5.642  13.424  1.00  0.00     0.024 C 
HETATM   20  C27 UNL     1      -1.074   4.776  13.464  1.00  0.00     0.010 C 
HETATM   21  C28 UNL     1       0.243   5.465  13.892  1.00  0.00     0.011 C 
HETATM   22  C29 UNL     1       0.176   7.003  13.979  1.00  0.00    -0.029 C 
HETATM   23  C30 UNL     1      -0.377   7.374  15.386  1.00  0.00     0.016 C 
ENDROOT
BRANCH   1  24
HETATM   24  C7  UNL     1       2.682   7.814  14.756  1.00  0.00     0.017 C 
BRANCH  24  25
HETATM   25  C6  UNL     1       3.893   8.716  14.392  1.00  0.00     0.043 C 
BRANCH  25  26
HETATM   26  C5  UNL     1       5.261   8.024  14.552  1.00  0.00     0.141 C 
BRANCH  26  27
HETATM   27  C4  UNL     1       5.670   7.353  13.270  1.00  0.00     0.006 C 
HETATM   28  C2  UNL     1       6.893   7.291  12.706  1.00  0.00    -0.089 C 
HETATM   29  C1  UNL     1       8.149   7.900  13.267  1.00  0.00     0.042 C 
HETATM   30  C3  UNL     1       7.093   6.565  11.400  1.00  0.00     0.042 C 
ENDBRANCH  26  27
BRANCH  26  31
HETATM   31  O1  UNL     1       5.148   7.000  15.539  1.00  0.00    -0.392 OA
HETATM   32  H9  UNL     1       5.936   6.436  15.446  1.00  0.00     0.210 HD
ENDBRANCH  26  31
ENDBRANCH  25  26
ENDBRANCH  24  25
BRANCH  24  33
HETATM   33  C8  UNL     1       2.150   8.152  16.158  1.00  0.00     0.169 C 
BRANCH  33  34
HETATM   34  O2  UNL     1       2.418   7.096  17.075  1.00  0.00    -0.400 OA
HETATM   35  H15 UNL     1       2.031   6.285  16.691  1.00  0.00     0.209 HD
ENDBRANCH  33  34
ENDBRANCH  24  33
ENDBRANCH   1  24
TORSDOF 7
ENDMDL
MODEL 5
REMARK minimizedAffinity -6.33581638
REMARK CNNscore 0.408930838
REMARK CNNaffinity 6.01668739
REMARK  7 active torsions:
REMARK  status: ('A' for Active; 'I' for Inactive)
REMARK    1  A    between atoms: C4_4  and  C5_5 
REMARK    2  A    between atoms: C5_5  and  O1_6 
REMARK    3  A    between atoms: C5_5  and  C6_7 
REMARK    4  A    between atoms: C6_7  and  C7_8 
REMARK    5  A    between atoms: C7_8  and  C8_9 
REMARK    6  A    between atoms: C7_8  and  C9_11 
REMARK    7  A    between atoms: C8_9  and  O2_10 
ROOT
HETATM    1  C9  UNL     1      -9.940  -6.591  -5.838  1.00  0.00     0.001 C 
HETATM    2  C10 UNL     1     -10.081  -7.765  -6.850  1.00  0.00     0.007 C 
HETATM    3  C11 UNL     1      -9.767  -9.057  -6.078  1.00  0.00     0.015 C 
HETATM    4  C12 UNL     1      -9.022  -8.587  -4.812  1.00  0.00    -0.013 C 
HETATM    5  C13 UNL     1      -7.541  -8.347  -5.238  1.00  0.00     0.021 C 
HETATM    6  C14 UNL     1      -8.984  -9.511  -3.610  1.00  0.00    -0.070 C 
HETATM    7  C15 UNL     1      -9.233 -10.830  -3.656  1.00  0.00    -0.022 C 
HETATM    8  C16 UNL     1      -9.256 -11.658  -2.412  1.00  0.00     0.034 C 
HETATM    9  C17 UNL     1      -8.171 -11.286  -1.363  1.00  0.00     0.013 C 
HETATM   10  C18 UNL     1      -8.505 -11.840   0.062  1.00  0.00     0.018 C 
HETATM   11  C19 UNL     1      -8.612 -13.384   0.018  1.00  0.00     0.023 C 
HETATM   12  C20 UNL     1      -9.823 -11.320   0.665  1.00  0.00     0.023 C 
HETATM   13  C21 UNL     1      -7.346 -11.478   1.000  1.00  0.00     0.135 C 
HETATM   14  O3  UNL     1      -6.839 -12.295   1.774  1.00  0.00    -0.297 OA
HETATM   15  C22 UNL     1      -6.812 -10.067   0.982  1.00  0.00     0.080 C 
HETATM   16  C23 UNL     1      -7.510  -9.154  -0.010  1.00  0.00     0.017 C 
HETATM   17  C24 UNL     1      -7.700  -9.766  -1.420  1.00  0.00    -0.031 C 
HETATM   18  C25 UNL     1      -6.301  -9.763  -2.113  1.00  0.00     0.016 C 
HETATM   19  C26 UNL     1      -8.718  -8.884  -2.245  1.00  0.00     0.024 C 
HETATM   20  C27 UNL     1      -8.376  -7.368  -2.290  1.00  0.00     0.010 C 
HETATM   21  C28 UNL     1      -9.073  -6.502  -3.365  1.00  0.00     0.011 C 
HETATM   22  C29 UNL     1      -9.837  -7.293  -4.445  1.00  0.00    -0.029 C 
HETATM   23  C30 UNL     1     -11.258  -7.602  -3.891  1.00  0.00     0.016 C 
ENDROOT
BRANCH   1  24
HETATM   24  C7  UNL     1     -10.909  -5.409  -6.130  1.00  0.00     0.017 C 
BRANCH  24  25
HETATM   25  C6  UNL     1     -10.266  -4.000  -6.260  1.00  0.00     0.043 C 
BRANCH  25  26
HETATM   26  C5  UNL     1     -11.070  -2.878  -5.574  1.00  0.00     0.141 C 
BRANCH  26  27
HETATM   27  C4  UNL     1     -10.503  -1.530  -5.923  1.00  0.00     0.006 C 
HETATM   28  C2  UNL     1      -9.259  -1.058  -5.702  1.00  0.00    -0.089 C 
HETATM   29  C1  UNL     1      -8.140  -1.813  -5.039  1.00  0.00     0.042 C 
HETATM   30  C3  UNL     1      -8.888   0.340  -6.129  1.00  0.00     0.042 C 
ENDBRANCH  26  27
BRANCH  26  31
HETATM   31  O1  UNL     1     -10.953  -3.025  -4.160  1.00  0.00    -0.392 OA
HETATM   32  H9  UNL     1     -11.257  -2.187  -3.768  1.00  0.00     0.210 HD
ENDBRANCH  26  31
ENDBRANCH  25  26
ENDBRANCH  24  25
BRANCH  24  33
HETATM   33  C8  UNL     1     -11.811  -5.712  -7.336  1.00  0.00     0.169 C 
BRANCH  33  34
HETATM   34  O2  UNL     1     -13.171  -5.841  -6.937  1.00  0.00    -0.400 OA
HETATM   35  H15 UNL     1     -13.197  -6.529  -6.242  1.00  0.00     0.209 HD
ENDBRANCH  33  34
ENDBRANCH  24  33
ENDBRANCH   1  24
TORSDOF 7
ENDMDL
MODEL 6
REMARK minimizedAffinity -7.71726942
REMARK CNNscore 0.394498736
REMARK CNNaffinity 6.76564169
REMARK  7 active torsions:
REMARK  status: ('A' for Active; 'I' for Inactive)
REMARK    1  A    between atoms: C4_4  and  C5_5 
REMARK    2  A    between atoms: C5_5  and  O1_6 
REMARK    3  A    between atoms: C5_5  and  C6_7 
REMARK    4  A    between atoms: C6_7  and  C7_8 
REMARK    5  A    between atoms: C7_8  and  C8_9 
REMARK    6  A    between atoms: C7_8  and  C9_11 
REMARK    7  A    between atoms: C8_9  and  O2_10 
ROOT
HETATM    1  C9  UNL     1      -1.820   6.002  13.107  1.00  0.00     0.001 C 
HETATM    2  C10 UNL     1      -3.339   5.967  12.772  1.00  0.00     0.007 C 
HETATM    3  C11 UNL     1      -3.976   7.176  13.476  1.00  0.00     0.015 C 
HETATM    4  C12 UNL     1      -2.945   7.599  14.543  1.00  0.00    -0.013 C 
HETATM    5  C13 UNL     1      -3.151   6.641  15.755  1.00  0.00     0.021 C 
HETATM    6  C14 UNL     1      -3.008   9.012  15.090  1.00  0.00    -0.070 C 
HETATM    7  C15 UNL     1      -4.078   9.817  14.995  1.00  0.00    -0.022 C 
HETATM    8  C16 UNL     1      -4.032  11.227  15.489  1.00  0.00     0.034 C 
HETATM    9  C17 UNL     1      -3.242  11.428  16.811  1.00  0.00     0.013 C 
HETATM   10  C18 UNL     1      -2.837  12.923  17.042  1.00  0.00     0.018 C 
HETATM   11  C19 UNL     1      -4.103  13.810  17.108  1.00  0.00     0.023 C 
HETATM   12  C20 UNL     1      -1.930  13.522  15.952  1.00  0.00     0.023 C 
HETATM   13  C21 UNL     1      -2.126  13.021  18.398  1.00  0.00     0.135 C 
HETATM   14  O3  UNL     1      -2.397  13.894  19.228  1.00  0.00    -0.297 OA
HETATM   15  C22 UNL     1      -1.047  12.019  18.726  1.00  0.00     0.080 C 
HETATM   16  C23 UNL     1      -0.804  10.993  17.634  1.00  0.00     0.017 C 
HETATM   17  C24 UNL     1      -2.091  10.355  17.055  1.00  0.00    -0.031 C 
HETATM   18  C25 UNL     1      -2.634   9.361  18.129  1.00  0.00     0.016 C 
HETATM   19  C26 UNL     1      -1.742   9.580  15.723  1.00  0.00     0.024 C 
HETATM   20  C27 UNL     1      -0.574   8.563  15.851  1.00  0.00     0.010 C 
HETATM   21  C28 UNL     1      -0.416   7.502  14.736  1.00  0.00     0.011 C 
HETATM   22  C29 UNL     1      -1.599   7.408  13.753  1.00  0.00    -0.029 C 
HETATM   23  C30 UNL     1      -1.381   8.481  12.647  1.00  0.00     0.016 C 
ENDROOT
BRANCH   1  24
HETATM   24  C7  UNL     1      -0.926   5.436  11.965  1.00  0.00     0.017 C 
BRANCH  24  25
HETATM   25  C6  UNL     1       0.529   5.048  12.349  1.00  0.00     0.043 C 
BRANCH  25  26
HETATM   26  C5  UNL     1       1.595   5.549  11.356  1.00  0.00     0.141 C 
BRANCH  26  27
HETATM   27  C4  UNL     1       0.982   6.478  10.344  1.00  0.00     0.006 C 
HETATM   28  C2  UNL     1       1.601   7.242   9.421  1.00  0.00    -0.089 C 
HETATM   29  C1  UNL     1       3.086   7.323   9.203  1.00  0.00     0.042 C 
HETATM   30  C3  UNL     1       0.795   8.117   8.494  1.00  0.00     0.042 C 
ENDBRANCH  26  27
BRANCH  26  31
HETATM   31  O1  UNL     1       2.115   4.434  10.635  1.00  0.00    -0.392 OA
HETATM   32  H9  UNL     1       2.593   4.797   9.868  1.00  0.00     0.210 HD
ENDBRANCH  26  31
ENDBRANCH  25  26
ENDBRANCH  24  25
BRANCH  24  33
HETATM   33  C8  UNL     1      -1.624   4.281  11.231  1.00  0.00     0.169 C 
BRANCH  33  34
HETATM   34  O2  UNL     1      -0.730   3.193  11.021  1.00  0.00    -0.400 OA
HETATM   35  H15 UNL     1       0.044   3.554  10.544  1.00  0.00     0.209 HD
ENDBRANCH  33  34
ENDBRANCH  24  33
ENDBRANCH   1  24
TORSDOF 7
ENDMDL
MODEL 7
REMARK minimizedAffinity -6.68951368
REMARK CNNscore 0.366804868
REMARK CNNaffinity 6.05282211
REMARK  7 active torsions:
REMARK  status: ('A' for Active; 'I' for Inactive)
REMARK    1  A    between atoms: C4_4  and  C5_5 
REMARK    2  A    between atoms: C5_5  and  O1_6 
REMARK    3  A    between atoms: C5_5  and  C6_7 
REMARK    4  A    between atoms: C6_7  and  C7_8 
REMARK    5  A    between atoms: C7_8  and  C8_9 
REMARK    6  A    between atoms: C7_8  and  C9_11 
REMARK    7  A    between atoms: C8_9  and  O2_10 
ROOT
HETATM    1  C9  UNL     1      -6.417 -10.389  10.209  1.00  0.00     0.001 C 
HETATM    2  C10 UNL     1      -7.078  -9.197   9.459  1.00  0.00     0.007 C 
HETATM    3  C11 UNL     1      -8.356  -8.839  10.235  1.00  0.00     0.015 C 
HETATM    4  C12 UNL     1      -8.648 -10.077  11.106  1.00  0.00    -0.013 C 
HETATM    5  C13 UNL     1      -9.363 -11.107  10.180  1.00  0.00     0.021 C 
HETATM    6  C14 UNL     1      -9.527  -9.910  12.330  1.00  0.00    -0.070 C 
HETATM    7  C15 UNL     1     -10.355  -8.873  12.535  1.00  0.00    -0.022 C 
HETATM    8  C16 UNL     1     -11.129  -8.740  13.808  1.00  0.00     0.034 C 
HETATM    9  C17 UNL     1     -11.684 -10.075  14.374  1.00  0.00     0.013 C 
HETATM   10  C18 UNL     1     -12.075  -9.965  15.886  1.00  0.00     0.018 C 
HETATM   11  C19 UNL     1     -13.164  -8.882  16.073  1.00  0.00     0.023 C 
HETATM   12  C20 UNL     1     -10.914  -9.596  16.828  1.00  0.00     0.023 C 
HETATM   13  C21 UNL     1     -12.670 -11.309  16.325  1.00  0.00     0.135 C 
HETATM   14  O3  UNL     1     -13.715 -11.390  16.979  1.00  0.00    -0.297 OA
HETATM   15  C22 UNL     1     -11.947 -12.580  15.953  1.00  0.00     0.080 C 
HETATM   16  C23 UNL     1     -10.679 -12.357  15.149  1.00  0.00     0.017 C 
HETATM   17  C24 UNL     1     -10.833 -11.360  13.972  1.00  0.00    -0.031 C 
HETATM   18  C25 UNL     1     -11.640 -12.093  12.854  1.00  0.00     0.016 C 
HETATM   19  C26 UNL     1      -9.404 -10.953  13.436  1.00  0.00     0.024 C 
HETATM   20  C27 UNL     1      -8.475 -12.151  13.090  1.00  0.00     0.010 C 
HETATM   21  C28 UNL     1      -7.232 -11.869  12.214  1.00  0.00     0.011 C 
HETATM   22  C29 UNL     1      -7.195 -10.473  11.562  1.00  0.00    -0.029 C 
HETATM   23  C30 UNL     1      -6.587  -9.483  12.597  1.00  0.00     0.016 C 
ENDROOT
BRANCH   1  24
HETATM   24  C7  UNL     1      -4.863 -10.388  10.116  1.00  0.00     0.017 C 
BRANCH  24  25
HETATM   25  C6  UNL     1      -4.251 -10.671   8.716  1.00  0.00     0.043 C 
BRANCH  25  26
HETATM   26  C5  UNL     1      -3.998  -9.404   7.875  1.00  0.00     0.141 C 
BRANCH  26  27
HETATM   27  C4  UNL     1      -4.516  -9.586   6.474  1.00  0.00     0.006 C 
HETATM   28  C2  UNL     1      -4.175 -10.523   5.567  1.00  0.00    -0.089 C 
HETATM   29  C1  UNL     1      -3.172 -11.624   5.778  1.00  0.00     0.042 C 
HETATM   30  C3  UNL     1      -4.814 -10.528   4.202  1.00  0.00     0.042 C 
ENDBRANCH  26  27
BRANCH  26  31
HETATM   31  O1  UNL     1      -2.591  -9.191   7.774  1.00  0.00    -0.392 OA
HETATM   32  H9  UNL     1      -2.460  -8.547   7.055  1.00  0.00     0.210 HD
ENDBRANCH  26  31
ENDBRANCH  25  26
ENDBRANCH  24  25
BRANCH  24  33
HETATM   33  C8  UNL     1      -4.269  -9.108  10.725  1.00  0.00     0.169 C 
BRANCH  33  34
HETATM   34  O2  UNL     1      -3.297  -9.418  11.718  1.00  0.00    -0.400 OA
HETATM   35  H15 UNL     1      -3.737  -9.998  12.370  1.00  0.00     0.209 HD
ENDBRANCH  33  34
ENDBRANCH  24  33
ENDBRANCH   1  24
TORSDOF 7
ENDMDL
MODEL 8
REMARK minimizedAffinity -6.63278246
REMARK CNNscore 0.316375464
REMARK CNNaffinity 6.03693008
REMARK  7 active torsions:
REMARK  status: ('A' for Active; 'I' for Inactive)
REMARK    1  A    between atoms: C4_4  and  C5_5 
REMARK    2  A    between atoms: C5_5  and  O1_6 
REMARK    3  A    between atoms: C5_5  and  C6_7 
REMARK    4  A    between atoms: C6_7  and  C7_8 
REMARK    5  A    between atoms: C7_8  and  C8_9 
REMARK    6  A    between atoms: C7_8  and  C9_11 
REMARK    7  A    between atoms: C8_9  and  O2_10 
ROOT
HETATM    1  C9  UNL     1     -13.166  -4.213  -6.972  1.00  0.00     0.001 C 
HETATM    2  C10 UNL     1     -13.300  -4.111  -8.518  1.00  0.00     0.007 C 
HETATM    3  C11 UNL     1     -14.705  -3.557  -8.807  1.00  0.00     0.015 C 
HETATM    4  C12 UNL     1     -15.493  -3.785  -7.502  1.00  0.00    -0.013 C 
HETATM    5  C13 UNL     1     -15.953  -5.275  -7.522  1.00  0.00     0.021 C 
HETATM    6  C14 UNL     1     -16.735  -2.951  -7.252  1.00  0.00    -0.070 C 
HETATM    7  C15 UNL     1     -17.407  -2.284  -8.203  1.00  0.00    -0.022 C 
HETATM    8  C16 UNL     1     -18.575  -1.416  -7.862  1.00  0.00     0.034 C 
HETATM    9  C17 UNL     1     -19.503  -1.982  -6.752  1.00  0.00     0.013 C 
HETATM   10  C18 UNL     1     -20.418  -0.879  -6.119  1.00  0.00     0.018 C 
HETATM   11  C19 UNL     1     -21.314  -0.246  -7.210  1.00  0.00     0.023 C 
HETATM   12  C20 UNL     1     -19.660   0.276  -5.440  1.00  0.00     0.023 C 
HETATM   13  C21 UNL     1     -21.336  -1.552  -5.091  1.00  0.00     0.135 C 
HETATM   14  O3  UNL     1     -22.549  -1.329  -5.039  1.00  0.00    -0.297 OA
HETATM   15  C22 UNL     1     -20.732  -2.514  -4.098  1.00  0.00     0.080 C 
HETATM   16  C23 UNL     1     -19.236  -2.711  -4.260  1.00  0.00     0.017 C 
HETATM   17  C24 UNL     1     -18.775  -2.951  -5.720  1.00  0.00    -0.031 C 
HETATM   18  C25 UNL     1     -19.198  -4.404  -6.102  1.00  0.00     0.016 C 
HETATM   19  C26 UNL     1     -17.204  -2.800  -5.808  1.00  0.00     0.024 C 
HETATM   20  C27 UNL     1     -16.411  -3.656  -4.780  1.00  0.00     0.010 C 
HETATM   21  C28 UNL     1     -14.901  -3.872  -5.035  1.00  0.00     0.011 C 
HETATM   22  C29 UNL     1     -14.404  -3.429  -6.425  1.00  0.00    -0.029 C 
HETATM   23  C30 UNL     1     -14.089  -1.907  -6.353  1.00  0.00     0.016 C 
ENDROOT
BRANCH   1  24
HETATM   24  C7  UNL     1     -11.714  -3.979  -6.463  1.00  0.00     0.017 C 
BRANCH  24  25
HETATM   25  C6  UNL     1     -10.679  -3.494  -7.515  1.00  0.00     0.043 C 
BRANCH  25  26
HETATM   26  C5  UNL     1     -10.625  -1.963  -7.683  1.00  0.00     0.141 C 
BRANCH  26  27
HETATM   27  C4  UNL     1     -10.771  -1.278  -6.351  1.00  0.00     0.006 C 
HETATM   28  C2  UNL     1      -9.939  -0.395  -5.765  1.00  0.00    -0.089 C 
HETATM   29  C1  UNL     1      -8.646   0.111  -6.345  1.00  0.00     0.042 C 
HETATM   30  C3  UNL     1     -10.268   0.177  -4.410  1.00  0.00     0.042 C 
ENDBRANCH  26  27
BRANCH  26  31
HETATM   31  O1  UNL     1     -11.728  -1.548  -8.487  1.00  0.00    -0.392 OA
HETATM   32  H9  UNL     1     -11.805  -0.584  -8.374  1.00  0.00     0.210 HD
ENDBRANCH  26  31
ENDBRANCH  25  26
ENDBRANCH  24  25
BRANCH  24  33
HETATM   33  C8  UNL     1     -11.697  -3.074  -5.221  1.00  0.00     0.169 C 
BRANCH  33  34
HETATM   34  O2  UNL     1     -10.941  -3.664  -4.169  1.00  0.00    -0.400 OA
HETATM   35  H15 UNL     1     -11.326  -4.548  -4.008  1.00  0.00     0.209 HD
ENDBRANCH  33  34
ENDBRANCH  24  33
ENDBRANCH   1  24
TORSDOF 7
ENDMDL
MODEL 9
REMARK minimizedAffinity -6.60143518
REMARK CNNscore 0.315945387
REMARK CNNaffinity 6.1192174
REMARK  7 active torsions:
REMARK  status: ('A' for Active; 'I' for Inactive)
REMARK    1  A    between atoms: C4_4  and  C5_5 
REMARK    2  A    between atoms: C5_5  and  O1_6 
REMARK    3  A    between atoms: C5_5  and  C6_7 
REMARK    4  A    between atoms: C6_7  and  C7_8 
REMARK    5  A    between atoms: C7_8  and  C8_9 
REMARK    6  A    between atoms: C7_8  and  C9_11 
REMARK    7  A    between atoms: C8_9  and  O2_10 
ROOT
HETATM    1  C9  UNL     1     -14.025   7.507  23.351  1.00  0.00     0.001 C 
HETATM    2  C10 UNL     1     -13.926   7.212  21.827  1.00  0.00     0.007 C 
HETATM    3  C11 UNL     1     -13.057   8.323  21.216  1.00  0.00     0.015 C 
HETATM    4  C12 UNL     1     -13.062   9.451  22.268  1.00  0.00    -0.013 C 
HETATM    5  C13 UNL     1     -14.398  10.230  22.069  1.00  0.00     0.021 C 
HETATM    6  C14 UNL     1     -11.949  10.480  22.231  1.00  0.00    -0.070 C 
HETATM    7  C15 UNL     1     -11.160  10.709  21.169  1.00  0.00    -0.022 C 
HETATM    8  C16 UNL     1     -10.030  11.685  21.240  1.00  0.00     0.034 C 
HETATM    9  C17 UNL     1     -10.334  12.973  22.054  1.00  0.00     0.013 C 
HETATM   10  C18 UNL     1      -9.031  13.730  22.481  1.00  0.00     0.018 C 
HETATM   11  C19 UNL     1      -8.224  14.141  21.226  1.00  0.00     0.023 C 
HETATM   12  C20 UNL     1      -8.078  12.920  23.378  1.00  0.00     0.023 C 
HETATM   13  C21 UNL     1      -9.443  15.013  23.214  1.00  0.00     0.135 C 
HETATM   14  O3  UNL     1      -8.935  16.111  22.967  1.00  0.00    -0.297 OA
HETATM   15  C22 UNL     1     -10.502  14.929  24.286  1.00  0.00     0.080 C 
HETATM   16  C23 UNL     1     -11.055  13.532  24.499  1.00  0.00     0.017 C 
HETATM   17  C24 UNL     1     -11.428  12.783  23.195  1.00  0.00    -0.031 C 
HETATM   18  C25 UNL     1     -12.745  13.427  22.657  1.00  0.00     0.016 C 
HETATM   19  C26 UNL     1     -11.661  11.253  23.513  1.00  0.00     0.024 C 
HETATM   20  C27 UNL     1     -12.660  10.976  24.672  1.00  0.00     0.010 C 
HETATM   21  C28 UNL     1     -13.238   9.547  24.799  1.00  0.00     0.011 C 
HETATM   22  C29 UNL     1     -12.956   8.620  23.600  1.00  0.00    -0.029 C 
HETATM   23  C30 UNL     1     -11.552   7.982  23.813  1.00  0.00     0.016 C 
ENDROOT
BRANCH   1  24
HETATM   24  C7  UNL     1     -14.136   6.220  24.220  1.00  0.00     0.017 C 
BRANCH  24  25
HETATM   25  C6  UNL     1     -13.093   5.102  23.944  1.00  0.00     0.043 C 
BRANCH  25  26
HETATM   26  C5  UNL     1     -13.714   3.719  23.666  1.00  0.00     0.141 C 
BRANCH  26  27
HETATM   27  C4  UNL     1     -12.683   2.635  23.817  1.00  0.00     0.006 C 
HETATM   28  C2  UNL     1     -12.325   1.965  24.931  1.00  0.00    -0.089 C 
HETATM   29  C1  UNL     1     -12.908   2.169  26.303  1.00  0.00     0.042 C 
HETATM   30  C3  UNL     1     -11.254   0.906  24.872  1.00  0.00     0.042 C 
ENDBRANCH  26  27
BRANCH  26  31
HETATM   31  O1  UNL     1     -14.163   3.679  22.313  1.00  0.00    -0.392 OA
HETATM   32  H9  UNL     1     -14.322   2.742  22.101  1.00  0.00     0.210 HD
ENDBRANCH  26  31
ENDBRANCH  25  26
ENDBRANCH  24  25
BRANCH  24  33
HETATM   33  C8  UNL     1     -14.188   6.562  25.718  1.00  0.00     0.169 C 
BRANCH  33  34
HETATM   34  O2  UNL     1     -14.365   5.388  26.504  1.00  0.00    -0.400 OA
HETATM   35  H15 UNL     1     -15.171   4.945  26.171  1.00  0.00     0.209 HD
ENDBRANCH  33  34
ENDBRANCH  24  33
ENDBRANCH   1  24
TORSDOF 7
ENDMDL
