MODEL 1
REMARK minimizedAffinity -8.4187851
REMARK CNNscore 0.481551707
REMARK CNNaffinity 7.2616601
REMARK  10 active torsions:
REMARK  status: ('A' for Active; 'I' for Inactive)
REMARK    1  A    between atoms: C14_14  and  C15_15 
REMARK    2  A    between atoms: C15_15  and  C17_17 
REMARK    3  A    between atoms: C17_17  and  C18_18 
REMARK    4  A    between atoms: C18_18  and  C19_19 
REMARK    5  A    between atoms: C20_20  and  C22_22 
REMARK    6  A    between atoms: C22_22  and  O2_24 
REMARK    7  A    between atoms: C27_29  and  C28_30 
REMARK    8  A    between atoms: C28_30  and  C29_31 
REMARK    9  A    between atoms: C29_31  and  C30_32 
REMARK   10  A    between atoms: C30_32  and  O4_34 
ROOT
HETATM    1  C1  UNL     1       2.741   5.885   7.705  1.00  0.00     0.043 C 
HETATM    2  C2  UNL     1       2.678   6.888   8.842  1.00  0.00    -0.085 C 
HETATM    3  C3  UNL     1       2.995   8.275   8.345  1.00  0.00     0.043 C 
HETATM    4  C4  UNL     1       2.324   6.535  10.109  1.00  0.00    -0.073 C 
HETATM    5  C5  UNL     1       1.728   5.153  10.343  1.00  0.00     0.035 C 
HETATM    6  C6  UNL     1       0.903   5.039  11.623  1.00  0.00     0.010 C 
HETATM    7  C7  UNL     1       0.017   6.280  11.922  1.00  0.00     0.003 C 
HETATM    8  C8  UNL     1       0.807   7.679  11.799  1.00  0.00    -0.032 C 
HETATM    9  C9  UNL     1       0.203   8.565  10.673  1.00  0.00     0.016 C 
HETATM   10  C10 UNL     1       0.706   8.529  13.106  1.00  0.00     0.011 C 
HETATM   11  C11 UNL     1      -0.650   8.577  13.847  1.00  0.00     0.011 C 
HETATM   12  C12 UNL     1      -1.595   7.389  13.598  1.00  0.00    -0.032 C 
HETATM   13  C13 UNL     1      -2.591   7.746  12.459  1.00  0.00     0.016 C 
HETATM   14  C14 UNL     1      -2.434   6.912  14.835  1.00  0.00    -0.002 C 
HETATM   15  C23 UNL     1      -2.734   5.420  14.508  1.00  0.00     0.006 C 
HETATM   16  C24 UNL     1      -1.821   5.023  13.328  1.00  0.00     0.011 C 
HETATM   17  C25 UNL     1      -0.731   6.113  13.292  1.00  0.00    -0.032 C 
HETATM   18  C26 UNL     1       0.295   5.724  14.415  1.00  0.00     0.016 C 
HETATM   19  C27 UNL     1       2.319   7.370  11.411  1.00  0.00     0.024 C 
ENDROOT
BRANCH  14  20
HETATM   20  C15 UNL     1      -3.649   7.707  15.410  1.00  0.00    -0.014 C 
HETATM   21  C16 UNL     1      -3.641   9.158  14.912  1.00  0.00     0.010 C 
BRANCH  20  22
HETATM   22  C17 UNL     1      -5.055   7.083  15.241  1.00  0.00     0.008 C 
BRANCH  22  23
HETATM   23  C18 UNL     1      -5.471   6.809  13.784  1.00  0.00     0.028 C 
BRANCH  23  24
HETATM   24  C19 UNL     1      -6.616   5.841  13.671  1.00  0.00    -0.013 C 
HETATM   25  C20 UNL     1      -6.628   4.634  13.071  1.00  0.00     0.008 C 
HETATM   26  C21 UNL     1      -5.478   3.984  12.362  1.00  0.00     0.055 C 
BRANCH  25  27
HETATM   27  C22 UNL     1      -7.913   3.887  13.117  1.00  0.00     0.171 C 
HETATM   28  O1  UNL     1      -8.079   2.701  12.891  1.00  0.00    -0.646 OA
BRANCH  27  29
HETATM   29  O2  UNL     1      -8.950   4.672  13.454  1.00  0.00    -0.773 OA
HETATM   30  H35 UNL     1      -9.711   4.056  13.447  1.00  0.00     0.167 HD
ENDBRANCH  27  29
ENDBRANCH  25  27
ENDBRANCH  23  24
ENDBRANCH  22  23
ENDBRANCH  20  22
ENDBRANCH  14  20
BRANCH  19  31
HETATM   31  C28 UNL     1       3.332   8.544  11.533  1.00  0.00     0.020 C 
BRANCH  31  32
HETATM   32  C29 UNL     1       4.763   8.084  11.834  1.00  0.00     0.110 C 
BRANCH  32  33
HETATM   33  C30 UNL     1       5.826   8.745  11.005  1.00  0.00     0.139 C 
HETATM   34  O3  UNL     1       6.993   8.401  10.921  1.00  0.00    -0.650 OA
BRANCH  33  35
HETATM   35  O4  UNL     1       5.377   9.828  10.345  1.00  0.00    -0.776 OA
HETATM   36  H48 UNL     1       6.162  10.125   9.837  1.00  0.00     0.167 HD
ENDBRANCH  33  35
ENDBRANCH  32  33
ENDBRANCH  31  32
ENDBRANCH  19  31
TORSDOF 10
ENDMDL
MODEL 2
REMARK minimizedAffinity -6.2749362
REMARK CNNscore 0.29384762
REMARK CNNaffinity 5.63680077
REMARK  10 active torsions:
REMARK  status: ('A' for Active; 'I' for Inactive)
REMARK    1  A    between atoms: C14_14  and  C15_15 
REMARK    2  A    between atoms: C15_15  and  C17_17 
REMARK    3  A    between atoms: C17_17  and  C18_18 
REMARK    4  A    between atoms: C18_18  and  C19_19 
REMARK    5  A    between atoms: C20_20  and  C22_22 
REMARK    6  A    between atoms: C22_22  and  O2_24 
REMARK    7  A    between atoms: C27_29  and  C28_30 
REMARK    8  A    between atoms: C28_30  and  C29_31 
REMARK    9  A    between atoms: C29_31  and  C30_32 
REMARK   10  A    between atoms: C30_32  and  O4_34 
ROOT
HETATM    1  C1  UNL     1      -4.399   9.593  14.949  1.00  0.00     0.043 C 
HETATM    2  C2  UNL     1      -2.928   9.253  15.106  1.00  0.00    -0.085 C 
HETATM    3  C3  UNL     1      -2.350   8.776  13.799  1.00  0.00     0.043 C 
HETATM    4  C4  UNL     1      -2.259   9.428  16.280  1.00  0.00    -0.073 C 
HETATM    5  C5  UNL     1      -2.931  10.222  17.393  1.00  0.00     0.035 C 
HETATM    6  C6  UNL     1      -1.959  10.804  18.418  1.00  0.00     0.010 C 
HETATM    7  C7  UNL     1      -0.648  11.366  17.803  1.00  0.00     0.003 C 
HETATM    8  C8  UNL     1       0.056  10.361  16.759  1.00  0.00    -0.032 C 
HETATM    9  C9  UNL     1       0.113  10.983  15.335  1.00  0.00     0.016 C 
HETATM   10  C10 UNL     1       1.540  10.056  17.146  1.00  0.00     0.011 C 
HETATM   11  C11 UNL     1       2.416  11.217  17.668  1.00  0.00     0.011 C 
HETATM   12  C12 UNL     1       1.660  12.401  18.296  1.00  0.00    -0.032 C 
HETATM   13  C13 UNL     1       1.435  13.503  17.224  1.00  0.00     0.016 C 
HETATM   14  C14 UNL     1       2.349  13.072  19.535  1.00  0.00    -0.002 C 
HETATM   15  C23 UNL     1       1.155  13.706  20.308  1.00  0.00     0.006 C 
HETATM   16  C24 UNL     1      -0.138  13.118  19.702  1.00  0.00     0.011 C 
HETATM   17  C25 UNL     1       0.325  11.866  18.929  1.00  0.00    -0.032 C 
HETATM   18  C26 UNL     1       0.509  10.744  20.012  1.00  0.00     0.016 C 
HETATM   19  C27 UNL     1      -0.816   9.034  16.672  1.00  0.00     0.024 C 
ENDROOT
BRANCH  14  20
HETATM   20  C15 UNL     1       3.611  13.986  19.429  1.00  0.00    -0.014 C 
HETATM   21  C16 UNL     1       3.259  15.446  19.744  1.00  0.00     0.010 C 
BRANCH  20  22
HETATM   22  C17 UNL     1       4.876  13.552  20.208  1.00  0.00     0.008 C 
BRANCH  22  23
HETATM   23  C18 UNL     1       4.898  13.969  21.690  1.00  0.00     0.028 C 
BRANCH  23  24
HETATM   24  C19 UNL     1       6.288  14.207  22.212  1.00  0.00    -0.013 C 
HETATM   25  C20 UNL     1       7.104  13.331  22.832  1.00  0.00     0.008 C 
HETATM   26  C21 UNL     1       6.793  11.899  23.148  1.00  0.00     0.055 C 
BRANCH  25  27
HETATM   27  C22 UNL     1       8.437  13.848  23.242  1.00  0.00     0.171 C 
HETATM   28  O1  UNL     1       8.674  14.611  24.161  1.00  0.00    -0.646 OA
BRANCH  27  29
HETATM   29  O2  UNL     1       9.429  13.375  22.469  1.00  0.00    -0.773 OA
HETATM   30  H35 UNL     1      10.230  13.790  22.851  1.00  0.00     0.167 HD
ENDBRANCH  27  29
ENDBRANCH  25  27
ENDBRANCH  23  24
ENDBRANCH  22  23
ENDBRANCH  20  22
ENDBRANCH  14  20
BRANCH  19  31
HETATM   31  C28 UNL     1      -0.170   7.811  15.960  1.00  0.00     0.020 C 
BRANCH  31  32
HETATM   32  C29 UNL     1       0.619   8.187  14.700  1.00  0.00     0.110 C 
BRANCH  32  33
HETATM   33  C30 UNL     1       1.887   7.411  14.495  1.00  0.00     0.139 C 
HETATM   34  O3  UNL     1       2.554   7.375  13.474  1.00  0.00    -0.650 OA
BRANCH  33  35
HETATM   35  O4  UNL     1       2.242   6.692  15.575  1.00  0.00    -0.776 OA
HETATM   36  H48 UNL     1       3.085   6.273  15.301  1.00  0.00     0.167 HD
ENDBRANCH  33  35
ENDBRANCH  32  33
ENDBRANCH  31  32
ENDBRANCH  19  31
TORSDOF 10
ENDMDL
MODEL 3
REMARK minimizedAffinity -6.32094717
REMARK CNNscore 0.26983434
REMARK CNNaffinity 6.00815725
REMARK  10 active torsions:
REMARK  status: ('A' for Active; 'I' for Inactive)
REMARK    1  A    between atoms: C14_14  and  C15_15 
REMARK    2  A    between atoms: C15_15  and  C17_17 
REMARK    3  A    between atoms: C17_17  and  C18_18 
REMARK    4  A    between atoms: C18_18  and  C19_19 
REMARK    5  A    between atoms: C20_20  and  C22_22 
REMARK    6  A    between atoms: C22_22  and  O2_24 
REMARK    7  A    between atoms: C27_29  and  C28_30 
REMARK    8  A    between atoms: C28_30  and  C29_31 
REMARK    9  A    between atoms: C29_31  and  C30_32 
REMARK   10  A    between atoms: C30_32  and  O4_34 
ROOT
HETATM    1  C1  UNL     1      -2.933  16.994   6.811  1.00  0.00     0.043 C 
HETATM    2  C2  UNL     1      -2.940  16.555   5.358  1.00  0.00    -0.085 C 
HETATM    3  C3  UNL     1      -3.954  17.344   4.570  1.00  0.00     0.043 C 
HETATM    4  C4  UNL     1      -2.086  15.611   4.876  1.00  0.00    -0.073 C 
HETATM    5  C5  UNL     1      -0.921  15.164   5.750  1.00  0.00     0.035 C 
HETATM    6  C6  UNL     1       0.237  14.538   4.974  1.00  0.00     0.010 C 
HETATM    7  C7  UNL     1       0.558  15.247   3.630  1.00  0.00     0.003 C 
HETATM    8  C8  UNL     1      -0.743  15.520   2.719  1.00  0.00    -0.032 C 
HETATM    9  C9  UNL     1      -0.965  17.044   2.503  1.00  0.00     0.016 C 
HETATM   10  C10 UNL     1      -0.598  14.907   1.288  1.00  0.00     0.011 C 
HETATM   11  C11 UNL     1       0.768  15.024   0.575  1.00  0.00     0.011 C 
HETATM   12  C12 UNL     1       1.992  15.200   1.490  1.00  0.00    -0.032 C 
HETATM   13  C13 UNL     1       2.321  16.713   1.633  1.00  0.00     0.016 C 
HETATM   14  C14 UNL     1       3.301  14.467   1.030  1.00  0.00    -0.002 C 
HETATM   15  C23 UNL     1       4.082  14.262   2.361  1.00  0.00     0.006 C 
HETATM   16  C24 UNL     1       3.098  14.561   3.513  1.00  0.00     0.011 C 
HETATM   17  C25 UNL     1       1.701  14.493   2.862  1.00  0.00    -0.032 C 
HETATM   18  C26 UNL     1       1.355  12.965   2.759  1.00  0.00     0.016 C 
HETATM   19  C27 UNL     1      -2.018  14.949   3.479  1.00  0.00     0.024 C 
ENDROOT
BRANCH  14  20
HETATM   20  C15 UNL     1       4.179  14.945  -0.171  1.00  0.00    -0.014 C 
HETATM   21  C16 UNL     1       5.515  15.516   0.320  1.00  0.00     0.010 C 
BRANCH  20  22
HETATM   22  C17 UNL     1       4.409  13.945  -1.330  1.00  0.00     0.008 C 
BRANCH  22  23
HETATM   23  C18 UNL     1       3.669  14.287  -2.636  1.00  0.00     0.028 C 
BRANCH  23  24
HETATM   24  C19 UNL     1       4.266  13.616  -3.842  1.00  0.00    -0.013 C 
HETATM   25  C20 UNL     1       4.934  12.446  -3.896  1.00  0.00     0.008 C 
HETATM   26  C21 UNL     1       5.241  11.543  -2.739  1.00  0.00     0.055 C 
BRANCH  25  27
HETATM   27  C22 UNL     1       5.413  12.023  -5.239  1.00  0.00     0.171 C 
HETATM   28  O1  UNL     1       6.438  11.414  -5.492  1.00  0.00    -0.646 OA
BRANCH  27  29
HETATM   29  O2  UNL     1       4.571  12.385  -6.221  1.00  0.00    -0.773 OA
HETATM   30  H35 UNL     1       5.006  12.044  -7.029  1.00  0.00     0.167 HD
ENDBRANCH  27  29
ENDBRANCH  25  27
ENDBRANCH  23  24
ENDBRANCH  22  23
ENDBRANCH  20  22
ENDBRANCH  14  20
BRANCH  19  31
HETATM   31  C28 UNL     1      -3.334  14.831   2.659  1.00  0.00     0.020 C 
BRANCH  31  32
HETATM   32  C29 UNL     1      -3.552  15.997   1.687  1.00  0.00     0.110 C 
BRANCH  32  33
HETATM   33  C30 UNL     1      -4.237  15.628   0.403  1.00  0.00     0.139 C 
HETATM   34  O3  UNL     1      -3.912  15.988  -0.717  1.00  0.00    -0.650 OA
BRANCH  33  35
HETATM   35  O4  UNL     1      -5.316  14.848   0.590  1.00  0.00    -0.776 OA
HETATM   36  H48 UNL     1      -5.630  14.673  -0.322  1.00  0.00     0.167 HD
ENDBRANCH  33  35
ENDBRANCH  32  33
ENDBRANCH  31  32
ENDBRANCH  19  31
TORSDOF 10
ENDMDL
MODEL 4
REMARK minimizedAffinity -6.14725208
REMARK CNNscore 0.26700449
REMARK CNNaffinity 5.69252634
REMARK  10 active torsions:
REMARK  status: ('A' for Active; 'I' for Inactive)
REMARK    1  A    between atoms: C14_14  and  C15_15 
REMARK    2  A    between atoms: C15_15  and  C17_17 
REMARK    3  A    between atoms: C17_17  and  C18_18 
REMARK    4  A    between atoms: C18_18  and  C19_19 
REMARK    5  A    between atoms: C20_20  and  C22_22 
REMARK    6  A    between atoms: C22_22  and  O2_24 
REMARK    7  A    between atoms: C27_29  and  C28_30 
REMARK    8  A    between atoms: C28_30  and  C29_31 
REMARK    9  A    between atoms: C29_31  and  C30_32 
REMARK   10  A    between atoms: C30_32  and  O4_34 
ROOT
HETATM    1  C1  UNL     1       1.107  12.235  16.673  1.00  0.00     0.043 C 
HETATM    2  C2  UNL     1       1.563  11.641  17.994  1.00  0.00    -0.085 C 
HETATM    3  C3  UNL     1       1.785  10.156  17.861  1.00  0.00     0.043 C 
HETATM    4  C4  UNL     1       1.780  12.403  19.101  1.00  0.00    -0.073 C 
HETATM    5  C5  UNL     1       1.814  13.919  18.950  1.00  0.00     0.035 C 
HETATM    6  C6  UNL     1       2.558  14.641  20.073  1.00  0.00     0.010 C 
HETATM    7  C7  UNL     1       3.851  13.920  20.545  1.00  0.00     0.003 C 
HETATM    8  C8  UNL     1       3.645  12.348  20.828  1.00  0.00    -0.032 C 
HETATM    9  C9  UNL     1       4.520  11.488  19.873  1.00  0.00     0.016 C 
HETATM   10  C10 UNL     1       4.083  11.949  22.275  1.00  0.00     0.011 C 
HETATM   11  C11 UNL     1       5.368  12.580  22.853  1.00  0.00     0.011 C 
HETATM   12  C12 UNL     1       5.791  13.927  22.240  1.00  0.00    -0.032 C 
HETATM   13  C13 UNL     1       6.829  13.680  21.109  1.00  0.00     0.016 C 
HETATM   14  C14 UNL     1       6.409  14.969  23.237  1.00  0.00    -0.002 C 
HETATM   15  C23 UNL     1       6.119  16.335  22.551  1.00  0.00     0.006 C 
HETATM   16  C24 UNL     1       5.103  16.066  21.419  1.00  0.00     0.011 C 
HETATM   17  C25 UNL     1       4.504  14.684  21.751  1.00  0.00    -0.032 C 
HETATM   18  C26 UNL     1       3.427  14.944  22.863  1.00  0.00     0.016 C 
HETATM   19  C27 UNL     1       2.122  11.982  20.549  1.00  0.00     0.024 C 
ENDROOT
BRANCH  14  20
HETATM   20  C15 UNL     1       7.844  14.838  23.840  1.00  0.00    -0.014 C 
HETATM   21  C16 UNL     1       8.710  13.894  22.996  1.00  0.00     0.010 C 
BRANCH  20  22
HETATM   22  C17 UNL     1       8.611  16.146  24.149  1.00  0.00     0.008 C 
BRANCH  22  23
HETATM   23  C18 UNL     1       9.007  16.330  25.625  1.00  0.00     0.028 C 
BRANCH  23  24
HETATM   24  C19 UNL     1       8.342  17.515  26.269  1.00  0.00    -0.013 C 
HETATM   25  C20 UNL     1       7.809  17.599  27.505  1.00  0.00     0.008 C 
HETATM   26  C21 UNL     1       7.756  16.502  28.526  1.00  0.00     0.055 C 
BRANCH  25  27
HETATM   27  C22 UNL     1       7.214  18.910  27.879  1.00  0.00     0.171 C 
HETATM   28  O1  UNL     1       6.533  19.632  27.172  1.00  0.00    -0.646 OA
BRANCH  27  29
HETATM   29  O2  UNL     1       7.501  19.261  29.143  1.00  0.00    -0.773 OA
HETATM   30  H35 UNL     1       7.050  20.124  29.246  1.00  0.00     0.167 HD
ENDBRANCH  27  29
ENDBRANCH  25  27
ENDBRANCH  23  24
ENDBRANCH  22  23
ENDBRANCH  20  22
ENDBRANCH  14  20
BRANCH  19  31
HETATM   31  C28 UNL     1       1.630  10.592  21.045  1.00  0.00     0.020 C 
BRANCH  31  32
HETATM   32  C29 UNL     1       2.770   9.643  21.430  1.00  0.00     0.110 C 
BRANCH  32  33
HETATM   33  C30 UNL     1       2.418   8.623  22.473  1.00  0.00     0.139 C 
HETATM   34  O3  UNL     1       1.668   7.672  22.328  1.00  0.00    -0.650 OA
BRANCH  33  35
HETATM   35  O4  UNL     1       3.003   8.865  23.660  1.00  0.00    -0.776 OA
HETATM   36  H48 UNL     1       2.706   8.114  24.216  1.00  0.00     0.167 HD
ENDBRANCH  33  35
ENDBRANCH  32  33
ENDBRANCH  31  32
ENDBRANCH  19  31
TORSDOF 10
ENDMDL
MODEL 5
REMARK minimizedAffinity -8.24794483
REMARK CNNscore 0.210615501
REMARK CNNaffinity 6.58909464
REMARK  10 active torsions:
REMARK  status: ('A' for Active; 'I' for Inactive)
REMARK    1  A    between atoms: C14_14  and  C15_15 
REMARK    2  A    between atoms: C15_15  and  C17_17 
REMARK    3  A    between atoms: C17_17  and  C18_18 
REMARK    4  A    between atoms: C18_18  and  C19_19 
REMARK    5  A    between atoms: C20_20  and  C22_22 
REMARK    6  A    between atoms: C22_22  and  O2_24 
REMARK    7  A    between atoms: C27_29  and  C28_30 
REMARK    8  A    between atoms: C28_30  and  C29_31 
REMARK    9  A    between atoms: C29_31  and  C30_32 
REMARK   10  A    between atoms: C30_32  and  O4_34 
ROOT
HETATM    1  C1  UNL     1       1.852   6.668   9.362  1.00  0.00     0.043 C 
HETATM    2  C2  UNL     1       1.614   6.985  10.827  1.00  0.00    -0.085 C 
HETATM    3  C3  UNL     1       2.395   8.206  11.240  1.00  0.00     0.043 C 
HETATM    4  C4  UNL     1       0.758   6.262  11.602  1.00  0.00    -0.073 C 
HETATM    5  C5  UNL     1      -0.180   5.271  10.925  1.00  0.00     0.035 C 
HETATM    6  C6  UNL     1      -1.413   4.915  11.753  1.00  0.00     0.010 C 
HETATM    7  C7  UNL     1      -2.039   6.118  12.511  1.00  0.00     0.003 C 
HETATM    8  C8  UNL     1      -0.962   6.998  13.323  1.00  0.00    -0.032 C 
HETATM    9  C9  UNL     1      -0.902   8.453  12.778  1.00  0.00     0.016 C 
HETATM   10  C10 UNL     1      -1.331   7.130  14.836  1.00  0.00     0.011 C 
HETATM   11  C11 UNL     1      -2.813   7.351  15.214  1.00  0.00     0.011 C 
HETATM   12  C12 UNL     1      -3.849   6.868  14.184  1.00  0.00    -0.032 C 
HETATM   13  C13 UNL     1      -4.259   8.053  13.265  1.00  0.00     0.016 C 
HETATM   14  C14 UNL     1      -5.161   6.245  14.776  1.00  0.00    -0.002 C 
HETATM   15  C23 UNL     1      -5.655   5.306  13.636  1.00  0.00     0.006 C 
HETATM   16  C24 UNL     1      -4.494   5.171  12.627  1.00  0.00     0.011 C 
HETATM   17  C25 UNL     1      -3.247   5.649  13.398  1.00  0.00    -0.032 C 
HETATM   18  C26 UNL     1      -2.811   4.434  14.293  1.00  0.00     0.016 C 
HETATM   19  C27 UNL     1       0.475   6.347  13.120  1.00  0.00     0.024 C 
ENDROOT
BRANCH  14  20
HETATM   20  C15 UNL     1      -6.287   7.089  15.453  1.00  0.00    -0.014 C 
HETATM   21  C16 UNL     1      -6.425   8.461  14.780  1.00  0.00     0.010 C 
BRANCH  20  22
HETATM   22  C17 UNL     1      -7.675   6.425  15.622  1.00  0.00     0.008 C 
BRANCH  22  23
HETATM   23  C18 UNL     1      -8.762   7.339  16.217  1.00  0.00     0.028 C 
BRANCH  23  24
HETATM   24  C19 UNL     1      -9.965   7.478  15.325  1.00  0.00    -0.013 C 
HETATM   25  C20 UNL     1     -10.134   6.998  14.076  1.00  0.00     0.008 C 
HETATM   26  C21 UNL     1      -9.133   6.211  13.285  1.00  0.00     0.055 C 
BRANCH  25  27
HETATM   27  C22 UNL     1     -11.440   7.290  13.430  1.00  0.00     0.171 C 
HETATM   28  O1  UNL     1     -11.646   8.066  12.513  1.00  0.00    -0.646 OA
BRANCH  27  29
HETATM   29  O2  UNL     1     -12.447   6.582  13.967  1.00  0.00    -0.773 OA
HETATM   30  H35 UNL     1     -13.228   6.869  13.450  1.00  0.00     0.167 HD
ENDBRANCH  27  29
ENDBRANCH  25  27
ENDBRANCH  23  24
ENDBRANCH  22  23
ENDBRANCH  20  22
ENDBRANCH  14  20
BRANCH  19  31
HETATM   31  C28 UNL     1       1.615   6.850  14.051  1.00  0.00     0.020 C 
BRANCH  31  32
HETATM   32  C29 UNL     1       1.289   8.174  14.752  1.00  0.00     0.110 C 
BRANCH  32  33
HETATM   33  C30 UNL     1       1.578   8.197  16.225  1.00  0.00     0.139 C 
HETATM   34  O3  UNL     1       1.533   9.174  16.954  1.00  0.00    -0.650 OA
BRANCH  33  35
HETATM   35  O4  UNL     1       1.939   6.994  16.706  1.00  0.00    -0.776 OA
HETATM   36  H48 UNL     1       2.064   7.162  17.664  1.00  0.00     0.167 HD
ENDBRANCH  33  35
ENDBRANCH  32  33
ENDBRANCH  31  32
ENDBRANCH  19  31
TORSDOF 10
ENDMDL
MODEL 6
REMARK minimizedAffinity -6.17695665
REMARK CNNscore 0.156922877
REMARK CNNaffinity 5.38430738
REMARK  10 active torsions:
REMARK  status: ('A' for Active; 'I' for Inactive)
REMARK    1  A    between atoms: C14_14  and  C15_15 
REMARK    2  A    between atoms: C15_15  and  C17_17 
REMARK    3  A    between atoms: C17_17  and  C18_18 
REMARK    4  A    between atoms: C18_18  and  C19_19 
REMARK    5  A    between atoms: C20_20  and  C22_22 
REMARK    6  A    between atoms: C22_22  and  O2_24 
REMARK    7  A    between atoms: C27_29  and  C28_30 
REMARK    8  A    between atoms: C28_30  and  C29_31 
REMARK    9  A    between atoms: C29_31  and  C30_32 
REMARK   10  A    between atoms: C30_32  and  O4_34 
ROOT
HETATM    1  C1  UNL     1     -13.684  -3.250  12.169  1.00  0.00     0.043 C 
HETATM    2  C2  UNL     1     -14.342  -2.807  13.462  1.00  0.00    -0.085 C 
HETATM    3  C3  UNL     1     -13.553  -3.288  14.653  1.00  0.00     0.043 C 
HETATM    4  C4  UNL     1     -15.463  -2.034  13.485  1.00  0.00    -0.073 C 
HETATM    5  C5  UNL     1     -15.926  -1.381  12.188  1.00  0.00     0.035 C 
HETATM    6  C6  UNL     1     -16.826  -0.163  12.390  1.00  0.00     0.010 C 
HETATM    7  C7  UNL     1     -16.392   0.760  13.563  1.00  0.00     0.003 C 
HETATM    8  C8  UNL     1     -16.086  -0.036  14.929  1.00  0.00    -0.032 C 
HETATM    9  C9  UNL     1     -14.600   0.133  15.355  1.00  0.00     0.016 C 
HETATM   10  C10 UNL     1     -16.932   0.503  16.127  1.00  0.00     0.011 C 
HETATM   11  C11 UNL     1     -17.126   2.030  16.260  1.00  0.00     0.011 C 
HETATM   12  C12 UNL     1     -16.983   2.842  14.960  1.00  0.00    -0.032 C 
HETATM   13  C13 UNL     1     -15.529   3.380  14.841  1.00  0.00     0.016 C 
HETATM   14  C14 UNL     1     -17.958   4.061  14.805  1.00  0.00    -0.002 C 
HETATM   15  C23 UNL     1     -18.058   4.243  13.262  1.00  0.00     0.006 C 
HETATM   16  C24 UNL     1     -17.443   2.982  12.617  1.00  0.00     0.011 C 
HETATM   17  C25 UNL     1     -17.414   1.937  13.751  1.00  0.00    -0.032 C 
HETATM   18  C26 UNL     1     -18.874   1.366  13.839  1.00  0.00     0.016 C 
HETATM   19  C27 UNL     1     -16.341  -1.586  14.676  1.00  0.00     0.024 C 
ENDROOT
BRANCH  14  20
HETATM   20  C15 UNL     1     -17.807   5.393  15.607  1.00  0.00    -0.014 C 
HETATM   21  C16 UNL     1     -16.368   5.573  16.106  1.00  0.00     0.010 C 
BRANCH  20  22
HETATM   22  C17 UNL     1     -18.315   6.692  14.936  1.00  0.00     0.008 C 
BRANCH  22  23
HETATM   23  C18 UNL     1     -17.368   7.900  15.064  1.00  0.00     0.028 C 
BRANCH  23  24
HETATM   24  C19 UNL     1     -17.128   8.599  13.755  1.00  0.00    -0.013 C 
HETATM   25  C20 UNL     1     -16.109   8.419  12.890  1.00  0.00     0.008 C 
HETATM   26  C21 UNL     1     -14.963   7.466  13.055  1.00  0.00     0.055 C 
BRANCH  25  27
HETATM   27  C22 UNL     1     -16.130   9.257  11.662  1.00  0.00     0.171 C 
HETATM   28  O1  UNL     1     -16.328   8.877  10.521  1.00  0.00    -0.646 OA
BRANCH  27  29
HETATM   29  O2  UNL     1     -15.901  10.554  11.922  1.00  0.00    -0.773 OA
HETATM   30  H35 UNL     1     -15.948  10.974  11.039  1.00  0.00     0.167 HD
ENDBRANCH  27  29
ENDBRANCH  25  27
ENDBRANCH  23  24
ENDBRANCH  22  23
ENDBRANCH  20  22
ENDBRANCH  14  20
BRANCH  19  31
HETATM   31  C28 UNL     1     -16.400  -2.505  15.930  1.00  0.00     0.020 C 
BRANCH  31  32
HETATM   32  C29 UNL     1     -17.195  -1.899  17.092  1.00  0.00     0.110 C 
BRANCH  32  33
HETATM   33  C30 UNL     1     -17.229  -2.736  18.338  1.00  0.00     0.139 C 
HETATM   34  O3  UNL     1     -18.025  -3.626  18.587  1.00  0.00    -0.650 OA
BRANCH  33  35
HETATM   35  O4  UNL     1     -16.277  -2.394  19.225  1.00  0.00    -0.776 OA
HETATM   36  H48 UNL     1     -16.408  -3.035  19.955  1.00  0.00     0.167 HD
ENDBRANCH  33  35
ENDBRANCH  32  33
ENDBRANCH  31  32
ENDBRANCH  19  31
TORSDOF 10
ENDMDL
MODEL 7
REMARK minimizedAffinity -8.80496502
REMARK CNNscore 0.138516366
REMARK CNNaffinity 6.4345727
REMARK  10 active torsions:
REMARK  status: ('A' for Active; 'I' for Inactive)
REMARK    1  A    between atoms: C14_14  and  C15_15 
REMARK    2  A    between atoms: C15_15  and  C17_17 
REMARK    3  A    between atoms: C17_17  and  C18_18 
REMARK    4  A    between atoms: C18_18  and  C19_19 
REMARK    5  A    between atoms: C20_20  and  C22_22 
REMARK    6  A    between atoms: C22_22  and  O2_24 
REMARK    7  A    between atoms: C27_29  and  C28_30 
REMARK    8  A    between atoms: C28_30  and  C29_31 
REMARK    9  A    between atoms: C29_31  and  C30_32 
REMARK   10  A    between atoms: C30_32  and  O4_34 
ROOT
HETATM    1  C1  UNL     1       2.313   9.960  15.096  1.00  0.00     0.043 C 
HETATM    2  C2  UNL     1       1.716   8.844  14.258  1.00  0.00    -0.085 C 
HETATM    3  C3  UNL     1       2.675   7.686  14.154  1.00  0.00     0.043 C 
HETATM    4  C4  UNL     1       0.458   8.911  13.741  1.00  0.00    -0.073 C 
HETATM    5  C5  UNL     1      -0.472  10.016  14.224  1.00  0.00     0.035 C 
HETATM    6  C6  UNL     1      -1.956   9.718  14.015  1.00  0.00     0.010 C 
HETATM    7  C7  UNL     1      -2.355   8.244  14.304  1.00  0.00     0.003 C 
HETATM    8  C8  UNL     1      -1.385   7.166  13.602  1.00  0.00    -0.032 C 
HETATM    9  C9  UNL     1      -0.656   6.295  14.664  1.00  0.00     0.016 C 
HETATM   10  C10 UNL     1      -2.176   6.161  12.703  1.00  0.00     0.011 C 
HETATM   11  C11 UNL     1      -3.530   5.624  13.219  1.00  0.00     0.011 C 
HETATM   12  C12 UNL     1      -4.256   6.506  14.250  1.00  0.00    -0.032 C 
HETATM   13  C13 UNL     1      -3.904   6.024  15.685  1.00  0.00     0.016 C 
HETATM   14  C14 UNL     1      -5.819   6.553  14.130  1.00  0.00    -0.002 C 
HETATM   15  C23 UNL     1      -6.185   7.922  14.776  1.00  0.00     0.006 C 
HETATM   16  C24 UNL     1      -4.870   8.717  14.925  1.00  0.00     0.011 C 
HETATM   17  C25 UNL     1      -3.874   8.007  13.986  1.00  0.00    -0.032 C 
HETATM   18  C26 UNL     1      -4.205   8.530  12.543  1.00  0.00     0.016 C 
HETATM   19  C27 UNL     1      -0.275   7.950  12.776  1.00  0.00     0.024 C 
ENDROOT
BRANCH  14  20
HETATM   20  C15 UNL     1      -6.751   5.371  14.545  1.00  0.00    -0.014 C 
HETATM   21  C16 UNL     1      -7.357   5.610  15.934  1.00  0.00     0.010 C 
BRANCH  20  22
HETATM   22  C17 UNL     1      -7.848   4.939  13.542  1.00  0.00     0.008 C 
BRANCH  22  23
HETATM   23  C18 UNL     1      -7.540   3.649  12.761  1.00  0.00     0.028 C 
BRANCH  23  24
HETATM   24  C19 UNL     1      -6.115   3.575  12.287  1.00  0.00    -0.013 C 
HETATM   25  C20 UNL     1      -5.496   2.547  11.672  1.00  0.00     0.008 C 
HETATM   26  C21 UNL     1      -6.105   1.221  11.327  1.00  0.00     0.055 C 
BRANCH  25  27
HETATM   27  C22 UNL     1      -4.069   2.758  11.311  1.00  0.00     0.171 C 
HETATM   28  O1  UNL     1      -3.092   2.381  11.936  1.00  0.00    -0.646 OA
BRANCH  27  29
HETATM   29  O2  UNL     1      -3.926   3.440  10.163  1.00  0.00    -0.773 OA
HETATM   30  H35 UNL     1      -2.954   3.499  10.054  1.00  0.00     0.167 HD
ENDBRANCH  27  29
ENDBRANCH  25  27
ENDBRANCH  23  24
ENDBRANCH  22  23
ENDBRANCH  20  22
ENDBRANCH  14  20
BRANCH  19  31
HETATM   31  C28 UNL     1       0.581   7.118  11.780  1.00  0.00     0.020 C 
BRANCH  31  32
HETATM   32  C29 UNL     1       0.013   7.101  10.355  1.00  0.00     0.110 C 
BRANCH  32  33
HETATM   33  C30 UNL     1       0.279   8.342   9.555  1.00  0.00     0.139 C 
HETATM   34  O3  UNL     1      -0.556   9.142   9.164  1.00  0.00    -0.650 OA
BRANCH  33  35
HETATM   35  O4  UNL     1       1.581   8.505   9.258  1.00  0.00    -0.776 OA
HETATM   36  H48 UNL     1       1.597   9.355   8.769  1.00  0.00     0.167 HD
ENDBRANCH  33  35
ENDBRANCH  32  33
ENDBRANCH  31  32
ENDBRANCH  19  31
TORSDOF 10
ENDMDL
MODEL 8
REMARK minimizedAffinity -8.0287571
REMARK CNNscore 0.135835528
REMARK CNNaffinity 6.03951597
REMARK  10 active torsions:
REMARK  status: ('A' for Active; 'I' for Inactive)
REMARK    1  A    between atoms: C14_14  and  C15_15 
REMARK    2  A    between atoms: C15_15  and  C17_17 
REMARK    3  A    between atoms: C17_17  and  C18_18 
REMARK    4  A    between atoms: C18_18  and  C19_19 
REMARK    5  A    between atoms: C20_20  and  C22_22 
REMARK    6  A    between atoms: C22_22  and  O2_24 
REMARK    7  A    between atoms: C27_29  and  C28_30 
REMARK    8  A    between atoms: C28_30  and  C29_31 
REMARK    9  A    between atoms: C29_31  and  C30_32 
REMARK   10  A    between atoms: C30_32  and  O4_34 
ROOT
HETATM    1  C1  UNL     1       1.471   6.562   9.784  1.00  0.00     0.043 C 
HETATM    2  C2  UNL     1       0.662   6.096  10.981  1.00  0.00    -0.085 C 
HETATM    3  C3  UNL     1       1.210   4.800  11.521  1.00  0.00     0.043 C 
HETATM    4  C4  UNL     1      -0.374   6.819  11.489  1.00  0.00    -0.073 C 
HETATM    5  C5  UNL     1      -0.569   8.252  11.010  1.00  0.00     0.035 C 
HETATM    6  C6  UNL     1      -1.375   9.126  11.970  1.00  0.00     0.010 C 
HETATM    7  C7  UNL     1      -1.048   8.891  13.470  1.00  0.00     0.003 C 
HETATM    8  C8  UNL     1      -1.031   7.336  13.890  1.00  0.00    -0.032 C 
HETATM    9  C9  UNL     1       0.379   6.904  14.381  1.00  0.00     0.016 C 
HETATM   10  C10 UNL     1      -2.002   7.037  15.078  1.00  0.00     0.011 C 
HETATM   11  C11 UNL     1      -2.075   8.053  16.240  1.00  0.00     0.011 C 
HETATM   12  C12 UNL     1      -1.659   9.495  15.900  1.00  0.00    -0.032 C 
HETATM   13  C13 UNL     1      -0.162   9.703  16.262  1.00  0.00     0.016 C 
HETATM   14  C14 UNL     1      -2.484  10.628  16.603  1.00  0.00    -0.002 C 
HETATM   15  C23 UNL     1      -2.326  11.838  15.635  1.00  0.00     0.006 C 
HETATM   16  C24 UNL     1      -1.734  11.288  14.319  1.00  0.00     0.011 C 
HETATM   17  C25 UNL     1      -1.976   9.766  14.385  1.00  0.00    -0.032 C 
HETATM   18  C26 UNL     1      -3.478   9.558  13.976  1.00  0.00     0.016 C 
HETATM   19  C27 UNL     1      -1.383   6.465  12.606  1.00  0.00     0.024 C 
ENDROOT
BRANCH  14  20
HETATM   20  C15 UNL     1      -2.340  10.986  18.116  1.00  0.00    -0.014 C 
HETATM   21  C16 UNL     1      -3.661  10.757  18.863  1.00  0.00     0.010 C 
BRANCH  20  22
HETATM   22  C17 UNL     1      -1.161  10.350  18.892  1.00  0.00     0.008 C 
BRANCH  22  23
HETATM   23  C18 UNL     1      -0.191  11.357  19.536  1.00  0.00     0.028 C 
BRANCH  23  24
HETATM   24  C19 UNL     1       0.904  10.696  20.326  1.00  0.00    -0.013 C 
HETATM   25  C20 UNL     1       2.202  10.554  19.989  1.00  0.00     0.008 C 
HETATM   26  C21 UNL     1       2.848  11.028  18.721  1.00  0.00     0.055 C 
BRANCH  25  27
HETATM   27  C22 UNL     1       3.066   9.852  20.975  1.00  0.00     0.171 C 
HETATM   28  O1  UNL     1       4.262  10.011  21.143  1.00  0.00    -0.646 OA
BRANCH  27  29
HETATM   29  O2  UNL     1       2.380   8.971  21.721  1.00  0.00    -0.773 OA
HETATM   30  H35 UNL     1       3.063   8.596  22.314  1.00  0.00     0.167 HD
ENDBRANCH  27  29
ENDBRANCH  25  27
ENDBRANCH  23  24
ENDBRANCH  22  23
ENDBRANCH  20  22
ENDBRANCH  14  20
BRANCH  19  31
HETATM   31  C28 UNL     1      -1.718   4.965  12.842  1.00  0.00     0.020 C 
BRANCH  31  32
HETATM   32  C29 UNL     1      -2.965   4.493  12.085  1.00  0.00     0.110 C 
BRANCH  32  33
HETATM   33  C30 UNL     1      -2.688   3.640  10.882  1.00  0.00     0.139 C 
HETATM   34  O3  UNL     1      -1.588   3.308  10.471  1.00  0.00    -0.650 OA
BRANCH  33  35
HETATM   35  O4  UNL     1      -3.806   3.270  10.233  1.00  0.00    -0.776 OA
HETATM   36  H48 UNL     1      -3.470   2.706   9.504  1.00  0.00     0.167 HD
ENDBRANCH  33  35
ENDBRANCH  32  33
ENDBRANCH  31  32
ENDBRANCH  19  31
TORSDOF 10
ENDMDL
MODEL 9
REMARK minimizedAffinity -6.93136358
REMARK CNNscore 0.134719312
REMARK CNNaffinity 6.22861671
REMARK  10 active torsions:
REMARK  status: ('A' for Active; 'I' for Inactive)
REMARK    1  A    between atoms: C14_14  and  C15_15 
REMARK    2  A    between atoms: C15_15  and  C17_17 
REMARK    3  A    between atoms: C17_17  and  C18_18 
REMARK    4  A    between atoms: C18_18  and  C19_19 
REMARK    5  A    between atoms: C20_20  and  C22_22 
REMARK    6  A    between atoms: C22_22  and  O2_24 
REMARK    7  A    between atoms: C27_29  and  C28_30 
REMARK    8  A    between atoms: C28_30  and  C29_31 
REMARK    9  A    between atoms: C29_31  and  C30_32 
REMARK   10  A    between atoms: C30_32  and  O4_34 
ROOT
HETATM    1  C1  UNL     1       2.351  14.849  16.330  1.00  0.00     0.043 C 
HETATM    2  C2  UNL     1       1.420  14.033  17.208  1.00  0.00    -0.085 C 
HETATM    3  C3  UNL     1       0.764  14.908  18.246  1.00  0.00     0.043 C 
HETATM    4  C4  UNL     1       1.202  12.704  17.006  1.00  0.00    -0.073 C 
HETATM    5  C5  UNL     1       1.703  12.070  15.714  1.00  0.00     0.035 C 
HETATM    6  C6  UNL     1       0.987  10.774  15.337  1.00  0.00     0.010 C 
HETATM    7  C7  UNL     1      -0.544  10.793  15.601  1.00  0.00     0.003 C 
HETATM    8  C8  UNL     1      -0.938  11.333  17.066  1.00  0.00    -0.032 C 
HETATM    9  C9  UNL     1      -1.786  12.633  16.974  1.00  0.00     0.016 C 
HETATM   10  C10 UNL     1      -1.819  10.310  17.853  1.00  0.00     0.011 C 
HETATM   11  C11 UNL     1      -2.927   9.554  17.087  1.00  0.00     0.011 C 
HETATM   12  C12 UNL     1      -2.725   9.422  15.567  1.00  0.00    -0.032 C 
HETATM   13  C13 UNL     1      -3.479  10.571  14.840  1.00  0.00     0.016 C 
HETATM   14  C14 UNL     1      -3.191   8.067  14.930  1.00  0.00    -0.002 C 
HETATM   15  C23 UNL     1      -2.312   7.953  13.649  1.00  0.00     0.006 C 
HETATM   16  C24 UNL     1      -1.198   9.016  13.771  1.00  0.00     0.011 C 
HETATM   17  C25 UNL     1      -1.184   9.399  15.264  1.00  0.00    -0.032 C 
HETATM   18  C26 UNL     1      -0.384   8.257  15.987  1.00  0.00     0.016 C 
HETATM   19  C27 UNL     1       0.401  11.685  17.850  1.00  0.00     0.024 C 
ENDROOT
BRANCH  14  20
HETATM   20  C15 UNL     1      -4.691   7.682  14.723  1.00  0.00    -0.014 C 
HETATM   21  C16 UNL     1      -5.178   8.102  13.330  1.00  0.00     0.010 C 
BRANCH  20  22
HETATM   22  C17 UNL     1      -5.102   6.221  15.024  1.00  0.00     0.008 C 
BRANCH  22  23
HETATM   23  C18 UNL     1      -6.176   5.644  14.084  1.00  0.00     0.028 C 
BRANCH  23  24
HETATM   24  C19 UNL     1      -5.637   4.602  13.144  1.00  0.00    -0.013 C 
HETATM   25  C20 UNL     1      -6.261   3.500  12.680  1.00  0.00     0.008 C 
HETATM   26  C21 UNL     1      -7.655   3.060  13.014  1.00  0.00     0.055 C 
BRANCH  25  27
HETATM   27  C22 UNL     1      -5.477   2.641  11.752  1.00  0.00     0.171 C 
HETATM   28  O1  UNL     1      -5.918   1.818  10.969  1.00  0.00    -0.646 OA
BRANCH  27  29
HETATM   29  O2  UNL     1      -4.155   2.858  11.847  1.00  0.00    -0.773 OA
HETATM   30  H35 UNL     1      -3.776   2.238  11.190  1.00  0.00     0.167 HD
ENDBRANCH  27  29
ENDBRANCH  25  27
ENDBRANCH  23  24
ENDBRANCH  22  23
ENDBRANCH  20  22
ENDBRANCH  14  20
BRANCH  19  31
HETATM   31  C28 UNL     1       0.277  11.937  19.379  1.00  0.00     0.020 C 
BRANCH  31  32
HETATM   32  C29 UNL     1       0.647  10.715  20.229  1.00  0.00     0.110 C 
BRANCH  32  33
HETATM   33  C30 UNL     1       2.088  10.650  20.646  1.00  0.00     0.139 C 
HETATM   34  O3  UNL     1       2.755  11.573  21.084  1.00  0.00    -0.650 OA
BRANCH  33  35
HETATM   35  O4  UNL     1       2.631   9.433  20.466  1.00  0.00    -0.776 OA
HETATM   36  H48 UNL     1       3.545   9.540  20.804  1.00  0.00     0.167 HD
ENDBRANCH  33  35
ENDBRANCH  32  33
ENDBRANCH  31  32
ENDBRANCH  19  31
TORSDOF 10
ENDMDL
