MODEL 1
REMARK minimizedAffinity -8.2966423
REMARK CNNscore 0.661462963
REMARK CNNaffinity 6.38351679
REMARK  9 active torsions:
REMARK  status: ('A' for Active; 'I' for Inactive)
REMARK    1  A    between atoms: C2_2  and  C30_35 
REMARK    2  A    between atoms: C3_3  and  C4_4 
REMARK    3  A    between atoms: C4_4  and  O1_5 
REMARK    4  A    between atoms: C4_4  and  C5_6 
REMARK    5  A    between atoms: C5_6  and  C6_7 
REMARK    6  A    between atoms: C6_7  and  C8_9 
REMARK    7  A    between atoms: C10_11  and  O2_12 
REMARK    8  A    between atoms: C29_33  and  O5_34 
REMARK    9  A    between atoms: C30_35  and  O7_37 
ROOT
HETATM    1  C8  UNL     1     -13.452  46.382 -27.022  1.00  0.00     0.001 C 
HETATM    2  C9  UNL     1     -12.814  47.432 -26.065  1.00  0.00     0.038 C 
HETATM    3  C10 UNL     1     -11.391  47.696 -26.592  1.00  0.00     0.132 C 
HETATM    4  C11 UNL     1     -11.450  47.256 -28.077  1.00  0.00     0.017 C 
HETATM    5  C12 UNL     1     -12.170  48.376 -28.905  1.00  0.00     0.023 C 
HETATM    6  C13 UNL     1     -10.149  46.972 -28.826  1.00  0.00    -0.029 C 
HETATM    7  C14 UNL     1     -10.148  46.171 -29.927  1.00  0.00     0.002 C 
HETATM    8  C15 UNL     1     -11.432  45.424 -30.277  1.00  0.00     0.157 C 
HETATM    9  O3  UNL     1     -11.522  44.763 -31.312  1.00  0.00    -0.293 OA
HETATM   10  C16 UNL     1     -12.638  45.459 -29.339  1.00  0.00     0.094 C 
HETATM   11  C17 UNL     1     -12.264  45.923 -27.931  1.00  0.00    -0.019 C 
HETATM   12  C18 UNL     1     -11.459  44.779 -27.248  1.00  0.00     0.017 C 
HETATM   13  C19 UNL     1      -8.878  45.935 -30.797  1.00  0.00    -0.008 C 
HETATM   14  C20 UNL     1      -8.382  44.521 -30.420  1.00  0.00     0.021 C 
HETATM   15  C21 UNL     1      -9.157  46.006 -32.325  1.00  0.00     0.022 C 
HETATM   16  C22 UNL     1      -7.907  45.896 -33.188  1.00  0.00     0.080 C 
HETATM   17  C23 UNL     1      -6.880  46.941 -32.839  1.00  0.00     0.135 C 
HETATM   18  O4  UNL     1      -6.282  47.531 -33.741  1.00  0.00    -0.297 OA
HETATM   19  C24 UNL     1      -6.527  47.133 -31.358  1.00  0.00     0.018 C 
HETATM   20  C25 UNL     1      -5.463  46.095 -30.974  1.00  0.00     0.023 C 
HETATM   21  C26 UNL     1      -5.868  48.531 -31.219  1.00  0.00     0.023 C 
HETATM   22  C27 UNL     1      -7.841  47.095 -30.505  1.00  0.00     0.016 C 
HETATM   23  C28 UNL     1      -7.606  47.216 -28.990  1.00  0.00     0.043 C 
HETATM   24  C29 UNL     1      -8.898  47.629 -28.286  1.00  0.00     0.149 C 
ENDROOT
BRANCH   1  25
HETATM   25  C6  UNL     1     -14.408  45.378 -26.310  1.00  0.00    -0.011 C 
HETATM   26  C7  UNL     1     -15.718  45.054 -27.039  1.00  0.00     0.010 C 
BRANCH  25  27
HETATM   27  C5  UNL     1     -14.657  45.793 -24.837  1.00  0.00     0.040 C 
BRANCH  27  28
HETATM   28  C4  UNL     1     -15.879  46.702 -24.625  1.00  0.00     0.142 C 
BRANCH  28  29
HETATM   29  C3  UNL     1     -16.831  46.106 -23.622  1.00  0.00     0.018 C 
HETATM   30  C2  UNL     1     -18.175  46.215 -23.555  1.00  0.00     0.010 C 
HETATM   31  C1  UNL     1     -19.033  47.045 -24.468  1.00  0.00     0.055 C 
BRANCH  30  32
HETATM   32  C30 UNL     1     -18.939  45.506 -22.494  1.00  0.00     0.171 C 
HETATM   33  O6  UNL     1     -19.688  44.561 -22.674  1.00  0.00    -0.646 OA
BRANCH  32  34
HETATM   34  O7  UNL     1     -18.747  46.003 -21.260  1.00  0.00    -0.773 OA
HETATM   35  H44 UNL     1     -19.321  45.443 -20.698  1.00  0.00     0.167 HD
ENDBRANCH  32  34
ENDBRANCH  30  32
ENDBRANCH  28  29
BRANCH  28  36
HETATM   36  O1  UNL     1     -15.478  47.999 -24.209  1.00  0.00    -0.392 OA
HETATM   37  H6  UNL     1     -16.291  48.504 -24.035  1.00  0.00     0.210 HD
ENDBRANCH  28  36
ENDBRANCH  27  28
ENDBRANCH  25  27
ENDBRANCH   1  25
BRANCH   3  38
HETATM   38  O2  UNL     1     -11.010  49.057 -26.438  1.00  0.00    -0.394 OA
HETATM   39  H17 UNL     1     -11.194  49.308 -25.513  1.00  0.00     0.210 HD
ENDBRANCH   3  38
BRANCH  24  40
HETATM   40  O5  UNL     1      -9.029  49.040 -28.410  1.00  0.00    -0.391 OA
HETATM   41  H43 UNL     1      -9.691  49.319 -27.743  1.00  0.00     0.210 HD
ENDBRANCH  24  40
TORSDOF 9
ENDMDL
MODEL 2
REMARK minimizedAffinity -8.44970989
REMARK CNNscore 0.660906076
REMARK CNNaffinity 6.60329103
REMARK  9 active torsions:
REMARK  status: ('A' for Active; 'I' for Inactive)
REMARK    1  A    between atoms: C2_2  and  C30_35 
REMARK    2  A    between atoms: C3_3  and  C4_4 
REMARK    3  A    between atoms: C4_4  and  O1_5 
REMARK    4  A    between atoms: C4_4  and  C5_6 
REMARK    5  A    between atoms: C5_6  and  C6_7 
REMARK    6  A    between atoms: C6_7  and  C8_9 
REMARK    7  A    between atoms: C10_11  and  O2_12 
REMARK    8  A    between atoms: C29_33  and  O5_34 
REMARK    9  A    between atoms: C30_35  and  O7_37 
ROOT
HETATM    1  C8  UNL     1      -3.720  48.346 -21.501  1.00  0.00     0.001 C 
HETATM    2  C9  UNL     1      -4.162  46.874 -21.250  1.00  0.00     0.038 C 
HETATM    3  C10 UNL     1      -3.983  46.615 -19.742  1.00  0.00     0.132 C 
HETATM    4  C11 UNL     1      -3.993  48.031 -19.111  1.00  0.00     0.017 C 
HETATM    5  C12 UNL     1      -5.474  48.541 -19.042  1.00  0.00     0.023 C 
HETATM    6  C13 UNL     1      -3.431  48.229 -17.704  1.00  0.00    -0.029 C 
HETATM    7  C14 UNL     1      -3.000  49.455 -17.299  1.00  0.00     0.002 C 
HETATM    8  C15 UNL     1      -2.920  50.571 -18.338  1.00  0.00     0.157 C 
HETATM    9  O3  UNL     1      -2.631  51.723 -18.014  1.00  0.00    -0.293 OA
HETATM   10  C16 UNL     1      -3.176  50.283 -19.816  1.00  0.00     0.094 C 
HETATM   11  C17 UNL     1      -3.086  48.792 -20.142  1.00  0.00    -0.019 C 
HETATM   12  C18 UNL     1      -1.588  48.376 -20.070  1.00  0.00     0.017 C 
HETATM   13  C19 UNL     1      -2.524  49.744 -15.845  1.00  0.00    -0.008 C 
HETATM   14  C20 UNL     1      -0.982  49.815 -15.927  1.00  0.00     0.021 C 
HETATM   15  C21 UNL     1      -3.083  51.075 -15.267  1.00  0.00     0.022 C 
HETATM   16  C22 UNL     1      -2.723  51.314 -13.807  1.00  0.00     0.080 C 
HETATM   17  C23 UNL     1      -3.167  50.182 -12.918  1.00  0.00     0.135 C 
HETATM   18  O4  UNL     1      -3.690  50.431 -11.830  1.00  0.00    -0.297 OA
HETATM   19  C24 UNL     1      -2.825  48.751 -13.355  1.00  0.00     0.018 C 
HETATM   20  C25 UNL     1      -1.397  48.431 -12.891  1.00  0.00     0.023 C 
HETATM   21  C26 UNL     1      -3.776  47.795 -12.588  1.00  0.00     0.023 C 
HETATM   22  C27 UNL     1      -3.079  48.607 -14.895  1.00  0.00     0.016 C 
HETATM   23  C28 UNL     1      -2.710  47.226 -15.462  1.00  0.00     0.043 C 
HETATM   24  C29 UNL     1      -3.395  47.008 -16.811  1.00  0.00     0.149 C 
ENDROOT
BRANCH   1  25
HETATM   25  C6  UNL     1      -3.015  48.567 -22.874  1.00  0.00    -0.011 C 
HETATM   26  C7  UNL     1      -1.930  49.652 -22.913  1.00  0.00     0.010 C 
BRANCH  25  27
HETATM   27  C5  UNL     1      -4.053  48.750 -24.011  1.00  0.00     0.040 C 
BRANCH  27  28
HETATM   28  C4  UNL     1      -4.435  50.210 -24.301  1.00  0.00     0.142 C 
BRANCH  28  29
HETATM   29  C3  UNL     1      -3.791  50.699 -25.572  1.00  0.00     0.018 C 
HETATM   30  C2  UNL     1      -3.266  49.984 -26.590  1.00  0.00     0.010 C 
HETATM   31  C1  UNL     1      -3.149  48.486 -26.639  1.00  0.00     0.055 C 
BRANCH  30  32
HETATM   32  C30 UNL     1      -2.707  50.669 -27.785  1.00  0.00     0.171 C 
HETATM   33  O6  UNL     1      -1.642  51.260 -27.827  1.00  0.00    -0.646 OA
BRANCH  32  34
HETATM   34  O7  UNL     1      -3.495  50.599 -28.872  1.00  0.00    -0.773 OA
HETATM   35  H44 UNL     1      -2.996  51.102 -29.547  1.00  0.00     0.167 HD
ENDBRANCH  32  34
ENDBRANCH  30  32
ENDBRANCH  28  29
BRANCH  28  36
HETATM   36  O1  UNL     1      -5.845  50.358 -24.380  1.00  0.00    -0.392 OA
HETATM   37  H6  UNL     1      -6.020  51.283 -24.623  1.00  0.00     0.210 HD
ENDBRANCH  28  36
ENDBRANCH  27  28
ENDBRANCH  25  27
ENDBRANCH   1  25
BRANCH   3  38
HETATM   38  O2  UNL     1      -5.004  45.776 -19.221  1.00  0.00    -0.394 OA
HETATM   39  H17 UNL     1      -5.063  44.993 -19.800  1.00  0.00     0.210 HD
ENDBRANCH   3  38
BRANCH  24  40
HETATM   40  O5  UNL     1      -4.729  46.584 -16.558  1.00  0.00    -0.391 OA
HETATM   41  H43 UNL     1      -5.061  46.195 -17.395  1.00  0.00     0.210 HD
ENDBRANCH  24  40
TORSDOF 9
ENDMDL
MODEL 3
REMARK minimizedAffinity -8.2702179
REMARK CNNscore 0.634832323
REMARK CNNaffinity 6.54981041
REMARK  9 active torsions:
REMARK  status: ('A' for Active; 'I' for Inactive)
REMARK    1  A    between atoms: C2_2  and  C30_35 
REMARK    2  A    between atoms: C3_3  and  C4_4 
REMARK    3  A    between atoms: C4_4  and  O1_5 
REMARK    4  A    between atoms: C4_4  and  C5_6 
REMARK    5  A    between atoms: C5_6  and  C6_7 
REMARK    6  A    between atoms: C6_7  and  C8_9 
REMARK    7  A    between atoms: C10_11  and  O2_12 
REMARK    8  A    between atoms: C29_33  and  O5_34 
REMARK    9  A    between atoms: C30_35  and  O7_37 
ROOT
HETATM    1  C8  UNL     1      -0.568  50.632 -17.655  1.00  0.00     0.001 C 
HETATM    2  C9  UNL     1      -1.561  50.338 -16.491  1.00  0.00     0.038 C 
HETATM    3  C10 UNL     1      -2.919  50.021 -17.145  1.00  0.00     0.132 C 
HETATM    4  C11 UNL     1      -2.553  49.597 -18.591  1.00  0.00     0.017 C 
HETATM    5  C12 UNL     1      -2.008  48.128 -18.561  1.00  0.00     0.023 C 
HETATM    6  C13 UNL     1      -3.634  49.606 -19.671  1.00  0.00    -0.029 C 
HETATM    7  C14 UNL     1      -3.294  49.696 -20.986  1.00  0.00     0.002 C 
HETATM    8  C15 UNL     1      -1.835  49.973 -21.337  1.00  0.00     0.157 C 
HETATM    9  O3  UNL     1      -1.449  49.970 -22.506  1.00  0.00    -0.293 OA
HETATM   10  C16 UNL     1      -0.813  50.286 -20.244  1.00  0.00     0.094 C 
HETATM   11  C17 UNL     1      -1.477  50.689 -18.927  1.00  0.00    -0.019 C 
HETATM   12  C18 UNL     1      -2.079  52.113 -19.111  1.00  0.00     0.017 C 
HETATM   13  C19 UNL     1      -4.340  49.597 -22.136  1.00  0.00    -0.008 C 
HETATM   14  C20 UNL     1      -4.538  51.046 -22.633  1.00  0.00     0.021 C 
HETATM   15  C21 UNL     1      -3.876  48.693 -23.313  1.00  0.00     0.022 C 
HETATM   16  C22 UNL     1      -4.933  48.490 -24.390  1.00  0.00     0.080 C 
HETATM   17  C23 UNL     1      -6.214  47.929 -23.832  1.00  0.00     0.135 C 
HETATM   18  O4  UNL     1      -6.803  47.034 -24.441  1.00  0.00    -0.297 OA
HETATM   19  C24 UNL     1      -6.805  48.596 -22.582  1.00  0.00     0.018 C 
HETATM   20  C25 UNL     1      -7.638  49.806 -23.027  1.00  0.00     0.023 C 
HETATM   21  C26 UNL     1      -7.786  47.581 -21.938  1.00  0.00     0.023 C 
HETATM   22  C27 UNL     1      -5.650  48.911 -21.571  1.00  0.00     0.016 C 
HETATM   23  C28 UNL     1      -6.115  49.641 -20.300  1.00  0.00     0.043 C 
HETATM   24  C29 UNL     1      -5.066  49.501 -19.196  1.00  0.00     0.149 C 
ENDROOT
BRANCH   1  25
HETATM   25  C6  UNL     1       0.488  51.729 -17.321  1.00  0.00    -0.011 C 
HETATM   26  C7  UNL     1       0.937  52.616 -18.490  1.00  0.00     0.010 C 
BRANCH  25  27
HETATM   27  C5  UNL     1       1.697  51.126 -16.559  1.00  0.00     0.040 C 
BRANCH  27  28
HETATM   28  C4  UNL     1       2.248  52.012 -15.430  1.00  0.00     0.142 C 
BRANCH  28  29
HETATM   29  C3  UNL     1       3.187  51.239 -14.542  1.00  0.00     0.018 C 
HETATM   30  C2  UNL     1       2.904  50.292 -13.623  1.00  0.00     0.010 C 
HETATM   31  C1  UNL     1       1.527  49.839 -13.227  1.00  0.00     0.055 C 
BRANCH  30  32
HETATM   32  C30 UNL     1       3.997  49.616 -12.874  1.00  0.00     0.171 C 
HETATM   33  O6  UNL     1       5.185  49.694 -13.134  1.00  0.00    -0.646 OA
BRANCH  32  34
HETATM   34  O7  UNL     1       3.569  48.868 -11.842  1.00  0.00    -0.773 OA
HETATM   35  H44 UNL     1       4.396  48.492 -11.476  1.00  0.00     0.167 HD
ENDBRANCH  32  34
ENDBRANCH  30  32
ENDBRANCH  28  29
BRANCH  28  36
HETATM   36  O1  UNL     1       2.903  53.155 -15.958  1.00  0.00    -0.392 OA
HETATM   37  H6  UNL     1       3.279  53.640 -15.203  1.00  0.00     0.210 HD
ENDBRANCH  28  36
ENDBRANCH  27  28
ENDBRANCH  25  27
ENDBRANCH   1  25
BRANCH   3  38
HETATM   38  O2  UNL     1      -3.626  49.010 -16.440  1.00  0.00    -0.394 OA
HETATM   39  H17 UNL     1      -3.637  49.264 -15.498  1.00  0.00     0.210 HD
ENDBRANCH   3  38
BRANCH  24  40
HETATM   40  O5  UNL     1      -5.254  48.234 -18.576  1.00  0.00    -0.391 OA
HETATM   41  H43 UNL     1      -4.775  48.269 -17.721  1.00  0.00     0.210 HD
ENDBRANCH  24  40
TORSDOF 9
ENDMDL
MODEL 4
REMARK minimizedAffinity -9.8297224
REMARK CNNscore 0.595960736
REMARK CNNaffinity 6.73382139
REMARK  9 active torsions:
REMARK  status: ('A' for Active; 'I' for Inactive)
REMARK    1  A    between atoms: C2_2  and  C30_35 
REMARK    2  A    between atoms: C3_3  and  C4_4 
REMARK    3  A    between atoms: C4_4  and  O1_5 
REMARK    4  A    between atoms: C4_4  and  C5_6 
REMARK    5  A    between atoms: C5_6  and  C6_7 
REMARK    6  A    between atoms: C6_7  and  C8_9 
REMARK    7  A    between atoms: C10_11  and  O2_12 
REMARK    8  A    between atoms: C29_33  and  O5_34 
REMARK    9  A    between atoms: C30_35  and  O7_37 
ROOT
HETATM    1  C8  UNL     1      -0.948  49.473 -18.095  1.00  0.00     0.001 C 
HETATM    2  C9  UNL     1      -2.055  48.391 -18.267  1.00  0.00     0.038 C 
HETATM    3  C10 UNL     1      -2.575  48.523 -19.710  1.00  0.00     0.132 C 
HETATM    4  C11 UNL     1      -1.426  49.243 -20.462  1.00  0.00     0.017 C 
HETATM    5  C12 UNL     1      -0.293  48.203 -20.763  1.00  0.00     0.023 C 
HETATM    6  C13 UNL     1      -1.716  49.924 -21.799  1.00  0.00    -0.029 C 
HETATM    7  C14 UNL     1      -0.909  50.921 -22.255  1.00  0.00     0.002 C 
HETATM    8  C15 UNL     1       0.169  51.461 -21.319  1.00  0.00     0.157 C 
HETATM    9  O3  UNL     1       0.989  52.293 -21.706  1.00  0.00    -0.293 OA
HETATM   10  C16 UNL     1       0.245  50.999 -19.865  1.00  0.00     0.094 C 
HETATM   11  C17 UNL     1      -1.050  50.333 -19.398  1.00  0.00    -0.019 C 
HETATM   12  C18 UNL     1      -2.129  51.444 -19.243  1.00  0.00     0.017 C 
HETATM   13  C19 UNL     1      -1.086  51.574 -23.657  1.00  0.00    -0.008 C 
HETATM   14  C20 UNL     1      -1.741  52.947 -23.388  1.00  0.00     0.021 C 
HETATM   15  C21 UNL     1       0.256  51.770 -24.419  1.00  0.00     0.022 C 
HETATM   16  C22 UNL     1       0.090  52.298 -25.837  1.00  0.00     0.080 C 
HETATM   17  C23 UNL     1      -0.809  51.422 -26.669  1.00  0.00     0.135 C 
HETATM   18  O4  UNL     1      -0.497  51.160 -27.833  1.00  0.00    -0.297 OA
HETATM   19  C24 UNL     1      -2.155  50.998 -26.066  1.00  0.00     0.018 C 
HETATM   20  C25 UNL     1      -3.174  52.119 -26.315  1.00  0.00     0.023 C 
HETATM   21  C26 UNL     1      -2.644  49.756 -26.858  1.00  0.00     0.023 C 
HETATM   22  C27 UNL     1      -1.946  50.603 -24.564  1.00  0.00     0.016 C 
HETATM   23  C28 UNL     1      -3.242  50.217 -23.833  1.00  0.00     0.043 C 
HETATM   24  C29 UNL     1      -2.920  49.424 -22.567  1.00  0.00     0.149 C 
ENDROOT
BRANCH   1  25
HETATM   25  C6  UNL     1      -0.897  50.103 -16.669  1.00  0.00    -0.011 C 
HETATM   26  C7  UNL     1      -2.193  50.756 -16.170  1.00  0.00     0.010 C 
BRANCH  25  27
HETATM   27  C5  UNL     1       0.320  51.051 -16.521  1.00  0.00     0.040 C 
BRANCH  27  28
HETATM   28  C4  UNL     1       0.563  51.563 -15.092  1.00  0.00     0.142 C 
BRANCH  28  29
HETATM   29  C3  UNL     1       1.603  50.733 -14.387  1.00  0.00     0.018 C 
HETATM   30  C2  UNL     1       2.948  50.843 -14.422  1.00  0.00     0.010 C 
HETATM   31  C1  UNL     1       3.726  51.818 -15.262  1.00  0.00     0.055 C 
BRANCH  30  32
HETATM   32  C30 UNL     1       3.802  49.936 -13.610  1.00  0.00     0.171 C 
HETATM   33  O6  UNL     1       4.940  49.599 -13.890  1.00  0.00    -0.646 OA
BRANCH  32  34
HETATM   34  O7  UNL     1       3.208  49.481 -12.493  1.00  0.00    -0.773 OA
HETATM   35  H44 UNL     1       3.887  48.901 -12.095  1.00  0.00     0.167 HD
ENDBRANCH  32  34
ENDBRANCH  30  32
ENDBRANCH  28  29
BRANCH  28  36
HETATM   36  O1  UNL     1       0.953  52.928 -15.103  1.00  0.00    -0.392 OA
HETATM   37  H6  UNL     1       1.148  53.174 -14.183  1.00  0.00     0.210 HD
ENDBRANCH  28  36
ENDBRANCH  27  28
ENDBRANCH  25  27
ENDBRANCH   1  25
BRANCH   3  38
HETATM   38  O2  UNL     1      -2.896  47.261 -20.279  1.00  0.00    -0.394 OA
HETATM   39  H17 UNL     1      -3.468  46.791 -19.643  1.00  0.00     0.210 HD
ENDBRANCH   3  38
BRANCH  24  40
HETATM   40  O5  UNL     1      -2.694  48.071 -22.947  1.00  0.00    -0.391 OA
HETATM   41  H43 UNL     1      -2.759  47.537 -22.127  1.00  0.00     0.210 HD
ENDBRANCH  24  40
TORSDOF 9
ENDMDL
MODEL 5
REMARK minimizedAffinity -8.23664093
REMARK CNNscore 0.54643631
REMARK CNNaffinity 6.51494026
REMARK  9 active torsions:
REMARK  status: ('A' for Active; 'I' for Inactive)
REMARK    1  A    between atoms: C2_2  and  C30_35 
REMARK    2  A    between atoms: C3_3  and  C4_4 
REMARK    3  A    between atoms: C4_4  and  O1_5 
REMARK    4  A    between atoms: C4_4  and  C5_6 
REMARK    5  A    between atoms: C5_6  and  C6_7 
REMARK    6  A    between atoms: C6_7  and  C8_9 
REMARK    7  A    between atoms: C10_11  and  O2_12 
REMARK    8  A    between atoms: C29_33  and  O5_34 
REMARK    9  A    between atoms: C30_35  and  O7_37 
ROOT
HETATM    1  C8  UNL     1      -3.889  49.098 -22.633  1.00  0.00     0.001 C 
HETATM    2  C9  UNL     1      -4.195  48.728 -24.115  1.00  0.00     0.038 C 
HETATM    3  C10 UNL     1      -5.596  48.088 -24.125  1.00  0.00     0.132 C 
HETATM    4  C11 UNL     1      -6.256  48.602 -22.820  1.00  0.00     0.017 C 
HETATM    5  C12 UNL     1      -6.722  50.082 -23.042  1.00  0.00     0.023 C 
HETATM    6  C13 UNL     1      -7.476  47.873 -22.259  1.00  0.00    -0.029 C 
HETATM    7  C14 UNL     1      -7.799  47.979 -20.941  1.00  0.00     0.002 C 
HETATM    8  C15 UNL     1      -6.813  48.684 -20.012  1.00  0.00     0.157 C 
HETATM    9  O3  UNL     1      -7.091  48.896 -18.832  1.00  0.00    -0.293 OA
HETATM   10  C16 UNL     1      -5.442  49.128 -20.519  1.00  0.00     0.094 C 
HETATM   11  C17 UNL     1      -5.053  48.435 -21.826  1.00  0.00    -0.019 C 
HETATM   12  C18 UNL     1      -4.722  46.950 -21.500  1.00  0.00     0.017 C 
HETATM   13  C19 UNL     1      -9.090  47.354 -20.335  1.00  0.00    -0.008 C 
HETATM   14  C20 UNL     1      -8.615  46.096 -19.574  1.00  0.00     0.021 C 
HETATM   15  C21 UNL     1      -9.837  48.309 -19.362  1.00  0.00     0.022 C 
HETATM   16  C22 UNL     1     -11.163  47.758 -18.853  1.00  0.00     0.080 C 
HETATM   17  C23 UNL     1     -12.096  47.392 -19.977  1.00  0.00     0.135 C 
HETATM   18  O4  UNL     1     -13.291  47.688 -19.897  1.00  0.00    -0.297 OA
HETATM   19  C24 UNL     1     -11.538  46.541 -21.126  1.00  0.00     0.018 C 
HETATM   20  C25 UNL     1     -11.606  45.064 -20.712  1.00  0.00     0.023 C 
HETATM   21  C26 UNL     1     -12.491  46.719 -22.337  1.00  0.00     0.023 C 
HETATM   22  C27 UNL     1     -10.112  47.065 -21.509  1.00  0.00     0.016 C 
HETATM   23  C28 UNL     1      -9.421  46.247 -22.613  1.00  0.00     0.043 C 
HETATM   24  C29 UNL     1      -8.288  47.057 -23.241  1.00  0.00     0.149 C 
ENDROOT
BRANCH   1  25
HETATM   25  C6  UNL     1      -2.389  48.936 -22.240  1.00  0.00    -0.011 C 
HETATM   26  C7  UNL     1      -1.941  47.524 -21.840  1.00  0.00     0.010 C 
BRANCH  25  27
HETATM   27  C5  UNL     1      -1.971  49.993 -21.185  1.00  0.00     0.040 C 
BRANCH  27  28
HETATM   28  C4  UNL     1      -0.481  49.968 -20.808  1.00  0.00     0.142 C 
BRANCH  28  29
HETATM   29  C3  UNL     1       0.208  51.239 -21.229  1.00  0.00     0.018 C 
HETATM   30  C2  UNL     1       0.264  52.428 -20.591  1.00  0.00     0.010 C 
HETATM   31  C1  UNL     1      -0.436  52.766 -19.305  1.00  0.00     0.055 C 
BRANCH  30  32
HETATM   32  C30 UNL     1       1.040  53.558 -21.167  1.00  0.00     0.171 C 
HETATM   33  O6  UNL     1       1.633  54.408 -20.525  1.00  0.00    -0.646 OA
BRANCH  32  34
HETATM   34  O7  UNL     1       1.042  53.590 -22.511  1.00  0.00    -0.773 OA
HETATM   35  H44 UNL     1       1.574  54.385 -22.719  1.00  0.00     0.167 HD
ENDBRANCH  32  34
ENDBRANCH  30  32
ENDBRANCH  28  29
BRANCH  28  36
HETATM   36  O1  UNL     1      -0.316  49.761 -19.414  1.00  0.00    -0.392 OA
HETATM   37  H6  UNL     1       0.638  49.814 -19.230  1.00  0.00     0.210 HD
ENDBRANCH  28  36
ENDBRANCH  27  28
ENDBRANCH  25  27
ENDBRANCH   1  25
BRANCH   3  38
HETATM   38  O2  UNL     1      -6.333  48.439 -25.288  1.00  0.00    -0.394 OA
HETATM   39  H17 UNL     1      -5.762  48.265 -26.059  1.00  0.00     0.210 HD
ENDBRANCH   3  38
BRANCH  24  40
HETATM   40  O5  UNL     1      -8.861  47.932 -24.205  1.00  0.00    -0.391 OA
HETATM   41  H43 UNL     1      -8.125  48.238 -24.777  1.00  0.00     0.210 HD
ENDBRANCH  24  40
TORSDOF 9
ENDMDL
MODEL 6
REMARK minimizedAffinity -7.92657232
REMARK CNNscore 0.535640061
REMARK CNNaffinity 6.13082838
REMARK  9 active torsions:
REMARK  status: ('A' for Active; 'I' for Inactive)
REMARK    1  A    between atoms: C2_2  and  C30_35 
REMARK    2  A    between atoms: C3_3  and  C4_4 
REMARK    3  A    between atoms: C4_4  and  O1_5 
REMARK    4  A    between atoms: C4_4  and  C5_6 
REMARK    5  A    between atoms: C5_6  and  C6_7 
REMARK    6  A    between atoms: C6_7  and  C8_9 
REMARK    7  A    between atoms: C10_11  and  O2_12 
REMARK    8  A    between atoms: C29_33  and  O5_34 
REMARK    9  A    between atoms: C30_35  and  O7_37 
ROOT
HETATM    1  C8  UNL     1      -3.661  49.976 -21.483  1.00  0.00     0.001 C 
HETATM    2  C9  UNL     1      -3.802  50.841 -22.770  1.00  0.00     0.038 C 
HETATM    3  C10 UNL     1      -4.953  50.224 -23.587  1.00  0.00     0.132 C 
HETATM    4  C11 UNL     1      -5.772  49.425 -22.541  1.00  0.00     0.017 C 
HETATM    5  C12 UNL     1      -6.645  50.429 -21.712  1.00  0.00     0.023 C 
HETATM    6  C13 UNL     1      -6.742  48.343 -23.017  1.00  0.00    -0.029 C 
HETATM    7  C14 UNL     1      -7.118  47.338 -22.180  1.00  0.00     0.002 C 
HETATM    8  C15 UNL     1      -6.410  47.217 -20.833  1.00  0.00     0.157 C 
HETATM    9  O3  UNL     1      -6.772  46.391 -19.995  1.00  0.00    -0.293 OA
HETATM   10  C16 UNL     1      -5.214  48.107 -20.496  1.00  0.00     0.094 C 
HETATM   11  C17 UNL     1      -4.603  48.754 -21.739  1.00  0.00    -0.019 C 
HETATM   12  C18 UNL     1      -3.861  47.644 -22.540  1.00  0.00     0.017 C 
HETATM   13  C19 UNL     1      -8.187  46.274 -22.567  1.00  0.00    -0.008 C 
HETATM   14  C20 UNL     1      -7.388  44.992 -22.889  1.00  0.00     0.021 C 
HETATM   15  C21 UNL     1      -9.209  45.987 -21.431  1.00  0.00     0.022 C 
HETATM   16  C22 UNL     1     -10.330  45.037 -21.834  1.00  0.00     0.080 C 
HETATM   17  C23 UNL     1     -11.082  45.525 -23.044  1.00  0.00     0.135 C 
HETATM   18  O4  UNL     1     -12.313  45.449 -23.067  1.00  0.00    -0.297 OA
HETATM   19  C24 UNL     1     -10.266  45.980 -24.261  1.00  0.00     0.018 C 
HETATM   20  C25 UNL     1      -9.911  44.743 -25.097  1.00  0.00     0.023 C 
HETATM   21  C26 UNL     1     -11.194  46.867 -25.133  1.00  0.00     0.023 C 
HETATM   22  C27 UNL     1      -9.045  46.834 -23.773  1.00  0.00     0.016 C 
HETATM   23  C28 UNL     1      -8.114  47.296 -24.907  1.00  0.00     0.043 C 
HETATM   24  C29 UNL     1      -7.250  48.466 -24.436  1.00  0.00     0.149 C 
ENDROOT
BRANCH   1  25
HETATM   25  C6  UNL     1      -2.191  49.821 -20.986  1.00  0.00    -0.011 C 
HETATM   26  C7  UNL     1      -1.390  48.661 -21.592  1.00  0.00     0.010 C 
BRANCH  25  27
HETATM   27  C5  UNL     1      -2.122  49.821 -19.437  1.00  0.00     0.040 C 
BRANCH  27  28
HETATM   28  C4  UNL     1      -1.745  51.174 -18.813  1.00  0.00     0.142 C 
BRANCH  28  29
HETATM   29  C3  UNL     1      -0.923  52.002 -19.766  1.00  0.00     0.018 C 
HETATM   30  C2  UNL     1       0.256  52.624 -19.555  1.00  0.00     0.010 C 
HETATM   31  C1  UNL     1       0.994  52.681 -18.247  1.00  0.00     0.055 C 
BRANCH  30  32
HETATM   32  C30 UNL     1       0.927  53.365 -20.656  1.00  0.00     0.171 C 
HETATM   33  O6  UNL     1       1.601  54.372 -20.522  1.00  0.00    -0.646 OA
BRANCH  32  34
HETATM   34  O7  UNL     1       0.729  52.831 -21.873  1.00  0.00    -0.773 OA
HETATM   35  H44 UNL     1       1.216  53.435 -22.469  1.00  0.00     0.167 HD
ENDBRANCH  32  34
ENDBRANCH  30  32
ENDBRANCH  28  29
BRANCH  28  36
HETATM   36  O1  UNL     1      -2.905  51.891 -18.420  1.00  0.00    -0.392 OA
HETATM   37  H6  UNL     1      -2.607  52.756 -18.091  1.00  0.00     0.210 HD
ENDBRANCH  28  36
ENDBRANCH  27  28
ENDBRANCH  25  27
ENDBRANCH   1  25
BRANCH   3  38
HETATM   38  O2  UNL     1      -5.727  51.216 -24.248  1.00  0.00    -0.394 OA
HETATM   39  H17 UNL     1      -5.109  51.799 -24.727  1.00  0.00     0.210 HD
ENDBRANCH   3  38
BRANCH  24  40
HETATM   40  O5  UNL     1      -8.026  49.652 -24.547  1.00  0.00    -0.391 OA
HETATM   41  H43 UNL     1      -7.396  50.403 -24.508  1.00  0.00     0.210 HD
ENDBRANCH  24  40
TORSDOF 9
ENDMDL
MODEL 7
REMARK minimizedAffinity -8.08512115
REMARK CNNscore 0.478747398
REMARK CNNaffinity 6.60782623
REMARK  9 active torsions:
REMARK  status: ('A' for Active; 'I' for Inactive)
REMARK    1  A    between atoms: C2_2  and  C30_35 
REMARK    2  A    between atoms: C3_3  and  C4_4 
REMARK    3  A    between atoms: C4_4  and  O1_5 
REMARK    4  A    between atoms: C4_4  and  C5_6 
REMARK    5  A    between atoms: C5_6  and  C6_7 
REMARK    6  A    between atoms: C6_7  and  C8_9 
REMARK    7  A    between atoms: C10_11  and  O2_12 
REMARK    8  A    between atoms: C29_33  and  O5_34 
REMARK    9  A    between atoms: C30_35  and  O7_37 
ROOT
HETATM    1  C8  UNL     1      -4.032  48.503 -20.459  1.00  0.00     0.001 C 
HETATM    2  C9  UNL     1      -3.027  49.200 -19.495  1.00  0.00     0.038 C 
HETATM    3  C10 UNL     1      -2.088  50.044 -20.378  1.00  0.00     0.132 C 
HETATM    4  C11 UNL     1      -2.890  50.254 -21.688  1.00  0.00     0.017 C 
HETATM    5  C12 UNL     1      -3.970  51.364 -21.444  1.00  0.00     0.023 C 
HETATM    6  C13 UNL     1      -2.153  50.679 -22.957  1.00  0.00    -0.029 C 
HETATM    7  C14 UNL     1      -2.693  50.436 -24.183  1.00  0.00     0.002 C 
HETATM    8  C15 UNL     1      -3.949  49.572 -24.259  1.00  0.00     0.157 C 
HETATM    9  O3  UNL     1      -4.537  49.396 -25.326  1.00  0.00    -0.293 OA
HETATM   10  C16 UNL     1      -4.498  48.879 -23.013  1.00  0.00     0.094 C 
HETATM   11  C17 UNL     1      -3.468  48.809 -21.885  1.00  0.00    -0.019 C 
HETATM   12  C18 UNL     1      -2.389  47.762 -22.288  1.00  0.00     0.017 C 
HETATM   13  C19 UNL     1      -2.047  50.944 -25.505  1.00  0.00    -0.008 C 
HETATM   14  C20 UNL     1      -1.381  49.701 -26.137  1.00  0.00     0.021 C 
HETATM   15  C21 UNL     1      -3.076  51.554 -26.499  1.00  0.00     0.022 C 
HETATM   16  C22 UNL     1      -2.446  52.162 -27.745  1.00  0.00     0.080 C 
HETATM   17  C23 UNL     1      -1.421  53.214 -27.410  1.00  0.00     0.135 C 
HETATM   18  O4  UNL     1      -1.393  54.264 -28.055  1.00  0.00    -0.297 OA
HETATM   19  C24 UNL     1      -0.362  52.873 -26.353  1.00  0.00     0.018 C 
HETATM   20  C25 UNL     1       0.781  52.112 -27.041  1.00  0.00     0.023 C 
HETATM   21  C26 UNL     1       0.228  54.214 -25.842  1.00  0.00     0.023 C 
HETATM   22  C27 UNL     1      -1.046  52.121 -25.161  1.00  0.00     0.016 C 
HETATM   23  C28 UNL     1      -0.068  51.671 -24.063  1.00  0.00     0.043 C 
HETATM   24  C29 UNL     1      -0.825  51.379 -22.768  1.00  0.00     0.149 C 
ENDROOT
BRANCH   1  25
HETATM   25  C6  UNL     1      -4.450  47.070 -20.005  1.00  0.00    -0.011 C 
HETATM   26  C7  UNL     1      -3.445  46.318 -19.124  1.00  0.00     0.010 C 
BRANCH  25  27
HETATM   27  C5  UNL     1      -4.911  46.215 -21.214  1.00  0.00     0.040 C 
BRANCH  27  28
HETATM   28  C4  UNL     1      -6.421  45.930 -21.258  1.00  0.00     0.142 C 
BRANCH  28  29
HETATM   29  C3  UNL     1      -6.694  44.514 -21.692  1.00  0.00     0.018 C 
HETATM   30  C2  UNL     1      -6.465  43.361 -21.028  1.00  0.00     0.010 C 
HETATM   31  C1  UNL     1      -5.800  43.239 -19.686  1.00  0.00     0.055 C 
BRANCH  30  32
HETATM   32  C30 UNL     1      -6.850  42.055 -21.627  1.00  0.00     0.171 C 
HETATM   33  O6  UNL     1      -6.486  40.961 -21.231  1.00  0.00    -0.646 OA
BRANCH  32  34
HETATM   34  O7  UNL     1      -7.661  42.162 -22.694  1.00  0.00    -0.773 OA
HETATM   35  H44 UNL     1      -7.801  41.233 -22.967  1.00  0.00     0.167 HD
ENDBRANCH  32  34
ENDBRANCH  30  32
ENDBRANCH  28  29
BRANCH  28  36
HETATM   36  O1  UNL     1      -7.019  46.177 -19.995  1.00  0.00    -0.392 OA
HETATM   37  H6  UNL     1      -7.955  45.923 -20.069  1.00  0.00     0.210 HD
ENDBRANCH  28  36
ENDBRANCH  27  28
ENDBRANCH  25  27
ENDBRANCH   1  25
BRANCH   3  38
HETATM   38  O2  UNL     1      -1.727  51.268 -19.753  1.00  0.00    -0.394 OA
HETATM   39  H17 UNL     1      -1.416  51.056 -18.853  1.00  0.00     0.210 HD
ENDBRANCH   3  38
BRANCH  24  40
HETATM   40  O5  UNL     1      -1.047  52.618 -22.105  1.00  0.00    -0.391 OA
HETATM   41  H43 UNL     1      -1.279  52.400 -21.177  1.00  0.00     0.210 HD
ENDBRANCH  24  40
TORSDOF 9
ENDMDL
MODEL 8
REMARK minimizedAffinity -8.22567177
REMARK CNNscore 0.459785938
REMARK CNNaffinity 6.16653061
REMARK  9 active torsions:
REMARK  status: ('A' for Active; 'I' for Inactive)
REMARK    1  A    between atoms: C2_2  and  C30_35 
REMARK    2  A    between atoms: C3_3  and  C4_4 
REMARK    3  A    between atoms: C4_4  and  O1_5 
REMARK    4  A    between atoms: C4_4  and  C5_6 
REMARK    5  A    between atoms: C5_6  and  C6_7 
REMARK    6  A    between atoms: C6_7  and  C8_9 
REMARK    7  A    between atoms: C10_11  and  O2_12 
REMARK    8  A    between atoms: C29_33  and  O5_34 
REMARK    9  A    between atoms: C30_35  and  O7_37 
ROOT
HETATM    1  C8  UNL     1      -4.234  49.339 -22.743  1.00  0.00     0.001 C 
HETATM    2  C9  UNL     1      -4.822  47.897 -22.714  1.00  0.00     0.038 C 
HETATM    3  C10 UNL     1      -4.565  47.349 -21.298  1.00  0.00     0.132 C 
HETATM    4  C11 UNL     1      -4.367  48.618 -20.431  1.00  0.00     0.017 C 
HETATM    5  C12 UNL     1      -5.772  49.250 -20.137  1.00  0.00     0.023 C 
HETATM    6  C13 UNL     1      -3.686  48.497 -19.069  1.00  0.00    -0.029 C 
HETATM    7  C14 UNL     1      -3.090  49.579 -18.496  1.00  0.00     0.002 C 
HETATM    8  C15 UNL     1      -2.960  50.853 -19.326  1.00  0.00     0.157 C 
HETATM    9  O3  UNL     1      -2.519  51.892 -18.833  1.00  0.00    -0.293 OA
HETATM   10  C16 UNL     1      -3.353  50.869 -20.802  1.00  0.00     0.094 C 
HETATM   11  C17 UNL     1      -3.457  49.462 -21.391  1.00  0.00    -0.019 C 
HETATM   12  C18 UNL     1      -2.015  48.894 -21.531  1.00  0.00     0.017 C 
HETATM   13  C19 UNL     1      -2.480  49.547 -17.064  1.00  0.00    -0.008 C 
HETATM   14  C20 UNL     1      -0.951  49.479 -17.274  1.00  0.00     0.021 C 
HETATM   15  C21 UNL     1      -2.840  50.797 -16.213  1.00  0.00     0.022 C 
HETATM   16  C22 UNL     1      -2.351  50.726 -14.773  1.00  0.00     0.080 C 
HETATM   17  C23 UNL     1      -2.855  49.499 -14.060  1.00  0.00     0.135 C 
HETATM   18  O4  UNL     1      -3.266  49.594 -12.901  1.00  0.00    -0.297 OA
HETATM   19  C24 UNL     1      -2.711  48.146 -14.770  1.00  0.00     0.018 C 
HETATM   20  C25 UNL     1      -1.298  47.607 -14.503  1.00  0.00     0.023 C 
HETATM   21  C26 UNL     1      -3.706  47.164 -14.098  1.00  0.00     0.023 C 
HETATM   22  C27 UNL     1      -3.091  48.314 -16.281  1.00  0.00     0.016 C 
HETATM   23  C28 UNL     1      -2.924  47.032 -17.113  1.00  0.00     0.043 C 
HETATM   24  C29 UNL     1      -3.725  47.135 -18.410  1.00  0.00     0.149 C 
ENDROOT
BRANCH   1  25
HETATM   25  C6  UNL     1      -3.610  49.738 -24.115  1.00  0.00    -0.011 C 
HETATM   26  C7  UNL     1      -3.248  48.583 -25.057  1.00  0.00     0.010 C 
BRANCH  25  27
HETATM   27  C5  UNL     1      -2.425  50.720 -23.925  1.00  0.00     0.040 C 
BRANCH  27  28
HETATM   28  C4  UNL     1      -2.678  52.140 -24.456  1.00  0.00     0.142 C 
BRANCH  28  29
HETATM   29  C3  UNL     1      -1.519  52.623 -25.287  1.00  0.00     0.018 C 
HETATM   30  C2  UNL     1      -1.109  52.203 -26.503  1.00  0.00     0.010 C 
HETATM   31  C1  UNL     1      -1.708  51.068 -27.285  1.00  0.00     0.055 C 
BRANCH  30  32
HETATM   32  C30 UNL     1       0.050  52.849 -27.175  1.00  0.00     0.171 C 
HETATM   33  O6  UNL     1       0.071  53.235 -28.330  1.00  0.00    -0.646 OA
BRANCH  32  34
HETATM   34  O7  UNL     1       1.132  52.980 -26.388  1.00  0.00    -0.773 OA
HETATM   35  H44 UNL     1       1.791  53.401 -26.978  1.00  0.00     0.167 HD
ENDBRANCH  32  34
ENDBRANCH  30  32
ENDBRANCH  28  29
BRANCH  28  36
HETATM   36  O1  UNL     1      -3.877  52.191 -25.213  1.00  0.00    -0.392 OA
HETATM   37  H6  UNL     1      -3.950  53.093 -25.569  1.00  0.00     0.210 HD
ENDBRANCH  28  36
ENDBRANCH  27  28
ENDBRANCH  25  27
ENDBRANCH   1  25
BRANCH   3  38
HETATM   38  O2  UNL     1      -5.634  46.532 -20.841  1.00  0.00    -0.394 OA
HETATM   39  H17 UNL     1      -5.824  45.880 -21.540  1.00  0.00     0.210 HD
ENDBRANCH   3  38
BRANCH  24  40
HETATM   40  O5  UNL     1      -5.076  46.805 -18.114  1.00  0.00    -0.391 OA
HETATM   41  H43 UNL     1      -5.511  46.612 -18.972  1.00  0.00     0.210 HD
ENDBRANCH  24  40
TORSDOF 9
ENDMDL
MODEL 9
REMARK minimizedAffinity -9.62003803
REMARK CNNscore 0.429443419
REMARK CNNaffinity 6.57864904
REMARK  9 active torsions:
REMARK  status: ('A' for Active; 'I' for Inactive)
REMARK    1  A    between atoms: C2_2  and  C30_35 
REMARK    2  A    between atoms: C3_3  and  C4_4 
REMARK    3  A    between atoms: C4_4  and  O1_5 
REMARK    4  A    between atoms: C4_4  and  C5_6 
REMARK    5  A    between atoms: C5_6  and  C6_7 
REMARK    6  A    between atoms: C6_7  and  C8_9 
REMARK    7  A    between atoms: C10_11  and  O2_12 
REMARK    8  A    between atoms: C29_33  and  O5_34 
REMARK    9  A    between atoms: C30_35  and  O7_37 
ROOT
HETATM    1  C8  UNL     1      -1.917  51.547 -23.209  1.00  0.00     0.001 C 
HETATM    2  C9  UNL     1      -2.164  51.224 -24.712  1.00  0.00     0.038 C 
HETATM    3  C10 UNL     1      -3.340  50.230 -24.758  1.00  0.00     0.132 C 
HETATM    4  C11 UNL     1      -4.068  50.443 -23.406  1.00  0.00     0.017 C 
HETATM    5  C12 UNL     1      -4.923  51.754 -23.497  1.00  0.00     0.023 C 
HETATM    6  C13 UNL     1      -5.027  49.370 -22.894  1.00  0.00    -0.029 C 
HETATM    7  C14 UNL     1      -5.320  49.282 -21.567  1.00  0.00     0.002 C 
HETATM    8  C15 UNL     1      -4.529  50.153 -20.595  1.00  0.00     0.157 C 
HETATM    9  O3  UNL     1      -4.812  50.190 -19.398  1.00  0.00    -0.293 OA
HETATM   10  C16 UNL     1      -3.346  50.990 -21.080  1.00  0.00     0.094 C 
HETATM   11  C17 UNL     1      -2.831  50.533 -22.445  1.00  0.00    -0.019 C 
HETATM   12  C18 UNL     1      -2.102  49.172 -22.250  1.00  0.00     0.017 C 
HETATM   13  C19 UNL     1      -6.373  48.285 -21.000  1.00  0.00    -0.008 C 
HETATM   14  C20 UNL     1      -5.551  47.148 -20.353  1.00  0.00     0.021 C 
HETATM   15  C21 UNL     1      -7.316  48.923 -19.940  1.00  0.00     0.022 C 
HETATM   16  C22 UNL     1      -8.425  47.996 -19.463  1.00  0.00     0.080 C 
HETATM   17  C23 UNL     1      -9.264  47.478 -20.601  1.00  0.00     0.135 C 
HETATM   18  O4  UNL     1     -10.491  47.432 -20.482  1.00  0.00    -0.297 OA
HETATM   19  C24 UNL     1      -8.538  46.903 -21.824  1.00  0.00     0.018 C 
HETATM   20  C25 UNL     1      -8.192  45.435 -21.536  1.00  0.00     0.023 C 
HETATM   21  C26 UNL     1      -9.545  46.908 -23.004  1.00  0.00     0.023 C 
HETATM   22  C27 UNL     1      -7.320  47.822 -22.181  1.00  0.00     0.016 C 
HETATM   23  C28 UNL     1      -6.474  47.309 -23.358  1.00  0.00     0.043 C 
HETATM   24  C29 UNL     1      -5.623  48.442 -23.931  1.00  0.00     0.149 C 
ENDROOT
BRANCH   1  25
HETATM   25  C6  UNL     1      -0.416  51.768 -22.850  1.00  0.00    -0.011 C 
HETATM   26  C7  UNL     1       0.069  51.128 -21.542  1.00  0.00     0.010 C 
BRANCH  25  27
HETATM   27  C5  UNL     1      -0.038  53.269 -22.932  1.00  0.00     0.040 C 
BRANCH  27  28
HETATM   28  C4  UNL     1       0.948  53.620 -24.059  1.00  0.00     0.142 C 
BRANCH  28  29
HETATM   29  C3  UNL     1       0.247  53.692 -25.390  1.00  0.00     0.018 C 
HETATM   30  C2  UNL     1       0.429  52.930 -26.490  1.00  0.00     0.010 C 
HETATM   31  C1  UNL     1       1.461  51.849 -26.646  1.00  0.00     0.055 C 
BRANCH  30  32
HETATM   32  C30 UNL     1      -0.405  53.143 -27.702  1.00  0.00     0.171 C 
HETATM   33  O6  UNL     1      -1.116  54.111 -27.910  1.00  0.00    -0.646 OA
BRANCH  32  34
HETATM   34  O7  UNL     1      -0.329  52.145 -28.599  1.00  0.00    -0.773 OA
HETATM   35  H44 UNL     1      -0.935  52.433 -29.312  1.00  0.00     0.167 HD
ENDBRANCH  32  34
ENDBRANCH  30  32
ENDBRANCH  28  29
BRANCH  28  36
HETATM   36  O1  UNL     1       1.609  54.847 -23.788  1.00  0.00    -0.392 OA
HETATM   37  H6  UNL     1       2.169  55.043 -24.558  1.00  0.00     0.210 HD
ENDBRANCH  28  36
ENDBRANCH  27  28
ENDBRANCH  25  27
ENDBRANCH   1  25
BRANCH   3  38
HETATM   38  O2  UNL     1      -4.185  50.457 -25.878  1.00  0.00    -0.394 OA
HETATM   39  H17 UNL     1      -3.616  50.505 -26.669  1.00  0.00     0.210 HD
ENDBRANCH   3  38
BRANCH  24  40
HETATM   40  O5  UNL     1      -6.444  49.202 -24.810  1.00  0.00    -0.391 OA
HETATM   41  H43 UNL     1      -5.838  49.738 -25.364  1.00  0.00     0.210 HD
ENDBRANCH  24  40
TORSDOF 9
ENDMDL
