MODEL 1
REMARK minimizedAffinity -9.22764206
REMARK CNNscore 0.560009956
REMARK CNNaffinity 7.08355093
REMARK  14 active torsions:
REMARK  status: ('A' for Active; 'I' for Inactive)
REMARK    1  A    between atoms: C19_20  and  O2_21 
REMARK    2  A    between atoms: C19_20  and  C20_22 
REMARK    3  A    between atoms: C20_22  and  C21_24 
REMARK    4  A    between atoms: C21_24  and  O4_25 
REMARK    5  A    between atoms: O4_25  and  C22_26 
REMARK    6  A    between atoms: C22_26  and  C23_28 
REMARK    7  A    between atoms: C23_28  and  C24_29 
REMARK    8  A    between atoms: C24_29  and  C25_30 
REMARK       I    between atoms: C25_30  and  N1_32 
REMARK    9  A    between atoms: N1_32  and  C26_33 
REMARK   10  A    between atoms: C26_33  and  C27_34 
REMARK   11  A    between atoms: C27_34  and  C28_35 
REMARK   12  A    between atoms: C27_34  and  C30_39 
REMARK   13  A    between atoms: C28_35  and  C29_36 
REMARK   14  A    between atoms: C29_36  and  O8_38 
ROOT
HETATM    1  C20 UNL     1      -6.075  48.707 -24.673  1.00  0.00     0.185 C 
HETATM    2  O3  UNL     1      -7.217  48.224 -24.660  1.00  0.00    -0.292 OA
ENDROOT
BRANCH   1   3
HETATM    3  C19 UNL     1      -5.691  49.735 -23.591  1.00  0.00     0.128 C 
HETATM    4  C14 UNL     1      -4.297  49.494 -22.932  1.00  0.00    -0.002 C 
HETATM    5  C13 UNL     1      -3.063  49.856 -23.776  1.00  0.00     0.013 C 
HETATM    6  C15 UNL     1      -4.172  48.027 -22.444  1.00  0.00     0.019 C 
HETATM    7  C16 UNL     1      -4.377  50.520 -21.774  1.00  0.00     0.002 C 
HETATM    8  C12 UNL     1      -1.771  49.887 -22.937  1.00  0.00     0.007 C 
HETATM    9  C11 UNL     1      -1.872  50.796 -21.685  1.00  0.00     0.002 C 
HETATM   10  C2  UNL     1      -0.582  50.819 -20.786  1.00  0.00    -0.016 C 
HETATM   11  C10 UNL     1      -3.159  50.473 -20.844  1.00  0.00    -0.004 C 
HETATM   12  C1  UNL     1      -0.273  49.423 -20.186  1.00  0.00     0.020 C 
HETATM   13  C3  UNL     1       0.705  51.230 -21.560  1.00  0.00     0.022 C 
HETATM   14  C7  UNL     1      -0.869  51.833 -19.667  1.00  0.00    -0.068 C 
HETATM   15  C4  UNL     1       0.797  52.718 -21.846  1.00  0.00     0.084 C 
HETATM   16  C5  UNL     1       0.740  53.477 -20.544  1.00  0.00     0.149 C 
HETATM   17  O1  UNL     1       1.396  54.494 -20.339  1.00  0.00    -0.293 OA
HETATM   18  C6  UNL     1      -0.227  53.006 -19.524  1.00  0.00     0.053 C 
HETATM   19  C8  UNL     1      -2.053  51.512 -18.790  1.00  0.00     0.035 C 
HETATM   20  C9  UNL     1      -3.313  51.442 -19.655  1.00  0.00     0.010 C 
HETATM   21  C17 UNL     1      -5.762  50.283 -21.180  1.00  0.00     0.009 C 
HETATM   22  C18 UNL     1      -6.643  49.882 -22.382  1.00  0.00     0.047 C 
BRANCH   3  23
HETATM   23  O2  UNL     1      -5.690  51.010 -24.263  1.00  0.00    -0.381 OA
HETATM   24  H27 UNL     1      -5.319  50.848 -25.155  1.00  0.00     0.211 HD
ENDBRANCH   3  23
ENDBRANCH   1   3
BRANCH   1  25
HETATM   25  C21 UNL     1      -5.052  48.328 -25.741  1.00  0.00     0.260 C 
BRANCH  25  26
HETATM   26  O4  UNL     1      -5.677  47.960 -26.973  1.00  0.00    -0.314 OA
BRANCH  26  27
HETATM   27  C22 UNL     1      -4.885  48.112 -28.070  1.00  0.00     0.259 C 
HETATM   28  O5  UNL     1      -3.661  48.182 -28.048  1.00  0.00    -0.265 OA
BRANCH  27  29
HETATM   29  C23 UNL     1      -5.730  48.156 -29.319  1.00  0.00     0.120 C 
BRANCH  29  30
HETATM   30  C24 UNL     1      -5.993  46.753 -29.853  1.00  0.00     0.112 C 
BRANCH  30  31
HETATM   31  C25 UNL     1      -7.097  46.057 -29.081  1.00  0.00     0.218 C 
HETATM   32  O6  UNL     1      -7.173  44.837 -28.970  1.00  0.00    -0.274 OA
HETATM   33  N1  UNL     1      -8.019  46.930 -28.547  1.00  0.00    -0.360 N 
HETATM   34  H34 UNL     1      -7.999  47.897 -28.854  1.00  0.00     0.162 HD
BRANCH  33  35
HETATM   35  C26 UNL     1      -9.166  46.482 -27.783  1.00  0.00     0.132 C 
BRANCH  35  36
HETATM   36  C27 UNL     1     -10.538  46.718 -28.461  1.00  0.00     0.046 C 
BRANCH  36  37
HETATM   37  C28 UNL     1     -11.724  46.487 -27.501  1.00  0.00     0.120 C 
BRANCH  37  38
HETATM   38  C29 UNL     1     -12.381  47.676 -26.847  1.00  0.00     0.140 C 
HETATM   39  O7  UNL     1     -13.527  47.670 -26.416  1.00  0.00    -0.650 OA
BRANCH  38  40
HETATM   40  O8  UNL     1     -11.645  48.795 -26.733  1.00  0.00    -0.776 OA
HETATM   41  H40 UNL     1     -12.221  49.386 -26.201  1.00  0.00     0.167 HD
ENDBRANCH  38  40
ENDBRANCH  37  38
ENDBRANCH  36  37
BRANCH  36  42
HETATM   42  C30 UNL     1     -10.745  46.134 -29.859  1.00  0.00    -0.052 A 
HETATM   43  C31 UNL     1     -10.753  47.006 -30.965  1.00  0.00     0.007 A 
HETATM   44  C32 UNL     1     -10.924  46.525 -32.265  1.00  0.00     0.001 A 
HETATM   45  C33 UNL     1     -11.082  45.161 -32.487  1.00  0.00     0.000 A 
HETATM   46  C34 UNL     1     -11.069  44.281 -31.409  1.00  0.00     0.001 A 
HETATM   47  C35 UNL     1     -10.899  44.763 -30.106  1.00  0.00     0.007 A 
ENDBRANCH  36  42
ENDBRANCH  35  36
ENDBRANCH  33  35
ENDBRANCH  30  31
ENDBRANCH  29  30
ENDBRANCH  27  29
ENDBRANCH  26  27
ENDBRANCH  25  26
ENDBRANCH   1  25
TORSDOF 14
ENDMDL
MODEL 2
REMARK minimizedAffinity -9.07253456
REMARK CNNscore 0.556611955
REMARK CNNaffinity 6.58479738
REMARK  14 active torsions:
REMARK  status: ('A' for Active; 'I' for Inactive)
REMARK    1  A    between atoms: C19_20  and  O2_21 
REMARK    2  A    between atoms: C19_20  and  C20_22 
REMARK    3  A    between atoms: C20_22  and  C21_24 
REMARK    4  A    between atoms: C21_24  and  O4_25 
REMARK    5  A    between atoms: O4_25  and  C22_26 
REMARK    6  A    between atoms: C22_26  and  C23_28 
REMARK    7  A    between atoms: C23_28  and  C24_29 
REMARK    8  A    between atoms: C24_29  and  C25_30 
REMARK       I    between atoms: C25_30  and  N1_32 
REMARK    9  A    between atoms: N1_32  and  C26_33 
REMARK   10  A    between atoms: C26_33  and  C27_34 
REMARK   11  A    between atoms: C27_34  and  C28_35 
REMARK   12  A    between atoms: C27_34  and  C30_39 
REMARK   13  A    between atoms: C28_35  and  C29_36 
REMARK   14  A    between atoms: C29_36  and  O8_38 
ROOT
HETATM    1  C20 UNL     1     -10.009  48.090 -26.434  1.00  0.00     0.185 C 
HETATM    2  O3  UNL     1      -9.981  48.164 -25.196  1.00  0.00    -0.292 OA
ENDROOT
BRANCH   1   3
HETATM    3  C19 UNL     1     -11.365  47.877 -27.133  1.00  0.00     0.128 C 
HETATM    4  C14 UNL     1     -12.226  46.717 -26.543  1.00  0.00    -0.002 C 
HETATM    5  C13 UNL     1     -12.913  46.986 -25.193  1.00  0.00     0.013 C 
HETATM    6  C15 UNL     1     -11.387  45.416 -26.440  1.00  0.00     0.019 C 
HETATM    7  C16 UNL     1     -13.338  46.646 -27.617  1.00  0.00     0.002 C 
HETATM    8  C12 UNL     1     -13.978  45.923 -24.858  1.00  0.00     0.007 C 
HETATM    9  C11 UNL     1     -15.025  45.726 -25.984  1.00  0.00     0.002 C 
HETATM   10  C2  UNL     1     -16.103  44.619 -25.689  1.00  0.00    -0.016 C 
HETATM   11  C10 UNL     1     -14.334  45.505 -27.378  1.00  0.00    -0.004 C 
HETATM   12  C1  UNL     1     -15.463  43.214 -25.549  1.00  0.00     0.020 C 
HETATM   13  C3  UNL     1     -16.882  44.852 -24.361  1.00  0.00     0.022 C 
HETATM   14  C7  UNL     1     -17.074  44.652 -26.880  1.00  0.00    -0.068 C 
HETATM   15  C4  UNL     1     -17.932  45.945 -24.451  1.00  0.00     0.084 C 
HETATM   16  C5  UNL     1     -18.911  45.600 -25.545  1.00  0.00     0.149 C 
HETATM   17  O1  UNL     1     -20.112  45.841 -25.461  1.00  0.00    -0.293 OA
HETATM   18  C6  UNL     1     -18.360  45.037 -26.800  1.00  0.00     0.053 C 
HETATM   19  C8  UNL     1     -16.456  44.366 -28.227  1.00  0.00     0.035 C 
HETATM   20  C9  UNL     1     -15.373  45.408 -28.513  1.00  0.00     0.010 C 
HETATM   21  C17 UNL     1     -12.568  46.682 -28.933  1.00  0.00     0.009 C 
HETATM   22  C18 UNL     1     -11.343  47.576 -28.649  1.00  0.00     0.047 C 
BRANCH   3  23
HETATM   23  O2  UNL     1     -12.071  49.125 -26.978  1.00  0.00    -0.381 OA
HETATM   24  H27 UNL     1     -11.856  49.450 -26.080  1.00  0.00     0.211 HD
ENDBRANCH   3  23
ENDBRANCH   1   3
BRANCH   1  25
HETATM   25  C21 UNL     1      -8.739  48.185 -27.275  1.00  0.00     0.260 C 
BRANCH  25  26
HETATM   26  O4  UNL     1      -8.011  46.954 -27.284  1.00  0.00    -0.314 OA
BRANCH  26  27
HETATM   27  C22 UNL     1      -6.829  47.007 -27.958  1.00  0.00     0.259 C 
HETATM   28  O5  UNL     1      -6.543  46.314 -28.928  1.00  0.00    -0.265 OA
BRANCH  27  29
HETATM   29  C23 UNL     1      -5.933  48.059 -27.353  1.00  0.00     0.120 C 
BRANCH  29  30
HETATM   30  C24 UNL     1      -4.578  48.091 -28.051  1.00  0.00     0.112 C 
BRANCH  30  31
HETATM   31  C25 UNL     1      -3.856  49.403 -27.812  1.00  0.00     0.218 C 
HETATM   32  O6  UNL     1      -3.402  50.094 -28.719  1.00  0.00    -0.274 OA
HETATM   33  N1  UNL     1      -3.735  49.721 -26.478  1.00  0.00    -0.360 N 
HETATM   34  H34 UNL     1      -3.952  49.006 -25.791  1.00  0.00     0.162 HD
BRANCH  33  35
HETATM   35  C26 UNL     1      -3.068  50.923 -26.019  1.00  0.00     0.132 C 
BRANCH  35  36
HETATM   36  C27 UNL     1      -1.671  50.698 -25.388  1.00  0.00     0.046 C 
BRANCH  36  37
HETATM   37  C28 UNL     1      -1.604  51.154 -23.915  1.00  0.00     0.120 C 
BRANCH  37  38
HETATM   38  C29 UNL     1      -2.396  50.400 -22.877  1.00  0.00     0.140 C 
HETATM   39  O7  UNL     1      -3.329  50.884 -22.248  1.00  0.00    -0.650 OA
BRANCH  38  40
HETATM   40  O8  UNL     1      -2.048  49.122 -22.652  1.00  0.00    -0.776 OA
HETATM   41  H40 UNL     1      -2.743  48.809 -22.034  1.00  0.00     0.167 HD
ENDBRANCH  38  40
ENDBRANCH  37  38
ENDBRANCH  36  37
BRANCH  36  42
HETATM   42  C30 UNL     1      -0.449  51.089 -26.219  1.00  0.00    -0.052 A 
HETATM   43  C31 UNL     1      -0.634  51.473 -27.561  1.00  0.00     0.007 A 
HETATM   44  C32 UNL     1       0.446  51.853 -28.362  1.00  0.00     0.001 A 
HETATM   45  C33 UNL     1       1.733  51.865 -27.833  1.00  0.00     0.000 A 
HETATM   46  C34 UNL     1       1.937  51.496 -26.507  1.00  0.00     0.001 A 
HETATM   47  C35 UNL     1       0.855  51.115 -25.705  1.00  0.00     0.007 A 
ENDBRANCH  36  42
ENDBRANCH  35  36
ENDBRANCH  33  35
ENDBRANCH  30  31
ENDBRANCH  29  30
ENDBRANCH  27  29
ENDBRANCH  26  27
ENDBRANCH  25  26
ENDBRANCH   1  25
TORSDOF 14
ENDMDL
MODEL 3
REMARK minimizedAffinity -8.09528923
REMARK CNNscore 0.552516103
REMARK CNNaffinity 6.09449768
REMARK  14 active torsions:
REMARK  status: ('A' for Active; 'I' for Inactive)
REMARK    1  A    between atoms: C19_20  and  O2_21 
REMARK    2  A    between atoms: C19_20  and  C20_22 
REMARK    3  A    between atoms: C20_22  and  C21_24 
REMARK    4  A    between atoms: C21_24  and  O4_25 
REMARK    5  A    between atoms: O4_25  and  C22_26 
REMARK    6  A    between atoms: C22_26  and  C23_28 
REMARK    7  A    between atoms: C23_28  and  C24_29 
REMARK    8  A    between atoms: C24_29  and  C25_30 
REMARK       I    between atoms: C25_30  and  N1_32 
REMARK    9  A    between atoms: N1_32  and  C26_33 
REMARK   10  A    between atoms: C26_33  and  C27_34 
REMARK   11  A    between atoms: C27_34  and  C28_35 
REMARK   12  A    between atoms: C27_34  and  C30_39 
REMARK   13  A    between atoms: C28_35  and  C29_36 
REMARK   14  A    between atoms: C29_36  and  O8_38 
ROOT
HETATM    1  C20 UNL     1      -8.325  46.885 -24.648  1.00  0.00     0.185 C 
HETATM    2  O3  UNL     1      -7.669  46.088 -25.335  1.00  0.00    -0.292 OA
ENDROOT
BRANCH   1   3
HETATM    3  C19 UNL     1      -7.775  48.310 -24.439  1.00  0.00     0.128 C 
HETATM    4  C14 UNL     1      -6.238  48.382 -24.183  1.00  0.00    -0.002 C 
HETATM    5  C13 UNL     1      -5.325  48.159 -25.400  1.00  0.00     0.013 C 
HETATM    6  C15 UNL     1      -5.829  47.403 -23.050  1.00  0.00     0.019 C 
HETATM    7  C16 UNL     1      -6.110  49.872 -23.781  1.00  0.00     0.002 C 
HETATM    8  C12 UNL     1      -3.864  48.562 -25.116  1.00  0.00     0.007 C 
HETATM    9  C11 UNL     1      -3.720  50.006 -24.571  1.00  0.00     0.002 C 
HETATM   10  C2  UNL     1      -2.245  50.435 -24.234  1.00  0.00    -0.016 C 
HETATM   11  C10 UNL     1      -4.689  50.263 -23.361  1.00  0.00    -0.004 C 
HETATM   12  C1  UNL     1      -1.637  49.567 -23.102  1.00  0.00     0.020 C 
HETATM   13  C3  UNL     1      -1.267  50.289 -25.437  1.00  0.00     0.022 C 
HETATM   14  C7  UNL     1      -2.325  51.907 -23.798  1.00  0.00    -0.068 C 
HETATM   15  C4  UNL     1      -1.416  51.380 -26.482  1.00  0.00     0.084 C 
HETATM   16  C5  UNL     1      -1.199  52.722 -25.830  1.00  0.00     0.149 C 
HETATM   17  O1  UNL     1      -0.626  53.650 -26.393  1.00  0.00    -0.293 OA
HETATM   18  C6  UNL     1      -1.798  52.933 -24.490  1.00  0.00     0.053 C 
HETATM   19  C8  UNL     1      -3.186  52.178 -22.589  1.00  0.00     0.035 C 
HETATM   20  C9  UNL     1      -4.618  51.727 -22.883  1.00  0.00     0.010 C 
HETATM   21  C17 UNL     1      -7.249  50.073 -22.786  1.00  0.00     0.009 C 
HETATM   22  C18 UNL     1      -8.374  49.140 -23.281  1.00  0.00     0.047 C 
BRANCH   3  23
HETATM   23  O2  UNL     1      -8.094  49.020 -25.653  1.00  0.00    -0.381 OA
HETATM   24  H27 UNL     1      -7.962  48.382 -26.384  1.00  0.00     0.211 HD
ENDBRANCH   3  23
ENDBRANCH   1   3
BRANCH   1  25
HETATM   25  C21 UNL     1      -9.644  46.488 -23.991  1.00  0.00     0.260 C 
BRANCH  25  26
HETATM   26  O4  UNL     1     -10.675  47.448 -24.238  1.00  0.00    -0.314 OA
BRANCH  26  27
HETATM   27  C22 UNL     1     -11.624  47.035 -25.123  1.00  0.00     0.259 C 
HETATM   28  O5  UNL     1     -12.077  47.718 -26.035  1.00  0.00    -0.265 OA
BRANCH  27  29
HETATM   29  C23 UNL     1     -12.017  45.607 -24.834  1.00  0.00     0.120 C 
BRANCH  29  30
HETATM   30  C24 UNL     1     -13.403  45.298 -25.391  1.00  0.00     0.112 C 
BRANCH  30  31
HETATM   31  C25 UNL     1     -14.266  44.575 -24.375  1.00  0.00     0.218 C 
HETATM   32  O6  UNL     1     -14.450  43.362 -24.393  1.00  0.00    -0.274 OA
HETATM   33  N1  UNL     1     -14.845  45.421 -23.455  1.00  0.00    -0.360 N 
HETATM   34  H34 UNL     1     -14.809  46.420 -23.631  1.00  0.00     0.162 HD
BRANCH  33  35
HETATM   35  C26 UNL     1     -15.720  44.946 -22.402  1.00  0.00     0.132 C 
BRANCH  35  36
HETATM   36  C27 UNL     1     -17.208  45.350 -22.554  1.00  0.00     0.046 C 
BRANCH  36  37
HETATM   37  C28 UNL     1     -17.427  46.406 -23.658  1.00  0.00     0.120 C 
BRANCH  37  38
HETATM   38  C29 UNL     1     -18.812  46.603 -24.219  1.00  0.00     0.140 C 
HETATM   39  O7  UNL     1     -19.190  47.639 -24.753  1.00  0.00    -0.650 OA
BRANCH  38  40
HETATM   40  O8  UNL     1     -19.663  45.567 -24.127  1.00  0.00    -0.776 OA
HETATM   41  H40 UNL     1     -20.445  45.876 -24.633  1.00  0.00     0.167 HD
ENDBRANCH  38  40
ENDBRANCH  37  38
ENDBRANCH  36  37
BRANCH  36  42
HETATM   42  C30 UNL     1     -18.004  45.611 -21.275  1.00  0.00    -0.052 A 
HETATM   43  C31 UNL     1     -18.773  44.566 -20.728  1.00  0.00     0.007 A 
HETATM   44  C32 UNL     1     -19.508  44.745 -19.554  1.00  0.00     0.001 A 
HETATM   45  C33 UNL     1     -19.482  45.972 -18.897  1.00  0.00     0.000 A 
HETATM   46  C34 UNL     1     -18.722  47.016 -19.416  1.00  0.00     0.001 A 
HETATM   47  C35 UNL     1     -17.986  46.836 -20.593  1.00  0.00     0.007 A 
ENDBRANCH  36  42
ENDBRANCH  35  36
ENDBRANCH  33  35
ENDBRANCH  30  31
ENDBRANCH  29  30
ENDBRANCH  27  29
ENDBRANCH  26  27
ENDBRANCH  25  26
ENDBRANCH   1  25
TORSDOF 14
ENDMDL
MODEL 4
REMARK minimizedAffinity -8.60264301
REMARK CNNscore 0.516962528
REMARK CNNaffinity 6.09733057
REMARK  14 active torsions:
REMARK  status: ('A' for Active; 'I' for Inactive)
REMARK    1  A    between atoms: C19_20  and  O2_21 
REMARK    2  A    between atoms: C19_20  and  C20_22 
REMARK    3  A    between atoms: C20_22  and  C21_24 
REMARK    4  A    between atoms: C21_24  and  O4_25 
REMARK    5  A    between atoms: O4_25  and  C22_26 
REMARK    6  A    between atoms: C22_26  and  C23_28 
REMARK    7  A    between atoms: C23_28  and  C24_29 
REMARK    8  A    between atoms: C24_29  and  C25_30 
REMARK       I    between atoms: C25_30  and  N1_32 
REMARK    9  A    between atoms: N1_32  and  C26_33 
REMARK   10  A    between atoms: C26_33  and  C27_34 
REMARK   11  A    between atoms: C27_34  and  C28_35 
REMARK   12  A    between atoms: C27_34  and  C30_39 
REMARK   13  A    between atoms: C28_35  and  C29_36 
REMARK   14  A    between atoms: C29_36  and  O8_38 
ROOT
HETATM    1  C20 UNL     1      -6.491  48.794 -24.393  1.00  0.00     0.185 C 
HETATM    2  O3  UNL     1      -5.640  48.176 -25.050  1.00  0.00    -0.292 OA
ENDROOT
BRANCH   1   3
HETATM    3  C19 UNL     1      -6.018  49.797 -23.323  1.00  0.00     0.128 C 
HETATM    4  C14 UNL     1      -4.583  49.528 -22.771  1.00  0.00    -0.002 C 
HETATM    5  C13 UNL     1      -3.409  49.891 -23.696  1.00  0.00     0.013 C 
HETATM    6  C15 UNL     1      -4.442  48.050 -22.320  1.00  0.00     0.019 C 
HETATM    7  C16 UNL     1      -4.566  50.533 -21.592  1.00  0.00     0.002 C 
HETATM    8  C12 UNL     1      -2.059  49.893 -22.952  1.00  0.00     0.007 C 
HETATM    9  C11 UNL     1      -2.058  50.779 -21.680  1.00  0.00     0.002 C 
HETATM   10  C2  UNL     1      -0.706  50.771 -20.877  1.00  0.00    -0.016 C 
HETATM   11  C10 UNL     1      -3.285  50.455 -20.754  1.00  0.00    -0.004 C 
HETATM   12  C1  UNL     1      -0.372  49.361 -20.326  1.00  0.00     0.020 C 
HETATM   13  C3  UNL     1       0.526  51.181 -21.734  1.00  0.00     0.022 C 
HETATM   14  C7  UNL     1      -0.899  51.767 -19.722  1.00  0.00    -0.068 C 
HETATM   15  C4  UNL     1       0.617  52.673 -22.000  1.00  0.00     0.084 C 
HETATM   16  C5  UNL     1       0.664  53.408 -20.684  1.00  0.00     0.149 C 
HETATM   17  O1  UNL     1       1.345  54.414 -20.509  1.00  0.00    -0.293 OA
HETATM   18  C6  UNL     1      -0.233  52.930 -19.605  1.00  0.00     0.053 C 
HETATM   19  C8  UNL     1      -2.020  51.443 -18.767  1.00  0.00     0.035 C 
HETATM   20  C9  UNL     1      -3.340  51.404 -19.540  1.00  0.00     0.010 C 
HETATM   21  C17 UNL     1      -5.907  50.301 -20.904  1.00  0.00     0.009 C 
HETATM   22  C18 UNL     1      -6.878  49.932 -22.046  1.00  0.00     0.047 C 
BRANCH   3  23
HETATM   23  O2  UNL     1      -6.050  51.084 -23.971  1.00  0.00    -0.381 OA
HETATM   24  H27 UNL     1      -5.745  50.935 -24.890  1.00  0.00     0.211 HD
ENDBRANCH   3  23
ENDBRANCH   1   3
BRANCH   1  25
HETATM   25  C21 UNL     1      -7.987  48.573 -24.601  1.00  0.00     0.260 C 
BRANCH  25  26
HETATM   26  O4  UNL     1      -8.521  47.622 -23.677  1.00  0.00    -0.314 OA
BRANCH  26  27
HETATM   27  C22 UNL     1      -9.190  46.589 -24.259  1.00  0.00     0.259 C 
HETATM   28  O5  UNL     1      -8.659  45.627 -24.804  1.00  0.00    -0.265 OA
BRANCH  27  29
HETATM   29  C23 UNL     1     -10.679  46.788 -24.115  1.00  0.00     0.120 C 
BRANCH  29  30
HETATM   30  C24 UNL     1     -11.413  45.452 -24.128  1.00  0.00     0.112 C 
BRANCH  30  31
HETATM   31  C25 UNL     1     -12.681  45.517 -24.958  1.00  0.00     0.218 C 
HETATM   32  O6  UNL     1     -12.682  45.473 -26.184  1.00  0.00    -0.274 OA
HETATM   33  N1  UNL     1     -13.820  45.664 -24.199  1.00  0.00    -0.360 N 
HETATM   34  H34 UNL     1     -13.716  45.897 -23.216  1.00  0.00     0.162 HD
BRANCH  33  35
HETATM   35  C26 UNL     1     -15.142  45.762 -24.786  1.00  0.00     0.132 C 
BRANCH  35  36
HETATM   36  C27 UNL     1     -16.272  46.138 -23.796  1.00  0.00     0.046 C 
BRANCH  36  37
HETATM   37  C28 UNL     1     -17.386  46.977 -24.457  1.00  0.00     0.120 C 
BRANCH  37  38
HETATM   38  C29 UNL     1     -18.775  46.401 -24.558  1.00  0.00     0.140 C 
HETATM   39  O7  UNL     1     -19.704  46.958 -25.132  1.00  0.00    -0.650 OA
BRANCH  38  40
HETATM   40  O8  UNL     1     -18.983  45.202 -23.989  1.00  0.00    -0.776 OA
HETATM   41  H40 UNL     1     -19.901  44.984 -24.261  1.00  0.00     0.167 HD
ENDBRANCH  38  40
ENDBRANCH  37  38
ENDBRANCH  36  37
BRANCH  36  42
HETATM   42  C30 UNL     1     -15.861  46.629 -22.408  1.00  0.00    -0.052 A 
HETATM   43  C31 UNL     1     -16.631  46.241 -21.294  1.00  0.00     0.007 A 
HETATM   44  C32 UNL     1     -16.293  46.649 -20.001  1.00  0.00     0.001 A 
HETATM   45  C33 UNL     1     -15.172  47.447 -19.795  1.00  0.00     0.000 A 
HETATM   46  C34 UNL     1     -14.393  47.836 -20.881  1.00  0.00     0.001 A 
HETATM   47  C35 UNL     1     -14.732  47.427 -22.175  1.00  0.00     0.007 A 
ENDBRANCH  36  42
ENDBRANCH  35  36
ENDBRANCH  33  35
ENDBRANCH  30  31
ENDBRANCH  29  30
ENDBRANCH  27  29
ENDBRANCH  26  27
ENDBRANCH  25  26
ENDBRANCH   1  25
TORSDOF 14
ENDMDL
MODEL 5
REMARK minimizedAffinity -8.10340405
REMARK CNNscore 0.419574887
REMARK CNNaffinity 6.07347536
REMARK  14 active torsions:
REMARK  status: ('A' for Active; 'I' for Inactive)
REMARK    1  A    between atoms: C19_20  and  O2_21 
REMARK    2  A    between atoms: C19_20  and  C20_22 
REMARK    3  A    between atoms: C20_22  and  C21_24 
REMARK    4  A    between atoms: C21_24  and  O4_25 
REMARK    5  A    between atoms: O4_25  and  C22_26 
REMARK    6  A    between atoms: C22_26  and  C23_28 
REMARK    7  A    between atoms: C23_28  and  C24_29 
REMARK    8  A    between atoms: C24_29  and  C25_30 
REMARK       I    between atoms: C25_30  and  N1_32 
REMARK    9  A    between atoms: N1_32  and  C26_33 
REMARK   10  A    between atoms: C26_33  and  C27_34 
REMARK   11  A    between atoms: C27_34  and  C28_35 
REMARK   12  A    between atoms: C27_34  and  C30_39 
REMARK   13  A    between atoms: C28_35  and  C29_36 
REMARK   14  A    between atoms: C29_36  and  O8_38 
ROOT
HETATM    1  C20 UNL     1      -6.470  48.803 -24.447  1.00  0.00     0.185 C 
HETATM    2  O3  UNL     1      -5.610  48.155 -25.062  1.00  0.00    -0.292 OA
ENDROOT
BRANCH   1   3
HETATM    3  C19 UNL     1      -6.014  49.796 -23.361  1.00  0.00     0.128 C 
HETATM    4  C14 UNL     1      -4.581  49.534 -22.801  1.00  0.00    -0.002 C 
HETATM    5  C13 UNL     1      -3.404  49.920 -23.713  1.00  0.00     0.013 C 
HETATM    6  C15 UNL     1      -4.429  48.052 -22.368  1.00  0.00     0.019 C 
HETATM    7  C16 UNL     1      -4.582  50.523 -21.610  1.00  0.00     0.002 C 
HETATM    8  C12 UNL     1      -2.059  49.925 -22.959  1.00  0.00     0.007 C 
HETATM    9  C11 UNL     1      -2.076  50.795 -21.676  1.00  0.00     0.002 C 
HETATM   10  C2  UNL     1      -0.730  50.789 -20.862  1.00  0.00    -0.016 C 
HETATM   11  C10 UNL     1      -3.307  50.447 -20.763  1.00  0.00    -0.004 C 
HETATM   12  C1  UNL     1      -0.387  49.375 -20.327  1.00  0.00     0.020 C 
HETATM   13  C3  UNL     1       0.505  51.222 -21.705  1.00  0.00     0.022 C 
HETATM   14  C7  UNL     1      -0.941  51.768 -19.696  1.00  0.00    -0.068 C 
HETATM   15  C4  UNL     1       0.583  52.718 -21.951  1.00  0.00     0.084 C 
HETATM   16  C5  UNL     1       0.613  53.436 -20.625  1.00  0.00     0.149 C 
HETATM   17  O1  UNL     1       1.283  54.446 -20.432  1.00  0.00    -0.293 OA
HETATM   18  C6  UNL     1      -0.288  52.936 -19.560  1.00  0.00     0.053 C 
HETATM   19  C8  UNL     1      -2.067  51.421 -18.754  1.00  0.00     0.035 C 
HETATM   20  C9  UNL     1      -3.381  51.379 -19.537  1.00  0.00     0.010 C 
HETATM   21  C17 UNL     1      -5.926  50.270 -20.935  1.00  0.00     0.009 C 
HETATM   22  C18 UNL     1      -6.885  49.907 -22.089  1.00  0.00     0.047 C 
BRANCH   3  23
HETATM   23  O2  UNL     1      -6.053  51.092 -23.993  1.00  0.00    -0.381 OA
HETATM   24  H27 UNL     1      -5.741  50.957 -24.911  1.00  0.00     0.211 HD
ENDBRANCH   3  23
ENDBRANCH   1   3
BRANCH   1  25
HETATM   25  C21 UNL     1      -7.961  48.629 -24.724  1.00  0.00     0.260 C 
BRANCH  25  26
HETATM   26  O4  UNL     1      -8.526  47.564 -23.955  1.00  0.00    -0.314 OA
BRANCH  26  27
HETATM   27  C22 UNL     1      -9.851  47.348 -24.184  1.00  0.00     0.259 C 
HETATM   28  O5  UNL     1     -10.475  47.779 -25.148  1.00  0.00    -0.265 OA
BRANCH  27  29
HETATM   29  C23 UNL     1     -10.433  46.483 -23.095  1.00  0.00     0.120 C 
BRANCH  29  30
HETATM   30  C24 UNL     1     -11.763  45.877 -23.528  1.00  0.00     0.112 C 
BRANCH  30  31
HETATM   31  C25 UNL     1     -12.940  46.684 -23.014  1.00  0.00     0.218 C 
HETATM   32  O6  UNL     1     -12.974  47.181 -21.892  1.00  0.00    -0.274 OA
HETATM   33  N1  UNL     1     -13.974  46.773 -23.919  1.00  0.00    -0.360 N 
HETATM   34  H34 UNL     1     -13.952  46.169 -24.734  1.00  0.00     0.162 HD
BRANCH  33  35
HETATM   35  C26 UNL     1     -15.203  47.485 -23.631  1.00  0.00     0.132 C 
BRANCH  35  36
HETATM   36  C27 UNL     1     -16.426  46.585 -23.328  1.00  0.00     0.046 C 
BRANCH  36  37
HETATM   37  C28 UNL     1     -16.402  46.011 -21.896  1.00  0.00     0.120 C 
BRANCH  37  38
HETATM   38  C29 UNL     1     -17.540  46.329 -20.959  1.00  0.00     0.140 C 
HETATM   39  O7  UNL     1     -17.407  46.479 -19.751  1.00  0.00    -0.650 OA
BRANCH  38  40
HETATM   40  O8  UNL     1     -18.761  46.462 -21.504  1.00  0.00    -0.776 OA
HETATM   41  H40 UNL     1     -19.310  46.761 -20.747  1.00  0.00     0.167 HD
ENDBRANCH  38  40
ENDBRANCH  37  38
ENDBRANCH  36  37
BRANCH  36  42
HETATM   42  C30 UNL     1     -16.843  45.574 -24.397  1.00  0.00    -0.052 A 
HETATM   43  C31 UNL     1     -17.776  45.967 -25.376  1.00  0.00     0.007 A 
HETATM   44  C32 UNL     1     -18.181  45.089 -26.385  1.00  0.00     0.001 A 
HETATM   45  C33 UNL     1     -17.654  43.802 -26.440  1.00  0.00     0.000 A 
HETATM   46  C34 UNL     1     -16.724  43.397 -25.487  1.00  0.00     0.001 A 
HETATM   47  C35 UNL     1     -16.319  44.276 -24.476  1.00  0.00     0.007 A 
ENDBRANCH  36  42
ENDBRANCH  35  36
ENDBRANCH  33  35
ENDBRANCH  30  31
ENDBRANCH  29  30
ENDBRANCH  27  29
ENDBRANCH  26  27
ENDBRANCH  25  26
ENDBRANCH   1  25
TORSDOF 14
ENDMDL
MODEL 6
REMARK minimizedAffinity -8.89752769
REMARK CNNscore 0.412515491
REMARK CNNaffinity 6.48645926
REMARK  14 active torsions:
REMARK  status: ('A' for Active; 'I' for Inactive)
REMARK    1  A    between atoms: C19_20  and  O2_21 
REMARK    2  A    between atoms: C19_20  and  C20_22 
REMARK    3  A    between atoms: C20_22  and  C21_24 
REMARK    4  A    between atoms: C21_24  and  O4_25 
REMARK    5  A    between atoms: O4_25  and  C22_26 
REMARK    6  A    between atoms: C22_26  and  C23_28 
REMARK    7  A    between atoms: C23_28  and  C24_29 
REMARK    8  A    between atoms: C24_29  and  C25_30 
REMARK       I    between atoms: C25_30  and  N1_32 
REMARK    9  A    between atoms: N1_32  and  C26_33 
REMARK   10  A    between atoms: C26_33  and  C27_34 
REMARK   11  A    between atoms: C27_34  and  C28_35 
REMARK   12  A    between atoms: C27_34  and  C30_39 
REMARK   13  A    between atoms: C28_35  and  C29_36 
REMARK   14  A    between atoms: C29_36  and  O8_38 
ROOT
HETATM    1  C20 UNL     1      -9.428  47.877 -26.033  1.00  0.00     0.185 C 
HETATM    2  O3  UNL     1      -9.358  48.676 -25.086  1.00  0.00    -0.292 OA
ENDROOT
BRANCH   1   3
HETATM    3  C19 UNL     1     -10.757  47.758 -26.804  1.00  0.00     0.128 C 
HETATM    4  C14 UNL     1     -11.689  46.604 -26.319  1.00  0.00    -0.002 C 
HETATM    5  C13 UNL     1     -12.429  46.829 -24.989  1.00  0.00     0.013 C 
HETATM    6  C15 UNL     1     -10.907  45.266 -26.250  1.00  0.00     0.019 C 
HETATM    7  C16 UNL     1     -12.751  46.636 -27.445  1.00  0.00     0.002 C 
HETATM    8  C12 UNL     1     -13.549  45.794 -24.762  1.00  0.00     0.007 C 
HETATM    9  C11 UNL     1     -14.548  45.700 -25.944  1.00  0.00     0.002 C 
HETATM   10  C2  UNL     1     -15.681  44.625 -25.761  1.00  0.00    -0.016 C 
HETATM   11  C10 UNL     1     -13.800  45.526 -27.315  1.00  0.00    -0.004 C 
HETATM   12  C1  UNL     1     -15.103  43.189 -25.670  1.00  0.00     0.020 C 
HETATM   13  C3  UNL     1     -16.512  44.818 -24.459  1.00  0.00     0.022 C 
HETATM   14  C7  UNL     1     -16.591  44.761 -26.992  1.00  0.00    -0.068 C 
HETATM   15  C4  UNL     1     -17.514  45.956 -24.537  1.00  0.00     0.084 C 
HETATM   16  C5  UNL     1     -18.453  45.711 -25.691  1.00  0.00     0.149 C 
HETATM   17  O1  UNL     1     -19.646  45.996 -25.649  1.00  0.00    -0.293 OA
HETATM   18  C6  UNL     1     -17.863  45.194 -26.949  1.00  0.00     0.053 C 
HETATM   19  C8  UNL     1     -15.921  44.523 -28.322  1.00  0.00     0.035 C 
HETATM   20  C9  UNL     1     -14.786  45.533 -28.500  1.00  0.00     0.010 C 
HETATM   21  C17 UNL     1     -11.918  46.711 -28.721  1.00  0.00     0.009 C 
HETATM   22  C18 UNL     1     -10.674  47.538 -28.331  1.00  0.00     0.047 C 
BRANCH   3  23
HETATM   23  O2  UNL     1     -11.420  49.024 -26.613  1.00  0.00    -0.381 OA
HETATM   24  H27 UNL     1     -11.237  49.291 -25.689  1.00  0.00     0.211 HD
ENDBRANCH   3  23
ENDBRANCH   1   3
BRANCH   1  25
HETATM   25  C21 UNL     1      -8.247  47.001 -26.437  1.00  0.00     0.260 C 
BRANCH  25  26
HETATM   26  O4  UNL     1      -7.191  47.764 -27.027  1.00  0.00    -0.314 OA
BRANCH  26  27
HETATM   27  C22 UNL     1      -6.562  47.144 -28.063  1.00  0.00     0.259 C 
HETATM   28  O5  UNL     1      -6.917  46.084 -28.566  1.00  0.00    -0.265 OA
BRANCH  27  29
HETATM   29  C23 UNL     1      -5.379  47.963 -28.517  1.00  0.00     0.120 C 
BRANCH  29  30
HETATM   30  C24 UNL     1      -4.511  48.375 -27.333  1.00  0.00     0.112 C 
BRANCH  30  31
HETATM   31  C25 UNL     1      -3.818  49.700 -27.582  1.00  0.00     0.218 C 
HETATM   32  O6  UNL     1      -3.393  50.040 -28.681  1.00  0.00    -0.274 OA
HETATM   33  N1  UNL     1      -3.685  50.465 -26.444  1.00  0.00    -0.360 N 
HETATM   34  H34 UNL     1      -3.875  50.029 -25.547  1.00  0.00     0.162 HD
BRANCH  33  35
HETATM   35  C26 UNL     1      -3.041  51.763 -26.447  1.00  0.00     0.132 C 
BRANCH  35  36
HETATM   36  C27 UNL     1      -2.031  51.996 -25.296  1.00  0.00     0.046 C 
BRANCH  36  37
HETATM   37  C28 UNL     1      -0.571  51.744 -25.726  1.00  0.00     0.120 C 
BRANCH  37  38
HETATM   38  C29 UNL     1       0.338  52.923 -25.963  1.00  0.00     0.140 C 
HETATM   39  O7  UNL     1      -0.062  54.063 -26.165  1.00  0.00    -0.650 OA
BRANCH  38  40
HETATM   40  O8  UNL     1       1.661  52.691 -25.935  1.00  0.00    -0.776 OA
HETATM   41  H40 UNL     1       2.047  53.591 -26.007  1.00  0.00     0.167 HD
ENDBRANCH  38  40
ENDBRANCH  37  38
ENDBRANCH  36  37
BRANCH  36  42
HETATM   42  C30 UNL     1      -2.383  51.428 -23.921  1.00  0.00    -0.052 A 
HETATM   43  C31 UNL     1      -3.360  52.082 -23.146  1.00  0.00     0.007 A 
HETATM   44  C32 UNL     1      -3.731  51.599 -21.888  1.00  0.00     0.001 A 
HETATM   45  C33 UNL     1      -3.137  50.445 -21.384  1.00  0.00     0.000 A 
HETATM   46  C34 UNL     1      -2.175  49.779 -22.138  1.00  0.00     0.001 A 
HETATM   47  C35 UNL     1      -1.804  50.264 -23.397  1.00  0.00     0.007 A 
ENDBRANCH  36  42
ENDBRANCH  35  36
ENDBRANCH  33  35
ENDBRANCH  30  31
ENDBRANCH  29  30
ENDBRANCH  27  29
ENDBRANCH  26  27
ENDBRANCH  25  26
ENDBRANCH   1  25
TORSDOF 14
ENDMDL
MODEL 7
REMARK minimizedAffinity -8.83882427
REMARK CNNscore 0.401891589
REMARK CNNaffinity 6.2372818
REMARK  14 active torsions:
REMARK  status: ('A' for Active; 'I' for Inactive)
REMARK    1  A    between atoms: C19_20  and  O2_21 
REMARK    2  A    between atoms: C19_20  and  C20_22 
REMARK    3  A    between atoms: C20_22  and  C21_24 
REMARK    4  A    between atoms: C21_24  and  O4_25 
REMARK    5  A    between atoms: O4_25  and  C22_26 
REMARK    6  A    between atoms: C22_26  and  C23_28 
REMARK    7  A    between atoms: C23_28  and  C24_29 
REMARK    8  A    between atoms: C24_29  and  C25_30 
REMARK       I    between atoms: C25_30  and  N1_32 
REMARK    9  A    between atoms: N1_32  and  C26_33 
REMARK   10  A    between atoms: C26_33  and  C27_34 
REMARK   11  A    between atoms: C27_34  and  C28_35 
REMARK   12  A    between atoms: C27_34  and  C30_39 
REMARK   13  A    between atoms: C28_35  and  C29_36 
REMARK   14  A    between atoms: C29_36  and  O8_38 
ROOT
HETATM    1  C20 UNL     1     -10.528  47.855 -26.752  1.00  0.00     0.185 C 
HETATM    2  O3  UNL     1     -10.447  48.731 -25.877  1.00  0.00    -0.292 OA
ENDROOT
BRANCH   1   3
HETATM    3  C19 UNL     1     -11.908  47.539 -27.359  1.00  0.00     0.128 C 
HETATM    4  C14 UNL     1     -12.800  46.598 -26.491  1.00  0.00    -0.002 C 
HETATM    5  C13 UNL     1     -13.442  47.219 -25.239  1.00  0.00     0.013 C 
HETATM    6  C15 UNL     1     -12.012  45.325 -26.085  1.00  0.00     0.019 C 
HETATM    7  C16 UNL     1     -13.940  46.317 -27.500  1.00  0.00     0.002 C 
HETATM    8  C12 UNL     1     -14.541  46.318 -24.639  1.00  0.00     0.007 C 
HETATM    9  C11 UNL     1     -15.622  45.900 -25.667  1.00  0.00     0.002 C 
HETATM   10  C2  UNL     1     -16.736  44.948 -25.096  1.00  0.00    -0.016 C 
HETATM   11  C10 UNL     1     -14.975  45.315 -26.974  1.00  0.00    -0.004 C 
HETATM   12  C1  UNL     1     -16.150  43.592 -24.626  1.00  0.00     0.020 C 
HETATM   13  C3  UNL     1     -17.472  45.532 -23.855  1.00  0.00     0.022 C 
HETATM   14  C7  UNL     1     -17.733  44.732 -26.245  1.00  0.00    -0.068 C 
HETATM   15  C4  UNL     1     -18.479  46.616 -24.195  1.00  0.00     0.084 C 
HETATM   16  C5  UNL     1     -19.498  46.060 -25.157  1.00  0.00     0.149 C 
HETATM   17  O1  UNL     1     -20.686  46.367 -25.117  1.00  0.00    -0.293 OA
HETATM   18  C6  UNL     1     -19.001  45.183 -26.244  1.00  0.00     0.053 C 
HETATM   19  C8  UNL     1     -17.161  44.099 -27.489  1.00  0.00     0.035 C 
HETATM   20  C9  UNL     1     -16.044  44.991 -28.037  1.00  0.00     0.010 C 
HETATM   21  C17 UNL     1     -13.202  45.996 -28.795  1.00  0.00     0.009 C 
HETATM   22  C18 UNL     1     -11.936  46.877 -28.755  1.00  0.00     0.047 C 
BRANCH   3  23
HETATM   23  O2  UNL     1     -12.559  48.818 -27.505  1.00  0.00    -0.381 OA
HETATM   24  H27 UNL     1     -12.310  49.342 -26.716  1.00  0.00     0.211 HD
ENDBRANCH   3  23
ENDBRANCH   1   3
BRANCH   1  25
HETATM   25  C21 UNL     1      -9.305  47.074 -27.225  1.00  0.00     0.260 C 
BRANCH  25  26
HETATM   26  O4  UNL     1      -8.261  47.939 -27.681  1.00  0.00    -0.314 OA
BRANCH  26  27
HETATM   27  C22 UNL     1      -8.036  47.886 -29.023  1.00  0.00     0.259 C 
HETATM   28  O5  UNL     1      -8.858  47.529 -29.859  1.00  0.00    -0.265 OA
BRANCH  27  29
HETATM   29  C23 UNL     1      -6.636  48.354 -29.333  1.00  0.00     0.120 C 
BRANCH  29  30
HETATM   30  C24 UNL     1      -5.598  47.455 -28.670  1.00  0.00     0.112 C 
BRANCH  30  31
HETATM   31  C25 UNL     1      -4.648  48.248 -27.793  1.00  0.00     0.218 C 
HETATM   32  O6  UNL     1      -3.601  48.735 -28.207  1.00  0.00    -0.274 OA
HETATM   33  N1  UNL     1      -5.065  48.336 -26.483  1.00  0.00    -0.360 N 
HETATM   34  H34 UNL     1      -5.827  47.739 -26.180  1.00  0.00     0.162 HD
BRANCH  33  35
HETATM   35  C26 UNL     1      -4.303  49.036 -25.468  1.00  0.00     0.132 C 
BRANCH  35  36
HETATM   36  C27 UNL     1      -4.269  48.345 -24.082  1.00  0.00     0.046 C 
BRANCH  36  37
HETATM   37  C28 UNL     1      -5.651  48.320 -23.396  1.00  0.00     0.120 C 
BRANCH  37  38
HETATM   38  C29 UNL     1      -6.375  49.621 -23.157  1.00  0.00     0.140 C 
HETATM   39  O7  UNL     1      -6.986  49.882 -22.128  1.00  0.00    -0.650 OA
BRANCH  38  40
HETATM   40  O8  UNL     1      -6.324  50.538 -24.137  1.00  0.00    -0.776 OA
HETATM   41  H40 UNL     1      -6.761  51.319 -23.734  1.00  0.00     0.167 HD
ENDBRANCH  38  40
ENDBRANCH  37  38
ENDBRANCH  36  37
BRANCH  36  42
HETATM   42  C30 UNL     1      -3.114  48.698 -23.144  1.00  0.00    -0.052 A 
HETATM   43  C31 UNL     1      -2.560  49.991 -23.205  1.00  0.00     0.007 A 
HETATM   44  C32 UNL     1      -1.513  50.372 -22.362  1.00  0.00     0.001 A 
HETATM   45  C33 UNL     1      -1.004  49.469 -21.435  1.00  0.00     0.000 A 
HETATM   46  C34 UNL     1      -1.542  48.188 -21.352  1.00  0.00     0.001 A 
HETATM   47  C35 UNL     1      -2.590  47.807 -22.197  1.00  0.00     0.007 A 
ENDBRANCH  36  42
ENDBRANCH  35  36
ENDBRANCH  33  35
ENDBRANCH  30  31
ENDBRANCH  29  30
ENDBRANCH  27  29
ENDBRANCH  26  27
ENDBRANCH  25  26
ENDBRANCH   1  25
TORSDOF 14
ENDMDL
MODEL 8
REMARK minimizedAffinity -8.11761761
REMARK CNNscore 0.39812234
REMARK CNNaffinity 6.21539259
REMARK  14 active torsions:
REMARK  status: ('A' for Active; 'I' for Inactive)
REMARK    1  A    between atoms: C19_20  and  O2_21 
REMARK    2  A    between atoms: C19_20  and  C20_22 
REMARK    3  A    between atoms: C20_22  and  C21_24 
REMARK    4  A    between atoms: C21_24  and  O4_25 
REMARK    5  A    between atoms: O4_25  and  C22_26 
REMARK    6  A    between atoms: C22_26  and  C23_28 
REMARK    7  A    between atoms: C23_28  and  C24_29 
REMARK    8  A    between atoms: C24_29  and  C25_30 
REMARK       I    between atoms: C25_30  and  N1_32 
REMARK    9  A    between atoms: N1_32  and  C26_33 
REMARK   10  A    between atoms: C26_33  and  C27_34 
REMARK   11  A    between atoms: C27_34  and  C28_35 
REMARK   12  A    between atoms: C27_34  and  C30_39 
REMARK   13  A    between atoms: C28_35  and  C29_36 
REMARK   14  A    between atoms: C29_36  and  O8_38 
ROOT
HETATM    1  C20 UNL     1      -6.930  48.828 -23.248  1.00  0.00     0.185 C 
HETATM    2  O3  UNL     1      -6.997  49.121 -24.452  1.00  0.00    -0.292 OA
ENDROOT
BRANCH   1   3
HETATM    3  C19 UNL     1      -6.265  49.824 -22.279  1.00  0.00     0.128 C 
HETATM    4  C14 UNL     1      -4.739  49.589 -22.051  1.00  0.00    -0.002 C 
HETATM    5  C13 UNL     1      -3.799  50.005 -23.195  1.00  0.00     0.013 C 
HETATM    6  C15 UNL     1      -4.467  48.108 -21.677  1.00  0.00     0.019 C 
HETATM    7  C16 UNL     1      -4.496  50.571 -20.879  1.00  0.00     0.002 C 
HETATM    8  C12 UNL     1      -2.321  50.033 -22.756  1.00  0.00     0.007 C 
HETATM    9  C11 UNL     1      -2.072  50.895 -21.492  1.00  0.00     0.002 C 
HETATM   10  C2  UNL     1      -0.580  50.913 -20.995  1.00  0.00    -0.016 C 
HETATM   11  C10 UNL     1      -3.065  50.517 -20.334  1.00  0.00    -0.004 C 
HETATM   12  C1  UNL     1      -0.100  49.503 -20.562  1.00  0.00     0.020 C 
HETATM   13  C3  UNL     1       0.430  51.377 -22.084  1.00  0.00     0.022 C 
HETATM   14  C7  UNL     1      -0.548  51.881 -19.801  1.00  0.00    -0.068 C 
HETATM   15  C4  UNL     1       0.424  52.876 -22.326  1.00  0.00     0.084 C 
HETATM   16  C5  UNL     1       0.731  53.587 -21.032  1.00  0.00     0.149 C 
HETATM   17  O1  UNL     1       1.408  54.609 -20.981  1.00  0.00    -0.293 OA
HETATM   18  C6  UNL     1       0.097  53.061 -19.799  1.00  0.00     0.053 C 
HETATM   19  C8  UNL     1      -1.431  51.504 -18.638  1.00  0.00     0.035 C 
HETATM   20  C9  UNL     1      -2.884  51.440 -19.112  1.00  0.00     0.010 C 
HETATM   21  C17 UNL     1      -5.654  50.285 -19.927  1.00  0.00     0.009 C 
HETATM   22  C18 UNL     1      -6.836  49.909 -20.845  1.00  0.00     0.047 C 
BRANCH   3  23
HETATM   23  O2  UNL     1      -6.467  51.122 -22.873  1.00  0.00    -0.381 OA
HETATM   24  H27 UNL     1      -6.362  51.000 -23.839  1.00  0.00     0.211 HD
ENDBRANCH   3  23
ENDBRANCH   1   3
BRANCH   1  25
HETATM   25  C21 UNL     1      -7.467  47.505 -22.710  1.00  0.00     0.260 C 
BRANCH  25  26
HETATM   26  O4  UNL     1      -8.777  47.647 -22.153  1.00  0.00    -0.314 OA
BRANCH  26  27
HETATM   27  C22 UNL     1      -8.941  47.044 -20.944  1.00  0.00     0.259 C 
HETATM   28  O5  UNL     1      -8.134  46.280 -20.426  1.00  0.00    -0.265 OA
BRANCH  27  29
HETATM   29  C23 UNL     1     -10.247  47.473 -20.323  1.00  0.00     0.120 C 
BRANCH  29  30
HETATM   30  C24 UNL     1     -11.311  46.393 -20.485  1.00  0.00     0.112 C 
BRANCH  30  31
HETATM   31  C25 UNL     1     -12.314  46.419 -19.348  1.00  0.00     0.218 C 
HETATM   32  O6  UNL     1     -11.996  46.298 -18.170  1.00  0.00    -0.274 OA
HETATM   33  N1  UNL     1     -13.615  46.559 -19.776  1.00  0.00    -0.360 N 
HETATM   34  H34 UNL     1     -13.811  46.446 -20.765  1.00  0.00     0.162 HD
BRANCH  33  35
HETATM   35  C26 UNL     1     -14.738  46.594 -18.860  1.00  0.00     0.132 C 
BRANCH  35  36
HETATM   36  C27 UNL     1     -16.043  47.189 -19.446  1.00  0.00     0.046 C 
BRANCH  36  37
HETATM   37  C28 UNL     1     -16.597  48.355 -18.600  1.00  0.00     0.120 C 
BRANCH  37  38
HETATM   38  C29 UNL     1     -15.638  49.206 -17.808  1.00  0.00     0.140 C 
HETATM   39  O7  UNL     1     -15.954  50.251 -17.250  1.00  0.00    -0.650 OA
BRANCH  38  40
HETATM   40  O8  UNL     1     -14.371  48.772 -17.711  1.00  0.00    -0.776 OA
HETATM   41  H40 UNL     1     -13.964  49.408 -17.084  1.00  0.00     0.167 HD
ENDBRANCH  38  40
ENDBRANCH  37  38
ENDBRANCH  36  37
BRANCH  36  42
HETATM   42  C30 UNL     1     -17.111  46.208 -19.932  1.00  0.00    -0.052 A 
HETATM   43  C31 UNL     1     -16.980  44.845 -19.605  1.00  0.00     0.007 A 
HETATM   44  C32 UNL     1     -17.933  43.908 -20.011  1.00  0.00     0.001 A 
HETATM   45  C33 UNL     1     -19.042  44.317 -20.745  1.00  0.00     0.000 A 
HETATM   46  C34 UNL     1     -19.195  45.662 -21.072  1.00  0.00     0.001 A 
HETATM   47  C35 UNL     1     -18.239  46.600 -20.666  1.00  0.00     0.007 A 
ENDBRANCH  36  42
ENDBRANCH  35  36
ENDBRANCH  33  35
ENDBRANCH  30  31
ENDBRANCH  29  30
ENDBRANCH  27  29
ENDBRANCH  26  27
ENDBRANCH  25  26
ENDBRANCH   1  25
TORSDOF 14
ENDMDL
MODEL 9
REMARK minimizedAffinity -9.47316647
REMARK CNNscore 0.379169285
REMARK CNNaffinity 7.7374444
REMARK  14 active torsions:
REMARK  status: ('A' for Active; 'I' for Inactive)
REMARK    1  A    between atoms: C19_20  and  O2_21 
REMARK    2  A    between atoms: C19_20  and  C20_22 
REMARK    3  A    between atoms: C20_22  and  C21_24 
REMARK    4  A    between atoms: C21_24  and  O4_25 
REMARK    5  A    between atoms: O4_25  and  C22_26 
REMARK    6  A    between atoms: C22_26  and  C23_28 
REMARK    7  A    between atoms: C23_28  and  C24_29 
REMARK    8  A    between atoms: C24_29  and  C25_30 
REMARK       I    between atoms: C25_30  and  N1_32 
REMARK    9  A    between atoms: N1_32  and  C26_33 
REMARK   10  A    between atoms: C26_33  and  C27_34 
REMARK   11  A    between atoms: C27_34  and  C28_35 
REMARK   12  A    between atoms: C27_34  and  C30_39 
REMARK   13  A    between atoms: C28_35  and  C29_36 
REMARK   14  A    between atoms: C29_36  and  O8_38 
ROOT
HETATM    1  C20 UNL     1      -6.582  48.191 -24.719  1.00  0.00     0.185 C 
HETATM    2  O3  UNL     1      -7.715  47.688 -24.678  1.00  0.00    -0.292 OA
ENDROOT
BRANCH   1   3
HETATM    3  C19 UNL     1      -6.201  49.248 -23.665  1.00  0.00     0.128 C 
HETATM    4  C14 UNL     1      -4.989  48.859 -22.763  1.00  0.00    -0.002 C 
HETATM    5  C13 UNL     1      -3.595  48.936 -23.409  1.00  0.00     0.013 C 
HETATM    6  C15 UNL     1      -5.195  47.446 -22.156  1.00  0.00     0.019 C 
HETATM    7  C16 UNL     1      -5.070  49.994 -21.713  1.00  0.00     0.002 C 
HETATM    8  C12 UNL     1      -2.462  48.847 -22.367  1.00  0.00     0.007 C 
HETATM    9  C11 UNL     1      -2.600  49.881 -21.220  1.00  0.00     0.002 C 
HETATM   10  C2  UNL     1      -1.481  49.791 -20.119  1.00  0.00    -0.016 C 
HETATM   11  C10 UNL     1      -4.038  49.850 -20.589  1.00  0.00    -0.004 C 
HETATM   12  C1  UNL     1      -1.513  48.430 -19.375  1.00  0.00     0.020 C 
HETATM   13  C3  UNL     1      -0.039  49.915 -20.690  1.00  0.00     0.022 C 
HETATM   14  C7  UNL     1      -1.761  50.944 -19.142  1.00  0.00    -0.068 C 
HETATM   15  C4  UNL     1       0.351  51.334 -21.064  1.00  0.00     0.084 C 
HETATM   16  C5  UNL     1       0.223  52.218 -19.849  1.00  0.00     0.149 C 
HETATM   17  O1  UNL     1       1.004  53.135 -19.610  1.00  0.00    -0.293 OA
HETATM   18  C6  UNL     1      -0.957  52.010 -18.977  1.00  0.00     0.053 C 
HETATM   19  C8  UNL     1      -3.104  50.901 -18.457  1.00  0.00     0.035 C 
HETATM   20  C9  UNL     1      -4.207  50.945 -19.516  1.00  0.00     0.010 C 
HETATM   21  C17 UNL     1      -6.551  50.039 -21.348  1.00  0.00     0.009 C 
HETATM   22  C18 UNL     1      -7.289  49.663 -22.650  1.00  0.00     0.047 C 
BRANCH   3  23
HETATM   23  O2  UNL     1      -5.877  50.434 -24.418  1.00  0.00    -0.381 OA
HETATM   24  H27 UNL     1      -5.404  50.128 -25.220  1.00  0.00     0.211 HD
ENDBRANCH   3  23
ENDBRANCH   1   3
BRANCH   1  25
HETATM   25  C21 UNL     1      -5.568  47.807 -25.794  1.00  0.00     0.260 C 
BRANCH  25  26
HETATM   26  O4  UNL     1      -6.103  47.957 -27.112  1.00  0.00    -0.314 OA
BRANCH  26  27
HETATM   27  C22 UNL     1      -5.174  48.248 -28.063  1.00  0.00     0.259 C 
HETATM   28  O5  UNL     1      -5.418  48.415 -29.253  1.00  0.00    -0.265 OA
BRANCH  27  29
HETATM   29  C23 UNL     1      -3.806  48.360 -27.437  1.00  0.00     0.120 C 
BRANCH  29  30
HETATM   30  C24 UNL     1      -3.195  49.732 -27.699  1.00  0.00     0.112 C 
BRANCH  30  31
HETATM   31  C25 UNL     1      -2.658  50.358 -26.427  1.00  0.00     0.218 C 
HETATM   32  O6  UNL     1      -2.262  49.699 -25.470  1.00  0.00    -0.274 OA
HETATM   33  N1  UNL     1      -2.692  51.734 -26.443  1.00  0.00    -0.360 N 
HETATM   34  H34 UNL     1      -3.219  52.194 -27.179  1.00  0.00     0.162 HD
BRANCH  33  35
HETATM   35  C26 UNL     1      -2.240  52.540 -25.326  1.00  0.00     0.132 C 
BRANCH  35  36
HETATM   36  C27 UNL     1      -0.731  52.421 -25.000  1.00  0.00     0.046 C 
BRANCH  36  37
HETATM   37  C28 UNL     1      -0.241  53.527 -24.041  1.00  0.00     0.120 C 
BRANCH  37  38
HETATM   38  C29 UNL     1       0.495  54.715 -24.606  1.00  0.00     0.140 C 
HETATM   39  O7  UNL     1       0.146  55.317 -25.614  1.00  0.00    -0.650 OA
BRANCH  38  40
HETATM   40  O8  UNL     1       1.589  55.127 -23.945  1.00  0.00    -0.776 OA
HETATM   41  H40 UNL     1       1.839  55.950 -24.419  1.00  0.00     0.167 HD
ENDBRANCH  38  40
ENDBRANCH  37  38
ENDBRANCH  36  37
BRANCH  36  42
HETATM   42  C30 UNL     1       0.222  52.135 -26.160  1.00  0.00    -0.052 A 
HETATM   43  C31 UNL     1      -0.172  52.486 -27.466  1.00  0.00     0.007 A 
HETATM   44  C32 UNL     1       0.665  52.260 -28.561  1.00  0.00     0.001 A 
HETATM   45  C33 UNL     1       1.919  51.685 -28.371  1.00  0.00     0.000 A 
HETATM   46  C34 UNL     1       2.331  51.338 -27.088  1.00  0.00     0.001 A 
HETATM   47  C35 UNL     1       1.492  51.564 -25.992  1.00  0.00     0.007 A 
ENDBRANCH  36  42
ENDBRANCH  35  36
ENDBRANCH  33  35
ENDBRANCH  30  31
ENDBRANCH  29  30
ENDBRANCH  27  29
ENDBRANCH  26  27
ENDBRANCH  25  26
ENDBRANCH   1  25
TORSDOF 14
ENDMDL
