MODEL 1
REMARK minimizedAffinity -9.36331558
REMARK  7 active torsions:
REMARK  status: ('A' for Active; 'I' for Inactive)
REMARK    1  A    between atoms: C2_2  and  O2_4 
REMARK    2  A    between atoms: O2_4  and  C3_5 
REMARK    3  A    between atoms: C3_5  and  C4_6 
REMARK    4  A    between atoms: C3_5  and  C9_12 
REMARK    5  A    between atoms: C5_7  and  C6_8 
REMARK    6  A    between atoms: C6_8  and  O3_11 
REMARK    7  A    between atoms: C9_12  and  C11_14 
ROOT
HETATM    1  C11 UNL     1      -1.372  50.915 -22.876  1.00  0.00     0.001 C 
HETATM    2  C12 UNL     1      -0.778  52.354 -22.943  1.00  0.00     0.007 C 
HETATM    3  C13 UNL     1      -0.169  52.684 -21.568  1.00  0.00     0.015 C 
HETATM    4  C14 UNL     1      -0.074  51.331 -20.849  1.00  0.00    -0.013 C 
HETATM    5  C15 UNL     1       1.235  50.641 -21.346  1.00  0.00     0.021 C 
HETATM    6  C16 UNL     1       0.024  51.308 -19.325  1.00  0.00    -0.068 C 
HETATM    7  C17 UNL     1      -0.446  50.239 -18.630  1.00  0.00    -0.068 C 
HETATM    8  C18 UNL     1      -1.172  49.085 -19.341  1.00  0.00     0.036 C 
HETATM    9  C19 UNL     1      -1.365  49.195 -20.868  1.00  0.00     0.015 C 
HETATM   10  C20 UNL     1      -1.416  50.657 -21.330  1.00  0.00    -0.029 C 
HETATM   11  C21 UNL     1      -2.688  51.337 -20.727  1.00  0.00     0.016 C 
HETATM   12  C22 UNL     1      -0.307  50.128 -17.085  1.00  0.00    -0.015 C 
HETATM   13  C23 UNL     1      -1.711  50.387 -16.486  1.00  0.00     0.020 C 
HETATM   14  C24 UNL     1       0.162  48.697 -16.685  1.00  0.00     0.021 C 
HETATM   15  C25 UNL     1       0.870  48.579 -15.339  1.00  0.00     0.080 C 
HETATM   16  C26 UNL     1       0.629  49.757 -14.427  1.00  0.00     0.135 C 
HETATM   17  O4  UNL     1       0.269  49.580 -13.264  1.00  0.00    -0.297 OA
HETATM   18  C27 UNL     1       0.945  51.147 -14.988  1.00  0.00     0.018 C 
HETATM   19  C28 UNL     1       0.075  52.199 -14.269  1.00  0.00     0.023 C 
HETATM   20  C29 UNL     1       2.417  51.446 -14.629  1.00  0.00     0.023 C 
HETATM   21  C30 UNL     1       0.777  51.133 -16.547  1.00  0.00     0.013 C 
HETATM   22  C31 UNL     1       0.580  52.526 -17.155  1.00  0.00     0.011 C 
HETATM   23  C32 UNL     1       0.714  52.480 -18.674  1.00  0.00     0.036 C 
ENDROOT
BRANCH   1  24
HETATM   24  C9  UNL     1      -2.679  50.752 -23.723  1.00  0.00     0.020 C 
HETATM   25  C10 UNL     1      -3.326  49.372 -23.505  1.00  0.00     0.013 C 
BRANCH  24  26
HETATM   26  C3  UNL     1      -2.491  50.932 -25.269  1.00  0.00     0.158 C 
BRANCH  26  27
HETATM   27  O2  UNL     1      -2.418  49.640 -25.906  1.00  0.00    -0.312 OA
BRANCH  27  28
HETATM   28  C2  UNL     1      -3.159  49.469 -27.034  1.00  0.00     0.255 C 
HETATM   29  C1  UNL     1      -4.167  48.380 -26.824  1.00  0.00     0.126 C 
HETATM   30  O1  UNL     1      -3.062  50.120 -28.064  1.00  0.00    -0.266 OA
ENDBRANCH  27  28
ENDBRANCH  26  27
BRANCH  26  31
HETATM   31  C4  UNL     1      -1.249  51.681 -25.683  1.00  0.00     0.005 C 
HETATM   32  C5  UNL     1      -0.186  51.102 -26.271  1.00  0.00     0.008 C 
BRANCH  32  33
HETATM   33  C6  UNL     1       1.098  51.765 -26.712  1.00  0.00     0.068 C 
HETATM   34  C7  UNL     1       1.131  51.868 -28.239  1.00  0.00     0.050 C 
HETATM   35  C8  UNL     1       2.390  51.111 -26.209  1.00  0.00     0.050 C 
BRANCH  33  36
HETATM   36  O3  UNL     1       1.056  53.099 -26.199  1.00  0.00    -0.387 OA
HETATM   37  H13 UNL     1       0.968  53.025 -25.232  1.00  0.00     0.211 HD
ENDBRANCH  33  36
ENDBRANCH  32  33
ENDBRANCH  26  31
ENDBRANCH  24  26
ENDBRANCH   1  24
TORSDOF 7
ENDMDL
MODEL 2
REMARK minimizedAffinity -9.27948952
REMARK  7 active torsions:
REMARK  status: ('A' for Active; 'I' for Inactive)
REMARK    1  A    between atoms: C2_2  and  O2_4 
REMARK    2  A    between atoms: O2_4  and  C3_5 
REMARK    3  A    between atoms: C3_5  and  C4_6 
REMARK    4  A    between atoms: C3_5  and  C9_12 
REMARK    5  A    between atoms: C5_7  and  C6_8 
REMARK    6  A    between atoms: C6_8  and  O3_11 
REMARK    7  A    between atoms: C9_12  and  C11_14 
ROOT
HETATM    1  C11 UNL     1      -1.414  50.382 -24.154  1.00  0.00     0.001 C 
HETATM    2  C12 UNL     1      -1.068  50.973 -22.754  1.00  0.00     0.007 C 
HETATM    3  C13 UNL     1      -2.146  50.506 -21.759  1.00  0.00     0.015 C 
HETATM    4  C14 UNL     1      -2.878  49.366 -22.483  1.00  0.00    -0.013 C 
HETATM    5  C15 UNL     1      -2.024  48.075 -22.280  1.00  0.00     0.021 C 
HETATM    6  C16 UNL     1      -4.285  48.984 -22.029  1.00  0.00    -0.068 C 
HETATM    7  C17 UNL     1      -5.160  48.439 -22.914  1.00  0.00    -0.068 C 
HETATM    8  C18 UNL     1      -4.797  48.290 -24.400  1.00  0.00     0.036 C 
HETATM    9  C19 UNL     1      -3.413  48.799 -24.854  1.00  0.00     0.015 C 
HETATM   10  C20 UNL     1      -2.903  49.933 -23.955  1.00  0.00    -0.029 C 
HETATM   11  C21 UNL     1      -3.844  51.171 -24.113  1.00  0.00     0.016 C 
HETATM   12  C22 UNL     1      -6.579  47.963 -22.491  1.00  0.00    -0.015 C 
HETATM   13  C23 UNL     1      -7.586  49.004 -23.040  1.00  0.00     0.020 C 
HETATM   14  C24 UNL     1      -6.892  46.572 -23.119  1.00  0.00     0.021 C 
HETATM   15  C25 UNL     1      -7.938  45.732 -22.391  1.00  0.00     0.080 C 
HETATM   16  C26 UNL     1      -8.804  46.534 -21.450  1.00  0.00     0.135 C 
HETATM   17  O4  UNL     1     -10.029  46.435 -21.495  1.00  0.00    -0.297 OA
HETATM   18  C27 UNL     1      -8.085  47.382 -20.395  1.00  0.00     0.018 C 
HETATM   19  C28 UNL     1      -8.982  48.572 -19.997  1.00  0.00     0.023 C 
HETATM   20  C29 UNL     1      -7.926  46.489 -19.144  1.00  0.00     0.023 C 
HETATM   21  C30 UNL     1      -6.670  47.794 -20.930  1.00  0.00     0.013 C 
HETATM   22  C31 UNL     1      -6.074  49.010 -20.213  1.00  0.00     0.011 C 
HETATM   23  C32 UNL     1      -4.601  49.183 -20.568  1.00  0.00     0.036 C 
ENDROOT
BRANCH   1  24
HETATM   24  C9  UNL     1      -1.051  51.348 -25.332  1.00  0.00     0.020 C 
HETATM   25  C10 UNL     1      -0.081  50.686 -26.328  1.00  0.00     0.013 C 
BRANCH  24  26
HETATM   26  C3  UNL     1      -0.406  52.708 -24.897  1.00  0.00     0.158 C 
BRANCH  26  27
HETATM   27  O2  UNL     1       0.484  53.179 -25.930  1.00  0.00    -0.312 OA
BRANCH  27  28
HETATM   28  C2  UNL     1       0.115  54.310 -26.590  1.00  0.00     0.255 C 
HETATM   29  C1  UNL     1      -0.477  53.955 -27.921  1.00  0.00     0.126 C 
HETATM   30  O1  UNL     1       0.205  55.453 -26.166  1.00  0.00    -0.266 OA
ENDBRANCH  27  28
ENDBRANCH  26  27
BRANCH  26  31
HETATM   31  C4  UNL     1       0.406  52.658 -23.627  1.00  0.00     0.005 C 
HETATM   32  C5  UNL     1       0.485  53.672 -22.747  1.00  0.00     0.008 C 
BRANCH  32  33
HETATM   33  C6  UNL     1       1.276  53.716 -21.459  1.00  0.00     0.068 C 
HETATM   34  C7  UNL     1       2.015  52.390 -21.260  1.00  0.00     0.050 C 
HETATM   35  C8  UNL     1       0.472  54.056 -20.199  1.00  0.00     0.050 C 
BRANCH  33  36
HETATM   36  O3  UNL     1       2.267  54.731 -21.633  1.00  0.00    -0.387 OA
HETATM   37  H13 UNL     1       1.790  55.558 -21.825  1.00  0.00     0.211 HD
ENDBRANCH  33  36
ENDBRANCH  32  33
ENDBRANCH  26  31
ENDBRANCH  24  26
ENDBRANCH   1  24
TORSDOF 7
ENDMDL
MODEL 3
REMARK minimizedAffinity -9.07918167
REMARK  7 active torsions:
REMARK  status: ('A' for Active; 'I' for Inactive)
REMARK    1  A    between atoms: C2_2  and  O2_4 
REMARK    2  A    between atoms: O2_4  and  C3_5 
REMARK    3  A    between atoms: C3_5  and  C4_6 
REMARK    4  A    between atoms: C3_5  and  C9_12 
REMARK    5  A    between atoms: C5_7  and  C6_8 
REMARK    6  A    between atoms: C6_8  and  O3_11 
REMARK    7  A    between atoms: C9_12  and  C11_14 
ROOT
HETATM    1  C11 UNL     1      -2.008  50.848 -22.482  1.00  0.00     0.001 C 
HETATM    2  C12 UNL     1      -1.306  52.228 -22.666  1.00  0.00     0.007 C 
HETATM    3  C13 UNL     1      -0.516  52.537 -21.381  1.00  0.00     0.015 C 
HETATM    4  C14 UNL     1      -0.452  51.199 -20.631  1.00  0.00    -0.013 C 
HETATM    5  C15 UNL     1       0.727  50.385 -21.250  1.00  0.00     0.021 C 
HETATM    6  C16 UNL     1      -0.180  51.206 -19.128  1.00  0.00    -0.068 C 
HETATM    7  C17 UNL     1      -0.654  50.200 -18.347  1.00  0.00    -0.068 C 
HETATM    8  C18 UNL     1      -1.553  49.097 -18.930  1.00  0.00     0.036 C 
HETATM    9  C19 UNL     1      -1.912  49.185 -20.428  1.00  0.00     0.015 C 
HETATM   10  C20 UNL     1      -1.894  50.634 -20.933  1.00  0.00    -0.029 C 
HETATM   11  C21 UNL     1      -3.024  51.438 -20.213  1.00  0.00     0.016 C 
HETATM   12  C22 UNL     1      -0.346  50.115 -16.825  1.00  0.00    -0.015 C 
HETATM   13  C23 UNL     1      -1.644  50.512 -16.079  1.00  0.00     0.020 C 
HETATM   14  C24 UNL     1       0.043  48.659 -16.432  1.00  0.00     0.021 C 
HETATM   15  C25 UNL     1       0.892  48.513 -15.171  1.00  0.00     0.080 C 
HETATM   16  C26 UNL     1       0.858  49.730 -14.280  1.00  0.00     0.135 C 
HETATM   17  O4  UNL     1       0.623  49.615 -13.078  1.00  0.00    -0.297 OA
HETATM   18  C27 UNL     1       1.223  51.073 -14.922  1.00  0.00     0.018 C 
HETATM   19  C28 UNL     1       0.535  52.215 -14.145  1.00  0.00     0.023 C 
HETATM   20  C29 UNL     1       2.747  51.250 -14.743  1.00  0.00     0.023 C 
HETATM   21  C30 UNL     1       0.874  51.035 -16.450  1.00  0.00     0.013 C 
HETATM   22  C31 UNL     1       0.726  52.424 -17.080  1.00  0.00     0.011 C 
HETATM   23  C32 UNL     1       0.678  52.329 -18.601  1.00  0.00     0.036 C 
ENDROOT
BRANCH   1  24
HETATM   24  C9  UNL     1      -3.413  50.780 -23.168  1.00  0.00     0.020 C 
HETATM   25  C10 UNL     1      -4.320  49.732 -22.498  1.00  0.00     0.013 C 
BRANCH  24  26
HETATM   26  C3  UNL     1      -3.385  50.451 -24.700  1.00  0.00     0.158 C 
BRANCH  26  27
HETATM   27  O2  UNL     1      -3.323  49.022 -24.891  1.00  0.00    -0.312 OA
BRANCH  27  28
HETATM   28  C2  UNL     1      -4.195  48.484 -25.786  1.00  0.00     0.255 C 
HETATM   29  C1  UNL     1      -3.523  48.311 -27.115  1.00  0.00     0.126 C 
HETATM   30  O1  UNL     1      -5.347  48.147 -25.555  1.00  0.00    -0.266 OA
ENDBRANCH  27  28
ENDBRANCH  26  27
BRANCH  26  31
HETATM   31  C4  UNL     1      -2.221  51.032 -25.462  1.00  0.00     0.005 C 
HETATM   32  C5  UNL     1      -2.305  52.128 -26.239  1.00  0.00     0.008 C 
BRANCH  32  33
HETATM   33  C6  UNL     1      -1.201  52.775 -27.042  1.00  0.00     0.068 C 
HETATM   34  C7  UNL     1      -0.446  51.708 -27.839  1.00  0.00     0.050 C 
HETATM   35  C8  UNL     1      -0.206  53.623 -26.241  1.00  0.00     0.050 C 
BRANCH  33  36
HETATM   36  O3  UNL     1      -1.844  53.634 -27.987  1.00  0.00    -0.387 OA
HETATM   37  H13 UNL     1      -2.375  54.268 -27.474  1.00  0.00     0.211 HD
ENDBRANCH  33  36
ENDBRANCH  32  33
ENDBRANCH  26  31
ENDBRANCH  24  26
ENDBRANCH   1  24
TORSDOF 7
ENDMDL
MODEL 4
REMARK minimizedAffinity -8.99600697
REMARK  7 active torsions:
REMARK  status: ('A' for Active; 'I' for Inactive)
REMARK    1  A    between atoms: C2_2  and  O2_4 
REMARK    2  A    between atoms: O2_4  and  C3_5 
REMARK    3  A    between atoms: C3_5  and  C4_6 
REMARK    4  A    between atoms: C3_5  and  C9_12 
REMARK    5  A    between atoms: C5_7  and  C6_8 
REMARK    6  A    between atoms: C6_8  and  O3_11 
REMARK    7  A    between atoms: C9_12  and  C11_14 
ROOT
HETATM    1  C11 UNL     1      -0.539  51.348 -22.521  1.00  0.00     0.001 C 
HETATM    2  C12 UNL     1      -0.328  52.121 -21.183  1.00  0.00     0.007 C 
HETATM    3  C13 UNL     1      -1.222  51.472 -20.111  1.00  0.00     0.015 C 
HETATM    4  C14 UNL     1      -1.645  50.126 -20.718  1.00  0.00    -0.013 C 
HETATM    5  C15 UNL     1      -0.479  49.122 -20.459  1.00  0.00     0.021 C 
HETATM    6  C16 UNL     1      -2.892  49.430 -20.176  1.00  0.00    -0.068 C 
HETATM    7  C17 UNL     1      -3.614  48.607 -20.980  1.00  0.00    -0.068 C 
HETATM    8  C18 UNL     1      -3.260  48.436 -22.466  1.00  0.00     0.036 C 
HETATM    9  C19 UNL     1      -2.069  49.249 -23.016  1.00  0.00     0.015 C 
HETATM   10  C20 UNL     1      -1.853  50.546 -22.224  1.00  0.00    -0.029 C 
HETATM   11  C21 UNL     1      -3.089  51.480 -22.430  1.00  0.00     0.016 C 
HETATM   12  C22 UNL     1      -4.848  47.814 -20.462  1.00  0.00    -0.015 C 
HETATM   13  C23 UNL     1      -6.106  48.510 -21.040  1.00  0.00     0.020 C 
HETATM   14  C24 UNL     1      -4.800  46.343 -20.973  1.00  0.00     0.021 C 
HETATM   15  C25 UNL     1      -5.572  45.323 -20.141  1.00  0.00     0.080 C 
HETATM   16  C26 UNL     1      -6.595  45.946 -19.224  1.00  0.00     0.135 C 
HETATM   17  O4  UNL     1      -7.753  45.529 -19.208  1.00  0.00    -0.297 OA
HETATM   18  C27 UNL     1      -6.099  47.033 -18.266  1.00  0.00     0.018 C 
HETATM   19  C28 UNL     1      -7.268  47.978 -17.916  1.00  0.00     0.023 C 
HETATM   20  C29 UNL     1      -5.682  46.318 -16.962  1.00  0.00     0.023 C 
HETATM   21  C30 UNL     1      -4.855  47.755 -18.891  1.00  0.00     0.013 C 
HETATM   22  C31 UNL     1      -4.583  49.138 -18.290  1.00  0.00     0.011 C 
HETATM   23  C32 UNL     1      -3.215  49.658 -18.720  1.00  0.00     0.036 C 
ENDROOT
BRANCH   1  24
HETATM   24  C9  UNL     1      -0.470  52.276 -23.780  1.00  0.00     0.020 C 
HETATM   25  C10 UNL     1      -1.871  52.752 -24.210  1.00  0.00     0.013 C 
BRANCH  24  26
HETATM   26  C3  UNL     1       0.203  51.631 -25.040  1.00  0.00     0.158 C 
BRANCH  26  27
HETATM   27  O2  UNL     1       0.760  52.664 -25.879  1.00  0.00    -0.312 OA
BRANCH  27  28
HETATM   28  C2  UNL     1       1.125  52.302 -27.138  1.00  0.00     0.255 C 
HETATM   29  C1  UNL     1       2.513  51.738 -27.127  1.00  0.00     0.126 C 
HETATM   30  O1  UNL     1       0.427  52.380 -28.139  1.00  0.00    -0.266 OA
ENDBRANCH  27  28
ENDBRANCH  26  27
BRANCH  26  31
HETATM   31  C4  UNL     1      -0.718  50.821 -25.918  1.00  0.00     0.005 C 
HETATM   32  C5  UNL     1      -2.058  50.825 -25.804  1.00  0.00     0.008 C 
BRANCH  32  33
HETATM   33  C6  UNL     1      -3.055  50.044 -26.628  1.00  0.00     0.068 C 
HETATM   34  C7  UNL     1      -2.671  48.562 -26.639  1.00  0.00     0.050 C 
HETATM   35  C8  UNL     1      -3.258  50.537 -28.066  1.00  0.00     0.050 C 
BRANCH  33  36
HETATM   36  O3  UNL     1      -4.308  50.152 -25.949  1.00  0.00    -0.387 OA
HETATM   37  H13 UNL     1      -4.513  51.102 -25.887  1.00  0.00     0.211 HD
ENDBRANCH  33  36
ENDBRANCH  32  33
ENDBRANCH  26  31
ENDBRANCH  24  26
ENDBRANCH   1  24
TORSDOF 7
ENDMDL
MODEL 5
REMARK minimizedAffinity -8.99360085
REMARK  7 active torsions:
REMARK  status: ('A' for Active; 'I' for Inactive)
REMARK    1  A    between atoms: C2_2  and  O2_4 
REMARK    2  A    between atoms: O2_4  and  C3_5 
REMARK    3  A    between atoms: C3_5  and  C4_6 
REMARK    4  A    between atoms: C3_5  and  C9_12 
REMARK    5  A    between atoms: C5_7  and  C6_8 
REMARK    6  A    between atoms: C6_8  and  O3_11 
REMARK    7  A    between atoms: C9_12  and  C11_14 
ROOT
HETATM    1  C11 UNL     1      -1.896  50.792 -22.812  1.00  0.00     0.001 C 
HETATM    2  C12 UNL     1      -1.926  50.399 -24.320  1.00  0.00     0.007 C 
HETATM    3  C13 UNL     1      -3.221  49.608 -24.581  1.00  0.00     0.015 C 
HETATM    4  C14 UNL     1      -4.094  49.870 -23.345  1.00  0.00    -0.013 C 
HETATM    5  C15 UNL     1      -4.800  51.244 -23.569  1.00  0.00     0.021 C 
HETATM    6  C16 UNL     1      -5.224  48.896 -23.017  1.00  0.00    -0.068 C 
HETATM    7  C17 UNL     1      -5.630  48.735 -21.730  1.00  0.00    -0.068 C 
HETATM    8  C18 UNL     1      -4.904  49.441 -20.574  1.00  0.00     0.036 C 
HETATM    9  C19 UNL     1      -3.687  50.323 -20.925  1.00  0.00     0.015 C 
HETATM   10  C20 UNL     1      -2.997  49.852 -22.212  1.00  0.00    -0.029 C 
HETATM   11  C21 UNL     1      -2.392  48.430 -21.975  1.00  0.00     0.016 C 
HETATM   12  C22 UNL     1      -6.822  47.814 -21.345  1.00  0.00    -0.015 C 
HETATM   13  C23 UNL     1      -6.220  46.544 -20.694  1.00  0.00     0.020 C 
HETATM   14  C24 UNL     1      -7.746  48.527 -20.314  1.00  0.00     0.021 C 
HETATM   15  C25 UNL     1      -9.192  48.040 -20.264  1.00  0.00     0.080 C 
HETATM   16  C26 UNL     1      -9.390  46.684 -20.895  1.00  0.00     0.135 C 
HETATM   17  O4  UNL     1      -9.993  45.798 -20.289  1.00  0.00    -0.297 OA
HETATM   18  C27 UNL     1      -8.899  46.508 -22.335  1.00  0.00     0.018 C 
HETATM   19  C28 UNL     1      -8.565  45.022 -22.584  1.00  0.00     0.023 C 
HETATM   20  C29 UNL     1     -10.086  46.871 -23.255  1.00  0.00     0.023 C 
HETATM   21  C30 UNL     1      -7.706  47.488 -22.605  1.00  0.00     0.013 C 
HETATM   22  C31 UNL     1      -6.832  47.077 -23.795  1.00  0.00     0.011 C 
HETATM   23  C32 UNL     1      -5.879  48.202 -24.185  1.00  0.00     0.036 C 
ENDROOT
BRANCH   1  24
HETATM   24  C9  UNL     1      -0.453  50.776 -22.205  1.00  0.00     0.020 C 
HETATM   25  C10 UNL     1      -0.487  50.725 -20.666  1.00  0.00     0.013 C 
BRANCH  24  26
HETATM   26  C3  UNL     1       0.446  51.996 -22.604  1.00  0.00     0.158 C 
BRANCH  26  27
HETATM   27  O2  UNL     1       0.042  53.165 -21.860  1.00  0.00    -0.312 OA
BRANCH  27  28
HETATM   28  C2  UNL     1       1.035  53.934 -21.338  1.00  0.00     0.255 C 
HETATM   29  C1  UNL     1       1.283  53.549 -19.911  1.00  0.00     0.126 C 
HETATM   30  O1  UNL     1       1.671  54.790 -21.934  1.00  0.00    -0.266 OA
ENDBRANCH  27  28
ENDBRANCH  26  27
BRANCH  26  31
HETATM   31  C4  UNL     1       0.397  52.383 -24.061  1.00  0.00     0.005 C 
HETATM   32  C5  UNL     1       1.095  51.758 -25.026  1.00  0.00     0.008 C 
BRANCH  32  33
HETATM   33  C6  UNL     1       1.116  52.078 -26.503  1.00  0.00     0.068 C 
HETATM   34  C7  UNL     1      -0.034  51.352 -27.207  1.00  0.00     0.050 C 
HETATM   35  C8  UNL     1       2.435  51.785 -27.227  1.00  0.00     0.050 C 
BRANCH  33  36
HETATM   36  O3  UNL     1       0.861  53.481 -26.612  1.00  0.00    -0.387 OA
HETATM   37  H13 UNL     1       1.559  53.933 -26.105  1.00  0.00     0.211 HD
ENDBRANCH  33  36
ENDBRANCH  32  33
ENDBRANCH  26  31
ENDBRANCH  24  26
ENDBRANCH   1  24
TORSDOF 7
ENDMDL
MODEL 6
REMARK minimizedAffinity -8.99302006
REMARK  7 active torsions:
REMARK  status: ('A' for Active; 'I' for Inactive)
REMARK    1  A    between atoms: C2_2  and  O2_4 
REMARK    2  A    between atoms: O2_4  and  C3_5 
REMARK    3  A    between atoms: C3_5  and  C4_6 
REMARK    4  A    between atoms: C3_5  and  C9_12 
REMARK    5  A    between atoms: C5_7  and  C6_8 
REMARK    6  A    between atoms: C6_8  and  O3_11 
REMARK    7  A    between atoms: C9_12  and  C11_14 
ROOT
HETATM    1  C11 UNL     1      -1.844  48.546 -18.377  1.00  0.00     0.001 C 
HETATM    2  C12 UNL     1      -2.897  47.542 -18.936  1.00  0.00     0.007 C 
HETATM    3  C13 UNL     1      -3.057  47.808 -20.444  1.00  0.00     0.015 C 
HETATM    4  C14 UNL     1      -1.850  48.681 -20.816  1.00  0.00    -0.013 C 
HETATM    5  C15 UNL     1      -0.641  47.718 -21.037  1.00  0.00     0.021 C 
HETATM    6  C16 UNL     1      -1.913  49.530 -22.083  1.00  0.00    -0.068 C 
HETATM    7  C17 UNL     1      -1.196  50.682 -22.167  1.00  0.00    -0.068 C 
HETATM    8  C18 UNL     1      -0.393  51.206 -20.966  1.00  0.00     0.036 C 
HETATM    9  C19 UNL     1      -0.447  50.389 -19.657  1.00  0.00     0.015 C 
HETATM   10  C20 UNL     1      -1.755  49.598 -19.536  1.00  0.00    -0.029 C 
HETATM   11  C21 UNL     1      -2.948  50.601 -19.418  1.00  0.00     0.016 C 
HETATM   12  C22 UNL     1      -1.164  51.547 -23.458  1.00  0.00    -0.015 C 
HETATM   13  C23 UNL     1      -2.031  52.802 -23.182  1.00  0.00     0.020 C 
HETATM   14  C24 UNL     1       0.294  51.995 -23.774  1.00  0.00     0.021 C 
HETATM   15  C25 UNL     1       0.584  52.342 -25.232  1.00  0.00     0.080 C 
HETATM   16  C26 UNL     1      -0.658  52.612 -26.044  1.00  0.00     0.135 C 
HETATM   17  O4  UNL     1      -0.743  53.628 -26.733  1.00  0.00    -0.297 OA
HETATM   18  C27 UNL     1      -1.742  51.529 -26.040  1.00  0.00     0.018 C 
HETATM   19  C28 UNL     1      -3.114  52.177 -26.316  1.00  0.00     0.023 C 
HETATM   20  C29 UNL     1      -1.432  50.589 -27.226  1.00  0.00     0.023 C 
HETATM   21  C30 UNL     1      -1.671  50.722 -24.698  1.00  0.00     0.013 C 
HETATM   22  C31 UNL     1      -2.965  49.972 -24.364  1.00  0.00     0.011 C 
HETATM   23  C32 UNL     1      -2.744  48.988 -23.220  1.00  0.00     0.036 C 
ENDROOT
BRANCH   1  24
HETATM   24  C9  UNL     1      -2.168  49.026 -16.922  1.00  0.00     0.020 C 
HETATM   25  C10 UNL     1      -2.893  50.385 -16.924  1.00  0.00     0.013 C 
BRANCH  24  26
HETATM   26  C3  UNL     1      -0.924  49.170 -15.981  1.00  0.00     0.158 C 
BRANCH  26  27
HETATM   27  O2  UNL     1      -1.298  48.856 -14.624  1.00  0.00    -0.312 OA
BRANCH  27  28
HETATM   28  C2  UNL     1      -1.180  49.855 -13.707  1.00  0.00     0.255 C 
HETATM   29  C1  UNL     1      -2.529  50.430 -13.400  1.00  0.00     0.126 C 
HETATM   30  O1  UNL     1      -0.144  50.220 -13.171  1.00  0.00    -0.266 OA
ENDBRANCH  27  28
ENDBRANCH  26  27
BRANCH  26  31
HETATM   31  C4  UNL     1      -0.301  50.543 -15.943  1.00  0.00     0.005 C 
HETATM   32  C5  UNL     1       0.965  50.803 -16.319  1.00  0.00     0.008 C 
BRANCH  32  33
HETATM   33  C6  UNL     1       1.674  52.138 -16.307  1.00  0.00     0.068 C 
HETATM   34  C7  UNL     1       1.427  52.867 -17.631  1.00  0.00     0.050 C 
HETATM   35  C8  UNL     1       3.178  52.088 -16.016  1.00  0.00     0.050 C 
BRANCH  33  36
HETATM   36  O3  UNL     1       1.055  52.910 -15.276  1.00  0.00    -0.387 OA
HETATM   37  H13 UNL     1       1.158  52.407 -14.449  1.00  0.00     0.211 HD
ENDBRANCH  33  36
ENDBRANCH  32  33
ENDBRANCH  26  31
ENDBRANCH  24  26
ENDBRANCH   1  24
TORSDOF 7
ENDMDL
MODEL 7
REMARK minimizedAffinity -8.86493969
REMARK  7 active torsions:
REMARK  status: ('A' for Active; 'I' for Inactive)
REMARK    1  A    between atoms: C2_2  and  O2_4 
REMARK    2  A    between atoms: O2_4  and  C3_5 
REMARK    3  A    between atoms: C3_5  and  C4_6 
REMARK    4  A    between atoms: C3_5  and  C9_12 
REMARK    5  A    between atoms: C5_7  and  C6_8 
REMARK    6  A    between atoms: C6_8  and  O3_11 
REMARK    7  A    between atoms: C9_12  and  C11_14 
ROOT
HETATM    1  C11 UNL     1      -1.744  50.964 -21.340  1.00  0.00     0.001 C 
HETATM    2  C12 UNL     1      -1.945  51.407 -19.859  1.00  0.00     0.007 C 
HETATM    3  C13 UNL     1      -3.201  50.703 -19.316  1.00  0.00     0.015 C 
HETATM    4  C14 UNL     1      -3.495  49.590 -20.332  1.00  0.00    -0.013 C 
HETATM    5  C15 UNL     1      -2.571  48.385 -19.970  1.00  0.00     0.021 C 
HETATM    6  C16 UNL     1      -4.903  49.001 -20.399  1.00  0.00    -0.068 C 
HETATM    7  C17 UNL     1      -5.367  48.480 -21.564  1.00  0.00    -0.068 C 
HETATM    8  C18 UNL     1      -4.539  48.560 -22.857  1.00  0.00     0.036 C 
HETATM    9  C19 UNL     1      -3.171  49.272 -22.787  1.00  0.00     0.015 C 
HETATM   10  C20 UNL     1      -3.139  50.332 -21.678  1.00  0.00    -0.029 C 
HETATM   11  C21 UNL     1      -4.151  51.469 -22.032  1.00  0.00     0.016 C 
HETATM   12  C22 UNL     1      -6.762  47.801 -21.672  1.00  0.00    -0.015 C 
HETATM   13  C23 UNL     1      -7.686  48.786 -22.430  1.00  0.00     0.020 C 
HETATM   14  C24 UNL     1      -6.657  46.474 -22.482  1.00  0.00     0.021 C 
HETATM   15  C25 UNL     1      -7.746  45.440 -22.210  1.00  0.00     0.080 C 
HETATM   16  C26 UNL     1      -8.970  46.016 -21.542  1.00  0.00     0.135 C 
HETATM   17  O4  UNL     1     -10.091  45.790 -21.995  1.00  0.00    -0.297 OA
HETATM   18  C27 UNL     1      -8.749  46.797 -20.242  1.00  0.00     0.018 C 
HETATM   19  C28 UNL     1      -9.889  47.822 -20.062  1.00  0.00     0.023 C 
HETATM   20  C29 UNL     1      -8.864  45.777 -19.088  1.00  0.00     0.023 C 
HETATM   21  C30 UNL     1      -7.314  47.427 -20.247  1.00  0.00     0.013 C 
HETATM   22  C31 UNL     1      -7.156  48.601 -19.274  1.00  0.00     0.011 C 
HETATM   23  C32 UNL     1      -5.688  48.978 -19.111  1.00  0.00     0.036 C 
ENDROOT
BRANCH   1  24
HETATM   24  C9  UNL     1      -1.174  52.105 -22.248  1.00  0.00     0.020 C 
HETATM   25  C10 UNL     1      -2.103  52.396 -23.441  1.00  0.00     0.013 C 
BRANCH  24  26
HETATM   26  C3  UNL     1       0.254  51.831 -22.834  1.00  0.00     0.158 C 
BRANCH  26  27
HETATM   27  O2  UNL     1       1.255  52.405 -21.969  1.00  0.00    -0.312 OA
BRANCH  27  28
HETATM   28  C2  UNL     1       1.171  53.743 -21.735  1.00  0.00     0.255 C 
HETATM   29  C1  UNL     1       0.768  53.989 -20.313  1.00  0.00     0.126 C 
HETATM   30  O1  UNL     1       1.420  54.631 -22.538  1.00  0.00    -0.266 OA
ENDBRANCH  27  28
ENDBRANCH  26  27
BRANCH  26  31
HETATM   31  C4  UNL     1       0.505  52.397 -24.209  1.00  0.00     0.005 C 
HETATM   32  C5  UNL     1       0.708  51.642 -25.305  1.00  0.00     0.008 C 
BRANCH  32  33
HETATM   33  C6  UNL     1       0.974  52.118 -26.714  1.00  0.00     0.068 C 
HETATM   34  C7  UNL     1      -0.102  51.573 -27.657  1.00  0.00     0.050 C 
HETATM   35  C8  UNL     1       2.364  51.792 -27.272  1.00  0.00     0.050 C 
BRANCH  33  36
HETATM   36  O3  UNL     1       0.836  53.540 -26.689  1.00  0.00    -0.387 OA
HETATM   37  H13 UNL     1       1.478  53.873 -26.038  1.00  0.00     0.211 HD
ENDBRANCH  33  36
ENDBRANCH  32  33
ENDBRANCH  26  31
ENDBRANCH  24  26
ENDBRANCH   1  24
TORSDOF 7
ENDMDL
MODEL 8
REMARK minimizedAffinity -8.86086369
REMARK  7 active torsions:
REMARK  status: ('A' for Active; 'I' for Inactive)
REMARK    1  A    between atoms: C2_2  and  O2_4 
REMARK    2  A    between atoms: O2_4  and  C3_5 
REMARK    3  A    between atoms: C3_5  and  C4_6 
REMARK    4  A    between atoms: C3_5  and  C9_12 
REMARK    5  A    between atoms: C5_7  and  C6_8 
REMARK    6  A    between atoms: C6_8  and  O3_11 
REMARK    7  A    between atoms: C9_12  and  C11_14 
ROOT
HETATM    1  C11 UNL     1      -0.366  51.800 -17.080  1.00  0.00     0.001 C 
HETATM    2  C12 UNL     1       1.130  52.195 -17.268  1.00  0.00     0.007 C 
HETATM    3  C13 UNL     1       1.378  52.419 -18.771  1.00  0.00     0.015 C 
HETATM    4  C14 UNL     1      -0.024  52.525 -19.388  1.00  0.00    -0.013 C 
HETATM    5  C15 UNL     1      -0.507  53.993 -19.173  1.00  0.00     0.021 C 
HETATM    6  C16 UNL     1      -0.196  52.268 -20.883  1.00  0.00    -0.068 C 
HETATM    7  C17 UNL     1      -1.378  51.797 -21.360  1.00  0.00    -0.068 C 
HETATM    8  C18 UNL     1      -2.524  51.417 -20.409  1.00  0.00     0.036 C 
HETATM    9  C19 UNL     1      -2.277  51.570 -18.894  1.00  0.00     0.015 C 
HETATM   10  C20 UNL     1      -0.789  51.433 -18.544  1.00  0.00    -0.029 C 
HETATM   11  C21 UNL     1      -0.322  49.977 -18.870  1.00  0.00     0.016 C 
HETATM   12  C22 UNL     1      -1.635  51.588 -22.880  1.00  0.00    -0.015 C 
HETATM   13  C23 UNL     1      -1.599  50.061 -23.137  1.00  0.00     0.020 C 
HETATM   14  C24 UNL     1      -3.039  52.137 -23.272  1.00  0.00     0.021 C 
HETATM   15  C25 UNL     1      -3.218  52.524 -24.738  1.00  0.00     0.080 C 
HETATM   16  C26 UNL     1      -2.177  51.922 -25.649  1.00  0.00     0.135 C 
HETATM   17  O4  UNL     1      -2.515  51.330 -26.673  1.00  0.00    -0.297 OA
HETATM   18  C27 UNL     1      -0.709  52.171 -25.289  1.00  0.00     0.018 C 
HETATM   19  C28 UNL     1       0.157  51.026 -25.853  1.00  0.00     0.023 C 
HETATM   20  C29 UNL     1      -0.288  53.467 -26.017  1.00  0.00     0.023 C 
HETATM   21  C30 UNL     1      -0.578  52.373 -23.739  1.00  0.00     0.013 C 
HETATM   22  C31 UNL     1       0.841  52.138 -23.209  1.00  0.00     0.011 C 
HETATM   23  C32 UNL     1       0.971  52.625 -21.770  1.00  0.00     0.036 C 
ENDROOT
BRANCH   1  24
HETATM   24  C9  UNL     1      -0.583  50.759 -15.931  1.00  0.00     0.020 C 
HETATM   25  C10 UNL     1      -1.978  50.111 -16.010  1.00  0.00     0.013 C 
BRANCH  24  26
HETATM   26  C3  UNL     1      -0.425  51.333 -14.481  1.00  0.00     0.158 C 
BRANCH  26  27
HETATM   27  O2  UNL     1       0.318  50.403 -13.666  1.00  0.00    -0.312 OA
BRANCH  27  28
HETATM   28  C2  UNL     1       1.658  50.328 -13.886  1.00  0.00     0.255 C 
HETATM   29  C1  UNL     1       2.089  48.893 -13.938  1.00  0.00     0.126 C 
HETATM   30  O1  UNL     1       2.413  51.274 -14.057  1.00  0.00    -0.266 OA
ENDBRANCH  27  28
ENDBRANCH  26  27
BRANCH  26  31
HETATM   31  C4  UNL     1      -1.716  51.601 -13.750  1.00  0.00     0.005 C 
HETATM   32  C5  UNL     1      -1.806  52.352 -12.637  1.00  0.00     0.008 C 
BRANCH  32  33
HETATM   33  C6  UNL     1      -3.048  52.667 -11.836  1.00  0.00     0.068 C 
HETATM   34  C7  UNL     1      -2.695  53.612 -10.684  1.00  0.00     0.050 C 
HETATM   35  C8  UNL     1      -3.814  51.455 -11.295  1.00  0.00     0.050 C 
BRANCH  33  36
HETATM   36  O3  UNL     1      -3.921  53.379 -12.715  1.00  0.00    -0.387 OA
HETATM   37  H13 UNL     1      -4.087  52.797 -13.478  1.00  0.00     0.211 HD
ENDBRANCH  33  36
ENDBRANCH  32  33
ENDBRANCH  26  31
ENDBRANCH  24  26
ENDBRANCH   1  24
TORSDOF 7
ENDMDL
MODEL 9
REMARK minimizedAffinity -8.81234837
REMARK  7 active torsions:
REMARK  status: ('A' for Active; 'I' for Inactive)
REMARK    1  A    between atoms: C2_2  and  O2_4 
REMARK    2  A    between atoms: O2_4  and  C3_5 
REMARK    3  A    between atoms: C3_5  and  C4_6 
REMARK    4  A    between atoms: C3_5  and  C9_12 
REMARK    5  A    between atoms: C5_7  and  C6_8 
REMARK    6  A    between atoms: C6_8  and  O3_11 
REMARK    7  A    between atoms: C9_12  and  C11_14 
ROOT
HETATM    1  C11 UNL     1      -5.356  48.189 -20.838  1.00  0.00     0.001 C 
HETATM    2  C12 UNL     1      -5.751  47.265 -22.030  1.00  0.00     0.007 C 
HETATM    3  C13 UNL     1      -4.901  47.668 -23.249  1.00  0.00     0.015 C 
HETATM    4  C14 UNL     1      -3.779  48.542 -22.670  1.00  0.00    -0.013 C 
HETATM    5  C15 UNL     1      -2.679  47.574 -22.130  1.00  0.00     0.021 C 
HETATM    6  C16 UNL     1      -3.037  49.503 -23.597  1.00  0.00    -0.068 C 
HETATM    7  C17 UNL     1      -2.485  50.640 -23.097  1.00  0.00    -0.068 C 
HETATM    8  C18 UNL     1      -2.678  51.035 -21.624  1.00  0.00     0.036 C 
HETATM    9  C19 UNL     1      -3.537  50.106 -20.740  1.00  0.00     0.015 C 
HETATM   10  C20 UNL     1      -4.577  49.338 -21.567  1.00  0.00    -0.029 C 
HETATM   11  C21 UNL     1      -5.599  50.355 -22.171  1.00  0.00     0.016 C 
HETATM   12  C22 UNL     1      -1.656  51.617 -23.977  1.00  0.00    -0.015 C 
HETATM   13  C23 UNL     1      -2.544  52.861 -24.228  1.00  0.00     0.020 C 
HETATM   14  C24 UNL     1      -0.362  52.056 -23.229  1.00  0.00     0.021 C 
HETATM   15  C25 UNL     1       0.792  52.525 -24.110  1.00  0.00     0.080 C 
HETATM   16  C26 UNL     1       0.367  52.897 -25.509  1.00  0.00     0.135 C 
HETATM   17  O4  UNL     1       0.710  53.972 -25.999  1.00  0.00    -0.297 OA
HETATM   18  C27 UNL     1      -0.414  51.843 -26.302  1.00  0.00     0.018 C 
HETATM   19  C28 UNL     1      -1.301  52.546 -27.351  1.00  0.00     0.023 C 
HETATM   20  C29 UNL     1       0.631  51.006 -27.074  1.00  0.00     0.023 C 
HETATM   21  C30 UNL     1      -1.200  50.918 -25.311  1.00  0.00     0.013 C 
HETATM   22  C31 UNL     1      -2.369  50.172 -25.965  1.00  0.00     0.011 C 
HETATM   23  C32 UNL     1      -2.906  49.085 -25.040  1.00  0.00     0.036 C 
ENDROOT
BRANCH   1  24
HETATM   24  C9  UNL     1      -6.567  48.544 -19.913  1.00  0.00     0.020 C 
HETATM   25  C10 UNL     1      -7.036  49.996 -20.127  1.00  0.00     0.013 C 
BRANCH  24  26
HETATM   26  C3  UNL     1      -6.300  48.370 -18.378  1.00  0.00     0.158 C 
BRANCH  26  27
HETATM   27  O2  UNL     1      -5.155  47.515 -18.176  1.00  0.00    -0.312 OA
BRANCH  27  28
HETATM   28  C2  UNL     1      -4.008  48.114 -17.758  1.00  0.00     0.255 C 
HETATM   29  C1  UNL     1      -2.822  47.307 -18.191  1.00  0.00     0.126 C 
HETATM   30  O1  UNL     1      -3.929  49.172 -17.151  1.00  0.00    -0.266 OA
ENDBRANCH  27  28
ENDBRANCH  26  27
BRANCH  26  31
HETATM   31  C4  UNL     1      -7.432  47.756 -17.593  1.00  0.00     0.005 C 
HETATM   32  C5  UNL     1      -8.731  48.030 -17.812  1.00  0.00     0.008 C 
BRANCH  32  33
HETATM   33  C6  UNL     1      -9.927  47.473 -17.074  1.00  0.00     0.068 C 
HETATM   34  C7  UNL     1      -9.594  46.084 -16.522  1.00  0.00     0.050 C 
HETATM   35  C8  UNL     1     -11.232  47.413 -17.876  1.00  0.00     0.050 C 
BRANCH  33  36
HETATM   36  O3  UNL     1     -10.142  48.334 -15.954  1.00  0.00    -0.387 OA
HETATM   37  H13 UNL     1     -10.286  49.228 -16.311  1.00  0.00     0.211 HD
ENDBRANCH  33  36
ENDBRANCH  32  33
ENDBRANCH  26  31
ENDBRANCH  24  26
ENDBRANCH   1  24
TORSDOF 7
ENDMDL
