MODEL 1
REMARK minimizedAffinity -10.6805239
REMARK  6 active torsions:
REMARK  status: ('A' for Active; 'I' for Inactive)
REMARK    1  A    between atoms: C3_3  and  O1_4 
REMARK    2  A    between atoms: N1_14  and  O2_16 
REMARK    3  A    between atoms: O2_16  and  C13_17 
REMARK    4  A    between atoms: C13_17  and  C14_18 
REMARK       I    between atoms: C14_18  and  N2_20 
REMARK    5  A    between atoms: N2_20  and  C15_21 
REMARK    6  A    between atoms: C15_21  and  C17_23 
ROOT
HETATM    1  C1  UNL     1      -8.934   5.853  11.969  1.00  0.00     0.015 C 
HETATM    2  C2  UNL     1      -8.444   6.019  13.052  1.00  0.00    -0.078 C 
HETATM    3  C3  UNL     1      -7.832   6.214  14.385  1.00  0.00     0.128 C 
HETATM    4  C4  UNL     1      -7.908   7.710  14.796  1.00  0.00     0.052 C 
HETATM    5  C5  UNL     1      -6.518   8.318  14.511  1.00  0.00     0.010 C 
HETATM    6  C6  UNL     1      -5.749   7.211  13.792  1.00  0.00     0.002 C 
HETATM    7  C7  UNL     1      -4.216   7.267  13.774  1.00  0.00    -0.004 C 
HETATM    8  C8  UNL     1      -3.714   8.581  13.163  1.00  0.00     0.010 C 
HETATM    9  C9  UNL     1      -2.192   8.623  13.151  1.00  0.00     0.035 C 
HETATM   10  C10 UNL     1      -1.593   7.444  12.424  1.00  0.00    -0.069 C 
HETATM   11  C11 UNL     1      -0.623   7.655  11.516  1.00  0.00     0.030 C 
HETATM   12  C12 UNL     1       0.122   6.540  10.879  1.00  0.00     0.032 C 
HETATM   13  N1  UNL     1       1.112   6.854  10.089  1.00  0.00    -0.271 N 
ATOM     14  H1  UNL     1       1.381   7.811   9.864  1.00  0.00     0.194 HD
HETATM   15  C23 UNL     1      -0.258   5.124  11.252  1.00  0.00     0.060 C 
HETATM   16  C24 UNL     1      -1.712   5.035  11.702  1.00  0.00     0.020 C 
HETATM   17  C25 UNL     1      -2.099   6.052  12.816  1.00  0.00    -0.016 C 
HETATM   18  C26 UNL     1      -1.412   5.650  14.141  1.00  0.00     0.020 C 
HETATM   19  C27 UNL     1      -3.674   6.056  12.952  1.00  0.00     0.002 C 
HETATM   20  C28 UNL     1      -4.261   4.715  13.470  1.00  0.00     0.007 C 
HETATM   21  C29 UNL     1      -5.795   4.721  13.597  1.00  0.00     0.014 C 
HETATM   22  C30 UNL     1      -6.302   5.915  14.428  1.00  0.00     0.003 C 
HETATM   23  C31 UNL     1      -5.857   5.711  15.907  1.00  0.00     0.020 C 
ENDROOT
BRANCH   3  24
HETATM   24  O1  UNL     1      -8.549   5.417  15.319  1.00  0.00    -0.377 OA
HETATM   25  H2  UNL     1      -9.493   5.582  15.160  1.00  0.00     0.211 HD
ENDBRANCH   3  24
BRANCH  13  26
HETATM   26  O2  UNL     1       1.763   5.716   9.587  1.00  0.00    -0.271 OA
BRANCH  26  27
HETATM   27  C13 UNL     1       2.800   6.127   8.701  1.00  0.00     0.303 C 
BRANCH  27  28
HETATM   28  C14 UNL     1       3.723   7.118   9.391  1.00  0.00     0.244 C 
HETATM   29  O3  UNL     1       3.754   8.309   9.102  1.00  0.00    -0.271 OA
HETATM   30  N2  UNL     1       4.569   6.539  10.316  1.00  0.00    -0.351 N 
HETATM   31  H16 UNL     1       4.331   5.603  10.633  1.00  0.00     0.163 HD
BRANCH  30  32
HETATM   32  C15 UNL     1       5.496   7.323  11.114  1.00  0.00     0.113 C 
HETATM   33  C16 UNL     1       6.872   6.654  11.209  1.00  0.00     0.037 C 
BRANCH  32  34
HETATM   34  C17 UNL     1       4.920   7.570  12.500  1.00  0.00    -0.036 A 
HETATM   35  C18 UNL     1       3.536   7.686  12.711  1.00  0.00     0.009 A 
HETATM   36  C19 UNL     1       3.024   7.892  13.994  1.00  0.00     0.001 A 
HETATM   37  C20 UNL     1       3.887   7.980  15.085  1.00  0.00     0.000 A 
HETATM   38  C21 UNL     1       5.263   7.876  14.891  1.00  0.00     0.001 A 
HETATM   39  C22 UNL     1       5.776   7.678  13.608  1.00  0.00     0.009 A 
ENDBRANCH  32  34
ENDBRANCH  30  32
ENDBRANCH  27  28
ENDBRANCH  26  27
ENDBRANCH  13  26
TORSDOF 6
ENDMDL
MODEL 2
REMARK minimizedAffinity -10.3931866
REMARK  6 active torsions:
REMARK  status: ('A' for Active; 'I' for Inactive)
REMARK    1  A    between atoms: C3_3  and  O1_4 
REMARK    2  A    between atoms: N1_14  and  O2_16 
REMARK    3  A    between atoms: O2_16  and  C13_17 
REMARK    4  A    between atoms: C13_17  and  C14_18 
REMARK       I    between atoms: C14_18  and  N2_20 
REMARK    5  A    between atoms: N2_20  and  C15_21 
REMARK    6  A    between atoms: C15_21  and  C17_23 
ROOT
HETATM    1  C1  UNL     1       0.102   8.457   8.752  1.00  0.00     0.015 C 
HETATM    2  C2  UNL     1       0.533   7.929   9.740  1.00  0.00    -0.078 C 
HETATM    3  C3  UNL     1       1.057   7.285  10.966  1.00  0.00     0.128 C 
HETATM    4  C4  UNL     1       1.471   5.819  10.667  1.00  0.00     0.052 C 
HETATM    5  C5  UNL     1       0.320   4.923  11.169  1.00  0.00     0.010 C 
HETATM    6  C6  UNL     1      -0.782   5.898  11.578  1.00  0.00     0.002 C 
HETATM    7  C7  UNL     1      -1.871   5.419  12.547  1.00  0.00    -0.004 C 
HETATM    8  C8  UNL     1      -2.596   4.183  12.002  1.00  0.00     0.010 C 
HETATM    9  C9  UNL     1      -3.674   3.719  12.974  1.00  0.00     0.035 C 
HETATM   10  C10 UNL     1      -4.666   4.811  13.291  1.00  0.00    -0.069 C 
HETATM   11  C11 UNL     1      -5.983   4.538  13.241  1.00  0.00     0.030 C 
HETATM   12  C12 UNL     1      -7.010   5.510  13.692  1.00  0.00     0.032 C 
HETATM   13  N1  UNL     1      -8.252   5.111  13.698  1.00  0.00    -0.271 N 
ATOM     14  H1  UNL     1      -8.557   4.189  13.386  1.00  0.00     0.194 HD
HETATM   15  C23 UNL     1      -6.544   6.860  14.192  1.00  0.00     0.060 C 
HETATM   16  C24 UNL     1      -5.206   7.253  13.577  1.00  0.00     0.020 C 
HETATM   17  C25 UNL     1      -4.097   6.170  13.713  1.00  0.00    -0.016 C 
HETATM   18  C26 UNL     1      -3.659   6.066  15.192  1.00  0.00     0.020 C 
HETATM   19  C27 UNL     1      -2.892   6.578  12.775  1.00  0.00     0.002 C 
HETATM   20  C28 UNL     1      -2.174   7.885  13.211  1.00  0.00     0.007 C 
HETATM   21  C29 UNL     1      -1.005   8.282  12.292  1.00  0.00     0.014 C 
HETATM   22  C30 UNL     1      -0.003   7.126  12.099  1.00  0.00     0.003 C 
HETATM   23  C31 UNL     1       0.723   6.872  13.453  1.00  0.00     0.020 C 
ENDROOT
BRANCH   3  24
HETATM   24  O1  UNL     1       2.187   8.029  11.404  1.00  0.00    -0.377 OA
HETATM   25  H2  UNL     1       2.746   8.174  10.623  1.00  0.00     0.211 HD
ENDBRANCH   3  24
BRANCH  13  26
HETATM   26  O2  UNL     1      -9.119   6.101  14.187  1.00  0.00    -0.271 OA
BRANCH  26  27
HETATM   27  C13 UNL     1      -9.882   6.626  13.103  1.00  0.00     0.303 C 
BRANCH  27  28
HETATM   28  C14 UNL     1     -11.127   7.325  13.623  1.00  0.00     0.244 C 
HETATM   29  O3  UNL     1     -11.210   7.772  14.762  1.00  0.00    -0.271 OA
HETATM   30  N2  UNL     1     -12.172   7.344  12.721  1.00  0.00    -0.351 N 
HETATM   31  H16 UNL     1     -11.946   7.142  11.751  1.00  0.00     0.163 HD
BRANCH  30  32
HETATM   32  C15 UNL     1     -13.433   8.004  13.013  1.00  0.00     0.113 C 
HETATM   33  C16 UNL     1     -13.293   9.025  14.146  1.00  0.00     0.037 C 
BRANCH  32  34
HETATM   34  C17 UNL     1     -14.504   6.974  13.345  1.00  0.00    -0.036 A 
HETATM   35  C18 UNL     1     -15.696   6.891  12.607  1.00  0.00     0.009 A 
HETATM   36  C19 UNL     1     -16.659   5.925  12.913  1.00  0.00     0.001 A 
HETATM   37  C20 UNL     1     -16.440   5.027  13.956  1.00  0.00     0.000 A 
HETATM   38  C21 UNL     1     -15.266   5.103  14.702  1.00  0.00     0.001 A 
HETATM   39  C22 UNL     1     -14.307   6.073  14.403  1.00  0.00     0.009 A 
ENDBRANCH  32  34
ENDBRANCH  30  32
ENDBRANCH  27  28
ENDBRANCH  26  27
ENDBRANCH  13  26
TORSDOF 6
ENDMDL
MODEL 3
REMARK minimizedAffinity -10.2078018
REMARK  6 active torsions:
REMARK  status: ('A' for Active; 'I' for Inactive)
REMARK    1  A    between atoms: C3_3  and  O1_4 
REMARK    2  A    between atoms: N1_14  and  O2_16 
REMARK    3  A    between atoms: O2_16  and  C13_17 
REMARK    4  A    between atoms: C13_17  and  C14_18 
REMARK       I    between atoms: C14_18  and  N2_20 
REMARK    5  A    between atoms: N2_20  and  C15_21 
REMARK    6  A    between atoms: C15_21  and  C17_23 
ROOT
HETATM    1  C1  UNL     1       0.183   8.461   8.772  1.00  0.00     0.015 C 
HETATM    2  C2  UNL     1       0.600   7.911   9.754  1.00  0.00    -0.078 C 
HETATM    3  C3  UNL     1       1.106   7.240  10.972  1.00  0.00     0.128 C 
HETATM    4  C4  UNL     1       1.500   5.772  10.651  1.00  0.00     0.052 C 
HETATM    5  C5  UNL     1       0.332   4.885  11.131  1.00  0.00     0.010 C 
HETATM    6  C6  UNL     1      -0.758   5.870  11.549  1.00  0.00     0.002 C 
HETATM    7  C7  UNL     1      -1.861   5.392  12.502  1.00  0.00    -0.004 C 
HETATM    8  C8  UNL     1      -2.601   4.175  11.933  1.00  0.00     0.010 C 
HETATM    9  C9  UNL     1      -3.692   3.712  12.890  1.00  0.00     0.035 C 
HETATM   10  C10 UNL     1      -4.670   4.814  13.218  1.00  0.00    -0.069 C 
HETATM   11  C11 UNL     1      -5.990   4.562  13.155  1.00  0.00     0.030 C 
HETATM   12  C12 UNL     1      -7.005   5.541  13.616  1.00  0.00     0.032 C 
HETATM   13  N1  UNL     1      -8.253   5.161  13.607  1.00  0.00    -0.271 N 
ATOM     14  H1  UNL     1      -8.570   4.249  13.278  1.00  0.00     0.194 HD
HETATM   15  C23 UNL     1      -6.522   6.875  14.141  1.00  0.00     0.060 C 
HETATM   16  C24 UNL     1      -5.175   7.259  13.541  1.00  0.00     0.020 C 
HETATM   17  C25 UNL     1      -4.083   6.157  13.667  1.00  0.00    -0.016 C 
HETATM   18  C26 UNL     1      -3.657   6.022  15.146  1.00  0.00     0.020 C 
HETATM   19  C27 UNL     1      -2.866   6.562  12.743  1.00  0.00     0.002 C 
HETATM   20  C28 UNL     1      -2.131   7.850  13.205  1.00  0.00     0.007 C 
HETATM   21  C29 UNL     1      -0.950   8.245  12.301  1.00  0.00     0.014 C 
HETATM   22  C30 UNL     1       0.035   7.078  12.095  1.00  0.00     0.003 C 
HETATM   23  C31 UNL     1       0.749   6.791  13.450  1.00  0.00     0.020 C 
ENDROOT
BRANCH   3  24
HETATM   24  O1  UNL     1       2.243   7.959  11.430  1.00  0.00    -0.377 OA
HETATM   25  H2  UNL     1       2.810   8.108  10.655  1.00  0.00     0.211 HD
ENDBRANCH   3  24
BRANCH  13  26
HETATM   26  O2  UNL     1      -9.109   6.156  14.106  1.00  0.00    -0.271 OA
BRANCH  26  27
HETATM   27  C13 UNL     1      -9.978   6.587  13.062  1.00  0.00     0.303 C 
BRANCH  27  28
HETATM   28  C14 UNL     1     -11.087   7.460  13.624  1.00  0.00     0.244 C 
HETATM   29  O3  UNL     1     -11.555   7.297  14.747  1.00  0.00    -0.271 OA
HETATM   30  N2  UNL     1     -11.564   8.398  12.731  1.00  0.00    -0.351 N 
HETATM   31  H16 UNL     1     -10.987   8.594  11.919  1.00  0.00     0.163 HD
BRANCH  30  32
HETATM   32  C15 UNL     1     -12.595   9.357  13.093  1.00  0.00     0.113 C 
HETATM   33  C16 UNL     1     -12.552   9.703  14.585  1.00  0.00     0.037 C 
BRANCH  32  34
HETATM   34  C17 UNL     1     -13.967   8.830  12.702  1.00  0.00    -0.036 A 
HETATM   35  C18 UNL     1     -14.946   9.670  12.145  1.00  0.00     0.009 A 
HETATM   36  C19 UNL     1     -16.193   9.165  11.772  1.00  0.00     0.001 A 
HETATM   37  C20 UNL     1     -16.478   7.811  11.945  1.00  0.00     0.000 A 
HETATM   38  C21 UNL     1     -15.522   6.967  12.503  1.00  0.00     0.001 A 
HETATM   39  C22 UNL     1     -14.277   7.473  12.884  1.00  0.00     0.009 A 
ENDBRANCH  32  34
ENDBRANCH  30  32
ENDBRANCH  27  28
ENDBRANCH  26  27
ENDBRANCH  13  26
TORSDOF 6
ENDMDL
MODEL 4
REMARK minimizedAffinity -10.1182308
REMARK  6 active torsions:
REMARK  status: ('A' for Active; 'I' for Inactive)
REMARK    1  A    between atoms: C3_3  and  O1_4 
REMARK    2  A    between atoms: N1_14  and  O2_16 
REMARK    3  A    between atoms: O2_16  and  C13_17 
REMARK    4  A    between atoms: C13_17  and  C14_18 
REMARK       I    between atoms: C14_18  and  N2_20 
REMARK    5  A    between atoms: N2_20  and  C15_21 
REMARK    6  A    between atoms: C15_21  and  C17_23 
ROOT
HETATM    1  C1  UNL     1      -0.097   8.604   8.801  1.00  0.00     0.015 C 
HETATM    2  C2  UNL     1       0.348   8.040   9.763  1.00  0.00    -0.078 C 
HETATM    3  C3  UNL     1       0.889   7.352  10.956  1.00  0.00     0.128 C 
HETATM    4  C4  UNL     1       1.247   5.881  10.612  1.00  0.00     0.052 C 
HETATM    5  C5  UNL     1       0.084   5.010  11.131  1.00  0.00     0.010 C 
HETATM    6  C6  UNL     1      -0.974   6.010  11.597  1.00  0.00     0.002 C 
HETATM    7  C7  UNL     1      -2.046   5.543  12.589  1.00  0.00    -0.004 C 
HETATM    8  C8  UNL     1      -2.827   4.343  12.042  1.00  0.00     0.010 C 
HETATM    9  C9  UNL     1      -3.888   3.890  13.037  1.00  0.00     0.035 C 
HETATM   10  C10 UNL     1      -4.834   5.006  13.410  1.00  0.00    -0.069 C 
HETATM   11  C11 UNL     1      -6.160   4.776  13.396  1.00  0.00     0.030 C 
HETATM   12  C12 UNL     1      -7.140   5.769  13.902  1.00  0.00     0.032 C 
HETATM   13  N1  UNL     1      -8.394   5.409  13.940  1.00  0.00    -0.271 N 
ATOM     14  H1  UNL     1      -8.738   4.504  13.617  1.00  0.00     0.194 HD
HETATM   15  C23 UNL     1      -6.615   7.091  14.416  1.00  0.00     0.060 C 
HETATM   16  C24 UNL     1      -5.286   7.457  13.767  1.00  0.00     0.020 C 
HETATM   17  C25 UNL     1      -4.209   6.336  13.844  1.00  0.00    -0.016 C 
HETATM   18  C26 UNL     1      -3.728   6.184  15.304  1.00  0.00     0.020 C 
HETATM   19  C27 UNL     1      -3.021   6.728  12.876  1.00  0.00     0.002 C 
HETATM   20  C28 UNL     1      -2.248   8.001  13.317  1.00  0.00     0.007 C 
HETATM   21  C29 UNL     1      -1.096   8.382  12.370  1.00  0.00     0.014 C 
HETATM   22  C30 UNL     1      -0.139   7.200  12.119  1.00  0.00     0.003 C 
HETATM   23  C31 UNL     1       0.621   6.892  13.443  1.00  0.00     0.020 C 
ENDROOT
BRANCH   3  24
HETATM   24  O1  UNL     1       2.056   8.050  11.375  1.00  0.00    -0.377 OA
HETATM   25  H2  UNL     1       2.594   8.195  10.579  1.00  0.00     0.211 HD
ENDBRANCH   3  24
BRANCH  13  26
HETATM   26  O2  UNL     1      -9.213   6.414  14.477  1.00  0.00    -0.271 OA
BRANCH  26  27
HETATM   27  C13 UNL     1     -10.208   6.765  13.519  1.00  0.00     0.303 C 
BRANCH  27  28
HETATM   28  C14 UNL     1     -11.485   7.201  14.218  1.00  0.00     0.244 C 
HETATM   29  O3  UNL     1     -11.495   8.018  15.132  1.00  0.00    -0.271 OA
HETATM   30  N2  UNL     1     -12.613   6.539  13.778  1.00  0.00    -0.351 N 
HETATM   31  H16 UNL     1     -12.541   6.044  12.894  1.00  0.00     0.163 HD
BRANCH  30  32
HETATM   32  C15 UNL     1     -13.938   6.844  14.291  1.00  0.00     0.113 C 
HETATM   33  C16 UNL     1     -14.731   5.573  14.614  1.00  0.00     0.037 C 
BRANCH  32  34
HETATM   34  C17 UNL     1     -14.698   7.716  13.303  1.00  0.00    -0.036 A 
HETATM   35  C18 UNL     1     -15.784   7.216  12.565  1.00  0.00     0.009 A 
HETATM   36  C19 UNL     1     -16.484   8.037  11.678  1.00  0.00     0.001 A 
HETATM   37  C20 UNL     1     -16.111   9.371  11.519  1.00  0.00     0.000 A 
HETATM   38  C21 UNL     1     -15.031   9.880  12.237  1.00  0.00     0.001 A 
HETATM   39  C22 UNL     1     -14.326   9.057  13.119  1.00  0.00     0.009 A 
ENDBRANCH  32  34
ENDBRANCH  30  32
ENDBRANCH  27  28
ENDBRANCH  26  27
ENDBRANCH  13  26
TORSDOF 6
ENDMDL
MODEL 5
REMARK minimizedAffinity -9.8417244
REMARK  6 active torsions:
REMARK  status: ('A' for Active; 'I' for Inactive)
REMARK    1  A    between atoms: C3_3  and  O1_4 
REMARK    2  A    between atoms: N1_14  and  O2_16 
REMARK    3  A    between atoms: O2_16  and  C13_17 
REMARK    4  A    between atoms: C13_17  and  C14_18 
REMARK       I    between atoms: C14_18  and  N2_20 
REMARK    5  A    between atoms: N2_20  and  C15_21 
REMARK    6  A    between atoms: C15_21  and  C17_23 
ROOT
HETATM    1  C1  UNL     1       0.017   8.516   8.831  1.00  0.00     0.015 C 
HETATM    2  C2  UNL     1       0.439   7.965   9.810  1.00  0.00    -0.078 C 
HETATM    3  C3  UNL     1       0.952   7.294  11.025  1.00  0.00     0.128 C 
HETATM    4  C4  UNL     1       1.317   5.818  10.709  1.00  0.00     0.052 C 
HETATM    5  C5  UNL     1       0.142   4.954  11.213  1.00  0.00     0.010 C 
HETATM    6  C6  UNL     1      -0.925   5.960  11.640  1.00  0.00     0.002 C 
HETATM    7  C7  UNL     1      -2.020   5.507  12.614  1.00  0.00    -0.004 C 
HETATM    8  C8  UNL     1      -2.789   4.299  12.065  1.00  0.00     0.010 C 
HETATM    9  C9  UNL     1      -3.873   3.860  13.041  1.00  0.00     0.035 C 
HETATM   10  C10 UNL     1      -4.827   4.981  13.377  1.00  0.00    -0.069 C 
HETATM   11  C11 UNL     1      -6.152   4.750  13.335  1.00  0.00     0.030 C 
HETATM   12  C12 UNL     1      -7.144   5.750  13.804  1.00  0.00     0.032 C 
HETATM   13  N1  UNL     1      -8.398   5.390  13.817  1.00  0.00    -0.271 N 
ATOM     14  H1  UNL     1      -8.735   4.481  13.499  1.00  0.00     0.194 HD
HETATM   15  C23 UNL     1      -6.631   7.080  14.312  1.00  0.00     0.060 C 
HETATM   16  C24 UNL     1      -5.287   7.436  13.689  1.00  0.00     0.020 C 
HETATM   17  C25 UNL     1      -4.212   6.317  13.806  1.00  0.00    -0.016 C 
HETATM   18  C26 UNL     1      -3.765   6.185  15.280  1.00  0.00     0.020 C 
HETATM   19  C27 UNL     1      -3.002   6.695  12.862  1.00  0.00     0.002 C 
HETATM   20  C28 UNL     1      -2.240   7.974  13.303  1.00  0.00     0.007 C 
HETATM   21  C29 UNL     1      -1.066   8.343  12.378  1.00  0.00     0.014 C 
HETATM   22  C30 UNL     1      -0.103   7.158  12.165  1.00  0.00     0.003 C 
HETATM   23  C31 UNL     1       0.626   6.868  13.511  1.00  0.00     0.020 C 
ENDROOT
BRANCH   3  24
HETATM   24  O1  UNL     1       2.109   7.998  11.461  1.00  0.00    -0.377 OA
HETATM   25  H2  UNL     1       2.666   8.132  10.676  1.00  0.00     0.211 HD
ENDBRANCH   3  24
BRANCH  13  26
HETATM   26  O2  UNL     1      -9.229   6.403  14.322  1.00  0.00    -0.271 OA
BRANCH  26  27
HETATM   27  C13 UNL     1     -10.238   6.698  13.359  1.00  0.00     0.303 C 
BRANCH  27  28
HETATM   28  C14 UNL     1     -11.168   7.781  13.883  1.00  0.00     0.244 C 
HETATM   29  O3  UNL     1     -11.950   8.390  13.161  1.00  0.00    -0.271 OA
HETATM   30  N2  UNL     1     -10.997   8.060  15.224  1.00  0.00    -0.351 N 
HETATM   31  H16 UNL     1     -10.487   7.375  15.775  1.00  0.00     0.163 HD
BRANCH  30  32
HETATM   32  C15 UNL     1     -11.820   9.032  15.922  1.00  0.00     0.113 C 
HETATM   33  C16 UNL     1     -13.183   9.215  15.246  1.00  0.00     0.037 C 
BRANCH  32  34
HETATM   34  C17 UNL     1     -11.090  10.363  16.030  1.00  0.00    -0.036 A 
HETATM   35  C18 UNL     1     -10.883  10.988  17.271  1.00  0.00     0.009 A 
HETATM   36  C19 UNL     1     -10.191  12.199  17.353  1.00  0.00     0.001 A 
HETATM   37  C20 UNL     1      -9.692  12.799  16.198  1.00  0.00     0.000 A 
HETATM   38  C21 UNL     1      -9.897  12.195  14.960  1.00  0.00     0.001 A 
HETATM   39  C22 UNL     1     -10.595  10.988  14.875  1.00  0.00     0.009 A 
ENDBRANCH  32  34
ENDBRANCH  30  32
ENDBRANCH  27  28
ENDBRANCH  26  27
ENDBRANCH  13  26
TORSDOF 6
ENDMDL
MODEL 6
REMARK minimizedAffinity -9.83290672
REMARK  6 active torsions:
REMARK  status: ('A' for Active; 'I' for Inactive)
REMARK    1  A    between atoms: C3_3  and  O1_4 
REMARK    2  A    between atoms: N1_14  and  O2_16 
REMARK    3  A    between atoms: O2_16  and  C13_17 
REMARK    4  A    between atoms: C13_17  and  C14_18 
REMARK       I    between atoms: C14_18  and  N2_20 
REMARK    5  A    between atoms: N2_20  and  C15_21 
REMARK    6  A    between atoms: C15_21  and  C17_23 
ROOT
HETATM    1  C1  UNL     1      -0.055   8.478   8.905  1.00  0.00     0.015 C 
HETATM    2  C2  UNL     1       0.339   7.916   9.889  1.00  0.00    -0.078 C 
HETATM    3  C3  UNL     1       0.818   7.230  11.110  1.00  0.00     0.128 C 
HETATM    4  C4  UNL     1       1.156   5.747  10.795  1.00  0.00     0.052 C 
HETATM    5  C5  UNL     1      -0.046   4.908  11.277  1.00  0.00     0.010 C 
HETATM    6  C6  UNL     1      -1.098   5.936  11.690  1.00  0.00     0.002 C 
HETATM    7  C7  UNL     1      -2.219   5.504  12.644  1.00  0.00    -0.004 C 
HETATM    8  C8  UNL     1      -3.005   4.315  12.079  1.00  0.00     0.010 C 
HETATM    9  C9  UNL     1      -4.114   3.897  13.036  1.00  0.00     0.035 C 
HETATM   10  C10 UNL     1      -5.049   5.037  13.360  1.00  0.00    -0.069 C 
HETATM   11  C11 UNL     1      -6.377   4.836  13.296  1.00  0.00     0.030 C 
HETATM   12  C12 UNL     1      -7.355   5.856  13.752  1.00  0.00     0.032 C 
HETATM   13  N1  UNL     1      -8.617   5.524  13.743  1.00  0.00    -0.271 N 
ATOM     14  H1  UNL     1      -8.968   4.623  13.417  1.00  0.00     0.194 HD
HETATM   15  C23 UNL     1      -6.821   7.172  14.272  1.00  0.00     0.060 C 
HETATM   16  C24 UNL     1      -5.460   7.501  13.672  1.00  0.00     0.020 C 
HETATM   17  C25 UNL     1      -4.411   6.358  13.803  1.00  0.00    -0.016 C 
HETATM   18  C26 UNL     1      -3.992   6.212  15.284  1.00  0.00     0.020 C 
HETATM   19  C27 UNL     1      -3.178   6.713  12.880  1.00  0.00     0.002 C 
HETATM   20  C28 UNL     1      -2.395   7.973  13.338  1.00  0.00     0.007 C 
HETATM   21  C29 UNL     1      -1.199   8.319  12.433  1.00  0.00     0.014 C 
HETATM   22  C30 UNL     1      -0.259   7.114  12.233  1.00  0.00     0.003 C 
HETATM   23  C31 UNL     1       0.442   6.805  13.589  1.00  0.00     0.020 C 
ENDROOT
BRANCH   3  24
HETATM   24  O1  UNL     1       1.982   7.907  11.567  1.00  0.00    -0.377 OA
HETATM   25  H2  UNL     1       2.555   8.031  10.792  1.00  0.00     0.211 HD
ENDBRANCH   3  24
BRANCH  13  26
HETATM   26  O2  UNL     1      -9.433   6.553  14.237  1.00  0.00    -0.271 OA
BRANCH  26  27
HETATM   27  C13 UNL     1     -10.417   6.876  13.258  1.00  0.00     0.303 C 
BRANCH  27  28
HETATM   28  C14 UNL     1     -11.200   8.108  13.681  1.00  0.00     0.244 C 
HETATM   29  O3  UNL     1     -12.361   8.306  13.339  1.00  0.00    -0.271 OA
HETATM   30  N2  UNL     1     -10.461   9.010  14.420  1.00  0.00    -0.351 N 
HETATM   31  H16 UNL     1      -9.592   8.671  14.823  1.00  0.00     0.163 HD
BRANCH  30  32
HETATM   32  C15 UNL     1     -11.041  10.230  14.956  1.00  0.00     0.113 C 
HETATM   33  C16 UNL     1     -10.028  11.378  14.982  1.00  0.00     0.037 C 
BRANCH  32  34
HETATM   34  C17 UNL     1     -11.607   9.978  16.346  1.00  0.00    -0.036 A 
HETATM   35  C18 UNL     1     -10.770   9.710  17.442  1.00  0.00     0.009 A 
HETATM   36  C19 UNL     1     -11.305   9.503  18.715  1.00  0.00     0.001 A 
HETATM   37  C20 UNL     1     -12.684   9.566  18.912  1.00  0.00     0.000 A 
HETATM   38  C21 UNL     1     -13.527   9.823  17.834  1.00  0.00     0.001 A 
HETATM   39  C22 UNL     1     -12.994  10.022  16.558  1.00  0.00     0.009 A 
ENDBRANCH  32  34
ENDBRANCH  30  32
ENDBRANCH  27  28
ENDBRANCH  26  27
ENDBRANCH  13  26
TORSDOF 6
ENDMDL
MODEL 7
REMARK minimizedAffinity -9.62266922
REMARK  6 active torsions:
REMARK  status: ('A' for Active; 'I' for Inactive)
REMARK    1  A    between atoms: C3_3  and  O1_4 
REMARK    2  A    between atoms: N1_14  and  O2_16 
REMARK    3  A    between atoms: O2_16  and  C13_17 
REMARK    4  A    between atoms: C13_17  and  C14_18 
REMARK       I    between atoms: C14_18  and  N2_20 
REMARK    5  A    between atoms: N2_20  and  C15_21 
REMARK    6  A    between atoms: C15_21  and  C17_23 
ROOT
HETATM    1  C1  UNL     1      -8.581   5.605  11.998  1.00  0.00     0.015 C 
HETATM    2  C2  UNL     1      -8.092   5.801  13.077  1.00  0.00    -0.078 C 
HETATM    3  C3  UNL     1      -7.480   6.032  14.404  1.00  0.00     0.128 C 
HETATM    4  C4  UNL     1      -7.745   7.490  14.869  1.00  0.00     0.052 C 
HETATM    5  C5  UNL     1      -6.457   8.288  14.580  1.00  0.00     0.010 C 
HETATM    6  C6  UNL     1      -5.564   7.318  13.807  1.00  0.00     0.002 C 
HETATM    7  C7  UNL     1      -4.053   7.580  13.762  1.00  0.00    -0.004 C 
HETATM    8  C8  UNL     1      -3.746   8.969  13.188  1.00  0.00     0.010 C 
HETATM    9  C9  UNL     1      -2.243   9.215  13.149  1.00  0.00     0.035 C 
HETATM   10  C10 UNL     1      -1.510   8.151  12.368  1.00  0.00    -0.069 C 
HETATM   11  C11 UNL     1      -0.598   8.521  11.450  1.00  0.00     0.030 C 
HETATM   12  C12 UNL     1       0.273   7.537  10.761  1.00  0.00     0.032 C 
HETATM   13  N1  UNL     1       1.194   8.006   9.963  1.00  0.00    -0.271 N 
ATOM     14  H1  UNL     1       1.327   8.998   9.767  1.00  0.00     0.194 HD
HETATM   15  C23 UNL     1       0.094   6.071  11.090  1.00  0.00     0.060 C 
HETATM   16  C24 UNL     1      -1.323   5.773  11.564  1.00  0.00     0.020 C 
HETATM   17  C25 UNL     1      -1.816   6.692  12.720  1.00  0.00    -0.016 C 
HETATM   18  C26 UNL     1      -1.051   6.343  14.017  1.00  0.00     0.020 C 
HETATM   19  C27 UNL     1      -3.373   6.480  12.887  1.00  0.00     0.002 C 
HETATM   20  C28 UNL     1      -3.764   5.056  13.368  1.00  0.00     0.007 C 
HETATM   21  C29 UNL     1      -5.282   4.852  13.524  1.00  0.00     0.014 C 
HETATM   22  C30 UNL     1      -5.923   5.940  14.407  1.00  0.00     0.003 C 
HETATM   23  C31 UNL     1      -5.421   5.749  15.869  1.00  0.00     0.020 C 
ENDROOT
BRANCH   3  24
HETATM   24  O1  UNL     1      -8.062   5.116  15.322  1.00  0.00    -0.377 OA
HETATM   25  H2  UNL     1      -9.024   5.158  15.187  1.00  0.00     0.211 HD
ENDBRANCH   3  24
BRANCH  13  26
HETATM   26  O2  UNL     1       1.978   6.983   9.408  1.00  0.00    -0.271 OA
BRANCH  26  27
HETATM   27  C13 UNL     1       3.279   7.495   9.129  1.00  0.00     0.303 C 
BRANCH  27  28
HETATM   28  C14 UNL     1       4.262   7.055  10.202  1.00  0.00     0.244 C 
HETATM   29  O3  UNL     1       4.639   5.893  10.320  1.00  0.00    -0.271 OA
HETATM   30  N2  UNL     1       4.629   8.064  11.068  1.00  0.00    -0.351 N 
HETATM   31  H16 UNL     1       4.436   9.017  10.772  1.00  0.00     0.163 HD
BRANCH  30  32
HETATM   32  C15 UNL     1       5.594   7.856  12.135  1.00  0.00     0.113 C 
HETATM   33  C16 UNL     1       4.914   7.734  13.502  1.00  0.00     0.037 C 
BRANCH  32  34
HETATM   34  C17 UNL     1       6.622   8.977  12.142  1.00  0.00    -0.036 A 
HETATM   35  C18 UNL     1       7.560   9.106  13.181  1.00  0.00     0.009 A 
HETATM   36  C19 UNL     1       8.511  10.130  13.161  1.00  0.00     0.001 A 
HETATM   37  C20 UNL     1       8.541  11.035  12.101  1.00  0.00     0.000 A 
HETATM   38  C21 UNL     1       7.612  10.924  11.068  1.00  0.00     0.001 A 
HETATM   39  C22 UNL     1       6.656   9.907  11.091  1.00  0.00     0.009 A 
ENDBRANCH  32  34
ENDBRANCH  30  32
ENDBRANCH  27  28
ENDBRANCH  26  27
ENDBRANCH  13  26
TORSDOF 6
ENDMDL
MODEL 8
REMARK minimizedAffinity -9.39554405
REMARK  6 active torsions:
REMARK  status: ('A' for Active; 'I' for Inactive)
REMARK    1  A    between atoms: C3_3  and  O1_4 
REMARK    2  A    between atoms: N1_14  and  O2_16 
REMARK    3  A    between atoms: O2_16  and  C13_17 
REMARK    4  A    between atoms: C13_17  and  C14_18 
REMARK       I    between atoms: C14_18  and  N2_20 
REMARK    5  A    between atoms: N2_20  and  C15_21 
REMARK    6  A    between atoms: C15_21  and  C17_23 
ROOT
HETATM    1  C1  UNL     1      -0.478   8.523  10.459  1.00  0.00     0.015 C 
HETATM    2  C2  UNL     1      -0.313   7.754  11.367  1.00  0.00    -0.078 C 
HETATM    3  C3  UNL     1      -0.118   6.815  12.493  1.00  0.00     0.128 C 
HETATM    4  C4  UNL     1       0.105   5.374  11.958  1.00  0.00     0.052 C 
HETATM    5  C5  UNL     1      -1.242   4.636  12.099  1.00  0.00     0.010 C 
HETATM    6  C6  UNL     1      -2.231   5.713  12.543  1.00  0.00     0.002 C 
HETATM    7  C7  UNL     1      -3.533   5.282  13.231  1.00  0.00    -0.004 C 
HETATM    8  C8  UNL     1      -4.339   4.322  12.347  1.00  0.00     0.010 C 
HETATM    9  C9  UNL     1      -5.628   3.903  13.042  1.00  0.00     0.035 C 
HETATM   10  C10 UNL     1      -6.475   5.089  13.438  1.00  0.00    -0.069 C 
HETATM   11  C11 UNL     1      -7.789   5.083  13.150  1.00  0.00     0.030 C 
HETATM   12  C12 UNL     1      -8.712   6.134  13.645  1.00  0.00     0.032 C 
HETATM   13  N1  UNL     1      -9.984   5.982  13.396  1.00  0.00    -0.271 N 
ATOM     14  H1  UNL     1     -10.372   5.205  12.860  1.00  0.00     0.194 HD
HETATM   15  C23 UNL     1      -8.133   7.260  14.473  1.00  0.00     0.060 C 
HETATM   16  C24 UNL     1      -6.664   7.498  14.144  1.00  0.00     0.020 C 
HETATM   17  C25 UNL     1      -5.781   6.218  14.207  1.00  0.00    -0.016 C 
HETATM   18  C26 UNL     1      -5.628   5.769  15.678  1.00  0.00     0.020 C 
HETATM   19  C27 UNL     1      -4.382   6.552  13.550  1.00  0.00     0.002 C 
HETATM   20  C28 UNL     1      -3.553   7.600  14.342  1.00  0.00     0.007 C 
HETATM   21  C29 UNL     1      -2.195   7.928  13.697  1.00  0.00     0.014 C 
HETATM   22  C30 UNL     1      -1.370   6.658  13.410  1.00  0.00     0.003 C 
HETATM   23  C31 UNL     1      -0.939   6.033  14.770  1.00  0.00     0.020 C 
ENDROOT
BRANCH   3  24
HETATM   24  O1  UNL     1       1.022   7.241  13.229  1.00  0.00    -0.377 OA
HETATM   25  H2  UNL     1       1.724   7.416  12.580  1.00  0.00     0.211 HD
ENDBRANCH   3  24
BRANCH  13  26
HETATM   26  O2  UNL     1     -10.755   7.014  13.953  1.00  0.00    -0.271 OA
BRANCH  26  27
HETATM   27  C13 UNL     1     -11.578   7.580  12.935  1.00  0.00     0.303 C 
BRANCH  27  28
HETATM   28  C14 UNL     1     -12.962   7.886  13.484  1.00  0.00     0.244 C 
HETATM   29  O3  UNL     1     -13.486   8.990  13.384  1.00  0.00    -0.271 OA
HETATM   30  N2  UNL     1     -13.537   6.831  14.163  1.00  0.00    -0.351 N 
HETATM   31  H16 UNL     1     -13.128   5.912  14.016  1.00  0.00     0.163 HD
BRANCH  30  32
HETATM   32  C15 UNL     1     -14.875   6.909  14.724  1.00  0.00     0.113 C 
HETATM   33  C16 UNL     1     -14.851   6.923  16.256  1.00  0.00     0.037 C 
BRANCH  32  34
HETATM   34  C17 UNL     1     -15.731   5.761  14.209  1.00  0.00    -0.036 A 
HETATM   35  C18 UNL     1     -15.658   4.478  14.777  1.00  0.00     0.009 A 
HETATM   36  C19 UNL     1     -16.466   3.441  14.305  1.00  0.00     0.001 A 
HETATM   37  C20 UNL     1     -17.362   3.673  13.263  1.00  0.00     0.000 A 
HETATM   38  C21 UNL     1     -17.440   4.938  12.683  1.00  0.00     0.001 A 
HETATM   39  C22 UNL     1     -16.626   5.973  13.149  1.00  0.00     0.009 A 
ENDBRANCH  32  34
ENDBRANCH  30  32
ENDBRANCH  27  28
ENDBRANCH  26  27
ENDBRANCH  13  26
TORSDOF 6
ENDMDL
MODEL 9
REMARK minimizedAffinity -9.38920307
REMARK  6 active torsions:
REMARK  status: ('A' for Active; 'I' for Inactive)
REMARK    1  A    between atoms: C3_3  and  O1_4 
REMARK    2  A    between atoms: N1_14  and  O2_16 
REMARK    3  A    between atoms: O2_16  and  C13_17 
REMARK    4  A    between atoms: C13_17  and  C14_18 
REMARK       I    between atoms: C14_18  and  N2_20 
REMARK    5  A    between atoms: N2_20  and  C15_21 
REMARK    6  A    between atoms: C15_21  and  C17_23 
ROOT
HETATM    1  C1  UNL     1       6.601   5.484  10.935  1.00  0.00     0.015 C 
HETATM    2  C2  UNL     1       6.582   6.625  11.307  1.00  0.00    -0.078 C 
HETATM    3  C3  UNL     1       6.547   8.034  11.760  1.00  0.00     0.128 C 
HETATM    4  C4  UNL     1       7.284   8.178  13.119  1.00  0.00     0.052 C 
HETATM    5  C5  UNL     1       6.194   8.218  14.211  1.00  0.00     0.010 C 
HETATM    6  C6  UNL     1       4.890   7.924  13.471  1.00  0.00     0.002 C 
HETATM    7  C7  UNL     1       3.563   8.340  14.117  1.00  0.00    -0.004 C 
HETATM    8  C8  UNL     1       3.399   7.711  15.506  1.00  0.00     0.010 C 
HETATM    9  C9  UNL     1       2.077   8.131  16.136  1.00  0.00     0.035 C 
HETATM   10  C10 UNL     1       0.894   7.791  15.263  1.00  0.00    -0.069 C 
HETATM   11  C11 UNL     1      -0.172   7.179  15.810  1.00  0.00     0.030 C 
HETATM   12  C12 UNL     1      -1.431   6.958  15.055  1.00  0.00     0.032 C 
HETATM   13  N1  UNL     1      -2.440   6.448  15.707  1.00  0.00    -0.271 N 
ATOM     14  H1  UNL     1      -2.404   6.170  16.687  1.00  0.00     0.194 HD
HETATM   15  C23 UNL     1      -1.487   7.412  13.613  1.00  0.00     0.060 C 
HETATM   16  C24 UNL     1      -0.101   7.432  12.978  1.00  0.00     0.020 C 
HETATM   17  C25 UNL     1       0.963   8.223  13.794  1.00  0.00    -0.016 C 
HETATM   18  C26 UNL     1       0.645   9.734  13.726  1.00  0.00     0.020 C 
HETATM   19  C27 UNL     1       2.387   7.898  13.190  1.00  0.00     0.002 C 
HETATM   20  C28 UNL     1       2.586   8.419  11.740  1.00  0.00     0.007 C 
HETATM   21  C29 UNL     1       3.972   8.096  11.154  1.00  0.00     0.014 C 
HETATM   22  C30 UNL     1       5.113   8.559  12.080  1.00  0.00     0.003 C 
HETATM   23  C31 UNL     1       5.128  10.116  12.103  1.00  0.00     0.020 C 
ENDROOT
BRANCH   3  24
HETATM   24  O1  UNL     1       7.189   8.829  10.772  1.00  0.00    -0.377 OA
HETATM   25  H2  UNL     1       8.024   8.382  10.554  1.00  0.00     0.211 HD
ENDBRANCH   3  24
BRANCH  13  26
HETATM   26  O2  UNL     1      -3.581   6.330  14.898  1.00  0.00    -0.271 OA
BRANCH  26  27
HETATM   27  C13 UNL     1      -4.739   6.592  15.687  1.00  0.00     0.303 C 
BRANCH  27  28
HETATM   28  C14 UNL     1      -5.965   5.954  15.055  1.00  0.00     0.244 C 
HETATM   29  O3  UNL     1      -6.827   5.380  15.711  1.00  0.00    -0.271 OA
HETATM   30  N2  UNL     1      -5.977   6.017  13.676  1.00  0.00    -0.351 N 
HETATM   31  H16 UNL     1      -5.342   6.681  13.241  1.00  0.00     0.163 HD
BRANCH  30  32
HETATM   32  C15 UNL     1      -7.084   5.503  12.888  1.00  0.00     0.113 C 
HETATM   33  C16 UNL     1      -8.416   5.610  13.638  1.00  0.00     0.037 C 
BRANCH  32  34
HETATM   34  C17 UNL     1      -6.814   4.065  12.472  1.00  0.00    -0.036 A 
HETATM   35  C18 UNL     1      -5.695   3.723  11.694  1.00  0.00     0.009 A 
HETATM   36  C19 UNL     1      -5.451   2.394  11.340  1.00  0.00     0.001 A 
HETATM   37  C20 UNL     1      -6.318   1.388  11.763  1.00  0.00     0.000 A 
HETATM   38  C21 UNL     1      -7.435   1.712  12.529  1.00  0.00     0.001 A 
HETATM   39  C22 UNL     1      -7.685   3.041  12.877  1.00  0.00     0.009 A 
ENDBRANCH  32  34
ENDBRANCH  30  32
ENDBRANCH  27  28
ENDBRANCH  26  27
ENDBRANCH  13  26
TORSDOF 6
ENDMDL
