MODEL 1
REMARK minimizedAffinity -7.62753344
REMARK CNNscore 0.5457623
REMARK CNNaffinity 6.49492788
REMARK  8 active torsions:
REMARK  status: ('A' for Active; 'I' for Inactive)
REMARK    1  A    between atoms: C4_4  and  C5_5 
REMARK    2  A    between atoms: C5_5  and  C6_6 
REMARK    3  A    between atoms: C6_6  and  C7_7 
REMARK    4  A    between atoms: C9_9  and  C10_10 
REMARK    5  A    between atoms: C11_11  and  C12_12 
REMARK    6  A    between atoms: C14_14  and  C15_15 
REMARK    7  A    between atoms: C24_25  and  C26_27 
REMARK    8  A    between atoms: C29_31  and  O3_33 
ROOT
HETATM    1  C15 UNL     1      -0.599  51.023 -13.737  1.00  0.00     0.149 C 
HETATM    2  C16 UNL     1      -1.101  52.108 -12.776  1.00  0.00     0.054 C 
HETATM    3  C17 UNL     1      -2.212  51.396 -11.970  1.00  0.00     0.050 C 
HETATM    4  C18 UNL     1      -2.783  50.547 -13.122  1.00  0.00     0.272 C 
HETATM    5  O1  UNL     1      -3.737  49.574 -12.754  1.00  0.00    -0.360 OA
HETATM    6  C19 UNL     1      -3.260  48.270 -12.499  1.00  0.00     0.171 C 
HETATM    7  C20 UNL     1      -2.312  48.138 -11.317  1.00  0.00     0.027 C 
HETATM    8  C21 UNL     1      -2.315  49.304 -10.329  1.00  0.00     0.012 C 
HETATM    9  C22 UNL     1      -1.515  50.510 -10.860  1.00  0.00     0.032 C 
HETATM   10  C23 UNL     1      -0.987  51.369  -9.691  1.00  0.00    -0.066 C 
HETATM   11  C24 UNL     1       0.288  51.351  -9.223  1.00  0.00    -0.021 C 
HETATM   12  C25 UNL     1       0.864  52.267  -8.172  1.00  0.00     0.052 C 
HETATM   13  C27 UNL     1      -2.060  52.266  -9.114  1.00  0.00     0.038 C 
HETATM   14  C28 UNL     1      -2.636  53.183 -10.187  1.00  0.00     0.042 C 
HETATM   15  C29 UNL     1      -3.263  52.384 -11.344  1.00  0.00     0.067 C 
HETATM   16  C30 UNL     1      -3.903  53.378 -12.329  1.00  0.00     0.047 C 
HETATM   17  O4  UNL     1      -1.661  50.058 -13.869  1.00  0.00    -0.351 OA
ENDROOT
BRANCH   1  18
HETATM   18  C14 UNL     1      -0.268  51.557 -15.100  1.00  0.00     0.011 C 
HETATM   19  C12 UNL     1       0.184  50.864 -16.166  1.00  0.00    -0.063 C 
HETATM   20  C13 UNL     1       0.483  49.385 -16.129  1.00  0.00     0.048 C 
BRANCH  19  21
HETATM   21  C11 UNL     1       0.423  51.581 -17.419  1.00  0.00     0.006 C 
HETATM   22  C10 UNL     1      -0.207  51.377 -18.589  1.00  0.00     0.001 C 
BRANCH  22  23
HETATM   23  C9  UNL     1       0.117  52.127 -19.788  1.00  0.00     0.002 C 
HETATM   24  C7  UNL     1      -0.038  51.724 -21.068  1.00  0.00    -0.084 C 
HETATM   25  C8  UNL     1      -0.643  50.405 -21.485  1.00  0.00     0.043 C 
BRANCH  24  26
HETATM   26  C6  UNL     1       0.380  52.569 -22.270  1.00  0.00     0.037 C 
BRANCH  26  27
HETATM   27  C5  UNL     1      -0.206  52.207 -23.643  1.00  0.00     0.031 C 
BRANCH  27  28
HETATM   28  C4  UNL     1       0.862  52.171 -24.705  1.00  0.00    -0.024 C 
HETATM   29  C2  UNL     1       0.817  51.551 -25.902  1.00  0.00    -0.091 C 
HETATM   30  C1  UNL     1       1.968  51.660 -26.866  1.00  0.00     0.042 C 
HETATM   31  C3  UNL     1      -0.327  50.708 -26.396  1.00  0.00     0.042 C 
ENDBRANCH  27  28
ENDBRANCH  26  27
ENDBRANCH  24  26
ENDBRANCH  22  23
ENDBRANCH  19  21
ENDBRANCH   1  18
BRANCH  15  32
HETATM   32  O3  UNL     1      -4.348  51.629 -10.790  1.00  0.00    -0.389 OA
HETATM   33  H44 UNL     1      -5.024  52.241 -10.454  1.00  0.00     0.210 HD
ENDBRANCH  15  32
BRANCH  11  34
HETATM   34  C26 UNL     1       1.302  50.355  -9.710  1.00  0.00     0.265 C 
HETATM   35  O2  UNL     1       1.763  50.378 -10.846  1.00  0.00    -0.302 OA
ENDBRANCH  11  34
TORSDOF 8
ENDMDL
MODEL 2
REMARK minimizedAffinity -8.06298256
REMARK CNNscore 0.523258388
REMARK CNNaffinity 6.41470385
REMARK  8 active torsions:
REMARK  status: ('A' for Active; 'I' for Inactive)
REMARK    1  A    between atoms: C4_4  and  C5_5 
REMARK    2  A    between atoms: C5_5  and  C6_6 
REMARK    3  A    between atoms: C6_6  and  C7_7 
REMARK    4  A    between atoms: C9_9  and  C10_10 
REMARK    5  A    between atoms: C11_11  and  C12_12 
REMARK    6  A    between atoms: C14_14  and  C15_15 
REMARK    7  A    between atoms: C24_25  and  C26_27 
REMARK    8  A    between atoms: C29_31  and  O3_33 
ROOT
HETATM    1  C15 UNL     1      -8.009  46.995 -26.001  1.00  0.00     0.149 C 
HETATM    2  C16 UNL     1      -8.154  46.692 -27.497  1.00  0.00     0.054 C 
HETATM    3  C17 UNL     1      -8.916  45.346 -27.525  1.00  0.00     0.050 C 
HETATM    4  C18 UNL     1      -8.239  44.707 -26.298  1.00  0.00     0.272 C 
HETATM    5  O1  UNL     1      -8.801  43.494 -25.847  1.00  0.00    -0.360 OA
HETATM    6  C19 UNL     1      -9.774  43.574 -24.828  1.00  0.00     0.171 C 
HETATM    7  C20 UNL     1     -11.053  44.311 -25.199  1.00  0.00     0.027 C 
HETATM    8  C21 UNL     1     -11.299  44.503 -26.695  1.00  0.00     0.012 C 
HETATM    9  C22 UNL     1     -10.448  45.650 -27.275  1.00  0.00     0.032 C 
HETATM   10  C23 UNL     1     -11.124  46.249 -28.527  1.00  0.00    -0.066 C 
HETATM   11  C24 UNL     1     -11.828  47.410 -28.554  1.00  0.00    -0.021 C 
HETATM   12  C25 UNL     1     -12.388  48.083 -29.782  1.00  0.00     0.052 C 
HETATM   13  C27 UNL     1     -10.905  45.392 -29.755  1.00  0.00     0.038 C 
HETATM   14  C28 UNL     1      -9.417  45.209 -30.032  1.00  0.00     0.042 C 
HETATM   15  C29 UNL     1      -8.698  44.530 -28.851  1.00  0.00     0.067 C 
HETATM   16  C30 UNL     1      -7.230  44.296 -29.249  1.00  0.00     0.047 C 
HETATM   17  O4  UNL     1      -8.125  45.738 -25.306  1.00  0.00    -0.351 OA
ENDROOT
BRANCH   1  18
HETATM   18  C14 UNL     1      -6.685  47.611 -25.655  1.00  0.00     0.011 C 
HETATM   19  C12 UNL     1      -5.689  47.947 -26.501  1.00  0.00    -0.063 C 
HETATM   20  C13 UNL     1      -5.743  47.697 -27.988  1.00  0.00     0.048 C 
BRANCH  19  21
HETATM   21  C11 UNL     1      -4.481  48.563 -25.952  1.00  0.00     0.006 C 
HETATM   22  C10 UNL     1      -3.399  48.959 -26.646  1.00  0.00     0.001 C 
BRANCH  22  23
HETATM   23  C9  UNL     1      -2.235  49.542 -26.007  1.00  0.00     0.002 C 
HETATM   24  C7  UNL     1      -2.219  50.372 -24.942  1.00  0.00    -0.084 C 
HETATM   25  C8  UNL     1      -3.446  50.807 -24.176  1.00  0.00     0.043 C 
BRANCH  24  26
HETATM   26  C6  UNL     1      -0.940  50.977 -24.368  1.00  0.00     0.037 C 
BRANCH  26  27
HETATM   27  C5  UNL     1      -0.395  52.259 -25.016  1.00  0.00     0.031 C 
BRANCH  27  28
HETATM   28  C4  UNL     1       0.958  52.029 -25.636  1.00  0.00    -0.024 C 
HETATM   29  C2  UNL     1       1.249  51.845 -26.940  1.00  0.00    -0.091 C 
HETATM   30  C1  UNL     1       2.676  51.674 -27.391  1.00  0.00     0.042 C 
HETATM   31  C3  UNL     1       0.237  51.780 -28.051  1.00  0.00     0.042 C 
ENDBRANCH  27  28
ENDBRANCH  26  27
ENDBRANCH  24  26
ENDBRANCH  22  23
ENDBRANCH  19  21
ENDBRANCH   1  18
BRANCH  15  32
HETATM   32  O3  UNL     1      -9.276  43.227 -28.703  1.00  0.00    -0.389 OA
HETATM   33  H44 UNL     1      -9.092  42.704 -29.501  1.00  0.00     0.210 HD
ENDBRANCH  15  32
BRANCH  11  34
HETATM   34  C26 UNL     1     -12.156  48.173 -27.303  1.00  0.00     0.265 C 
HETATM   35  O2  UNL     1     -13.116  47.898 -26.590  1.00  0.00    -0.302 OA
ENDBRANCH  11  34
TORSDOF 8
ENDMDL
MODEL 3
REMARK minimizedAffinity -7.07641888
REMARK CNNscore 0.522113562
REMARK CNNaffinity 6.21094179
REMARK  8 active torsions:
REMARK  status: ('A' for Active; 'I' for Inactive)
REMARK    1  A    between atoms: C4_4  and  C5_5 
REMARK    2  A    between atoms: C5_5  and  C6_6 
REMARK    3  A    between atoms: C6_6  and  C7_7 
REMARK    4  A    between atoms: C9_9  and  C10_10 
REMARK    5  A    between atoms: C11_11  and  C12_12 
REMARK    6  A    between atoms: C14_14  and  C15_15 
REMARK    7  A    between atoms: C24_25  and  C26_27 
REMARK    8  A    between atoms: C29_31  and  O3_33 
ROOT
HETATM    1  C15 UNL     1      -9.306  46.355 -25.024  1.00  0.00     0.149 C 
HETATM    2  C16 UNL     1     -10.358  47.183 -25.771  1.00  0.00     0.054 C 
HETATM    3  C17 UNL     1     -11.049  46.151 -26.692  1.00  0.00     0.050 C 
HETATM    4  C18 UNL     1      -9.797  45.324 -27.041  1.00  0.00     0.272 C 
HETATM    5  O1  UNL     1     -10.030  44.123 -27.745  1.00  0.00    -0.360 OA
HETATM    6  C19 UNL     1     -10.163  42.944 -26.980  1.00  0.00     0.171 C 
HETATM    7  C20 UNL     1     -11.355  42.907 -26.035  1.00  0.00     0.027 C 
HETATM    8  C21 UNL     1     -12.459  43.925 -26.317  1.00  0.00     0.012 C 
HETATM    9  C22 UNL     1     -12.083  45.334 -25.816  1.00  0.00     0.032 C 
HETATM   10  C23 UNL     1     -13.351  46.158 -25.511  1.00  0.00    -0.066 C 
HETATM   11  C24 UNL     1     -13.857  46.383 -24.270  1.00  0.00    -0.021 C 
HETATM   12  C25 UNL     1     -15.015  47.287 -23.931  1.00  0.00     0.052 C 
HETATM   13  C27 UNL     1     -13.984  46.715 -26.768  1.00  0.00     0.038 C 
HETATM   14  C28 UNL     1     -12.994  47.587 -27.533  1.00  0.00     0.042 C 
HETATM   15  C29 UNL     1     -11.740  46.795 -27.948  1.00  0.00     0.067 C 
HETATM   16  C30 UNL     1     -10.844  47.717 -28.794  1.00  0.00     0.047 C 
HETATM   17  O4  UNL     1      -9.040  45.191 -25.831  1.00  0.00    -0.351 OA
ENDROOT
BRANCH   1  18
HETATM   18  C14 UNL     1      -8.018  47.096 -24.815  1.00  0.00     0.011 C 
HETATM   19  C12 UNL     1      -7.137  46.945 -23.803  1.00  0.00    -0.063 C 
HETATM   20  C13 UNL     1      -7.353  45.995 -22.651  1.00  0.00     0.048 C 
BRANCH  19  21
HETATM   21  C11 UNL     1      -5.922  47.759 -23.805  1.00  0.00     0.006 C 
HETATM   22  C10 UNL     1      -5.710  48.878 -24.521  1.00  0.00     0.001 C 
BRANCH  22  23
HETATM   23  C9  UNL     1      -4.457  49.607 -24.473  1.00  0.00     0.002 C 
HETATM   24  C7  UNL     1      -3.366  49.404 -25.243  1.00  0.00    -0.084 C 
HETATM   25  C8  UNL     1      -3.279  48.387 -26.357  1.00  0.00     0.043 C 
BRANCH  24  26
HETATM   26  C6  UNL     1      -2.068  50.193 -25.085  1.00  0.00     0.037 C 
BRANCH  26  27
HETATM   27  C5  UNL     1      -1.588  51.036 -26.276  1.00  0.00     0.031 C 
BRANCH  27  28
HETATM   28  C4  UNL     1      -0.117  50.840 -26.532  1.00  0.00    -0.024 C 
HETATM   29  C2  UNL     1       0.914  51.520 -25.991  1.00  0.00    -0.091 C 
HETATM   30  C1  UNL     1       2.335  51.156 -26.330  1.00  0.00     0.042 C 
HETATM   31  C3  UNL     1       0.783  52.674 -25.036  1.00  0.00     0.042 C 
ENDBRANCH  27  28
ENDBRANCH  26  27
ENDBRANCH  24  26
ENDBRANCH  22  23
ENDBRANCH  19  21
ENDBRANCH   1  18
BRANCH  15  32
HETATM   32  O3  UNL     1     -12.176  45.755 -28.832  1.00  0.00    -0.389 OA
HETATM   33  H44 UNL     1     -12.552  46.154 -29.634  1.00  0.00     0.210 HD
ENDBRANCH  15  32
BRANCH  11  34
HETATM   34  C26 UNL     1     -13.301  45.708 -23.049  1.00  0.00     0.265 C 
HETATM   35  O2  UNL     1     -12.415  46.202 -22.361  1.00  0.00    -0.302 OA
ENDBRANCH  11  34
TORSDOF 8
ENDMDL
MODEL 4
REMARK minimizedAffinity -7.71442032
REMARK CNNscore 0.513748527
REMARK CNNaffinity 6.85235929
REMARK  8 active torsions:
REMARK  status: ('A' for Active; 'I' for Inactive)
REMARK    1  A    between atoms: C4_4  and  C5_5 
REMARK    2  A    between atoms: C5_5  and  C6_6 
REMARK    3  A    between atoms: C6_6  and  C7_7 
REMARK    4  A    between atoms: C9_9  and  C10_10 
REMARK    5  A    between atoms: C11_11  and  C12_12 
REMARK    6  A    between atoms: C14_14  and  C15_15 
REMARK    7  A    between atoms: C24_25  and  C26_27 
REMARK    8  A    between atoms: C29_31  and  O3_33 
ROOT
HETATM    1  C15 UNL     1      -0.406  51.240 -13.263  1.00  0.00     0.149 C 
HETATM    2  C16 UNL     1      -0.936  52.584 -12.750  1.00  0.00     0.054 C 
HETATM    3  C17 UNL     1      -1.355  52.280 -11.293  1.00  0.00     0.050 C 
HETATM    4  C18 UNL     1      -1.903  50.861 -11.533  1.00  0.00     0.272 C 
HETATM    5  O1  UNL     1      -2.230  50.124 -10.375  1.00  0.00    -0.360 OA
HETATM    6  C19 UNL     1      -1.235  49.270  -9.853  1.00  0.00     0.171 C 
HETATM    7  C20 UNL     1       0.025  49.960  -9.353  1.00  0.00     0.027 C 
HETATM    8  C21 UNL     1      -0.098  51.461  -9.095  1.00  0.00     0.012 C 
HETATM    9  C22 UNL     1      -0.046  52.276 -10.403  1.00  0.00     0.032 C 
HETATM   10  C23 UNL     1       0.467  53.706 -10.133  1.00  0.00    -0.066 C 
HETATM   11  C24 UNL     1       1.729  54.143 -10.384  1.00  0.00    -0.021 C 
HETATM   12  C25 UNL     1       2.222  55.562 -10.252  1.00  0.00     0.052 C 
HETATM   13  C27 UNL     1      -0.611  54.598  -9.557  1.00  0.00     0.038 C 
HETATM   14  C28 UNL     1      -1.814  54.668 -10.491  1.00  0.00     0.042 C 
HETATM   15  C29 UNL     1      -2.431  53.277 -10.729  1.00  0.00     0.067 C 
HETATM   16  C30 UNL     1      -3.690  53.449 -11.598  1.00  0.00     0.047 C 
HETATM   17  O4  UNL     1      -0.995  50.216 -12.437  1.00  0.00    -0.351 OA
ENDROOT
BRANCH   1  18
HETATM   18  C14 UNL     1      -0.777  50.971 -14.693  1.00  0.00     0.011 C 
HETATM   19  C12 UNL     1       0.007  51.107 -15.783  1.00  0.00    -0.063 C 
HETATM   20  C13 UNL     1       1.426  51.617 -15.728  1.00  0.00     0.048 C 
BRANCH  19  21
HETATM   21  C11 UNL     1      -0.550  50.765 -17.092  1.00  0.00     0.006 C 
HETATM   22  C10 UNL     1       0.123  50.703 -18.255  1.00  0.00     0.001 C 
BRANCH  22  23
HETATM   23  C9  UNL     1      -0.524  50.377 -19.512  1.00  0.00     0.002 C 
HETATM   24  C7  UNL     1      -0.466  51.078 -20.665  1.00  0.00    -0.084 C 
HETATM   25  C8  UNL     1       0.351  52.333 -20.866  1.00  0.00     0.043 C 
BRANCH  24  26
HETATM   26  C6  UNL     1      -1.225  50.680 -21.929  1.00  0.00     0.037 C 
BRANCH  26  27
HETATM   27  C5  UNL     1      -1.356  51.723 -23.049  1.00  0.00     0.031 C 
BRANCH  27  28
HETATM   28  C4  UNL     1      -1.050  51.124 -24.397  1.00  0.00    -0.024 C 
HETATM   29  C2  UNL     1      -0.087  51.493 -25.266  1.00  0.00    -0.091 C 
HETATM   30  C1  UNL     1       0.106  50.746 -26.559  1.00  0.00     0.042 C 
HETATM   31  C3  UNL     1       0.862  52.643 -25.068  1.00  0.00     0.042 C 
ENDBRANCH  27  28
ENDBRANCH  26  27
ENDBRANCH  24  26
ENDBRANCH  22  23
ENDBRANCH  19  21
ENDBRANCH   1  18
BRANCH  15  32
HETATM   32  O3  UNL     1      -2.895  52.802  -9.459  1.00  0.00    -0.389 OA
HETATM   33  H44 UNL     1      -3.601  53.387  -9.137  1.00  0.00     0.210 HD
ENDBRANCH  15  32
BRANCH  11  34
HETATM   34  C26 UNL     1       2.823  53.211 -10.821  1.00  0.00     0.265 C 
HETATM   35  O2  UNL     1       2.880  52.735 -11.949  1.00  0.00    -0.302 OA
ENDBRANCH  11  34
TORSDOF 8
ENDMDL
MODEL 5
REMARK minimizedAffinity -8.36443615
REMARK CNNscore 0.511643887
REMARK CNNaffinity 6.34490967
REMARK  8 active torsions:
REMARK  status: ('A' for Active; 'I' for Inactive)
REMARK    1  A    between atoms: C4_4  and  C5_5 
REMARK    2  A    between atoms: C5_5  and  C6_6 
REMARK    3  A    between atoms: C6_6  and  C7_7 
REMARK    4  A    between atoms: C9_9  and  C10_10 
REMARK    5  A    between atoms: C11_11  and  C12_12 
REMARK    6  A    between atoms: C14_14  and  C15_15 
REMARK    7  A    between atoms: C24_25  and  C26_27 
REMARK    8  A    between atoms: C29_31  and  O3_33 
ROOT
HETATM    1  C15 UNL     1      -7.332  46.721 -27.643  1.00  0.00     0.149 C 
HETATM    2  C16 UNL     1      -8.285  47.676 -28.373  1.00  0.00     0.054 C 
HETATM    3  C17 UNL     1      -8.776  46.847 -29.583  1.00  0.00     0.050 C 
HETATM    4  C18 UNL     1      -7.452  46.118 -29.878  1.00  0.00     0.272 C 
HETATM    5  O1  UNL     1      -7.519  45.084 -30.836  1.00  0.00    -0.360 OA
HETATM    6  C19 UNL     1      -7.725  43.773 -30.354  1.00  0.00     0.171 C 
HETATM    7  C20 UNL     1      -9.050  43.535 -29.646  1.00  0.00     0.027 C 
HETATM    8  C21 UNL     1     -10.135  44.581 -29.897  1.00  0.00     0.012 C 
HETATM    9  C22 UNL     1      -9.902  45.862 -29.070  1.00  0.00     0.032 C 
HETATM   10  C23 UNL     1     -11.236  46.597 -28.820  1.00  0.00    -0.066 C 
HETATM   11  C24 UNL     1     -11.942  46.562 -27.660  1.00  0.00    -0.021 C 
HETATM   12  C25 UNL     1     -13.176  47.369 -27.344  1.00  0.00     0.052 C 
HETATM   13  C27 UNL     1     -11.681  47.393 -30.027  1.00  0.00     0.038 C 
HETATM   14  C28 UNL     1     -10.618  48.410 -30.430  1.00  0.00     0.042 C 
HETATM   15  C29 UNL     1      -9.283  47.729 -30.781  1.00  0.00     0.067 C 
HETATM   16  C30 UNL     1      -8.301  48.810 -31.267  1.00  0.00     0.047 C 
HETATM   17  O4  UNL     1      -6.893  45.748 -28.610  1.00  0.00    -0.351 OA
ENDROOT
BRANCH   1  18
HETATM   18  C14 UNL     1      -6.125  47.414 -27.081  1.00  0.00     0.011 C 
HETATM   19  C12 UNL     1      -5.160  48.065 -27.764  1.00  0.00    -0.063 C 
HETATM   20  C13 UNL     1      -5.126  48.155 -29.270  1.00  0.00     0.048 C 
BRANCH  19  21
HETATM   21  C11 UNL     1      -4.075  48.696 -27.013  1.00  0.00     0.006 C 
HETATM   22  C10 UNL     1      -3.798  48.519 -25.708  1.00  0.00     0.001 C 
BRANCH  22  23
HETATM   23  C9  UNL     1      -2.709  49.210 -25.044  1.00  0.00     0.002 C 
HETATM   24  C7  UNL     1      -2.403  50.523 -25.130  1.00  0.00    -0.084 C 
HETATM   25  C8  UNL     1      -3.199  51.539 -25.914  1.00  0.00     0.043 C 
BRANCH  24  26
HETATM   26  C6  UNL     1      -1.202  51.153 -24.429  1.00  0.00     0.037 C 
BRANCH  26  27
HETATM   27  C5  UNL     1      -0.573  52.404 -25.060  1.00  0.00     0.031 C 
BRANCH  27  28
HETATM   28  C4  UNL     1       0.809  52.121 -25.586  1.00  0.00    -0.024 C 
HETATM   29  C2  UNL     1       1.171  51.846 -26.855  1.00  0.00    -0.091 C 
HETATM   30  C1  UNL     1       2.618  51.632 -27.211  1.00  0.00     0.042 C 
HETATM   31  C3  UNL     1       0.223  51.715 -28.015  1.00  0.00     0.042 C 
ENDBRANCH  27  28
ENDBRANCH  26  27
ENDBRANCH  24  26
ENDBRANCH  22  23
ENDBRANCH  19  21
ENDBRANCH   1  18
BRANCH  15  32
HETATM   32  O3  UNL     1      -9.529  46.887 -31.915  1.00  0.00    -0.389 OA
HETATM   33  H44 UNL     1      -9.788  47.438 -32.672  1.00  0.00     0.210 HD
ENDBRANCH  15  32
BRANCH  11  34
HETATM   34  C26 UNL     1     -11.563  45.656 -26.524  1.00  0.00     0.265 C 
HETATM   35  O2  UNL     1     -12.383  45.200 -25.735  1.00  0.00    -0.302 OA
ENDBRANCH  11  34
TORSDOF 8
ENDMDL
MODEL 6
REMARK minimizedAffinity -7.85159445
REMARK CNNscore 0.441103786
REMARK CNNaffinity 6.09644079
REMARK  8 active torsions:
REMARK  status: ('A' for Active; 'I' for Inactive)
REMARK    1  A    between atoms: C4_4  and  C5_5 
REMARK    2  A    between atoms: C5_5  and  C6_6 
REMARK    3  A    between atoms: C6_6  and  C7_7 
REMARK    4  A    between atoms: C9_9  and  C10_10 
REMARK    5  A    between atoms: C11_11  and  C12_12 
REMARK    6  A    between atoms: C14_14  and  C15_15 
REMARK    7  A    between atoms: C24_25  and  C26_27 
REMARK    8  A    between atoms: C29_31  and  O3_33 
ROOT
HETATM    1  C15 UNL     1      -7.890  46.978 -26.117  1.00  0.00     0.149 C 
HETATM    2  C16 UNL     1      -8.084  46.678 -27.608  1.00  0.00     0.054 C 
HETATM    3  C17 UNL     1      -8.849  45.334 -27.614  1.00  0.00     0.050 C 
HETATM    4  C18 UNL     1      -8.135  44.691 -26.409  1.00  0.00     0.272 C 
HETATM    5  O1  UNL     1      -8.685  43.478 -25.943  1.00  0.00    -0.360 OA
HETATM    6  C19 UNL     1      -9.625  43.560 -24.893  1.00  0.00     0.171 C 
HETATM    7  C20 UNL     1     -10.913  44.300 -25.223  1.00  0.00     0.027 C 
HETATM    8  C21 UNL     1     -11.207  44.494 -26.709  1.00  0.00     0.012 C 
HETATM    9  C22 UNL     1     -10.372  45.641 -27.315  1.00  0.00     0.032 C 
HETATM   10  C23 UNL     1     -11.086  46.243 -28.543  1.00  0.00    -0.066 C 
HETATM   11  C24 UNL     1     -11.788  47.406 -28.547  1.00  0.00    -0.021 C 
HETATM   12  C25 UNL     1     -12.385  48.082 -29.755  1.00  0.00     0.052 C 
HETATM   13  C27 UNL     1     -10.908  45.388 -29.779  1.00  0.00     0.038 C 
HETATM   14  C28 UNL     1      -9.430  45.202 -30.103  1.00  0.00     0.042 C 
HETATM   15  C29 UNL     1      -8.676  44.520 -28.947  1.00  0.00     0.067 C 
HETATM   16  C30 UNL     1      -7.221  44.282 -29.392  1.00  0.00     0.047 C 
HETATM   17  O4  UNL     1      -7.987  45.720 -25.421  1.00  0.00    -0.351 OA
ENDROOT
BRANCH   1  18
HETATM   18  C14 UNL     1      -6.554  47.591 -25.812  1.00  0.00     0.011 C 
HETATM   19  C12 UNL     1      -5.598  47.957 -26.692  1.00  0.00    -0.063 C 
HETATM   20  C13 UNL     1      -5.718  47.750 -28.181  1.00  0.00     0.048 C 
BRANCH  19  21
HETATM   21  C11 UNL     1      -4.370  48.563 -26.179  1.00  0.00     0.006 C 
HETATM   22  C10 UNL     1      -4.230  49.227 -25.018  1.00  0.00     0.001 C 
BRANCH  22  23
HETATM   23  C9  UNL     1      -2.971  49.816 -24.604  1.00  0.00     0.002 C 
HETATM   24  C7  UNL     1      -2.521  51.058 -24.883  1.00  0.00    -0.084 C 
HETATM   25  C8  UNL     1      -3.299  52.100 -25.652  1.00  0.00     0.043 C 
BRANCH  24  26
HETATM   26  C6  UNL     1      -1.153  51.574 -24.443  1.00  0.00     0.037 C 
BRANCH  26  27
HETATM   27  C5  UNL     1      -0.731  51.346 -22.983  1.00  0.00     0.031 C 
BRANCH  27  28
HETATM   28  C4  UNL     1       0.120  52.479 -22.473  1.00  0.00    -0.024 C 
HETATM   29  C2  UNL     1       0.472  52.738 -21.197  1.00  0.00    -0.091 C 
HETATM   30  C1  UNL     1       1.376  53.898 -20.872  1.00  0.00     0.042 C 
HETATM   31  C3  UNL     1       0.023  51.949 -19.999  1.00  0.00     0.042 C 
ENDBRANCH  27  28
ENDBRANCH  26  27
ENDBRANCH  24  26
ENDBRANCH  22  23
ENDBRANCH  19  21
ENDBRANCH   1  18
BRANCH  15  32
HETATM   32  O3  UNL     1      -9.251  43.218 -28.783  1.00  0.00    -0.389 OA
HETATM   33  H44 UNL     1      -9.094  42.695 -29.587  1.00  0.00     0.210 HD
ENDBRANCH  15  32
BRANCH  11  34
HETATM   34  C26 UNL     1     -12.074  48.167 -27.284  1.00  0.00     0.265 C 
HETATM   35  O2  UNL     1     -13.049  47.937 -26.576  1.00  0.00    -0.302 OA
ENDBRANCH  11  34
TORSDOF 8
ENDMDL
MODEL 7
REMARK minimizedAffinity -6.5267005
REMARK CNNscore 0.413091123
REMARK CNNaffinity 5.56512976
REMARK  8 active torsions:
REMARK  status: ('A' for Active; 'I' for Inactive)
REMARK    1  A    between atoms: C4_4  and  C5_5 
REMARK    2  A    between atoms: C5_5  and  C6_6 
REMARK    3  A    between atoms: C6_6  and  C7_7 
REMARK    4  A    between atoms: C9_9  and  C10_10 
REMARK    5  A    between atoms: C11_11  and  C12_12 
REMARK    6  A    between atoms: C14_14  and  C15_15 
REMARK    7  A    between atoms: C24_25  and  C26_27 
REMARK    8  A    between atoms: C29_31  and  O3_33 
ROOT
HETATM    1  C15 UNL     1      -8.146  45.292 -23.470  1.00  0.00     0.149 C 
HETATM    2  C16 UNL     1      -9.048  45.503 -24.692  1.00  0.00     0.054 C 
HETATM    3  C17 UNL     1      -9.375  44.064 -25.158  1.00  0.00     0.050 C 
HETATM    4  C18 UNL     1      -8.000  43.438 -24.856  1.00  0.00     0.272 C 
HETATM    5  O1  UNL     1      -7.925  42.034 -24.970  1.00  0.00    -0.360 OA
HETATM    6  C19 UNL     1      -8.133  41.281 -23.794  1.00  0.00     0.171 C 
HETATM    7  C20 UNL     1      -9.518  41.400 -23.175  1.00  0.00     0.027 C 
HETATM    8  C21 UNL     1     -10.607  41.963 -24.087  1.00  0.00     0.012 C 
HETATM    9  C22 UNL     1     -10.513  43.497 -24.217  1.00  0.00     0.032 C 
HETATM   10  C23 UNL     1     -11.892  44.098 -24.559  1.00  0.00    -0.066 C 
HETATM   11  C24 UNL     1     -12.718  44.713 -23.673  1.00  0.00    -0.021 C 
HETATM   12  C25 UNL     1     -14.007  45.422 -24.001  1.00  0.00     0.052 C 
HETATM   13  C27 UNL     1     -12.233  43.941 -26.025  1.00  0.00     0.038 C 
HETATM   14  C28 UNL     1     -11.171  44.595 -26.903  1.00  0.00     0.042 C 
HETATM   15  C29 UNL     1      -9.781  43.973 -26.674  1.00  0.00     0.067 C 
HETATM   16  C30 UNL     1      -8.793  44.619 -27.662  1.00  0.00     0.047 C 
HETATM   17  O4  UNL     1      -7.569  43.977 -23.598  1.00  0.00    -0.351 OA
ENDROOT
BRANCH   1  18
HETATM   18  C14 UNL     1      -7.033  46.295 -23.384  1.00  0.00     0.011 C 
HETATM   19  C12 UNL     1      -6.309  46.627 -22.294  1.00  0.00    -0.063 C 
HETATM   20  C13 UNL     1      -6.554  46.042 -20.925  1.00  0.00     0.048 C 
BRANCH  19  21
HETATM   21  C11 UNL     1      -5.246  47.621 -22.436  1.00  0.00     0.006 C 
HETATM   22  C10 UNL     1      -4.860  48.222 -23.577  1.00  0.00     0.001 C 
BRANCH  22  23
HETATM   23  C9  UNL     1      -3.774  49.183 -23.621  1.00  0.00     0.002 C 
HETATM   24  C7  UNL     1      -2.894  49.372 -24.627  1.00  0.00    -0.084 C 
HETATM   25  C8  UNL     1      -2.922  48.629 -25.943  1.00  0.00     0.043 C 
BRANCH  24  26
HETATM   26  C6  UNL     1      -1.749  50.380 -24.563  1.00  0.00     0.037 C 
BRANCH  26  27
HETATM   27  C5  UNL     1      -1.246  50.986 -25.882  1.00  0.00     0.031 C 
BRANCH  27  28
HETATM   28  C4  UNL     1       0.257  51.062 -25.916  1.00  0.00    -0.024 C 
HETATM   29  C2  UNL     1       1.042  51.453 -26.940  1.00  0.00    -0.091 C 
HETATM   30  C1  UNL     1       2.538  51.511 -26.781  1.00  0.00     0.042 C 
HETATM   31  C3  UNL     1       0.549  51.852 -28.304  1.00  0.00     0.042 C 
ENDBRANCH  27  28
ENDBRANCH  26  27
ENDBRANCH  24  26
ENDBRANCH  22  23
ENDBRANCH  19  21
ENDBRANCH   1  18
BRANCH  15  32
HETATM   32  O3  UNL     1      -9.871  42.595 -27.056  1.00  0.00    -0.389 OA
HETATM   33  H44 UNL     1     -10.067  42.539 -28.006  1.00  0.00     0.210 HD
ENDBRANCH  15  32
BRANCH  11  34
HETATM   34  C26 UNL     1     -12.430  44.734 -22.199  1.00  0.00     0.265 C 
HETATM   35  O2  UNL     1     -13.242  45.130 -21.369  1.00  0.00    -0.302 OA
ENDBRANCH  11  34
TORSDOF 8
ENDMDL
MODEL 8
REMARK minimizedAffinity -7.55236292
REMARK CNNscore 0.356736362
REMARK CNNaffinity 5.97359657
REMARK  8 active torsions:
REMARK  status: ('A' for Active; 'I' for Inactive)
REMARK    1  A    between atoms: C4_4  and  C5_5 
REMARK    2  A    between atoms: C5_5  and  C6_6 
REMARK    3  A    between atoms: C6_6  and  C7_7 
REMARK    4  A    between atoms: C9_9  and  C10_10 
REMARK    5  A    between atoms: C11_11  and  C12_12 
REMARK    6  A    between atoms: C14_14  and  C15_15 
REMARK    7  A    between atoms: C24_25  and  C26_27 
REMARK    8  A    between atoms: C29_31  and  O3_33 
ROOT
HETATM    1  C15 UNL     1      -7.645  46.800 -27.313  1.00  0.00     0.149 C 
HETATM    2  C16 UNL     1      -8.634  47.701 -28.063  1.00  0.00     0.054 C 
HETATM    3  C17 UNL     1      -8.916  46.924 -29.371  1.00  0.00     0.050 C 
HETATM    4  C18 UNL     1      -7.494  46.372 -29.587  1.00  0.00     0.272 C 
HETATM    5  O1  UNL     1      -7.355  45.418 -30.617  1.00  0.00    -0.360 OA
HETATM    6  C19 UNL     1      -7.447  44.058 -30.252  1.00  0.00     0.171 C 
HETATM    7  C20 UNL     1      -8.793  43.618 -29.694  1.00  0.00     0.027 C 
HETATM    8  C21 UNL     1      -9.967  44.555 -29.976  1.00  0.00     0.012 C 
HETATM    9  C22 UNL     1      -9.960  45.782 -29.041  1.00  0.00     0.032 C 
HETATM   10  C23 UNL     1     -11.387  46.342 -28.870  1.00  0.00    -0.066 C 
HETATM   11  C24 UNL     1     -12.184  46.135 -27.790  1.00  0.00    -0.021 C 
HETATM   12  C25 UNL     1     -13.527  46.773 -27.538  1.00  0.00     0.052 C 
HETATM   13  C27 UNL     1     -11.814  47.180 -30.056  1.00  0.00     0.038 C 
HETATM   14  C28 UNL     1     -10.847  48.338 -30.280  1.00  0.00     0.042 C 
HETATM   15  C29 UNL     1      -9.415  47.839 -30.548  1.00  0.00     0.067 C 
HETATM   16  C30 UNL     1      -8.528  49.058 -30.858  1.00  0.00     0.047 C 
HETATM   17  O4  UNL     1      -7.010  45.963 -28.300  1.00  0.00    -0.351 OA
ENDROOT
BRANCH   1  18
HETATM   18  C14 UNL     1      -6.582  47.574 -26.589  1.00  0.00     0.011 C 
HETATM   19  C12 UNL     1      -6.415  47.689 -25.255  1.00  0.00    -0.063 C 
HETATM   20  C13 UNL     1      -7.345  47.065 -24.245  1.00  0.00     0.048 C 
BRANCH  19  21
HETATM   21  C11 UNL     1      -5.289  48.480 -24.756  1.00  0.00     0.006 C 
HETATM   22  C10 UNL     1      -4.675  48.334 -23.568  1.00  0.00     0.001 C 
BRANCH  22  23
HETATM   23  C9  UNL     1      -3.577  49.185 -23.150  1.00  0.00     0.002 C 
HETATM   24  C7  UNL     1      -2.476  48.816 -22.462  1.00  0.00    -0.084 C 
HETATM   25  C8  UNL     1      -2.162  47.399 -22.041  1.00  0.00     0.043 C 
BRANCH  24  26
HETATM   26  C6  UNL     1      -1.392  49.798 -22.022  1.00  0.00     0.037 C 
BRANCH  26  27
HETATM   27  C5  UNL     1      -1.755  51.289 -21.954  1.00  0.00     0.031 C 
BRANCH  27  28
HETATM   28  C4  UNL     1      -1.070  52.072 -23.043  1.00  0.00    -0.024 C 
HETATM   29  C2  UNL     1       0.119  52.705 -22.984  1.00  0.00    -0.091 C 
HETATM   30  C1  UNL     1       0.676  53.406 -24.194  1.00  0.00     0.042 C 
HETATM   31  C3  UNL     1       0.991  52.793 -21.762  1.00  0.00     0.042 C 
ENDBRANCH  27  28
ENDBRANCH  26  27
ENDBRANCH  24  26
ENDBRANCH  22  23
ENDBRANCH  19  21
ENDBRANCH   1  18
BRANCH  15  32
HETATM   32  O3  UNL     1      -9.459  47.070 -31.756  1.00  0.00    -0.389 OA
HETATM   33  H44 UNL     1      -9.713  47.649 -32.494  1.00  0.00     0.210 HD
ENDBRANCH  15  32
BRANCH  11  34
HETATM   34  C26 UNL     1     -11.803  45.187 -26.689  1.00  0.00     0.265 C 
HETATM   35  O2  UNL     1     -11.116  45.524 -25.730  1.00  0.00    -0.302 OA
ENDBRANCH  11  34
TORSDOF 8
ENDMDL
MODEL 9
REMARK minimizedAffinity -6.79666424
REMARK CNNscore 0.323422223
REMARK CNNaffinity 5.72538233
REMARK  8 active torsions:
REMARK  status: ('A' for Active; 'I' for Inactive)
REMARK    1  A    between atoms: C4_4  and  C5_5 
REMARK    2  A    between atoms: C5_5  and  C6_6 
REMARK    3  A    between atoms: C6_6  and  C7_7 
REMARK    4  A    between atoms: C9_9  and  C10_10 
REMARK    5  A    between atoms: C11_11  and  C12_12 
REMARK    6  A    between atoms: C14_14  and  C15_15 
REMARK    7  A    between atoms: C24_25  and  C26_27 
REMARK    8  A    between atoms: C29_31  and  O3_33 
ROOT
HETATM    1  C15 UNL     1     -11.040  45.425 -30.133  1.00  0.00     0.149 C 
HETATM    2  C16 UNL     1     -10.495  46.742 -30.698  1.00  0.00     0.054 C 
HETATM    3  C17 UNL     1      -8.989  46.693 -30.352  1.00  0.00     0.050 C 
HETATM    4  C18 UNL     1      -9.121  46.017 -28.974  1.00  0.00     0.272 C 
HETATM    5  O1  UNL     1      -7.913  45.606 -28.372  1.00  0.00    -0.360 OA
HETATM    6  C19 UNL     1      -7.505  44.273 -28.593  1.00  0.00     0.171 C 
HETATM    7  C20 UNL     1      -7.190  43.916 -30.038  1.00  0.00     0.027 C 
HETATM    8  C21 UNL     1      -6.954  45.096 -30.979  1.00  0.00     0.012 C 
HETATM    9  C22 UNL     1      -8.278  45.759 -31.413  1.00  0.00     0.032 C 
HETATM   10  C23 UNL     1      -8.111  46.463 -32.775  1.00  0.00    -0.066 C 
HETATM   11  C24 UNL     1      -8.535  45.968 -33.968  1.00  0.00    -0.021 C 
HETATM   12  C25 UNL     1      -8.503  46.688 -35.292  1.00  0.00     0.052 C 
HETATM   13  C27 UNL     1      -7.421  47.803 -32.642  1.00  0.00     0.038 C 
HETATM   14  C28 UNL     1      -8.191  48.720 -31.698  1.00  0.00     0.042 C 
HETATM   15  C29 UNL     1      -8.313  48.111 -30.288  1.00  0.00     0.067 C 
HETATM   16  C30 UNL     1      -9.014  49.136 -29.378  1.00  0.00     0.047 C 
HETATM   17  O4  UNL     1     -10.120  44.997 -29.109  1.00  0.00    -0.351 OA
ENDROOT
BRANCH   1  18
HETATM   18  C14 UNL     1     -12.402  45.571 -29.520  1.00  0.00     0.011 C 
HETATM   19  C12 UNL     1     -13.125  44.620 -28.890  1.00  0.00    -0.063 C 
HETATM   20  C13 UNL     1     -12.668  43.190 -28.744  1.00  0.00     0.048 C 
BRANCH  19  21
HETATM   21  C11 UNL     1     -14.432  44.984 -28.340  1.00  0.00     0.006 C 
HETATM   22  C10 UNL     1     -15.158  44.265 -27.466  1.00  0.00     0.001 C 
BRANCH  22  23
HETATM   23  C9  UNL     1     -16.459  44.700 -26.993  1.00  0.00     0.002 C 
HETATM   24  C7  UNL     1     -16.716  45.530 -25.960  1.00  0.00    -0.084 C 
HETATM   25  C8  UNL     1     -15.658  46.214 -25.126  1.00  0.00     0.043 C 
BRANCH  24  26
HETATM   26  C6  UNL     1     -18.127  45.892 -25.504  1.00  0.00     0.037 C 
BRANCH  26  27
HETATM   27  C5  UNL     1     -18.281  46.974 -24.424  1.00  0.00     0.031 C 
BRANCH  27  28
HETATM   28  C4  UNL     1     -18.865  46.407 -23.156  1.00  0.00    -0.024 C 
HETATM   29  C2  UNL     1     -18.242  46.204 -21.978  1.00  0.00    -0.091 C 
HETATM   30  C1  UNL     1     -18.999  45.666 -20.793  1.00  0.00     0.042 C 
HETATM   31  C3  UNL     1     -16.784  46.466 -21.714  1.00  0.00     0.042 C 
ENDBRANCH  27  28
ENDBRANCH  26  27
ENDBRANCH  24  26
ENDBRANCH  22  23
ENDBRANCH  19  21
ENDBRANCH   1  18
BRANCH  15  32
HETATM   32  O3  UNL     1      -6.983  47.977 -29.774  1.00  0.00    -0.389 OA
HETATM   33  H44 UNL     1      -6.585  48.859 -29.681  1.00  0.00     0.210 HD
ENDBRANCH  15  32
BRANCH  11  34
HETATM   34  C26 UNL     1      -9.088  44.578 -34.102  1.00  0.00     0.265 C 
HETATM   35  O2  UNL     1      -8.755  43.815 -35.001  1.00  0.00    -0.302 OA
ENDBRANCH  11  34
TORSDOF 8
ENDMDL
