MODEL 1
REMARK minimizedAffinity -9.90667439
REMARK CNNscore 0.205097139
REMARK CNNaffinity 6.79016829
REMARK  11 active torsions:
REMARK  status: ('A' for Active; 'I' for Inactive)
REMARK       I    between atoms: N1_1  and  C1_2 
REMARK       I    between atoms: C1_2  and  N2_3 
REMARK    1  A    between atoms: N3_4  and  C2_6 
REMARK    2  A    between atoms: C2_6  and  C3_7 
REMARK    3  A    between atoms: C3_7  and  C4_8 
REMARK    4  A    between atoms: C4_8  and  C5_9 
REMARK    5  A    between atoms: C4_8  and  C6_11 
REMARK    6  A    between atoms: C5_9  and  O1_10 
REMARK    7  A    between atoms: C6_11  and  C7_12 
REMARK    8  A    between atoms: C21_27  and  S1_28 
REMARK    9  A    between atoms: C30_40  and  C31_41 
REMARK   10  A    between atoms: C31_41  and  O6_42 
REMARK   11  A    between atoms: C37_48  and  O7_49 
ROOT
HETATM    1  C2  UNL     1      -8.139  46.321 -32.305  1.00  0.00     0.171 C 
HETATM    2  O2  UNL     1      -7.306  47.256 -31.531  1.00  0.00    -0.316 OA
HETATM    3  C13 UNL     1      -7.503  47.304 -30.180  1.00  0.00     0.072 C 
HETATM    4  C14 UNL     1      -6.998  46.315 -29.345  1.00  0.00     0.037 C 
HETATM    5  C15 UNL     1      -7.406  46.281 -28.013  1.00  0.00     0.010 C 
HETATM    6  C16 UNL     1      -8.307  47.234 -27.517  1.00  0.00    -0.058 C 
HETATM    7  C17 UNL     1      -8.691  48.302 -28.337  1.00  0.00     0.010 C 
HETATM    8  C18 UNL     1      -8.268  48.350 -29.663  1.00  0.00     0.037 C 
HETATM    9  C19 UNL     1      -8.930  47.052 -26.154  1.00  0.00     0.040 C 
HETATM   10  C20 UNL     1     -10.343  46.436 -26.203  1.00  0.00     0.028 C 
HETATM   11  C21 UNL     1     -10.480  45.021 -26.820  1.00  0.00     0.140 C 
HETATM   12  C22 UNL     1     -11.964  44.606 -27.134  1.00  0.00     0.053 C 
HETATM   13  C23 UNL     1     -12.974  45.155 -26.136  1.00  0.00    -0.013 C 
HETATM   14  C24 UNL     1     -13.981  45.964 -26.511  1.00  0.00    -0.050 C 
HETATM   15  C25 UNL     1     -13.976  46.559 -27.877  1.00  0.00     0.043 C 
HETATM   16  C26 UNL     1     -13.885  45.384 -28.825  1.00  0.00     0.016 C 
HETATM   17  C27 UNL     1     -15.148  44.477 -28.698  1.00  0.00     0.039 C 
HETATM   18  C28 UNL     1     -15.684  43.999 -27.307  1.00  0.00     0.123 C 
HETATM   19  C29 UNL     1     -16.834  42.999 -27.632  1.00  0.00     0.039 C 
HETATM   20  C30 UNL     1     -17.663  42.422 -26.460  1.00  0.00     0.023 C 
HETATM   21  C32 UNL     1     -16.800  41.663 -25.432  1.00  0.00     0.101 C 
HETATM   22  C33 UNL     1     -16.200  42.632 -24.516  1.00  0.00    -0.101 C 
HETATM   23  C34 UNL     1     -15.801  43.613 -23.955  1.00  0.00    -0.066 C 
HETATM   24  C35 UNL     1     -15.438  44.894 -23.450  1.00  0.00     0.029 A 
HETATM   25  C36 UNL     1     -15.280  45.019 -22.062  1.00  0.00     0.057 A 
HETATM   26  C37 UNL     1     -14.948  46.249 -21.508  1.00  0.00     0.067 A 
HETATM   27  C38 UNL     1     -14.775  47.361 -22.312  1.00  0.00     0.037 A 
HETATM   28  C39 UNL     1     -14.926  47.237 -23.694  1.00  0.00     0.014 A 
HETATM   29  C40 UNL     1     -15.263  46.002 -24.298  1.00  0.00    -0.006 A 
HETATM   30  C41 UNL     1     -15.324  45.980 -25.832  1.00  0.00     0.185 C 
HETATM   31  O8  UNL     1     -16.236  45.056 -26.485  1.00  0.00    -0.371 OA
HETATM   32  C42 UNL     1     -12.499  44.654 -28.643  1.00  0.00     0.104 A 
HETATM   33  C43 UNL     1     -11.464  45.061 -29.699  1.00  0.00     0.082 A 
HETATM   34  C44 UNL     1     -10.454  44.148 -30.043  1.00  0.00     0.010 A 
HETATM   35  C45 UNL     1      -9.414  44.505 -30.912  1.00  0.00     0.011 A 
HETATM   36  C46 UNL     1      -9.365  45.779 -31.501  1.00  0.00    -0.003 A 
HETATM   37  C47 UNL     1     -10.442  46.645 -31.243  1.00  0.00     0.011 A 
HETATM   38  C48 UNL     1     -11.451  46.307 -30.334  1.00  0.00     0.010 A 
HETATM   39 NA1  UNL     1     -10.718  45.546 -29.113  1.00  0.00    -0.398 Na
ATOM     40  HA1 UNL     1      -9.844  46.041 -28.935  1.00  0.00     0.155 HD
ENDROOT
BRANCH   1  41
HETATM   41  N3  UNL     1      -8.696  46.866 -33.571  1.00  0.00    -0.336 N 
HETATM   42  C1  UNL     1      -7.978  47.485 -34.422  1.00  0.00     0.124 C 
HETATM   43  N1  UNL     1      -6.653  47.742 -34.444  1.00  0.00    -0.279 NA
HETATM   44  N2  UNL     1      -8.548  47.984 -35.541  1.00  0.00    -0.279 NA
HETATM   45  H1  UNL     1      -6.207  47.515 -33.554  1.00  0.00     0.126 HD
HETATM   46  H2  UNL     1      -6.456  48.704 -34.697  1.00  0.00     0.126 HD
HETATM   47  H3  UNL     1      -9.494  47.628 -35.632  1.00  0.00     0.126 HD
HETATM   48  H4  UNL     1      -8.001  47.781 -36.366  1.00  0.00     0.126 HD
ATOM     49  H3  UNL     1      -9.689  46.740 -33.765  1.00  0.00     0.165 HD
ENDBRANCH   1  41
BRANCH   1  50
HETATM   50  C3  UNL     1      -7.198  45.150 -32.761  1.00  0.00     0.074 C 
BRANCH  50  51
HETATM   51  C4  UNL     1      -6.101  44.676 -31.765  1.00  0.00     0.018 C 
BRANCH  51  52
HETATM   52  C5  UNL     1      -4.749  45.301 -32.171  1.00  0.00     0.169 C 
BRANCH  52  53
HETATM   53  O1  UNL     1      -4.794  45.892 -33.465  1.00  0.00    -0.400 OA
HETATM   54  H10 UNL     1      -5.366  46.677 -33.414  1.00  0.00     0.209 HD
ENDBRANCH  52  53
ENDBRANCH  51  52
BRANCH  51  55
HETATM   55  C6  UNL     1      -6.001  43.137 -31.690  1.00  0.00     0.045 C 
BRANCH  55  56
HETATM   56  C7  UNL     1      -5.306  42.520 -32.884  1.00  0.00    -0.058 A 
HETATM   57  C8  UNL     1      -6.049  42.072 -33.985  1.00  0.00     0.007 A 
HETATM   58  C9  UNL     1      -5.409  41.491 -35.081  1.00  0.00     0.001 A 
HETATM   59  C10 UNL     1      -4.022  41.353 -35.087  1.00  0.00     0.000 A 
HETATM   60  C11 UNL     1      -3.275  41.797 -33.997  1.00  0.00     0.001 A 
HETATM   61  C12 UNL     1      -3.912  42.377 -32.900  1.00  0.00     0.007 A 
ENDBRANCH  55  56
ENDBRANCH  51  55
ENDBRANCH  50  51
ENDBRANCH   1  50
BRANCH  11  62
HETATM   62  S1  UNL     1      -9.718  43.732 -25.780  1.00  0.00     0.106 S 
HETATM   63  O3  UNL     1      -9.844  44.270 -24.425  1.00  0.00    -0.595 OA
HETATM   64  O4  UNL     1      -8.347  43.633 -26.275  1.00  0.00    -0.595 OA
HETATM   65  O5  UNL     1     -10.526  42.535 -25.999  1.00  0.00    -0.595 OA
ENDBRANCH  11  62
BRANCH  20  66
HETATM   66  C31 UNL     1     -18.764  41.497 -27.005  1.00  0.00     0.169 C 
BRANCH  66  67
HETATM   67  O6  UNL     1     -19.939  41.579 -26.213  1.00  0.00    -0.400 OA
HETATM   68  H40 UNL     1     -20.570  40.929 -26.566  1.00  0.00     0.209 HD
ENDBRANCH  66  67
ENDBRANCH  20  66
BRANCH  26  69
HETATM   69  O7  UNL     1     -14.781  46.400 -20.163  1.00  0.00    -0.361 OA
HETATM   70  H44 UNL     1     -14.746  45.511 -19.767  1.00  0.00     0.217 HD
ENDBRANCH  26  69
TORSDOF 11
ENDMDL
MODEL 2
REMARK minimizedAffinity -8.23009491
REMARK CNNscore 0.183057755
REMARK CNNaffinity 6.77580452
REMARK  11 active torsions:
REMARK  status: ('A' for Active; 'I' for Inactive)
REMARK       I    between atoms: N1_1  and  C1_2 
REMARK       I    between atoms: C1_2  and  N2_3 
REMARK    1  A    between atoms: N3_4  and  C2_6 
REMARK    2  A    between atoms: C2_6  and  C3_7 
REMARK    3  A    between atoms: C3_7  and  C4_8 
REMARK    4  A    between atoms: C4_8  and  C5_9 
REMARK    5  A    between atoms: C4_8  and  C6_11 
REMARK    6  A    between atoms: C5_9  and  O1_10 
REMARK    7  A    between atoms: C6_11  and  C7_12 
REMARK    8  A    between atoms: C21_27  and  S1_28 
REMARK    9  A    between atoms: C30_40  and  C31_41 
REMARK   10  A    between atoms: C31_41  and  O6_42 
REMARK   11  A    between atoms: C37_48  and  O7_49 
ROOT
HETATM    1  C2  UNL     1      -7.129  46.463 -30.589  1.00  0.00     0.171 C 
HETATM    2  O2  UNL     1      -8.260  46.993 -31.369  1.00  0.00    -0.316 OA
HETATM    3  C13 UNL     1      -8.885  46.137 -32.231  1.00  0.00     0.072 C 
HETATM    4  C14 UNL     1      -9.778  45.177 -31.770  1.00  0.00     0.037 C 
HETATM    5  C15 UNL     1     -10.220  44.188 -32.646  1.00  0.00     0.010 C 
HETATM    6  C16 UNL     1      -9.779  44.163 -33.977  1.00  0.00    -0.058 C 
HETATM    7  C17 UNL     1      -8.994  45.219 -34.456  1.00  0.00     0.010 C 
HETATM    8  C18 UNL     1      -8.568  46.221 -33.587  1.00  0.00     0.037 C 
HETATM    9  C19 UNL     1     -10.064  42.963 -34.848  1.00  0.00     0.040 C 
HETATM   10  C20 UNL     1      -8.883  41.975 -34.935  1.00  0.00     0.028 C 
HETATM   11  C21 UNL     1      -8.407  41.318 -33.615  1.00  0.00     0.140 C 
HETATM   12  C22 UNL     1      -7.015  40.595 -33.730  1.00  0.00     0.053 C 
HETATM   13  C23 UNL     1      -6.776  39.949 -35.087  1.00  0.00    -0.013 C 
HETATM   14  C24 UNL     1      -5.741  40.299 -35.873  1.00  0.00    -0.050 C 
HETATM   15  C25 UNL     1      -4.954  41.522 -35.548  1.00  0.00     0.043 C 
HETATM   16  C26 UNL     1      -4.472  41.323 -34.129  1.00  0.00     0.016 C 
HETATM   17  C27 UNL     1      -3.515  40.094 -34.041  1.00  0.00     0.039 C 
HETATM   18  C28 UNL     1      -3.885  38.713 -34.676  1.00  0.00     0.123 C 
HETATM   19  C29 UNL     1      -2.757  37.737 -34.225  1.00  0.00     0.039 C 
HETATM   20  C30 UNL     1      -2.761  36.294 -34.785  1.00  0.00     0.023 C 
HETATM   21  C32 UNL     1      -4.058  35.528 -34.455  1.00  0.00     0.101 C 
HETATM   22  C33 UNL     1      -5.082  35.898 -35.431  1.00  0.00    -0.101 C 
HETATM   23  C34 UNL     1      -5.737  36.402 -36.299  1.00  0.00    -0.066 C 
HETATM   24  C35 UNL     1      -6.331  37.130 -37.369  1.00  0.00     0.029 A 
HETATM   25  C36 UNL     1      -7.267  36.454 -38.167  1.00  0.00     0.057 A 
HETATM   26  C37 UNL     1      -7.864  37.104 -39.240  1.00  0.00     0.067 A 
HETATM   27  C38 UNL     1      -7.541  38.417 -39.537  1.00  0.00     0.037 A 
HETATM   28  C39 UNL     1      -6.615  39.092 -38.741  1.00  0.00     0.014 A 
HETATM   29  C40 UNL     1      -5.985  38.466 -37.638  1.00  0.00    -0.006 A 
HETATM   30  C41 UNL     1      -5.044  39.339 -36.797  1.00  0.00     0.185 C 
HETATM   31  O8  UNL     1      -3.918  38.711 -36.124  1.00  0.00    -0.371 OA
HETATM   32  C42 UNL     1      -5.703  41.301 -33.142  1.00  0.00     0.104 A 
HETATM   33  C43 UNL     1      -5.933  42.645 -32.441  1.00  0.00     0.082 A 
HETATM   34  C44 UNL     1      -6.552  42.653 -31.181  1.00  0.00     0.010 A 
HETATM   35  C45 UNL     1      -6.895  43.854 -30.545  1.00  0.00     0.011 A 
HETATM   36  C46 UNL     1      -6.597  45.096 -31.128  1.00  0.00    -0.003 A 
HETATM   37  C47 UNL     1      -5.873  45.079 -32.334  1.00  0.00     0.011 A 
HETATM   38  C48 UNL     1      -5.580  43.880 -32.994  1.00  0.00     0.010 A 
HETATM   39 NA1  UNL     1      -6.883  42.943 -32.822  1.00  0.00    -0.398 Na
ATOM     40  HA1 UNL     1      -7.699  43.544 -32.933  1.00  0.00     0.155 HD
ENDROOT
BRANCH   1  41
HETATM   41  N3  UNL     1      -5.942  47.355 -30.508  1.00  0.00    -0.336 N 
HETATM   42  C1  UNL     1      -5.999  48.594 -30.797  1.00  0.00     0.124 C 
HETATM   43  N1  UNL     1      -7.039  49.373 -31.159  1.00  0.00    -0.279 NA
HETATM   44  N2  UNL     1      -4.878  49.347 -30.733  1.00  0.00    -0.279 NA
HETATM   45  H1  UNL     1      -7.874  48.822 -31.363  1.00  0.00     0.126 HD
HETATM   46  H2  UNL     1      -6.813  49.968 -31.949  1.00  0.00     0.126 HD
HETATM   47  H3  UNL     1      -4.139  48.824 -30.273  1.00  0.00     0.126 HD
HETATM   48  H4  UNL     1      -5.043  50.230 -30.268  1.00  0.00     0.126 HD
ATOM     49  H3  UNL     1      -5.051  46.959 -30.211  1.00  0.00     0.165 HD
ENDBRANCH   1  41
BRANCH   1  50
HETATM   50  C3  UNL     1      -7.625  46.333 -29.105  1.00  0.00     0.074 C 
BRANCH  50  51
HETATM   51  C4  UNL     1      -7.634  47.621 -28.233  1.00  0.00     0.018 C 
BRANCH  51  52
HETATM   52  C5  UNL     1      -6.458  47.560 -27.235  1.00  0.00     0.169 C 
BRANCH  52  53
HETATM   53  O1  UNL     1      -5.362  48.372 -27.641  1.00  0.00    -0.400 OA
HETATM   54  H10 UNL     1      -5.637  49.302 -27.565  1.00  0.00     0.209 HD
ENDBRANCH  52  53
ENDBRANCH  51  52
BRANCH  51  55
HETATM   55  C6  UNL     1      -8.977  47.822 -27.497  1.00  0.00     0.045 C 
BRANCH  55  56
HETATM   56  C7  UNL     1     -10.152  47.180 -28.201  1.00  0.00    -0.058 A 
HETATM   57  C8  UNL     1     -10.573  45.890 -27.850  1.00  0.00     0.007 A 
HETATM   58  C9  UNL     1     -11.649  45.294 -28.509  1.00  0.00     0.001 A 
HETATM   59  C10 UNL     1     -12.313  45.979 -29.523  1.00  0.00     0.000 A 
HETATM   60  C11 UNL     1     -11.904  47.263 -29.879  1.00  0.00     0.001 A 
HETATM   61  C12 UNL     1     -10.827  47.862 -29.222  1.00  0.00     0.007 A 
ENDBRANCH  55  56
ENDBRANCH  51  55
ENDBRANCH  50  51
ENDBRANCH   1  50
BRANCH  11  62
HETATM   62  S1  UNL     1      -9.627  40.140 -32.945  1.00  0.00     0.106 S 
HETATM   63  O3  UNL     1     -10.445  40.966 -32.056  1.00  0.00    -0.595 OA
HETATM   64  O4  UNL     1      -8.817  39.130 -32.268  1.00  0.00    -0.595 OA
HETATM   65  O5  UNL     1     -10.362  39.646 -34.106  1.00  0.00    -0.595 OA
ENDBRANCH  11  62
BRANCH  20  66
HETATM   66  C31 UNL     1      -1.545  35.523 -34.247  1.00  0.00     0.169 C 
BRANCH  66  67
HETATM   67  O6  UNL     1      -0.545  35.384 -35.246  1.00  0.00    -0.400 OA
HETATM   68  H40 UNL     1       0.163  34.836 -34.868  1.00  0.00     0.209 HD
ENDBRANCH  66  67
ENDBRANCH  20  66
BRANCH  26  69
HETATM   69  O7  UNL     1      -8.782  36.477 -40.029  1.00  0.00    -0.361 OA
HETATM   70  H44 UNL     1      -9.038  35.648 -39.584  1.00  0.00     0.217 HD
ENDBRANCH  26  69
TORSDOF 11
ENDMDL
MODEL 3
REMARK minimizedAffinity -9.55519676
REMARK CNNscore 0.173782915
REMARK CNNaffinity 7.05332041
REMARK  11 active torsions:
REMARK  status: ('A' for Active; 'I' for Inactive)
REMARK       I    between atoms: N1_1  and  C1_2 
REMARK       I    between atoms: C1_2  and  N2_3 
REMARK    1  A    between atoms: N3_4  and  C2_6 
REMARK    2  A    between atoms: C2_6  and  C3_7 
REMARK    3  A    between atoms: C3_7  and  C4_8 
REMARK    4  A    between atoms: C4_8  and  C5_9 
REMARK    5  A    between atoms: C4_8  and  C6_11 
REMARK    6  A    between atoms: C5_9  and  O1_10 
REMARK    7  A    between atoms: C6_11  and  C7_12 
REMARK    8  A    between atoms: C21_27  and  S1_28 
REMARK    9  A    between atoms: C30_40  and  C31_41 
REMARK   10  A    between atoms: C31_41  and  O6_42 
REMARK   11  A    between atoms: C37_48  and  O7_49 
ROOT
HETATM    1  C2  UNL     1      -7.386  47.312 -31.337  1.00  0.00     0.171 C 
HETATM    2  O2  UNL     1      -8.548  47.450 -32.231  1.00  0.00    -0.316 OA
HETATM    3  C13 UNL     1      -8.957  46.334 -32.905  1.00  0.00     0.072 C 
HETATM    4  C14 UNL     1      -9.686  45.336 -32.269  1.00  0.00     0.037 C 
HETATM    5  C15 UNL     1      -9.891  44.124 -32.925  1.00  0.00     0.010 C 
HETATM    6  C16 UNL     1      -9.377  43.914 -34.213  1.00  0.00    -0.058 C 
HETATM    7  C17 UNL     1      -8.770  44.979 -34.889  1.00  0.00     0.010 C 
HETATM    8  C18 UNL     1      -8.583  46.199 -34.243  1.00  0.00     0.037 C 
HETATM    9  C19 UNL     1      -9.389  42.530 -34.818  1.00  0.00     0.040 C 
HETATM   10  C20 UNL     1      -8.045  41.787 -34.674  1.00  0.00     0.028 C 
HETATM   11  C21 UNL     1      -7.535  41.514 -33.236  1.00  0.00     0.140 C 
HETATM   12  C22 UNL     1      -6.031  41.059 -33.171  1.00  0.00     0.053 C 
HETATM   13  C23 UNL     1      -5.601  40.208 -34.358  1.00  0.00    -0.013 C 
HETATM   14  C24 UNL     1      -4.604  40.580 -35.180  1.00  0.00    -0.050 C 
HETATM   15  C25 UNL     1      -4.071  41.970 -35.106  1.00  0.00     0.043 C 
HETATM   16  C26 UNL     1      -3.643  42.158 -33.668  1.00  0.00     0.016 C 
HETATM   17  C27 UNL     1      -2.485  41.177 -33.306  1.00  0.00     0.039 C 
HETATM   18  C28 UNL     1      -2.562  39.651 -33.644  1.00  0.00     0.123 C 
HETATM   19  C29 UNL     1      -1.304  39.019 -32.977  1.00  0.00     0.039 C 
HETATM   20  C30 UNL     1      -1.014  37.518 -33.221  1.00  0.00     0.023 C 
HETATM   21  C32 UNL     1      -2.168  36.603 -32.761  1.00  0.00     0.101 C 
HETATM   22  C33 UNL     1      -3.184  36.567 -33.811  1.00  0.00    -0.101 C 
HETATM   23  C34 UNL     1      -3.869  36.751 -34.777  1.00  0.00    -0.066 C 
HETATM   24  C35 UNL     1      -4.522  37.120 -35.987  1.00  0.00     0.029 A 
HETATM   25  C36 UNL     1      -5.273  36.132 -36.642  1.00  0.00     0.057 A 
HETATM   26  C37 UNL     1      -5.916  36.426 -37.838  1.00  0.00     0.067 A 
HETATM   27  C38 UNL     1      -5.820  37.687 -38.399  1.00  0.00     0.037 A 
HETATM   28  C39 UNL     1      -5.078  38.673 -37.746  1.00  0.00     0.014 A 
HETATM   29  C40 UNL     1      -4.409  38.414 -36.525  1.00  0.00    -0.006 A 
HETATM   30  C41 UNL     1      -3.692  39.602 -35.869  1.00  0.00     0.185 C 
HETATM   31  O8  UNL     1      -2.512  39.349 -35.059  1.00  0.00    -0.371 OA
HETATM   32  C42 UNL     1      -4.904  42.105 -32.721  1.00  0.00     0.104 A 
HETATM   33  C43 UNL     1      -5.414  43.496 -32.323  1.00  0.00     0.082 A 
HETATM   34  C44 UNL     1      -6.095  43.642 -31.103  1.00  0.00     0.010 A 
HETATM   35  C45 UNL     1      -6.686  44.860 -30.741  1.00  0.00     0.011 A 
HETATM   36  C46 UNL     1      -6.585  45.991 -31.567  1.00  0.00    -0.003 A 
HETATM   37  C47 UNL     1      -5.802  45.866 -32.729  1.00  0.00     0.011 A 
HETATM   38  C48 UNL     1      -5.259  44.636 -33.117  1.00  0.00     0.010 A 
HETATM   39 NA1  UNL     1      -6.378  43.524 -32.775  1.00  0.00    -0.398 Na
ATOM     40  HA1 UNL     1      -7.282  43.924 -33.025  1.00  0.00     0.155 HD
ENDROOT
BRANCH   1  41
HETATM   41  N3  UNL     1      -6.387  48.411 -31.424  1.00  0.00    -0.336 N 
HETATM   42  C1  UNL     1      -5.454  48.554 -30.569  1.00  0.00     0.124 C 
HETATM   43  N1  UNL     1      -5.110  47.806 -29.500  1.00  0.00    -0.279 NA
HETATM   44  N2  UNL     1      -4.594  49.590 -30.685  1.00  0.00    -0.279 NA
HETATM   45  H1  UNL     1      -5.815  47.100 -29.286  1.00  0.00     0.126 HD
HETATM   46  H2  UNL     1      -4.928  48.374 -28.680  1.00  0.00     0.126 HD
HETATM   47  H3  UNL     1      -4.718  50.039 -31.587  1.00  0.00     0.126 HD
HETATM   48  H4  UNL     1      -3.635  49.302 -30.550  1.00  0.00     0.126 HD
ATOM     49  H3  UNL     1      -6.452  49.073 -32.197  1.00  0.00     0.165 HD
ENDBRANCH   1  41
BRANCH   1  50
HETATM   50  C3  UNL     1      -7.934  47.395 -29.868  1.00  0.00     0.074 C 
BRANCH  50  51
HETATM   51  C4  UNL     1      -9.463  47.615 -29.681  1.00  0.00     0.018 C 
BRANCH  51  52
HETATM   52  C5  UNL     1      -9.827  49.042 -30.146  1.00  0.00     0.169 C 
BRANCH  52  53
HETATM   53  O1  UNL     1      -8.726  49.938 -30.048  1.00  0.00    -0.400 OA
HETATM   54  H10 UNL     1      -8.068  49.676 -30.716  1.00  0.00     0.209 HD
ENDBRANCH  52  53
ENDBRANCH  51  52
BRANCH  51  55
HETATM   55  C6  UNL     1      -9.917  47.373 -28.225  1.00  0.00     0.045 C 
BRANCH  55  56
HETATM   56  C7  UNL     1     -11.382  47.016 -28.101  1.00  0.00    -0.058 A 
HETATM   57  C8  UNL     1     -12.139  47.488 -27.021  1.00  0.00     0.007 A 
HETATM   58  C9  UNL     1     -13.487  47.148 -26.900  1.00  0.00     0.001 A 
HETATM   59  C10 UNL     1     -14.090  46.334 -27.857  1.00  0.00     0.000 A 
HETATM   60  C11 UNL     1     -13.346  45.860 -28.936  1.00  0.00     0.001 A 
HETATM   61  C12 UNL     1     -11.997  46.198 -29.058  1.00  0.00     0.007 A 
ENDBRANCH  55  56
ENDBRANCH  51  55
ENDBRANCH  50  51
ENDBRANCH   1  50
BRANCH  11  62
HETATM   62  S1  UNL     1      -8.557  40.287 -32.355  1.00  0.00     0.106 S 
HETATM   63  O3  UNL     1      -9.533  41.110 -31.638  1.00  0.00    -0.595 OA
HETATM   64  O4  UNL     1      -7.610  39.576 -31.501  1.00  0.00    -0.595 OA
HETATM   65  O5  UNL     1      -9.159  39.466 -33.402  1.00  0.00    -0.595 OA
ENDBRANCH  11  62
BRANCH  20  66
HETATM   66  C31 UNL     1       0.289  37.117 -32.510  1.00  0.00     0.169 C 
BRANCH  66  67
HETATM   67  O6  UNL     1       1.416  37.710 -33.138  1.00  0.00    -0.400 OA
HETATM   68  H40 UNL     1       2.208  37.369 -32.688  1.00  0.00     0.209 HD
ENDBRANCH  66  67
ENDBRANCH  20  66
BRANCH  26  69
HETATM   69  O7  UNL     1      -6.658  35.489 -38.494  1.00  0.00    -0.361 OA
HETATM   70  H44 UNL     1      -6.784  34.735 -37.890  1.00  0.00     0.217 HD
ENDBRANCH  26  69
TORSDOF 11
ENDMDL
MODEL 4
REMARK minimizedAffinity -8.54769516
REMARK CNNscore 0.15126361
REMARK CNNaffinity 7.07829809
REMARK  11 active torsions:
REMARK  status: ('A' for Active; 'I' for Inactive)
REMARK       I    between atoms: N1_1  and  C1_2 
REMARK       I    between atoms: C1_2  and  N2_3 
REMARK    1  A    between atoms: N3_4  and  C2_6 
REMARK    2  A    between atoms: C2_6  and  C3_7 
REMARK    3  A    between atoms: C3_7  and  C4_8 
REMARK    4  A    between atoms: C4_8  and  C5_9 
REMARK    5  A    between atoms: C4_8  and  C6_11 
REMARK    6  A    between atoms: C5_9  and  O1_10 
REMARK    7  A    between atoms: C6_11  and  C7_12 
REMARK    8  A    between atoms: C21_27  and  S1_28 
REMARK    9  A    between atoms: C30_40  and  C31_41 
REMARK   10  A    between atoms: C31_41  and  O6_42 
REMARK   11  A    between atoms: C37_48  and  O7_49 
ROOT
HETATM    1  C2  UNL     1       1.579  52.847 -10.844  1.00  0.00     0.171 C 
HETATM    2  O2  UNL     1       2.814  53.122 -11.598  1.00  0.00    -0.316 OA
HETATM    3  C13 UNL     1       3.867  53.652 -10.907  1.00  0.00     0.072 C 
HETATM    4  C14 UNL     1       4.660  52.860 -10.085  1.00  0.00     0.037 C 
HETATM    5  C15 UNL     1       5.576  53.472  -9.233  1.00  0.00     0.010 C 
HETATM    6  C16 UNL     1       5.706  54.868  -9.209  1.00  0.00    -0.058 C 
HETATM    7  C17 UNL     1       5.000  55.636 -10.144  1.00  0.00     0.010 C 
HETATM    8  C18 UNL     1       4.099  55.024 -11.012  1.00  0.00     0.037 C 
HETATM    9  C19 UNL     1       6.515  55.537  -8.124  1.00  0.00     0.040 C 
HETATM   10  C20 UNL     1       5.656  56.070  -6.959  1.00  0.00     0.028 C 
HETATM   11  C21 UNL     1       4.823  55.036  -6.160  1.00  0.00     0.140 C 
HETATM   12  C22 UNL     1       3.738  55.683  -5.222  1.00  0.00     0.053 C 
HETATM   13  C23 UNL     1       4.169  57.013  -4.621  1.00  0.00    -0.013 C 
HETATM   14  C24 UNL     1       3.482  58.150  -4.837  1.00  0.00    -0.050 C 
HETATM   15  C25 UNL     1       2.430  58.184  -5.891  1.00  0.00     0.043 C 
HETATM   16  C26 UNL     1       1.472  57.069  -5.536  1.00  0.00     0.016 C 
HETATM   17  C27 UNL     1       0.788  57.349  -4.162  1.00  0.00     0.039 C 
HETATM   18  C28 UNL     1       1.614  57.764  -2.899  1.00  0.00     0.123 C 
HETATM   19  C29 UNL     1       0.589  57.782  -1.726  1.00  0.00     0.039 C 
HETATM   20  C30 UNL     1       1.066  58.271  -0.337  1.00  0.00     0.023 C 
HETATM   21  C32 UNL     1       2.241  57.442   0.219  1.00  0.00     0.101 C 
HETATM   22  C33 UNL     1       3.484  57.938  -0.370  1.00  0.00    -0.101 C 
HETATM   23  C34 UNL     1       4.328  58.482  -1.024  1.00  0.00    -0.066 C 
HETATM   24  C35 UNL     1       5.157  59.240  -1.898  1.00  0.00     0.029 A 
HETATM   25  C36 UNL     1       6.434  59.590  -1.433  1.00  0.00     0.057 A 
HETATM   26  C37 UNL     1       7.281  60.348  -2.232  1.00  0.00     0.067 A 
HETATM   27  C38 UNL     1       6.877  60.770  -3.486  1.00  0.00     0.037 A 
HETATM   28  C39 UNL     1       5.610  60.417  -3.953  1.00  0.00     0.014 A 
HETATM   29  C40 UNL     1       4.717  59.645  -3.170  1.00  0.00    -0.006 A 
HETATM   30  C41 UNL     1       3.384  59.260  -3.826  1.00  0.00     0.185 C 
HETATM   31  O8  UNL     1       2.213  59.079  -2.983  1.00  0.00    -0.371 OA
HETATM   32  C42 UNL     1       2.199  55.675  -5.666  1.00  0.00     0.104 A 
HETATM   33  C43 UNL     1       1.896  54.961  -6.989  1.00  0.00     0.082 A 
HETATM   34  C44 UNL     1       1.957  53.559  -7.030  1.00  0.00     0.010 A 
HETATM   35  C45 UNL     1       1.807  52.858  -8.234  1.00  0.00     0.011 A 
HETATM   36  C46 UNL     1       1.550  53.531  -9.439  1.00  0.00    -0.003 A 
HETATM   37  C47 UNL     1       1.374  54.925  -9.369  1.00  0.00     0.011 A 
HETATM   38  C48 UNL     1       1.578  55.629  -8.176  1.00  0.00     0.010 A 
HETATM   39 NA1  UNL     1       2.851  54.938  -7.461  1.00  0.00    -0.398 Na
ATOM     40  HA1 UNL     1       3.526  54.726  -8.195  1.00  0.00     0.155 HD
ENDROOT
BRANCH   1  41
HETATM   41  N3  UNL     1       0.320  53.257 -11.520  1.00  0.00    -0.336 N 
HETATM   42  C1  UNL     1      -0.828  52.909 -11.093  1.00  0.00     0.124 C 
HETATM   43  N1  UNL     1      -1.192  52.202 -10.002  1.00  0.00    -0.279 NA
HETATM   44  N2  UNL     1      -1.937  53.289 -11.768  1.00  0.00    -0.279 NA
HETATM   45  H1  UNL     1      -0.388  51.770  -9.544  1.00  0.00     0.126 HD
HETATM   46  H2  UNL     1      -1.888  51.498 -10.219  1.00  0.00     0.126 HD
HETATM   47  H3  UNL     1      -1.690  53.982 -12.468  1.00  0.00     0.126 HD
HETATM   48  H4  UNL     1      -2.655  53.637 -11.148  1.00  0.00     0.126 HD
ATOM     49  H3  UNL     1       0.378  53.839 -12.355  1.00  0.00     0.165 HD
ENDBRANCH   1  41
BRANCH   1  50
HETATM   50  C3  UNL     1       1.466  51.286 -10.716  1.00  0.00     0.074 C 
BRANCH  50  51
HETATM   51  C4  UNL     1       1.764  50.436 -11.985  1.00  0.00     0.018 C 
BRANCH  51  52
HETATM   52  C5  UNL     1       3.289  50.418 -12.231  1.00  0.00     0.169 C 
BRANCH  52  53
HETATM   53  O1  UNL     1       3.915  49.275 -11.661  1.00  0.00    -0.400 OA
HETATM   54  H10 UNL     1       3.625  48.495 -12.164  1.00  0.00     0.209 HD
ENDBRANCH  52  53
ENDBRANCH  51  52
BRANCH  51  55
HETATM   55  C6  UNL     1       1.007  50.952 -13.228  1.00  0.00     0.045 C 
BRANCH  55  56
HETATM   56  C7  UNL     1       1.920  51.469 -14.318  1.00  0.00    -0.058 A 
HETATM   57  C8  UNL     1       1.405  52.235 -15.373  1.00  0.00     0.007 A 
HETATM   58  C9  UNL     1       2.246  52.701 -16.384  1.00  0.00     0.001 A 
HETATM   59  C10 UNL     1       3.607  52.407 -16.352  1.00  0.00     0.000 A 
HETATM   60  C11 UNL     1       4.130  51.647 -15.307  1.00  0.00     0.001 A 
HETATM   61  C12 UNL     1       3.291  51.179 -14.294  1.00  0.00     0.007 A 
ENDBRANCH  55  56
ENDBRANCH  51  55
ENDBRANCH  50  51
ENDBRANCH   1  50
BRANCH  11  62
HETATM   62  S1  UNL     1       5.866  53.919  -5.166  1.00  0.00     0.106 S 
HETATM   63  O3  UNL     1       6.931  53.534  -6.094  1.00  0.00    -0.595 OA
HETATM   64  O4  UNL     1       4.967  52.834  -4.782  1.00  0.00    -0.595 OA
HETATM   65  O5  UNL     1       6.344  54.731  -4.050  1.00  0.00    -0.595 OA
ENDBRANCH  11  62
BRANCH  20  66
HETATM   66  C31 UNL     1      -0.109  58.248   0.655  1.00  0.00     0.169 C 
BRANCH  66  67
HETATM   67  O6  UNL     1      -0.834  59.468   0.618  1.00  0.00    -0.400 OA
HETATM   68  H40 UNL     1      -1.517  59.418   1.307  1.00  0.00     0.209 HD
ENDBRANCH  66  67
ENDBRANCH  20  66
BRANCH  26  69
HETATM   69  O7  UNL     1       8.530  60.698  -1.811  1.00  0.00    -0.361 OA
HETATM   70  H44 UNL     1       8.731  60.176  -1.013  1.00  0.00     0.217 HD
ENDBRANCH  26  69
TORSDOF 11
ENDMDL
MODEL 5
REMARK minimizedAffinity -8.69363308
REMARK CNNscore 0.129912332
REMARK CNNaffinity 6.77416754
REMARK  11 active torsions:
REMARK  status: ('A' for Active; 'I' for Inactive)
REMARK       I    between atoms: N1_1  and  C1_2 
REMARK       I    between atoms: C1_2  and  N2_3 
REMARK    1  A    between atoms: N3_4  and  C2_6 
REMARK    2  A    between atoms: C2_6  and  C3_7 
REMARK    3  A    between atoms: C3_7  and  C4_8 
REMARK    4  A    between atoms: C4_8  and  C5_9 
REMARK    5  A    between atoms: C4_8  and  C6_11 
REMARK    6  A    between atoms: C5_9  and  O1_10 
REMARK    7  A    between atoms: C6_11  and  C7_12 
REMARK    8  A    between atoms: C21_27  and  S1_28 
REMARK    9  A    between atoms: C30_40  and  C31_41 
REMARK   10  A    between atoms: C31_41  and  O6_42 
REMARK   11  A    between atoms: C37_48  and  O7_49 
ROOT
HETATM    1  C2  UNL     1      -8.874  46.062 -30.860  1.00  0.00     0.171 C 
HETATM    2  O2  UNL     1     -10.094  45.992 -31.681  1.00  0.00    -0.316 OA
HETATM    3  C13 UNL     1     -10.301  44.851 -32.403  1.00  0.00     0.072 C 
HETATM    4  C14 UNL     1     -10.760  43.689 -31.796  1.00  0.00     0.037 C 
HETATM    5  C15 UNL     1     -10.747  42.497 -32.517  1.00  0.00     0.010 C 
HETATM    6  C16 UNL     1     -10.285  42.469 -33.841  1.00  0.00    -0.058 C 
HETATM    7  C17 UNL     1      -9.962  43.673 -34.477  1.00  0.00     0.010 C 
HETATM    8  C18 UNL     1      -9.995  44.870 -33.765  1.00  0.00     0.037 C 
HETATM    9  C19 UNL     1     -10.044  41.148 -34.532  1.00  0.00     0.040 C 
HETATM   10  C20 UNL     1      -8.567  40.704 -34.507  1.00  0.00     0.028 C 
HETATM   11  C21 UNL     1      -7.918  40.473 -33.119  1.00  0.00     0.140 C 
HETATM   12  C22 UNL     1      -6.351  40.348 -33.163  1.00  0.00     0.053 C 
HETATM   13  C23 UNL     1      -5.829  39.672 -34.422  1.00  0.00    -0.013 C 
HETATM   14  C24 UNL     1      -4.989  40.292 -35.270  1.00  0.00    -0.050 C 
HETATM   15  C25 UNL     1      -4.757  41.758 -35.134  1.00  0.00     0.043 C 
HETATM   16  C26 UNL     1      -4.287  41.959 -33.711  1.00  0.00     0.016 C 
HETATM   17  C27 UNL     1      -2.927  41.231 -33.475  1.00  0.00     0.039 C 
HETATM   18  C28 UNL     1      -2.701  39.744 -33.906  1.00  0.00     0.123 C 
HETATM   19  C29 UNL     1      -1.297  39.363 -33.348  1.00  0.00     0.039 C 
HETATM   20  C30 UNL     1      -0.714  37.974 -33.703  1.00  0.00     0.023 C 
HETATM   21  C32 UNL     1      -1.616  36.811 -33.244  1.00  0.00     0.101 C 
HETATM   22  C33 UNL     1      -2.667  36.611 -34.240  1.00  0.00    -0.101 C 
HETATM   23  C34 UNL     1      -3.437  36.695 -35.155  1.00  0.00    -0.066 C 
HETATM   24  C35 UNL     1      -4.231  36.977 -36.302  1.00  0.00     0.029 A 
HETATM   25  C36 UNL     1      -4.797  35.886 -36.979  1.00  0.00     0.057 A 
HETATM   26  C37 UNL     1      -5.564  36.097 -38.119  1.00  0.00     0.067 A 
HETATM   27  C38 UNL     1      -5.773  37.377 -38.601  1.00  0.00     0.037 A 
HETATM   28  C39 UNL     1      -5.216  38.463 -37.925  1.00  0.00     0.014 A 
HETATM   29  C40 UNL     1      -4.429  38.291 -36.760  1.00  0.00    -0.006 A 
HETATM   30  C41 UNL     1      -3.937  39.570 -36.068  1.00  0.00     0.185 C 
HETATM   31  O8  UNL     1      -2.680  39.534 -35.339  1.00  0.00    -0.371 OA
HETATM   32  C42 UNL     1      -5.444  41.587 -32.706  1.00  0.00     0.104 A 
HETATM   33  C43 UNL     1      -6.208  42.813 -32.192  1.00  0.00     0.082 A 
HETATM   34  C44 UNL     1      -6.824  42.747 -30.932  1.00  0.00     0.010 A 
HETATM   35  C45 UNL     1      -7.634  43.789 -30.461  1.00  0.00     0.011 A 
HETATM   36  C46 UNL     1      -7.829  44.956 -31.217  1.00  0.00    -0.003 A 
HETATM   37  C47 UNL     1      -7.114  45.064 -32.423  1.00  0.00     0.011 A 
HETATM   38  C48 UNL     1      -6.350  44.000 -32.918  1.00  0.00     0.010 A 
HETATM   39 NA1  UNL     1      -7.184  42.658 -32.590  1.00  0.00    -0.398 Na
ATOM     40  HA1 UNL     1      -8.167  42.867 -32.766  1.00  0.00     0.155 HD
ENDROOT
BRANCH   1  41
HETATM   41  N3  UNL     1      -8.137  47.352 -30.928  1.00  0.00    -0.336 N 
HETATM   42  C1  UNL     1      -8.691  48.469 -30.670  1.00  0.00     0.124 C 
HETATM   43  N1  UNL     1      -9.941  48.763 -30.255  1.00  0.00    -0.279 NA
HETATM   44  N2  UNL     1      -7.977  49.611 -30.779  1.00  0.00    -0.279 NA
HETATM   45  H1  UNL     1     -10.558  47.951 -30.301  1.00  0.00     0.126 HD
HETATM   46  H2  UNL     1     -10.344  49.535 -30.774  1.00  0.00     0.126 HD
HETATM   47  H3  UNL     1      -6.992  49.390 -30.894  1.00  0.00     0.126 HD
HETATM   48  H4  UNL     1      -8.122  50.224 -29.989  1.00  0.00     0.126 HD
ATOM     49  H3  UNL     1      -7.152  47.341 -31.191  1.00  0.00     0.165 HD
ENDBRANCH   1  41
BRANCH   1  50
HETATM   50  C3  UNL     1      -9.330  45.949 -29.362  1.00  0.00     0.074 C 
BRANCH  50  51
HETATM   51  C4  UNL     1      -8.270  45.496 -28.318  1.00  0.00     0.018 C 
BRANCH  51  52
HETATM   52  C5  UNL     1      -8.995  44.960 -27.064  1.00  0.00     0.169 C 
BRANCH  52  53
HETATM   53  O1  UNL     1     -10.121  44.155 -27.394  1.00  0.00    -0.400 OA
HETATM   54  H10 UNL     1      -9.791  43.333 -27.797  1.00  0.00     0.209 HD
ENDBRANCH  52  53
ENDBRANCH  51  52
BRANCH  51  55
HETATM   55  C6  UNL     1      -7.288  46.630 -27.949  1.00  0.00     0.045 C 
BRANCH  55  56
HETATM   56  C7  UNL     1      -7.740  47.456 -26.765  1.00  0.00    -0.058 A 
HETATM   57  C8  UNL     1      -7.014  47.436 -25.566  1.00  0.00     0.007 A 
HETATM   58  C9  UNL     1      -7.438  48.188 -24.470  1.00  0.00     0.001 A 
HETATM   59  C10 UNL     1      -8.590  48.966 -24.561  1.00  0.00     0.000 A 
HETATM   60  C11 UNL     1      -9.318  48.994 -25.749  1.00  0.00     0.001 A 
HETATM   61  C12 UNL     1      -8.897  48.243 -26.846  1.00  0.00     0.007 A 
ENDBRANCH  55  56
ENDBRANCH  51  55
ENDBRANCH  50  51
ENDBRANCH   1  50
BRANCH  11  62
HETATM   62  S1  UNL     1      -8.599  39.011 -32.267  1.00  0.00     0.106 S 
HETATM   63  O3  UNL     1      -9.712  39.559 -31.491  1.00  0.00    -0.595 OA
HETATM   64  O4  UNL     1      -7.484  38.509 -31.468  1.00  0.00    -0.595 OA
HETATM   65  O5  UNL     1      -9.031  38.112 -33.333  1.00  0.00    -0.595 OA
ENDBRANCH  11  62
BRANCH  20  66
HETATM   66  C31 UNL     1       0.688  37.826 -33.090  1.00  0.00     0.169 C 
BRANCH  66  67
HETATM   67  O6  UNL     1       1.655  38.537 -33.847  1.00  0.00    -0.400 OA
HETATM   68  H40 UNL     1       2.523  38.352 -33.451  1.00  0.00     0.209 HD
ENDBRANCH  66  67
ENDBRANCH  20  66
BRANCH  26  69
HETATM   69  O7  UNL     1      -6.132  35.058 -38.794  1.00  0.00    -0.361 OA
HETATM   70  H44 UNL     1      -6.057  34.264 -38.234  1.00  0.00     0.217 HD
ENDBRANCH  26  69
TORSDOF 11
ENDMDL
MODEL 6
REMARK minimizedAffinity -9.09341145
REMARK CNNscore 0.118577756
REMARK CNNaffinity 6.09322786
REMARK  11 active torsions:
REMARK  status: ('A' for Active; 'I' for Inactive)
REMARK       I    between atoms: N1_1  and  C1_2 
REMARK       I    between atoms: C1_2  and  N2_3 
REMARK    1  A    between atoms: N3_4  and  C2_6 
REMARK    2  A    between atoms: C2_6  and  C3_7 
REMARK    3  A    between atoms: C3_7  and  C4_8 
REMARK    4  A    between atoms: C4_8  and  C5_9 
REMARK    5  A    between atoms: C4_8  and  C6_11 
REMARK    6  A    between atoms: C5_9  and  O1_10 
REMARK    7  A    between atoms: C6_11  and  C7_12 
REMARK    8  A    between atoms: C21_27  and  S1_28 
REMARK    9  A    between atoms: C30_40  and  C31_41 
REMARK   10  A    between atoms: C31_41  and  O6_42 
REMARK   11  A    between atoms: C37_48  and  O7_49 
ROOT
HETATM    1  C2  UNL     1      -8.741  46.891 -24.206  1.00  0.00     0.171 C 
HETATM    2  O2  UNL     1     -10.127  47.387 -24.233  1.00  0.00    -0.316 OA
HETATM    3  C13 UNL     1     -10.970  46.847 -25.163  1.00  0.00     0.072 C 
HETATM    4  C14 UNL     1     -11.527  45.587 -24.984  1.00  0.00     0.037 C 
HETATM    5  C15 UNL     1     -12.196  44.985 -26.047  1.00  0.00     0.010 C 
HETATM    6  C16 UNL     1     -12.316  45.642 -27.279  1.00  0.00    -0.058 C 
HETATM    7  C17 UNL     1     -11.873  46.966 -27.393  1.00  0.00     0.010 C 
HETATM    8  C18 UNL     1     -11.222  47.578 -26.325  1.00  0.00     0.037 C 
HETATM    9  C19 UNL     1     -12.823  44.897 -28.491  1.00  0.00     0.040 C 
HETATM   10  C20 UNL     1     -11.696  44.385 -29.411  1.00  0.00     0.028 C 
HETATM   11  C21 UNL     1     -10.686  43.379 -28.803  1.00  0.00     0.140 C 
HETATM   12  C22 UNL     1      -9.398  43.162 -29.681  1.00  0.00     0.053 C 
HETATM   13  C23 UNL     1      -9.663  43.240 -31.178  1.00  0.00    -0.013 C 
HETATM   14  C24 UNL     1      -9.055  44.146 -31.965  1.00  0.00    -0.050 C 
HETATM   15  C25 UNL     1      -8.306  45.274 -31.343  1.00  0.00     0.043 C 
HETATM   16  C26 UNL     1      -7.288  44.625 -30.432  1.00  0.00     0.016 C 
HETATM   17  C27 UNL     1      -6.277  43.771 -31.258  1.00  0.00     0.039 C 
HETATM   18  C28 UNL     1      -6.754  42.746 -32.340  1.00  0.00     0.123 C 
HETATM   19  C29 UNL     1      -5.464  42.002 -32.799  1.00  0.00     0.039 C 
HETATM   20  C30 UNL     1      -5.571  40.987 -33.962  1.00  0.00     0.023 C 
HETATM   21  C32 UNL     1      -6.566  39.845 -33.670  1.00  0.00     0.101 C 
HETATM   22  C33 UNL     1      -7.918  40.313 -33.968  1.00  0.00    -0.101 C 
HETATM   23  C34 UNL     1      -8.901  40.948 -34.226  1.00  0.00    -0.066 C 
HETATM   24  C35 UNL     1      -9.927  41.878 -34.558  1.00  0.00     0.029 A 
HETATM   25  C36 UNL     1     -11.044  41.387 -35.252  1.00  0.00     0.057 A 
HETATM   26  C37 UNL     1     -12.067  42.250 -35.623  1.00  0.00     0.067 A 
HETATM   27  C38 UNL     1     -11.996  43.598 -35.321  1.00  0.00     0.037 A 
HETATM   28  C39 UNL     1     -10.889  44.087 -34.626  1.00  0.00     0.014 A 
HETATM   29  C40 UNL     1      -9.826  43.241 -34.229  1.00  0.00    -0.006 A 
HETATM   30  C41 UNL     1      -8.703  43.887 -33.405  1.00  0.00     0.185 C 
HETATM   31  O8  UNL     1      -7.356  43.350 -33.511  1.00  0.00    -0.371 OA
HETATM   32  C42 UNL     1      -8.023  43.867 -29.259  1.00  0.00     0.104 A 
HETATM   33  C43 UNL     1      -8.066  44.677 -27.957  1.00  0.00     0.082 A 
HETATM   34  C44 UNL     1      -8.135  43.988 -26.736  1.00  0.00     0.010 A 
HETATM   35  C45 UNL     1      -8.296  44.671 -25.522  1.00  0.00     0.011 A 
HETATM   36  C46 UNL     1      -8.356  46.073 -25.480  1.00  0.00    -0.003 A 
HETATM   37  C47 UNL     1      -8.168  46.758 -26.694  1.00  0.00     0.011 A 
HETATM   38  C48 UNL     1      -8.063  46.074 -27.911  1.00  0.00     0.010 A 
HETATM   39 NA1  UNL     1      -9.110  44.849 -27.829  1.00  0.00    -0.398 Na
ATOM     40  HA1 UNL     1      -9.950  45.204 -27.374  1.00  0.00     0.155 HD
ENDROOT
BRANCH   1  41
HETATM   41  N3  UNL     1      -7.696  47.940 -24.068  1.00  0.00    -0.336 N 
HETATM   42  C1  UNL     1      -7.894  49.150 -24.409  1.00  0.00     0.124 C 
HETATM   43  N1  UNL     1      -8.996  49.769 -24.883  1.00  0.00    -0.279 NA
HETATM   44  N2  UNL     1      -6.894  50.052 -24.288  1.00  0.00    -0.279 NA
HETATM   45  H1  UNL     1      -9.730  49.102 -25.130  1.00  0.00     0.126 HD
HETATM   46  H2  UNL     1      -8.788  50.366 -25.675  1.00  0.00     0.126 HD
HETATM   47  H3  UNL     1      -6.132  49.649 -23.751  1.00  0.00     0.126 HD
HETATM   48  H4  UNL     1      -7.214  50.917 -23.873  1.00  0.00     0.126 HD
ATOM     49  H3  UNL     1      -6.787  47.679 -23.686  1.00  0.00     0.165 HD
ENDBRANCH   1  41
BRANCH   1  50
HETATM   50  C3  UNL     1      -8.598  46.020 -22.908  1.00  0.00     0.074 C 
BRANCH  50  51
HETATM   51  C4  UNL     1      -7.159  45.680 -22.423  1.00  0.00     0.018 C 
BRANCH  51  52
HETATM   52  C5  UNL     1      -7.150  44.251 -21.840  1.00  0.00     0.169 C 
BRANCH  52  53
HETATM   53  O1  UNL     1      -6.036  43.490 -22.293  1.00  0.00    -0.400 OA
HETATM   54  H10 UNL     1      -5.234  43.870 -21.894  1.00  0.00     0.209 HD
ENDBRANCH  52  53
ENDBRANCH  51  52
BRANCH  51  55
HETATM   55  C6  UNL     1      -6.630  46.703 -21.394  1.00  0.00     0.045 C 
BRANCH  55  56
HETATM   56  C7  UNL     1      -5.142  46.952 -21.503  1.00  0.00    -0.058 A 
HETATM   57  C8  UNL     1      -4.644  47.904 -22.402  1.00  0.00     0.007 A 
HETATM   58  C9  UNL     1      -3.271  48.124 -22.511  1.00  0.00     0.001 A 
HETATM   59  C10 UNL     1      -2.382  47.396 -21.723  1.00  0.00     0.000 A 
HETATM   60  C11 UNL     1      -2.867  46.447 -20.824  1.00  0.00     0.001 A 
HETATM   61  C12 UNL     1      -4.240  46.225 -20.713  1.00  0.00     0.007 A 
ENDBRANCH  55  56
ENDBRANCH  51  55
ENDBRANCH  50  51
ENDBRANCH   1  50
BRANCH  11  62
HETATM   62  S1  UNL     1     -11.441  41.755 -28.460  1.00  0.00     0.106 S 
HETATM   63  O3  UNL     1     -10.741  40.854 -29.377  1.00  0.00    -0.595 OA
HETATM   64  O4  UNL     1     -12.859  41.948 -28.753  1.00  0.00    -0.595 OA
HETATM   65  O5  UNL     1     -11.146  41.483 -27.056  1.00  0.00    -0.595 OA
ENDBRANCH  11  62
BRANCH  20  66
HETATM   66  C31 UNL     1      -4.183  40.407 -34.276  1.00  0.00     0.169 C 
BRANCH  66  67
HETATM   67  O6  UNL     1      -4.162  39.800 -35.560  1.00  0.00    -0.400 OA
HETATM   68  H40 UNL     1      -3.284  39.397 -35.673  1.00  0.00     0.209 HD
ENDBRANCH  66  67
ENDBRANCH  20  66
BRANCH  26  69
HETATM   69  O7  UNL     1     -13.167  41.801 -36.291  1.00  0.00    -0.361 OA
HETATM   70  H44 UNL     1     -13.158  40.827 -36.257  1.00  0.00     0.217 HD
ENDBRANCH  26  69
TORSDOF 11
ENDMDL
MODEL 7
REMARK minimizedAffinity -8.56824112
REMARK CNNscore 0.11327856
REMARK CNNaffinity 5.82144547
REMARK  11 active torsions:
REMARK  status: ('A' for Active; 'I' for Inactive)
REMARK       I    between atoms: N1_1  and  C1_2 
REMARK       I    between atoms: C1_2  and  N2_3 
REMARK    1  A    between atoms: N3_4  and  C2_6 
REMARK    2  A    between atoms: C2_6  and  C3_7 
REMARK    3  A    between atoms: C3_7  and  C4_8 
REMARK    4  A    between atoms: C4_8  and  C5_9 
REMARK    5  A    between atoms: C4_8  and  C6_11 
REMARK    6  A    between atoms: C5_9  and  O1_10 
REMARK    7  A    between atoms: C6_11  and  C7_12 
REMARK    8  A    between atoms: C21_27  and  S1_28 
REMARK    9  A    between atoms: C30_40  and  C31_41 
REMARK   10  A    between atoms: C31_41  and  O6_42 
REMARK   11  A    between atoms: C37_48  and  O7_49 
ROOT
HETATM    1  C2  UNL     1     -10.847  45.694 -30.127  1.00  0.00     0.171 C 
HETATM    2  O2  UNL     1     -10.170  46.698 -29.290  1.00  0.00    -0.316 OA
HETATM    3  C13 UNL     1     -10.538  46.770 -27.976  1.00  0.00     0.072 C 
HETATM    4  C14 UNL     1     -10.087  45.836 -27.051  1.00  0.00     0.037 C 
HETATM    5  C15 UNL     1     -10.656  45.813 -25.779  1.00  0.00     0.010 C 
HETATM    6  C16 UNL     1     -11.663  46.725 -25.431  1.00  0.00    -0.058 C 
HETATM    7  C17 UNL     1     -12.001  47.745 -26.329  1.00  0.00     0.010 C 
HETATM    8  C18 UNL     1     -11.418  47.783 -27.593  1.00  0.00     0.037 C 
HETATM    9  C19 UNL     1     -12.442  46.543 -24.150  1.00  0.00     0.040 C 
HETATM   10  C20 UNL     1     -13.801  45.843 -24.353  1.00  0.00     0.028 C 
HETATM   11  C21 UNL     1     -13.781  44.407 -24.933  1.00  0.00     0.140 C 
HETATM   12  C22 UNL     1     -15.189  43.895 -25.414  1.00  0.00     0.053 C 
HETATM   13  C23 UNL     1     -16.345  44.410 -24.568  1.00  0.00    -0.013 C 
HETATM   14  C24 UNL     1     -17.340  45.148 -25.091  1.00  0.00    -0.050 C 
HETATM   15  C25 UNL     1     -17.197  45.705 -26.466  1.00  0.00     0.043 C 
HETATM   16  C26 UNL     1     -16.923  44.513 -27.355  1.00  0.00     0.016 C 
HETATM   17  C27 UNL     1     -18.140  43.536 -27.354  1.00  0.00     0.039 C 
HETATM   18  C28 UNL     1     -18.818  43.065 -26.025  1.00  0.00     0.123 C 
HETATM   19  C29 UNL     1     -19.861  41.990 -26.455  1.00  0.00     0.039 C 
HETATM   20  C30 UNL     1     -20.798  41.397 -25.375  1.00  0.00     0.023 C 
HETATM   21  C32 UNL     1     -20.030  40.718 -24.222  1.00  0.00     0.101 C 
HETATM   22  C33 UNL     1     -19.604  41.746 -23.274  1.00  0.00    -0.101 C 
HETATM   23  C34 UNL     1     -19.333  42.764 -22.702  1.00  0.00    -0.066 C 
HETATM   24  C35 UNL     1     -19.108  44.077 -22.200  1.00  0.00     0.029 A 
HETATM   25  C36 UNL     1     -19.132  44.249 -20.807  1.00  0.00     0.057 A 
HETATM   26  C37 UNL     1     -18.941  45.510 -20.259  1.00  0.00     0.067 A 
HETATM   27  C38 UNL     1     -18.731  46.609 -21.074  1.00  0.00     0.037 A 
HETATM   28  C39 UNL     1     -18.700  46.439 -22.458  1.00  0.00     0.014 A 
HETATM   29  C40 UNL     1     -18.889  45.170 -23.057  1.00  0.00    -0.006 A 
HETATM   30  C41 UNL     1     -18.757  45.103 -24.585  1.00  0.00     0.185 C 
HETATM   31  O8  UNL     1     -19.527  44.109 -25.314  1.00  0.00    -0.371 OA
HETATM   32  C42 UNL     1     -15.532  43.871 -26.978  1.00  0.00     0.104 A 
HETATM   33  C43 UNL     1     -14.397  44.310 -27.912  1.00  0.00     0.082 A 
HETATM   34  C44 UNL     1     -13.303  43.450 -28.096  1.00  0.00     0.010 A 
HETATM   35  C45 UNL     1     -12.183  43.845 -28.841  1.00  0.00     0.011 A 
HETATM   36  C46 UNL     1     -12.131  45.102 -29.463  1.00  0.00    -0.003 A 
HETATM   37  C47 UNL     1     -13.279  45.910 -29.371  1.00  0.00     0.011 A 
HETATM   38  C48 UNL     1     -14.374  45.537 -28.582  1.00  0.00     0.010 A 
HETATM   39 NA1  UNL     1     -13.758  44.854 -27.255  1.00  0.00    -0.398 Na
ATOM     40  HA1 UNL     1     -12.943  45.405 -26.987  1.00  0.00     0.155 HD
ENDROOT
BRANCH   1  41
HETATM   41  N3  UNL     1     -11.270  46.171 -31.471  1.00  0.00    -0.336 N 
HETATM   42  C1  UNL     1     -11.415  45.383 -32.460  1.00  0.00     0.124 C 
HETATM   43  N1  UNL     1     -11.298  44.041 -32.550  1.00  0.00    -0.279 NA
HETATM   44  N2  UNL     1     -11.773  45.881 -33.666  1.00  0.00    -0.279 NA
HETATM   45  H1  UNL     1     -10.888  43.638 -31.706  1.00  0.00     0.126 HD
HETATM   46  H2  UNL     1     -10.765  43.758 -33.365  1.00  0.00     0.126 HD
HETATM   47  H3  UNL     1     -12.056  46.851 -33.565  1.00  0.00     0.126 HD
HETATM   48  H4  UNL     1     -12.501  45.331 -34.100  1.00  0.00     0.126 HD
ATOM     49  H3  UNL     1     -11.450  47.166 -31.604  1.00  0.00     0.165 HD
ENDBRANCH   1  41
BRANCH   1  50
HETATM   50  C3  UNL     1      -9.792  44.569 -30.424  1.00  0.00     0.074 C 
BRANCH  50  51
HETATM   51  C4  UNL     1      -8.287  44.956 -30.355  1.00  0.00     0.018 C 
BRANCH  51  52
HETATM   52  C5  UNL     1      -7.863  45.569 -31.708  1.00  0.00     0.169 C 
BRANCH  52  53
HETATM   53  O1  UNL     1      -8.219  46.942 -31.814  1.00  0.00    -0.400 OA
HETATM   54  H10 UNL     1      -7.665  47.442 -31.189  1.00  0.00     0.209 HD
ENDBRANCH  52  53
ENDBRANCH  51  52
BRANCH  51  55
HETATM   55  C6  UNL     1      -7.389  43.756 -29.984  1.00  0.00     0.045 C 
BRANCH  55  56
HETATM   56  C7  UNL     1      -6.984  42.915 -31.175  1.00  0.00    -0.058 A 
HETATM   57  C8  UNL     1      -7.786  41.846 -31.595  1.00  0.00     0.007 A 
HETATM   58  C9  UNL     1      -7.406  41.062 -32.685  1.00  0.00     0.001 A 
HETATM   59  C10 UNL     1      -6.223  41.340 -33.366  1.00  0.00     0.000 A 
HETATM   60  C11 UNL     1      -5.419  42.403 -32.957  1.00  0.00     0.001 A 
HETATM   61  C12 UNL     1      -5.796  43.187 -31.867  1.00  0.00     0.007 A 
ENDBRANCH  55  56
ENDBRANCH  51  55
ENDBRANCH  50  51
ENDBRANCH   1  50
BRANCH  11  62
HETATM   62  S1  UNL     1     -13.085  43.193 -23.764  1.00  0.00     0.106 S 
HETATM   63  O3  UNL     1     -11.663  43.166 -24.109  1.00  0.00    -0.595 OA
HETATM   64  O4  UNL     1     -13.809  41.958 -24.053  1.00  0.00    -0.595 OA
HETATM   65  O5  UNL     1     -13.342  43.747 -22.437  1.00  0.00    -0.595 OA
ENDBRANCH  11  62
BRANCH  20  66
HETATM   66  C31 UNL     1     -21.768  40.394 -26.020  1.00  0.00     0.169 C 
BRANCH  66  67
HETATM   67  O6  UNL     1     -23.083  40.554 -25.508  1.00  0.00    -0.400 OA
HETATM   68  H40 UNL     1     -23.631  39.855 -25.902  1.00  0.00     0.209 HD
ENDBRANCH  66  67
ENDBRANCH  20  66
BRANCH  26  69
HETATM   69  O7  UNL     1     -18.953  45.707 -18.910  1.00  0.00    -0.361 OA
HETATM   70  H44 UNL     1     -18.918  44.833 -18.482  1.00  0.00     0.217 HD
ENDBRANCH  26  69
TORSDOF 11
ENDMDL
MODEL 8
REMARK minimizedAffinity -9.6351223
REMARK CNNscore 0.109747216
REMARK CNNaffinity 6.59168196
REMARK  11 active torsions:
REMARK  status: ('A' for Active; 'I' for Inactive)
REMARK       I    between atoms: N1_1  and  C1_2 
REMARK       I    between atoms: C1_2  and  N2_3 
REMARK    1  A    between atoms: N3_4  and  C2_6 
REMARK    2  A    between atoms: C2_6  and  C3_7 
REMARK    3  A    between atoms: C3_7  and  C4_8 
REMARK    4  A    between atoms: C4_8  and  C5_9 
REMARK    5  A    between atoms: C4_8  and  C6_11 
REMARK    6  A    between atoms: C5_9  and  O1_10 
REMARK    7  A    between atoms: C6_11  and  C7_12 
REMARK    8  A    between atoms: C21_27  and  S1_28 
REMARK    9  A    between atoms: C30_40  and  C31_41 
REMARK   10  A    between atoms: C31_41  and  O6_42 
REMARK   11  A    between atoms: C37_48  and  O7_49 
ROOT
HETATM    1  C2  UNL     1      -5.345  48.693 -21.892  1.00  0.00     0.171 C 
HETATM    2  O2  UNL     1      -4.410  48.163 -20.887  1.00  0.00    -0.316 OA
HETATM    3  C13 UNL     1      -4.885  47.216 -20.024  1.00  0.00     0.072 C 
HETATM    4  C14 UNL     1      -5.052  45.896 -20.425  1.00  0.00     0.037 C 
HETATM    5  C15 UNL     1      -5.741  45.017 -19.592  1.00  0.00     0.010 C 
HETATM    6  C16 UNL     1      -6.254  45.453 -18.362  1.00  0.00    -0.058 C 
HETATM    7  C17 UNL     1      -5.953  46.746 -17.916  1.00  0.00     0.010 C 
HETATM    8  C18 UNL     1      -5.245  47.620 -18.738  1.00  0.00     0.037 C 
HETATM    9  C19 UNL     1      -7.202  44.574 -17.581  1.00  0.00     0.040 C 
HETATM   10  C20 UNL     1      -8.687  44.936 -17.792  1.00  0.00     0.028 C 
HETATM   11  C21 UNL     1      -9.247  44.827 -19.232  1.00  0.00     0.140 C 
HETATM   12  C22 UNL     1     -10.648  45.516 -19.423  1.00  0.00     0.053 C 
HETATM   13  C23 UNL     1     -11.545  45.423 -18.197  1.00  0.00    -0.013 C 
HETATM   14  C24 UNL     1     -12.004  46.516 -17.562  1.00  0.00    -0.050 C 
HETATM   15  C25 UNL     1     -11.427  47.851 -17.888  1.00  0.00     0.043 C 
HETATM   16  C26 UNL     1     -11.609  48.013 -19.380  1.00  0.00     0.016 C 
HETATM   17  C27 UNL     1     -13.125  48.039 -19.749  1.00  0.00     0.039 C 
HETATM   18  C28 UNL     1     -14.125  46.966 -19.204  1.00  0.00     0.123 C 
HETATM   19  C29 UNL     1     -15.472  47.253 -19.932  1.00  0.00     0.039 C 
HETATM   20  C30 UNL     1     -16.719  46.430 -19.528  1.00  0.00     0.023 C 
HETATM   21  C32 UNL     1     -16.521  44.912 -19.713  1.00  0.00     0.101 C 
HETATM   22  C33 UNL     1     -15.811  44.386 -18.549  1.00  0.00    -0.101 C 
HETATM   23  C34 UNL     1     -15.186  44.227 -17.538  1.00  0.00    -0.066 C 
HETATM   24  C35 UNL     1     -14.457  44.265 -16.317  1.00  0.00     0.029 A 
HETATM   25  C36 UNL     1     -14.597  43.173 -15.447  1.00  0.00     0.057 A 
HETATM   26  C37 UNL     1     -13.927  43.162 -14.230  1.00  0.00     0.067 A 
HETATM   27  C38 UNL     1     -13.122  44.225 -13.859  1.00  0.00     0.037 A 
HETATM   28  C39 UNL     1     -12.976  45.309 -14.726  1.00  0.00     0.014 A 
HETATM   29  C40 UNL     1     -13.641  45.358 -15.975  1.00  0.00    -0.006 A 
HETATM   30  C41 UNL     1     -13.338  46.570 -16.868  1.00  0.00     0.185 C 
HETATM   31  O8  UNL     1     -14.367  47.045 -17.778  1.00  0.00    -0.371 OA
HETATM   32  C42 UNL     1     -10.738  46.943 -20.146  1.00  0.00     0.104 A 
HETATM   33  C43 UNL     1      -9.409  47.509 -20.660  1.00  0.00     0.082 A 
HETATM   34  C44 UNL     1      -8.819  46.927 -21.793  1.00  0.00     0.010 A 
HETATM   35  C45 UNL     1      -7.550  47.322 -22.239  1.00  0.00     0.011 A 
HETATM   36  C46 UNL     1      -6.838  48.343 -21.590  1.00  0.00    -0.003 A 
HETATM   37  C47 UNL     1      -7.486  49.001 -20.529  1.00  0.00     0.011 A 
HETATM   38  C48 UNL     1      -8.729  48.569 -20.051  1.00  0.00     0.010 A 
HETATM   39 NA1  UNL     1      -8.692  46.956 -20.099  1.00  0.00    -0.398 Na
ATOM     40  HA1 UNL     1      -7.762  46.670 -19.793  1.00  0.00     0.155 HD
ENDROOT
BRANCH   1  41
HETATM   41  N3  UNL     1      -5.306  50.168 -22.079  1.00  0.00    -0.336 N 
HETATM   42  C1  UNL     1      -5.882  50.748 -23.055  1.00  0.00     0.124 C 
HETATM   43  N1  UNL     1      -6.650  50.257 -24.050  1.00  0.00    -0.279 NA
HETATM   44  N2  UNL     1      -5.785  52.090 -23.188  1.00  0.00    -0.279 NA
HETATM   45  H1  UNL     1      -6.630  49.237 -24.077  1.00  0.00     0.126 HD
HETATM   46  H2  UNL     1      -6.389  50.634 -24.955  1.00  0.00     0.126 HD
HETATM   47  H3  UNL     1      -5.383  52.490 -22.345  1.00  0.00     0.126 HD
HETATM   48  H4  UNL     1      -6.677  52.514 -23.402  1.00  0.00     0.126 HD
ATOM     49  H3  UNL     1      -4.799  50.735 -21.399  1.00  0.00     0.165 HD
ENDBRANCH   1  41
BRANCH   1  50
HETATM   50  C3  UNL     1      -4.896  48.110 -23.279  1.00  0.00     0.074 C 
BRANCH  50  51
HETATM   51  C4  UNL     1      -3.654  48.752 -23.962  1.00  0.00     0.018 C 
BRANCH  51  52
HETATM   52  C5  UNL     1      -3.675  48.408 -25.468  1.00  0.00     0.169 C 
BRANCH  52  53
HETATM   53  O1  UNL     1      -4.872  48.842 -26.104  1.00  0.00    -0.400 OA
HETATM   54  H10 UNL     1      -4.862  49.814 -26.125  1.00  0.00     0.209 HD
ENDBRANCH  52  53
ENDBRANCH  51  52
BRANCH  51  55
HETATM   55  C6  UNL     1      -2.328  48.304 -23.309  1.00  0.00     0.045 C 
BRANCH  55  56
HETATM   56  C7  UNL     1      -1.594  49.425 -22.607  1.00  0.00    -0.058 A 
HETATM   57  C8  UNL     1      -1.429  50.668 -23.232  1.00  0.00     0.007 A 
HETATM   58  C9  UNL     1      -0.740  51.697 -22.589  1.00  0.00     0.001 A 
HETATM   59  C10 UNL     1      -0.211  51.494 -21.316  1.00  0.00     0.000 A 
HETATM   60  C11 UNL     1      -0.372  50.262 -20.685  1.00  0.00     0.001 A 
HETATM   61  C12 UNL     1      -1.059  49.231 -21.326  1.00  0.00     0.007 A 
ENDBRANCH  55  56
ENDBRANCH  51  55
ENDBRANCH  50  51
ENDBRANCH   1  50
BRANCH  11  62
HETATM   62  S1  UNL     1      -9.361  43.100 -19.807  1.00  0.00     0.106 S 
HETATM   63  O3  UNL     1     -10.516  43.117 -20.706  1.00  0.00    -0.595 OA
HETATM   64  O4  UNL     1      -9.549  42.325 -18.583  1.00  0.00    -0.595 OA
HETATM   65  O5  UNL     1      -8.101  42.841 -20.497  1.00  0.00    -0.595 OA
ENDBRANCH  11  62
BRANCH  20  66
HETATM   66  C31 UNL     1     -17.939  46.903 -20.335  1.00  0.00     0.169 C 
BRANCH  66  67
HETATM   67  O6  UNL     1     -18.809  47.689 -19.534  1.00  0.00    -0.400 OA
HETATM   68  H40 UNL     1     -19.587  47.900 -20.077  1.00  0.00     0.209 HD
ENDBRANCH  66  67
ENDBRANCH  20  66
BRANCH  26  69
HETATM   69  O7  UNL     1     -14.039  42.113 -13.367  1.00  0.00    -0.361 OA
HETATM   70  H44 UNL     1     -14.471  41.381 -13.844  1.00  0.00     0.217 HD
ENDBRANCH  26  69
TORSDOF 11
ENDMDL
MODEL 9
REMARK minimizedAffinity -10.4058933
REMARK CNNscore 0.106502689
REMARK CNNaffinity 6.86220312
REMARK  11 active torsions:
REMARK  status: ('A' for Active; 'I' for Inactive)
REMARK       I    between atoms: N1_1  and  C1_2 
REMARK       I    between atoms: C1_2  and  N2_3 
REMARK    1  A    between atoms: N3_4  and  C2_6 
REMARK    2  A    between atoms: C2_6  and  C3_7 
REMARK    3  A    between atoms: C3_7  and  C4_8 
REMARK    4  A    between atoms: C4_8  and  C5_9 
REMARK    5  A    between atoms: C4_8  and  C6_11 
REMARK    6  A    between atoms: C5_9  and  O1_10 
REMARK    7  A    between atoms: C6_11  and  C7_12 
REMARK    8  A    between atoms: C21_27  and  S1_28 
REMARK    9  A    between atoms: C30_40  and  C31_41 
REMARK   10  A    between atoms: C31_41  and  O6_42 
REMARK   11  A    between atoms: C37_48  and  O7_49 
ROOT
HETATM    1  C2  UNL     1      -7.735  47.601 -30.916  1.00  0.00     0.171 C 
HETATM    2  O2  UNL     1      -8.896  47.757 -31.808  1.00  0.00    -0.316 OA
HETATM    3  C13 UNL     1      -9.308  46.654 -32.502  1.00  0.00     0.072 C 
HETATM    4  C14 UNL     1     -10.039  45.648 -31.884  1.00  0.00     0.037 C 
HETATM    5  C15 UNL     1     -10.247  44.448 -32.562  1.00  0.00     0.010 C 
HETATM    6  C16 UNL     1      -9.733  44.259 -33.853  1.00  0.00    -0.058 C 
HETATM    7  C17 UNL     1      -9.123  45.335 -34.509  1.00  0.00     0.010 C 
HETATM    8  C18 UNL     1      -8.933  46.542 -33.842  1.00  0.00     0.037 C 
HETATM    9  C19 UNL     1      -9.748  42.886 -34.482  1.00  0.00     0.040 C 
HETATM   10  C20 UNL     1      -8.406  42.137 -34.350  1.00  0.00     0.028 C 
HETATM   11  C21 UNL     1      -7.898  41.838 -32.917  1.00  0.00     0.140 C 
HETATM   12  C22 UNL     1      -6.394  41.377 -32.860  1.00  0.00     0.053 C 
HETATM   13  C23 UNL     1      -5.966  40.546 -34.061  1.00  0.00    -0.013 C 
HETATM   14  C24 UNL     1      -4.968  40.931 -34.876  1.00  0.00    -0.050 C 
HETATM   15  C25 UNL     1      -4.431  42.318 -34.777  1.00  0.00     0.043 C 
HETATM   16  C26 UNL     1      -4.004  42.479 -33.335  1.00  0.00     0.016 C 
HETATM   17  C27 UNL     1      -2.849  41.489 -32.991  1.00  0.00     0.039 C 
HETATM   18  C28 UNL     1      -2.929  39.969 -33.355  1.00  0.00     0.123 C 
HETATM   19  C29 UNL     1      -1.673  39.322 -32.699  1.00  0.00     0.039 C 
HETATM   20  C30 UNL     1      -1.387  37.825 -32.969  1.00  0.00     0.023 C 
HETATM   21  C32 UNL     1      -2.543  36.905 -32.526  1.00  0.00     0.101 C 
HETATM   22  C33 UNL     1      -3.559  36.890 -33.578  1.00  0.00    -0.101 C 
HETATM   23  C34 UNL     1      -4.243  37.093 -34.541  1.00  0.00    -0.066 C 
HETATM   24  C35 UNL     1      -4.895  37.485 -35.744  1.00  0.00     0.029 A 
HETATM   25  C36 UNL     1      -5.648  36.511 -36.417  1.00  0.00     0.057 A 
HETATM   26  C37 UNL     1      -6.289  36.827 -37.608  1.00  0.00     0.067 A 
HETATM   27  C38 UNL     1      -6.189  38.098 -38.146  1.00  0.00     0.037 A 
HETATM   28  C39 UNL     1      -5.446  39.070 -37.475  1.00  0.00     0.014 A 
HETATM   29  C40 UNL     1      -4.778  38.789 -36.259  1.00  0.00    -0.006 A 
HETATM   30  C41 UNL     1      -4.058  39.963 -35.582  1.00  0.00     0.185 C 
HETATM   31  O8  UNL     1      -2.879  39.692 -34.776  1.00  0.00    -0.371 OA
HETATM   32  C42 UNL     1      -5.265  42.413 -32.391  1.00  0.00     0.104 A 
HETATM   33  C43 UNL     1      -5.772  43.797 -31.968  1.00  0.00     0.082 A 
HETATM   34  C44 UNL     1      -6.453  43.924 -30.747  1.00  0.00     0.010 A 
HETATM   35  C45 UNL     1      -7.041  45.137 -30.363  1.00  0.00     0.011 A 
HETATM   36  C46 UNL     1      -6.937  46.282 -31.169  1.00  0.00    -0.003 A 
HETATM   37  C47 UNL     1      -6.154  46.176 -32.333  1.00  0.00     0.011 A 
HETATM   38  C48 UNL     1      -5.614  44.951 -32.742  1.00  0.00     0.010 A 
HETATM   39 NA1  UNL     1      -6.736  43.836 -32.420  1.00  0.00    -0.398 Na
ATOM     40  HA1 UNL     1      -7.639  44.243 -32.663  1.00  0.00     0.155 HD
ENDROOT
BRANCH   1  41
HETATM   41  N3  UNL     1      -6.733  48.698 -30.983  1.00  0.00    -0.336 N 
HETATM   42  C1  UNL     1      -5.505  48.518 -30.700  1.00  0.00     0.124 C 
HETATM   43  N1  UNL     1      -4.829  47.403 -30.355  1.00  0.00    -0.279 NA
HETATM   44  N2  UNL     1      -4.647  49.562 -30.750  1.00  0.00    -0.279 NA
HETATM   45  H1  UNL     1      -5.457  46.622 -30.161  1.00  0.00     0.126 HD
HETATM   46  H2  UNL     1      -4.213  47.559 -29.564  1.00  0.00     0.126 HD
HETATM   47  H3  UNL     1      -5.098  50.355 -31.197  1.00  0.00     0.126 HD
HETATM   48  H4  UNL     1      -3.785  49.321 -31.219  1.00  0.00     0.126 HD
ATOM     49  H3  UNL     1      -7.042  49.628 -31.266  1.00  0.00     0.165 HD
ENDBRANCH   1  41
BRANCH   1  50
HETATM   50  C3  UNL     1      -8.284  47.659 -29.446  1.00  0.00     0.074 C 
BRANCH  50  51
HETATM   51  C4  UNL     1      -7.429  46.991 -28.331  1.00  0.00     0.018 C 
BRANCH  51  52
HETATM   52  C5  UNL     1      -8.011  45.594 -28.022  1.00  0.00     0.169 C 
BRANCH  52  53
HETATM   53  O1  UNL     1      -7.919  45.264 -26.641  1.00  0.00    -0.400 OA
HETATM   54  H10 UNL     1      -8.530  45.844 -26.155  1.00  0.00     0.209 HD
ENDBRANCH  52  53
ENDBRANCH  51  52
BRANCH  51  55
HETATM   55  C6  UNL     1      -7.352  47.855 -27.054  1.00  0.00     0.045 C 
BRANCH  55  56
HETATM   56  C7  UNL     1      -5.938  48.090 -26.570  1.00  0.00    -0.058 A 
HETATM   57  C8  UNL     1      -4.878  48.168 -27.483  1.00  0.00     0.007 A 
HETATM   58  C9  UNL     1      -3.573  48.372 -27.036  1.00  0.00     0.001 A 
HETATM   59  C10 UNL     1      -3.313  48.499 -25.673  1.00  0.00     0.000 A 
HETATM   60  C11 UNL     1      -4.361  48.425 -24.756  1.00  0.00     0.001 A 
HETATM   61  C12 UNL     1      -5.668  48.220 -25.201  1.00  0.00     0.007 A 
ENDBRANCH  55  56
ENDBRANCH  51  55
ENDBRANCH  50  51
ENDBRANCH   1  50
BRANCH  11  62
HETATM   62  S1  UNL     1      -8.923  40.598 -32.059  1.00  0.00     0.106 S 
HETATM   63  O3  UNL     1      -7.946  39.813 -31.303  1.00  0.00    -0.595 OA
HETATM   64  O4  UNL     1      -9.589  39.872 -33.138  1.00  0.00    -0.595 OA
HETATM   65  O5  UNL     1      -9.823  41.369 -31.205  1.00  0.00    -0.595 OA
ENDBRANCH  11  62
BRANCH  20  66
HETATM   66  C31 UNL     1      -0.086  37.408 -32.265  1.00  0.00     0.169 C 
BRANCH  66  67
HETATM   67  O6  UNL     1       1.049  37.939 -32.934  1.00  0.00    -0.400 OA
HETATM   68  H40 UNL     1       1.837  37.589 -32.484  1.00  0.00     0.209 HD
ENDBRANCH  66  67
ENDBRANCH  20  66
BRANCH  26  69
HETATM   69  O7  UNL     1      -7.033  35.904 -38.281  1.00  0.00    -0.361 OA
HETATM   70  H44 UNL     1      -7.162  35.140 -37.690  1.00  0.00     0.217 HD
ENDBRANCH  26  69
TORSDOF 11
ENDMDL
