MODEL 1
REMARK minimizedAffinity -9.12911034
REMARK CNNscore 0.479198664
REMARK CNNaffinity 7.61588049
REMARK  19 active torsions:
REMARK  status: ('A' for Active; 'I' for Inactive)
REMARK    1  A    between atoms: C19_20  and  O2_21 
REMARK    2  A    between atoms: C19_20  and  C20_22 
REMARK    3  A    between atoms: C20_22  and  C21_24 
REMARK    4  A    between atoms: C21_24  and  O4_25 
REMARK    5  A    between atoms: O4_25  and  C22_26 
REMARK    6  A    between atoms: C22_26  and  C23_28 
REMARK    7  A    between atoms: C23_28  and  C24_29 
REMARK    8  A    between atoms: C24_29  and  C25_30 
REMARK       I    between atoms: C25_30  and  N1_32 
REMARK    9  A    between atoms: N1_32  and  C26_33 
REMARK   10  A    between atoms: C26_33  and  C27_34 
REMARK   11  A    between atoms: C27_34  and  C28_35 
REMARK   12  A    between atoms: C28_35  and  C29_36 
REMARK   13  A    between atoms: C29_36  and  C30_37 
REMARK   14  A    between atoms: C30_37  and  C31_38 
REMARK       I    between atoms: C31_38  and  N2_40 
REMARK   15  A    between atoms: N2_40  and  C32_41 
REMARK   16  A    between atoms: C32_41  and  C33_42 
REMARK   17  A    between atoms: C32_41  and  C40_49 
REMARK   18  A    between atoms: C33_42  and  C34_43 
REMARK   19  A    between atoms: C40_49  and  O9_51 
ROOT
HETATM    1  C22 UNL     1      -3.629   3.542  11.446  1.00  0.00     0.259 C 
HETATM    2  O5  UNL     1      -2.679   2.799  11.247  1.00  0.00    -0.265 OA
ENDROOT
BRANCH   1   3
HETATM    3  O4  UNL     1      -3.597   4.639  12.254  1.00  0.00    -0.314 OA
BRANCH   3   4
HETATM    4  C21 UNL     1      -2.826   4.487  13.432  1.00  0.00     0.260 C 
BRANCH   4   5
HETATM    5  C20 UNL     1      -1.629   5.396  13.714  1.00  0.00     0.185 C 
HETATM    6  O3  UNL     1      -0.986   5.242  14.766  1.00  0.00    -0.292 OA
BRANCH   5   7
HETATM    7  C19 UNL     1      -1.256   6.583  12.802  1.00  0.00     0.128 C 
HETATM    8  C14 UNL     1      -0.025   7.440  13.217  1.00  0.00    -0.002 C 
HETATM    9  C13 UNL     1       1.296   6.657  13.187  1.00  0.00     0.013 C 
HETATM   10  C15 UNL     1      -0.171   8.036  14.645  1.00  0.00     0.019 C 
HETATM   11  C16 UNL     1      -0.086   8.630  12.198  1.00  0.00     0.002 C 
HETATM   12  C12 UNL     1       2.476   7.534  12.798  1.00  0.00     0.007 C 
HETATM   13  C11 UNL     1       2.368   8.042  11.350  1.00  0.00     0.002 C 
HETATM   14  C2  UNL     1       3.037   7.092  10.246  1.00  0.00    -0.016 C 
HETATM   15  C10 UNL     1       0.974   8.683  11.046  1.00  0.00    -0.004 C 
HETATM   16  C1  UNL     1       4.540   7.487  10.175  1.00  0.00     0.020 C 
HETATM   17  C3  UNL     1       2.930   5.576  10.565  1.00  0.00     0.022 C 
HETATM   18  C7  UNL     1       2.453   7.272   8.845  1.00  0.00    -0.068 C 
HETATM   19  C4  UNL     1       3.606   4.676   9.528  1.00  0.00     0.084 C 
HETATM   20  C5  UNL     1       3.232   5.048   8.115  1.00  0.00     0.149 C 
HETATM   21  O1  UNL     1       3.480   4.313   7.162  1.00  0.00    -0.293 OA
HETATM   22  C6  UNL     1       2.558   6.345   7.876  1.00  0.00     0.053 C 
HETATM   23  C8  UNL     1       1.617   8.491   8.618  1.00  0.00     0.035 C 
HETATM   24  C9  UNL     1       0.471   8.440   9.619  1.00  0.00     0.010 C 
HETATM   25  C17 UNL     1      -1.576   8.736  11.776  1.00  0.00     0.009 C 
HETATM   26  C18 UNL     1      -2.327   7.628  12.520  1.00  0.00     0.047 C 
BRANCH   7  27
HETATM   27  O2  UNL     1      -0.965   5.984  11.510  1.00  0.00    -0.381 OA
HETATM   28  H27 UNL     1      -0.817   5.027  11.670  1.00  0.00     0.211 HD
ENDBRANCH   7  27
ENDBRANCH   5   7
ENDBRANCH   4   5
ENDBRANCH   3   4
ENDBRANCH   1   3
BRANCH   1  29
HETATM   29  C23 UNL     1      -5.002   3.376  10.856  1.00  0.00     0.120 C 
BRANCH  29  30
HETATM   30  C24 UNL     1      -5.735   2.209  11.502  1.00  0.00     0.112 C 
BRANCH  30  31
HETATM   31  C25 UNL     1      -6.736   2.696  12.527  1.00  0.00     0.217 C 
HETATM   32  O6  UNL     1      -7.738   2.064  12.843  1.00  0.00    -0.274 OA
HETATM   33  N1  UNL     1      -6.412   3.928  13.051  1.00  0.00    -0.361 N 
HETATM   34  H34 UNL     1      -5.546   4.375  12.777  1.00  0.00     0.162 HD
BRANCH  33  35
HETATM   35  C26 UNL     1      -7.252   4.590  14.030  1.00  0.00     0.122 C 
BRANCH  35  36
HETATM   36  C27 UNL     1      -6.439   5.453  14.994  1.00  0.00     0.020 C 
BRANCH  36  37
HETATM   37  C28 UNL     1      -7.096   6.805  15.296  1.00  0.00     0.002 C 
BRANCH  37  38
HETATM   38  C29 UNL     1      -8.412   6.686  16.072  1.00  0.00     0.009 C 
BRANCH  38  39
HETATM   39  C30 UNL     1      -9.444   7.722  15.628  1.00  0.00     0.103 C 
BRANCH  39  40
HETATM   40  C31 UNL     1     -10.159   7.365  14.336  1.00  0.00     0.218 C 
HETATM   41  O7  UNL     1      -9.705   6.606  13.487  1.00  0.00    -0.274 OA
HETATM   42  N2  UNL     1     -11.379   8.000  14.213  1.00  0.00    -0.346 N 
HETATM   43  H45 UNL     1     -11.514   8.828  14.784  1.00  0.00     0.163 HD
BRANCH  42  44
HETATM   44  C32 UNL     1     -12.099   7.993  12.930  1.00  0.00     0.186 C 
BRANCH  44  45
HETATM   45  C33 UNL     1     -13.400   7.191  13.058  1.00  0.00     0.074 C 
BRANCH  45  46
HETATM   46  C34 UNL     1     -14.018   7.244  14.433  1.00  0.00    -0.056 A 
HETATM   47  C35 UNL     1     -14.862   6.214  14.874  1.00  0.00     0.007 A 
HETATM   48  C36 UNL     1     -15.446   6.270  16.139  1.00  0.00     0.001 A 
HETATM   49  C37 UNL     1     -15.193   7.354  16.978  1.00  0.00     0.000 A 
HETATM   50  C38 UNL     1     -14.354   8.381  16.553  1.00  0.00     0.001 A 
HETATM   51  C39 UNL     1     -13.768   8.327  15.288  1.00  0.00     0.007 A 
ENDBRANCH  45  46
ENDBRANCH  44  45
BRANCH  44  52
HETATM   52  C40 UNL     1     -12.414   9.453  12.606  1.00  0.00     0.163 C 
HETATM   53  O8  UNL     1     -13.282   9.835  11.831  1.00  0.00    -0.648 OA
BRANCH  52  54
HETATM   54  O9  UNL     1     -11.630  10.335  13.251  1.00  0.00    -0.775 OA
HETATM   55  H54 UNL     1     -11.948  11.214  12.955  1.00  0.00     0.167 HD
ENDBRANCH  52  54
ENDBRANCH  44  52
ENDBRANCH  42  44
ENDBRANCH  39  40
ENDBRANCH  38  39
ENDBRANCH  37  38
ENDBRANCH  36  37
ENDBRANCH  35  36
ENDBRANCH  33  35
ENDBRANCH  30  31
ENDBRANCH  29  30
ENDBRANCH   1  29
TORSDOF 19
ENDMDL
MODEL 2
REMARK minimizedAffinity -8.37946606
REMARK CNNscore 0.449394584
REMARK CNNaffinity 7.53454638
REMARK  19 active torsions:
REMARK  status: ('A' for Active; 'I' for Inactive)
REMARK    1  A    between atoms: C19_20  and  O2_21 
REMARK    2  A    between atoms: C19_20  and  C20_22 
REMARK    3  A    between atoms: C20_22  and  C21_24 
REMARK    4  A    between atoms: C21_24  and  O4_25 
REMARK    5  A    between atoms: O4_25  and  C22_26 
REMARK    6  A    between atoms: C22_26  and  C23_28 
REMARK    7  A    between atoms: C23_28  and  C24_29 
REMARK    8  A    between atoms: C24_29  and  C25_30 
REMARK       I    between atoms: C25_30  and  N1_32 
REMARK    9  A    between atoms: N1_32  and  C26_33 
REMARK   10  A    between atoms: C26_33  and  C27_34 
REMARK   11  A    between atoms: C27_34  and  C28_35 
REMARK   12  A    between atoms: C28_35  and  C29_36 
REMARK   13  A    between atoms: C29_36  and  C30_37 
REMARK   14  A    between atoms: C30_37  and  C31_38 
REMARK       I    between atoms: C31_38  and  N2_40 
REMARK   15  A    between atoms: N2_40  and  C32_41 
REMARK   16  A    between atoms: C32_41  and  C33_42 
REMARK   17  A    between atoms: C32_41  and  C40_49 
REMARK   18  A    between atoms: C33_42  and  C34_43 
REMARK   19  A    between atoms: C40_49  and  O9_51 
ROOT
HETATM    1  C22 UNL     1      -3.674   2.685  11.892  1.00  0.00     0.259 C 
HETATM    2  O5  UNL     1      -2.965   1.764  11.513  1.00  0.00    -0.265 OA
ENDROOT
BRANCH   1   3
HETATM    3  O4  UNL     1      -3.391   3.493  12.952  1.00  0.00    -0.314 OA
BRANCH   3   4
HETATM    4  C21 UNL     1      -2.076   4.016  12.967  1.00  0.00     0.260 C 
BRANCH   4   5
HETATM    5  C20 UNL     1      -1.783   5.398  13.554  1.00  0.00     0.185 C 
HETATM    6  O3  UNL     1      -2.032   5.613  14.752  1.00  0.00    -0.292 OA
BRANCH   5   7
HETATM    7  C19 UNL     1      -1.302   6.581  12.688  1.00  0.00     0.128 C 
HETATM    8  C14 UNL     1      -0.039   7.350  13.173  1.00  0.00    -0.002 C 
HETATM    9  C13 UNL     1       1.233   6.488  13.174  1.00  0.00     0.013 C 
HETATM   10  C15 UNL     1      -0.205   7.920  14.609  1.00  0.00     0.019 C 
HETATM   11  C16 UNL     1       0.015   8.566  12.184  1.00  0.00     0.002 C 
HETATM   12  C12 UNL     1       2.479   7.298  12.854  1.00  0.00     0.007 C 
HETATM   13  C11 UNL     1       2.461   7.847  11.417  1.00  0.00     0.002 C 
HETATM   14  C2  UNL     1       3.115   6.884  10.315  1.00  0.00    -0.016 C 
HETATM   15  C10 UNL     1       1.121   8.580  11.076  1.00  0.00    -0.004 C 
HETATM   16  C1  UNL     1       4.641   7.186  10.314  1.00  0.00     0.020 C 
HETATM   17  C3  UNL     1       2.903   5.370  10.590  1.00  0.00     0.022 C 
HETATM   18  C7  UNL     1       2.600   7.133   8.898  1.00  0.00    -0.068 C 
HETATM   19  C4  UNL     1       3.564   4.455   9.557  1.00  0.00     0.084 C 
HETATM   20  C5  UNL     1       3.271   4.883   8.141  1.00  0.00     0.149 C 
HETATM   21  O1  UNL     1       3.512   4.157   7.180  1.00  0.00    -0.293 OA
HETATM   22  C6  UNL     1       2.687   6.224   7.909  1.00  0.00     0.053 C 
HETATM   23  C8  UNL     1       1.849   8.406   8.670  1.00  0.00     0.035 C 
HETATM   24  C9  UNL     1       0.663   8.402   9.624  1.00  0.00     0.010 C 
HETATM   25  C17 UNL     1      -1.448   8.774  11.707  1.00  0.00     0.009 C 
HETATM   26  C18 UNL     1      -2.294   7.697  12.392  1.00  0.00     0.047 C 
BRANCH   7  27
HETATM   27  O2  UNL     1      -0.995   5.996  11.393  1.00  0.00    -0.381 OA
HETATM   28  H27 UNL     1      -0.912   5.028  11.534  1.00  0.00     0.211 HD
ENDBRANCH   7  27
ENDBRANCH   5   7
ENDBRANCH   4   5
ENDBRANCH   3   4
ENDBRANCH   1   3
BRANCH   1  29
HETATM   29  C23 UNL     1      -4.986   3.085  11.275  1.00  0.00     0.120 C 
BRANCH  29  30
HETATM   30  C24 UNL     1      -6.081   2.091  11.634  1.00  0.00     0.112 C 
BRANCH  30  31
HETATM   31  C25 UNL     1      -7.069   2.699  12.606  1.00  0.00     0.217 C 
HETATM   32  O6  UNL     1      -8.130   2.165  12.911  1.00  0.00    -0.274 OA
HETATM   33  N1  UNL     1      -6.661   3.921  13.094  1.00  0.00    -0.361 N 
HETATM   34  H34 UNL     1      -5.752   4.284  12.832  1.00  0.00     0.162 HD
BRANCH  33  35
HETATM   35  C26 UNL     1      -7.473   4.688  14.017  1.00  0.00     0.122 C 
BRANCH  35  36
HETATM   36  C27 UNL     1      -6.976   6.127  14.160  1.00  0.00     0.020 C 
BRANCH  36  37
HETATM   37  C28 UNL     1      -6.612   6.501  15.601  1.00  0.00     0.002 C 
BRANCH  37  38
HETATM   38  C29 UNL     1      -7.825   6.594  16.533  1.00  0.00     0.009 C 
BRANCH  38  39
HETATM   39  C30 UNL     1      -9.133   6.779  15.766  1.00  0.00     0.103 C 
BRANCH  39  40
HETATM   40  C31 UNL     1      -9.642   8.210  15.750  1.00  0.00     0.218 C 
HETATM   41  O7  UNL     1      -9.519   8.972  14.797  1.00  0.00    -0.274 OA
HETATM   42  N2  UNL     1     -10.250   8.569  16.936  1.00  0.00    -0.346 N 
HETATM   43  H45 UNL     1     -10.019   8.006  17.749  1.00  0.00     0.163 HD
BRANCH  42  44
HETATM   44  C32 UNL     1     -10.571   9.978  17.215  1.00  0.00     0.186 C 
BRANCH  44  45
HETATM   45  C33 UNL     1     -11.580  10.504  16.187  1.00  0.00     0.074 C 
BRANCH  45  46
HETATM   46  C34 UNL     1     -11.303  11.913  15.722  1.00  0.00    -0.056 A 
HETATM   47  C35 UNL     1     -10.098  12.223  15.074  1.00  0.00     0.007 A 
HETATM   48  C36 UNL     1      -9.835  13.528  14.658  1.00  0.00     0.001 A 
HETATM   49  C37 UNL     1     -10.771  14.536  14.884  1.00  0.00     0.000 A 
HETATM   50  C38 UNL     1     -11.972  14.239  15.524  1.00  0.00     0.001 A 
HETATM   51  C39 UNL     1     -12.239  12.934  15.940  1.00  0.00     0.007 A 
ENDBRANCH  45  46
ENDBRANCH  44  45
BRANCH  44  52
HETATM   52  C40 UNL     1     -11.184  10.011  18.614  1.00  0.00     0.163 C 
HETATM   53  O8  UNL     1     -11.181   9.081  19.411  1.00  0.00    -0.648 OA
BRANCH  52  54
HETATM   54  O9  UNL     1     -11.764  11.184  18.927  1.00  0.00    -0.775 OA
HETATM   55  H54 UNL     1     -12.101  11.060  19.839  1.00  0.00     0.167 HD
ENDBRANCH  52  54
ENDBRANCH  44  52
ENDBRANCH  42  44
ENDBRANCH  39  40
ENDBRANCH  38  39
ENDBRANCH  37  38
ENDBRANCH  36  37
ENDBRANCH  35  36
ENDBRANCH  33  35
ENDBRANCH  30  31
ENDBRANCH  29  30
ENDBRANCH   1  29
TORSDOF 19
ENDMDL
MODEL 3
REMARK minimizedAffinity -8.78376293
REMARK CNNscore 0.340537459
REMARK CNNaffinity 7.00674963
REMARK  19 active torsions:
REMARK  status: ('A' for Active; 'I' for Inactive)
REMARK    1  A    between atoms: C19_20  and  O2_21 
REMARK    2  A    between atoms: C19_20  and  C20_22 
REMARK    3  A    between atoms: C20_22  and  C21_24 
REMARK    4  A    between atoms: C21_24  and  O4_25 
REMARK    5  A    between atoms: O4_25  and  C22_26 
REMARK    6  A    between atoms: C22_26  and  C23_28 
REMARK    7  A    between atoms: C23_28  and  C24_29 
REMARK    8  A    between atoms: C24_29  and  C25_30 
REMARK       I    between atoms: C25_30  and  N1_32 
REMARK    9  A    between atoms: N1_32  and  C26_33 
REMARK   10  A    between atoms: C26_33  and  C27_34 
REMARK   11  A    between atoms: C27_34  and  C28_35 
REMARK   12  A    between atoms: C28_35  and  C29_36 
REMARK   13  A    between atoms: C29_36  and  C30_37 
REMARK   14  A    between atoms: C30_37  and  C31_38 
REMARK       I    between atoms: C31_38  and  N2_40 
REMARK   15  A    between atoms: N2_40  and  C32_41 
REMARK   16  A    between atoms: C32_41  and  C33_42 
REMARK   17  A    between atoms: C32_41  and  C40_49 
REMARK   18  A    between atoms: C33_42  and  C34_43 
REMARK   19  A    between atoms: C40_49  and  O9_51 
ROOT
HETATM    1  C22 UNL     1      -5.114   5.065  13.345  1.00  0.00     0.259 C 
HETATM    2  O5  UNL     1      -5.325   6.255  13.532  1.00  0.00    -0.265 OA
ENDROOT
BRANCH   1   3
HETATM    3  O4  UNL     1      -3.893   4.469  13.452  1.00  0.00    -0.314 OA
BRANCH   3   4
HETATM    4  C21 UNL     1      -2.973   5.148  14.286  1.00  0.00     0.260 C 
BRANCH   4   5
HETATM    5  C20 UNL     1      -1.549   5.446  13.812  1.00  0.00     0.185 C 
HETATM    6  O3  UNL     1      -0.603   4.796  14.287  1.00  0.00    -0.292 OA
BRANCH   5   7
HETATM    7  C19 UNL     1      -1.222   6.611  12.853  1.00  0.00     0.128 C 
HETATM    8  C14 UNL     1      -0.005   7.509  13.216  1.00  0.00    -0.002 C 
HETATM    9  C13 UNL     1       1.335   6.757  13.186  1.00  0.00     0.013 C 
HETATM   10  C15 UNL     1      -0.137   8.149  14.626  1.00  0.00     0.019 C 
HETATM   11  C16 UNL     1      -0.113   8.663  12.160  1.00  0.00     0.002 C 
HETATM   12  C12 UNL     1       2.485   7.647  12.745  1.00  0.00     0.007 C 
HETATM   13  C11 UNL     1       2.338   8.104  11.284  1.00  0.00     0.002 C 
HETATM   14  C2  UNL     1       3.009   7.133  10.198  1.00  0.00    -0.016 C 
HETATM   15  C10 UNL     1       0.923   8.701  10.986  1.00  0.00    -0.004 C 
HETATM   16  C1  UNL     1       4.500   7.560  10.085  1.00  0.00     0.020 C 
HETATM   17  C3  UNL     1       2.944   5.627  10.569  1.00  0.00     0.022 C 
HETATM   18  C7  UNL     1       2.394   7.253   8.804  1.00  0.00    -0.068 C 
HETATM   19  C4  UNL     1       3.621   4.708   9.550  1.00  0.00     0.084 C 
HETATM   20  C5  UNL     1       3.212   5.024   8.133  1.00  0.00     0.149 C 
HETATM   21  O1  UNL     1       3.459   4.263   7.200  1.00  0.00    -0.293 OA
HETATM   22  C6  UNL     1       2.502   6.296   7.864  1.00  0.00     0.053 C 
HETATM   23  C8  UNL     1       1.525   8.443   8.553  1.00  0.00     0.035 C 
HETATM   24  C9  UNL     1       0.399   8.399   9.578  1.00  0.00     0.010 C 
HETATM   25  C17 UNL     1      -1.613   8.720  11.763  1.00  0.00     0.009 C 
HETATM   26  C18 UNL     1      -2.322   7.621  12.559  1.00  0.00     0.047 C 
BRANCH   7  27
HETATM   27  O2  UNL     1      -0.941   5.976  11.577  1.00  0.00    -0.381 OA
HETATM   28  H27 UNL     1      -0.767   5.028  11.766  1.00  0.00     0.211 HD
ENDBRANCH   7  27
ENDBRANCH   5   7
ENDBRANCH   4   5
ENDBRANCH   3   4
ENDBRANCH   1   3
BRANCH   1  29
HETATM   29  C23 UNL     1      -6.150   4.049  12.949  1.00  0.00     0.120 C 
BRANCH  29  30
HETATM   30  C24 UNL     1      -7.434   4.242  13.744  1.00  0.00     0.112 C 
BRANCH  30  31
HETATM   31  C25 UNL     1      -8.375   5.191  13.035  1.00  0.00     0.217 C 
HETATM   32  O6  UNL     1      -8.390   5.341  11.817  1.00  0.00    -0.274 OA
HETATM   33  N1  UNL     1      -9.197   5.880  13.899  1.00  0.00    -0.361 N 
HETATM   34  H34 UNL     1      -9.161   5.676  14.890  1.00  0.00     0.162 HD
BRANCH  33  35
HETATM   35  C26 UNL     1     -10.155   6.861  13.429  1.00  0.00     0.122 C 
BRANCH  35  36
HETATM   36  C27 UNL     1     -11.493   6.752  14.160  1.00  0.00     0.020 C 
BRANCH  36  37
HETATM   37  C28 UNL     1     -12.570   7.685  13.592  1.00  0.00     0.002 C 
BRANCH  37  38
HETATM   38  C29 UNL     1     -13.915   6.991  13.353  1.00  0.00     0.009 C 
BRANCH  38  39
HETATM   39  C30 UNL     1     -14.368   6.172  14.561  1.00  0.00     0.103 C 
BRANCH  39  40
HETATM   40  C31 UNL     1     -15.438   5.142  14.242  1.00  0.00     0.218 C 
HETATM   41  O7  UNL     1     -16.388   5.348  13.494  1.00  0.00    -0.274 OA
HETATM   42  N2  UNL     1     -15.234   3.945  14.899  1.00  0.00    -0.346 N 
HETATM   43  H45 UNL     1     -14.634   3.978  15.718  1.00  0.00     0.163 HD
BRANCH  42  44
HETATM   44  C32 UNL     1     -16.289   2.920  14.930  1.00  0.00     0.186 C 
BRANCH  44  45
HETATM   45  C33 UNL     1     -15.774   1.654  15.628  1.00  0.00     0.074 C 
BRANCH  45  46
HETATM   46  C34 UNL     1     -15.649   0.460  14.714  1.00  0.00    -0.056 A 
HETATM   47  C35 UNL     1     -15.733   0.618  13.323  1.00  0.00     0.007 A 
HETATM   48  C36 UNL     1     -15.632  -0.488  12.478  1.00  0.00     0.001 A 
HETATM   49  C37 UNL     1     -15.447  -1.762  13.014  1.00  0.00     0.000 A 
HETATM   50  C38 UNL     1     -15.360  -1.930  14.393  1.00  0.00     0.001 A 
HETATM   51  C39 UNL     1     -15.459  -0.826  15.241  1.00  0.00     0.007 A 
ENDBRANCH  45  46
ENDBRANCH  44  45
BRANCH  44  52
HETATM   52  C40 UNL     1     -17.449   3.519  15.724  1.00  0.00     0.163 C 
HETATM   53  O8  UNL     1     -18.587   3.679  15.303  1.00  0.00    -0.648 OA
BRANCH  52  54
HETATM   54  O9  UNL     1     -17.119   3.888  16.975  1.00  0.00    -0.775 OA
HETATM   55  H54 UNL     1     -17.949   4.242  17.357  1.00  0.00     0.167 HD
ENDBRANCH  52  54
ENDBRANCH  44  52
ENDBRANCH  42  44
ENDBRANCH  39  40
ENDBRANCH  38  39
ENDBRANCH  37  38
ENDBRANCH  36  37
ENDBRANCH  35  36
ENDBRANCH  33  35
ENDBRANCH  30  31
ENDBRANCH  29  30
ENDBRANCH   1  29
TORSDOF 19
ENDMDL
MODEL 4
REMARK minimizedAffinity -7.82803011
REMARK CNNscore 0.33690393
REMARK CNNaffinity 6.25759125
REMARK  19 active torsions:
REMARK  status: ('A' for Active; 'I' for Inactive)
REMARK    1  A    between atoms: C19_20  and  O2_21 
REMARK    2  A    between atoms: C19_20  and  C20_22 
REMARK    3  A    between atoms: C20_22  and  C21_24 
REMARK    4  A    between atoms: C21_24  and  O4_25 
REMARK    5  A    between atoms: O4_25  and  C22_26 
REMARK    6  A    between atoms: C22_26  and  C23_28 
REMARK    7  A    between atoms: C23_28  and  C24_29 
REMARK    8  A    between atoms: C24_29  and  C25_30 
REMARK       I    between atoms: C25_30  and  N1_32 
REMARK    9  A    between atoms: N1_32  and  C26_33 
REMARK   10  A    between atoms: C26_33  and  C27_34 
REMARK   11  A    between atoms: C27_34  and  C28_35 
REMARK   12  A    between atoms: C28_35  and  C29_36 
REMARK   13  A    between atoms: C29_36  and  C30_37 
REMARK   14  A    between atoms: C30_37  and  C31_38 
REMARK       I    between atoms: C31_38  and  N2_40 
REMARK   15  A    between atoms: N2_40  and  C32_41 
REMARK   16  A    between atoms: C32_41  and  C33_42 
REMARK   17  A    between atoms: C32_41  and  C40_49 
REMARK   18  A    between atoms: C33_42  and  C34_43 
REMARK   19  A    between atoms: C40_49  and  O9_51 
ROOT
HETATM    1  C22 UNL     1       0.490  11.364  17.489  1.00  0.00     0.259 C 
HETATM    2  O5  UNL     1       0.243  10.701  16.492  1.00  0.00    -0.265 OA
ENDROOT
BRANCH   1   3
HETATM    3  O4  UNL     1       1.744  11.687  17.911  1.00  0.00    -0.314 OA
BRANCH   3   4
HETATM    4  C21 UNL     1       2.487  10.608  18.448  1.00  0.00     0.260 C 
BRANCH   4   5
HETATM    5  C20 UNL     1       2.758  10.506  19.950  1.00  0.00     0.185 C 
HETATM    6  O3  UNL     1       2.668   9.400  20.509  1.00  0.00    -0.292 OA
BRANCH   5   7
HETATM    7  C19 UNL     1       3.020  11.746  20.831  1.00  0.00     0.128 C 
HETATM    8  C14 UNL     1       3.732  11.512  22.194  1.00  0.00    -0.002 C 
HETATM    9  C13 UNL     1       5.168  10.984  22.045  1.00  0.00     0.013 C 
HETATM   10  C15 UNL     1       2.968  10.507  23.099  1.00  0.00     0.019 C 
HETATM   11  C16 UNL     1       3.638  12.924  22.869  1.00  0.00     0.002 C 
HETATM   12  C12 UNL     1       6.083  11.486  23.150  1.00  0.00     0.007 C 
HETATM   13  C11 UNL     1       6.291  13.009  23.085  1.00  0.00     0.002 C 
HETATM   14  C2  UNL     1       7.531  13.487  22.189  1.00  0.00    -0.016 C 
HETATM   15  C10 UNL     1       4.939  13.789  22.976  1.00  0.00    -0.004 C 
HETATM   16  C1  UNL     1       8.783  13.449  23.112  1.00  0.00     0.020 C 
HETATM   17  C3  UNL     1       7.796  12.596  20.946  1.00  0.00     0.022 C 
HETATM   18  C7  UNL     1       7.395  14.917  21.664  1.00  0.00    -0.068 C 
HETATM   19  C4  UNL     1       9.006  13.033  20.117  1.00  0.00     0.084 C 
HETATM   20  C5  UNL     1       9.004  14.515  19.838  1.00  0.00     0.149 C 
HETATM   21  O1  UNL     1       9.753  15.020  19.005  1.00  0.00    -0.293 OA
HETATM   22  C6  UNL     1       8.079  15.382  20.604  1.00  0.00     0.053 C 
HETATM   23  C8  UNL     1       6.345  15.769  22.302  1.00  0.00     0.035 C 
HETATM   24  C9  UNL     1       5.014  15.054  22.113  1.00  0.00     0.010 C 
HETATM   25  C17 UNL     1       2.402  13.607  22.225  1.00  0.00     0.009 C 
HETATM   26  C18 UNL     1       1.829  12.617  21.207  1.00  0.00     0.047 C 
BRANCH   7  27
HETATM   27  O2  UNL     1       3.874  12.603  20.025  1.00  0.00    -0.381 OA
HETATM   28  H27 UNL     1       4.248  12.039  19.313  1.00  0.00     0.211 HD
ENDBRANCH   7  27
ENDBRANCH   5   7
ENDBRANCH   4   5
ENDBRANCH   3   4
ENDBRANCH   1   3
BRANCH   1  29
HETATM   29  C23 UNL     1      -0.534  11.926  18.436  1.00  0.00     0.120 C 
BRANCH  29  30
HETATM   30  C24 UNL     1      -1.518  10.851  18.875  1.00  0.00     0.112 C 
BRANCH  30  31
HETATM   31  C25 UNL     1      -2.862  11.037  18.204  1.00  0.00     0.217 C 
HETATM   32  O6  UNL     1      -3.819  11.576  18.750  1.00  0.00    -0.274 OA
HETATM   33  N1  UNL     1      -2.901  10.523  16.927  1.00  0.00    -0.361 N 
HETATM   34  H34 UNL     1      -2.060  10.130  16.521  1.00  0.00     0.162 HD
BRANCH  33  35
HETATM   35  C26 UNL     1      -4.102  10.571  16.117  1.00  0.00     0.122 C 
BRANCH  35  36
HETATM   36  C27 UNL     1      -4.764   9.200  15.989  1.00  0.00     0.020 C 
BRANCH  36  37
HETATM   37  C28 UNL     1      -5.204   8.872  14.558  1.00  0.00     0.002 C 
BRANCH  37  38
HETATM   38  C29 UNL     1      -4.047   8.460  13.641  1.00  0.00     0.009 C 
BRANCH  38  39
HETATM   39  C30 UNL     1      -3.267   7.266  14.192  1.00  0.00     0.103 C 
BRANCH  39  40
HETATM   40  C31 UNL     1      -2.727   6.336  13.120  1.00  0.00     0.218 C 
HETATM   41  O7  UNL     1      -2.351   6.707  12.014  1.00  0.00    -0.274 OA
HETATM   42  N2  UNL     1      -2.717   5.015  13.521  1.00  0.00    -0.346 N 
HETATM   43  H45 UNL     1      -3.329   4.775  14.295  1.00  0.00     0.163 HD
BRANCH  42  44
HETATM   44  C32 UNL     1      -2.481   3.939  12.546  1.00  0.00     0.186 C 
BRANCH  44  45
HETATM   45  C33 UNL     1      -3.530   4.000  11.427  1.00  0.00     0.074 C 
BRANCH  45  46
HETATM   46  C34 UNL     1      -4.856   3.385  11.799  1.00  0.00    -0.056 A 
HETATM   47  C35 UNL     1      -5.768   4.089  12.597  1.00  0.00     0.007 A 
HETATM   48  C36 UNL     1      -6.989   3.515  12.954  1.00  0.00     0.001 A 
HETATM   49  C37 UNL     1      -7.311   2.232  12.515  1.00  0.00     0.000 A 
HETATM   50  C38 UNL     1      -6.414   1.523  11.719  1.00  0.00     0.001 A 
HETATM   51  C39 UNL     1      -5.193   2.096  11.360  1.00  0.00     0.007 A 
ENDBRANCH  45  46
ENDBRANCH  44  45
BRANCH  44  52
HETATM   52  C40 UNL     1      -1.087   4.178  11.969  1.00  0.00     0.163 C 
HETATM   53  O8  UNL     1      -0.834   4.390  10.790  1.00  0.00    -0.648 OA
BRANCH  52  54
HETATM   54  O9  UNL     1      -0.103   4.130  12.885  1.00  0.00    -0.775 OA
HETATM   55  H54 UNL     1       0.718   4.305  12.379  1.00  0.00     0.167 HD
ENDBRANCH  52  54
ENDBRANCH  44  52
ENDBRANCH  42  44
ENDBRANCH  39  40
ENDBRANCH  38  39
ENDBRANCH  37  38
ENDBRANCH  36  37
ENDBRANCH  35  36
ENDBRANCH  33  35
ENDBRANCH  30  31
ENDBRANCH  29  30
ENDBRANCH   1  29
TORSDOF 19
ENDMDL
MODEL 5
REMARK minimizedAffinity -8.52222443
REMARK CNNscore 0.308159024
REMARK CNNaffinity 7.17062807
REMARK  19 active torsions:
REMARK  status: ('A' for Active; 'I' for Inactive)
REMARK    1  A    between atoms: C19_20  and  O2_21 
REMARK    2  A    between atoms: C19_20  and  C20_22 
REMARK    3  A    between atoms: C20_22  and  C21_24 
REMARK    4  A    between atoms: C21_24  and  O4_25 
REMARK    5  A    between atoms: O4_25  and  C22_26 
REMARK    6  A    between atoms: C22_26  and  C23_28 
REMARK    7  A    between atoms: C23_28  and  C24_29 
REMARK    8  A    between atoms: C24_29  and  C25_30 
REMARK       I    between atoms: C25_30  and  N1_32 
REMARK    9  A    between atoms: N1_32  and  C26_33 
REMARK   10  A    between atoms: C26_33  and  C27_34 
REMARK   11  A    between atoms: C27_34  and  C28_35 
REMARK   12  A    between atoms: C28_35  and  C29_36 
REMARK   13  A    between atoms: C29_36  and  C30_37 
REMARK   14  A    between atoms: C30_37  and  C31_38 
REMARK       I    between atoms: C31_38  and  N2_40 
REMARK   15  A    between atoms: N2_40  and  C32_41 
REMARK   16  A    between atoms: C32_41  and  C33_42 
REMARK   17  A    between atoms: C32_41  and  C40_49 
REMARK   18  A    between atoms: C33_42  and  C34_43 
REMARK   19  A    between atoms: C40_49  and  O9_51 
ROOT
HETATM    1  C22 UNL     1      -4.175   3.700  11.329  1.00  0.00     0.259 C 
HETATM    2  O5  UNL     1      -4.518   3.288  10.230  1.00  0.00    -0.265 OA
ENDROOT
BRANCH   1   3
HETATM    3  O4  UNL     1      -2.974   4.287  11.595  1.00  0.00    -0.314 OA
BRANCH   3   4
HETATM    4  C21 UNL     1      -2.627   4.335  12.966  1.00  0.00     0.260 C 
BRANCH   4   5
HETATM    5  C20 UNL     1      -1.717   5.437  13.512  1.00  0.00     0.185 C 
HETATM    6  O3  UNL     1      -1.435   5.446  14.722  1.00  0.00    -0.292 OA
BRANCH   5   7
HETATM    7  C19 UNL     1      -1.230   6.616  12.644  1.00  0.00     0.128 C 
HETATM    8  C14 UNL     1       0.042   7.373  13.123  1.00  0.00    -0.002 C 
HETATM    9  C13 UNL     1       1.306   6.500  13.117  1.00  0.00     0.013 C 
HETATM   10  C15 UNL     1      -0.113   7.945  14.559  1.00  0.00     0.019 C 
HETATM   11  C16 UNL     1       0.101   8.588  12.133  1.00  0.00     0.002 C 
HETATM   12  C12 UNL     1       2.557   7.299  12.791  1.00  0.00     0.007 C 
HETATM   13  C11 UNL     1       2.537   7.847  11.354  1.00  0.00     0.002 C 
HETATM   14  C2  UNL     1       3.177   6.879  10.250  1.00  0.00    -0.016 C 
HETATM   15  C10 UNL     1       1.202   8.592  11.020  1.00  0.00    -0.004 C 
HETATM   16  C1  UNL     1       4.706   7.168  10.240  1.00  0.00     0.020 C 
HETATM   17  C3  UNL     1       2.953   5.367  10.526  1.00  0.00     0.022 C 
HETATM   18  C7  UNL     1       2.657   7.132   8.834  1.00  0.00    -0.068 C 
HETATM   19  C4  UNL     1       3.601   4.446   9.490  1.00  0.00     0.084 C 
HETATM   20  C5  UNL     1       3.305   4.876   8.075  1.00  0.00     0.149 C 
HETATM   21  O1  UNL     1       3.534   4.148   7.113  1.00  0.00    -0.293 OA
HETATM   22  C6  UNL     1       2.732   6.222   7.846  1.00  0.00     0.053 C 
HETATM   23  C8  UNL     1       1.917   8.412   8.610  1.00  0.00     0.035 C 
HETATM   24  C9  UNL     1       0.735   8.418   9.570  1.00  0.00     0.010 C 
HETATM   25  C17 UNL     1      -1.362   8.809  11.663  1.00  0.00     0.009 C 
HETATM   26  C18 UNL     1      -2.214   7.740  12.353  1.00  0.00     0.047 C 
BRANCH   7  27
HETATM   27  O2  UNL     1      -0.935   6.028  11.348  1.00  0.00    -0.381 OA
HETATM   28  H27 UNL     1      -0.860   5.058  11.488  1.00  0.00     0.211 HD
ENDBRANCH   7  27
ENDBRANCH   5   7
ENDBRANCH   4   5
ENDBRANCH   3   4
ENDBRANCH   1   3
BRANCH   1  29
HETATM   29  C23 UNL     1      -4.999   3.621  12.584  1.00  0.00     0.120 C 
BRANCH  29  30
HETATM   30  C24 UNL     1      -6.440   4.030  12.316  1.00  0.00     0.112 C 
BRANCH  30  31
HETATM   31  C25 UNL     1      -7.261   3.992  13.587  1.00  0.00     0.217 C 
HETATM   32  O6  UNL     1      -8.162   3.183  13.784  1.00  0.00    -0.274 OA
HETATM   33  N1  UNL     1      -6.903   4.970  14.489  1.00  0.00    -0.361 N 
HETATM   34  H34 UNL     1      -6.120   5.579  14.280  1.00  0.00     0.162 HD
BRANCH  33  35
HETATM   35  C26 UNL     1      -7.582   5.129  15.759  1.00  0.00     0.122 C 
BRANCH  35  36
HETATM   36  C27 UNL     1      -7.337   6.507  16.373  1.00  0.00     0.020 C 
BRANCH  36  37
HETATM   37  C28 UNL     1      -7.809   7.659  15.477  1.00  0.00     0.002 C 
BRANCH  37  38
HETATM   38  C29 UNL     1      -6.680   8.605  15.053  1.00  0.00     0.009 C 
BRANCH  38  39
HETATM   39  C30 UNL     1      -5.299   8.054  15.405  1.00  0.00     0.103 C 
BRANCH  39  40
HETATM   40  C31 UNL     1      -4.239   9.125  15.602  1.00  0.00     0.218 C 
HETATM   41  O7  UNL     1      -3.349   9.366  14.794  1.00  0.00    -0.274 OA
HETATM   42  N2  UNL     1      -4.379   9.794  16.801  1.00  0.00    -0.346 N 
HETATM   43  H45 UNL     1      -4.919   9.321  17.519  1.00  0.00     0.163 HD
BRANCH  42  44
HETATM   44  C32 UNL     1      -3.310  10.677  17.294  1.00  0.00     0.186 C 
BRANCH  44  45
HETATM   45  C33 UNL     1      -1.936  10.074  16.970  1.00  0.00     0.074 C 
BRANCH  45  46
HETATM   46  C34 UNL     1      -0.796  10.705  17.731  1.00  0.00    -0.056 A 
HETATM   47  C35 UNL     1       0.363  11.120  17.060  1.00  0.00     0.007 A 
HETATM   48  C36 UNL     1       1.424  11.689  17.765  1.00  0.00     0.001 A 
HETATM   49  C37 UNL     1       1.336  11.851  19.147  1.00  0.00     0.000 A 
HETATM   50  C38 UNL     1       0.188  11.446  19.824  1.00  0.00     0.001 A 
HETATM   51  C39 UNL     1      -0.874  10.877  19.120  1.00  0.00     0.007 A 
ENDBRANCH  45  46
ENDBRANCH  44  45
BRANCH  44  52
HETATM   52  C40 UNL     1      -3.481  12.009  16.566  1.00  0.00     0.163 C 
HETATM   53  O8  UNL     1      -2.787  13.003  16.735  1.00  0.00    -0.648 OA
BRANCH  52  54
HETATM   54  O9  UNL     1      -4.501  12.022  15.689  1.00  0.00    -0.775 OA
HETATM   55  H54 UNL     1      -4.484  12.922  15.301  1.00  0.00     0.167 HD
ENDBRANCH  52  54
ENDBRANCH  44  52
ENDBRANCH  42  44
ENDBRANCH  39  40
ENDBRANCH  38  39
ENDBRANCH  37  38
ENDBRANCH  36  37
ENDBRANCH  35  36
ENDBRANCH  33  35
ENDBRANCH  30  31
ENDBRANCH  29  30
ENDBRANCH   1  29
TORSDOF 19
ENDMDL
MODEL 6
REMARK minimizedAffinity -8.39291382
REMARK CNNscore 0.279124677
REMARK CNNaffinity 7.36400223
REMARK  19 active torsions:
REMARK  status: ('A' for Active; 'I' for Inactive)
REMARK    1  A    between atoms: C19_20  and  O2_21 
REMARK    2  A    between atoms: C19_20  and  C20_22 
REMARK    3  A    between atoms: C20_22  and  C21_24 
REMARK    4  A    between atoms: C21_24  and  O4_25 
REMARK    5  A    between atoms: O4_25  and  C22_26 
REMARK    6  A    between atoms: C22_26  and  C23_28 
REMARK    7  A    between atoms: C23_28  and  C24_29 
REMARK    8  A    between atoms: C24_29  and  C25_30 
REMARK       I    between atoms: C25_30  and  N1_32 
REMARK    9  A    between atoms: N1_32  and  C26_33 
REMARK   10  A    between atoms: C26_33  and  C27_34 
REMARK   11  A    between atoms: C27_34  and  C28_35 
REMARK   12  A    between atoms: C28_35  and  C29_36 
REMARK   13  A    between atoms: C29_36  and  C30_37 
REMARK   14  A    between atoms: C30_37  and  C31_38 
REMARK       I    between atoms: C31_38  and  N2_40 
REMARK   15  A    between atoms: N2_40  and  C32_41 
REMARK   16  A    between atoms: C32_41  and  C33_42 
REMARK   17  A    between atoms: C32_41  and  C40_49 
REMARK   18  A    between atoms: C33_42  and  C34_43 
REMARK   19  A    between atoms: C40_49  and  O9_51 
ROOT
HETATM    1  C22 UNL     1      -7.348   6.567  15.473  1.00  0.00     0.259 C 
HETATM    2  O5  UNL     1      -7.731   5.483  15.888  1.00  0.00    -0.265 OA
ENDROOT
BRANCH   1   3
HETATM    3  O4  UNL     1      -7.981   7.751  15.707  1.00  0.00    -0.314 OA
BRANCH   3   4
HETATM    4  C21 UNL     1      -9.368   7.643  15.966  1.00  0.00     0.260 C 
BRANCH   4   5
HETATM    5  C20 UNL     1     -10.382   7.575  14.823  1.00  0.00     0.185 C 
HETATM    6  O3  UNL     1     -10.100   6.928  13.800  1.00  0.00    -0.292 OA
BRANCH   5   7
HETATM    7  C19 UNL     1     -11.698   8.382  14.833  1.00  0.00     0.128 C 
HETATM    8  C14 UNL     1     -12.523   8.411  13.514  1.00  0.00    -0.002 C 
HETATM    9  C13 UNL     1     -13.061   7.031  13.105  1.00  0.00     0.013 C 
HETATM   10  C15 UNL     1     -11.704   8.957  12.312  1.00  0.00     0.019 C 
HETATM   11  C16 UNL     1     -13.641   9.461  13.841  1.00  0.00     0.002 C 
HETATM   12  C12 UNL     1     -14.405   7.123  12.400  1.00  0.00     0.007 C 
HETATM   13  C11 UNL     1     -15.515   7.639  13.332  1.00  0.00     0.002 C 
HETATM   14  C2  UNL     1     -16.304   6.502  14.142  1.00  0.00    -0.016 C 
HETATM   15  C10 UNL     1     -15.100   8.947  14.084  1.00  0.00    -0.004 C 
HETATM   16  C1  UNL     1     -17.445   6.007  13.209  1.00  0.00     0.020 C 
HETATM   17  C3  UNL     1     -15.425   5.288  14.549  1.00  0.00     0.022 C 
HETATM   18  C7  UNL     1     -16.955   7.005  15.431  1.00  0.00    -0.068 C 
HETATM   19  C4  UNL     1     -16.192   4.188  15.286  1.00  0.00     0.084 C 
HETATM   20  C5  UNL     1     -17.058   4.735  16.393  1.00  0.00     0.149 C 
HETATM   21  O1  UNL     1     -17.566   4.007  17.241  1.00  0.00    -0.293 OA
HETATM   22  C6  UNL     1     -17.309   6.194  16.444  1.00  0.00     0.053 C 
HETATM   23  C8  UNL     1     -17.065   8.487  15.593  1.00  0.00     0.035 C 
HETATM   24  C9  UNL     1     -15.654   9.052  15.509  1.00  0.00     0.010 C 
HETATM   25  C17 UNL     1     -13.037  10.378  14.939  1.00  0.00     0.009 C 
HETATM   26  C18 UNL     1     -11.630   9.849  15.232  1.00  0.00     0.047 C 
BRANCH   7  27
HETATM   27  O2  UNL     1     -12.515   7.750  15.854  1.00  0.00    -0.381 OA
HETATM   28  H27 UNL     1     -12.123   6.865  16.023  1.00  0.00     0.211 HD
ENDBRANCH   7  27
ENDBRANCH   5   7
ENDBRANCH   4   5
ENDBRANCH   3   4
ENDBRANCH   1   3
BRANCH   1  29
HETATM   29  C23 UNL     1      -6.129   6.793  14.622  1.00  0.00     0.120 C 
BRANCH  29  30
HETATM   30  C24 UNL     1      -4.875   6.290  15.324  1.00  0.00     0.112 C 
BRANCH  30  31
HETATM   31  C25 UNL     1      -3.824   7.376  15.404  1.00  0.00     0.217 C 
HETATM   32  O6  UNL     1      -4.013   8.526  15.019  1.00  0.00    -0.274 OA
HETATM   33  N1  UNL     1      -2.633   6.934  15.935  1.00  0.00    -0.361 N 
HETATM   34  H34 UNL     1      -2.560   5.982  16.272  1.00  0.00     0.162 HD
BRANCH  33  35
HETATM   35  C26 UNL     1      -1.484   7.808  16.075  1.00  0.00     0.122 C 
BRANCH  35  36
HETATM   36  C27 UNL     1      -0.268   7.283  15.313  1.00  0.00     0.020 C 
BRANCH  36  37
HETATM   37  C28 UNL     1       0.060   8.102  14.059  1.00  0.00     0.002 C 
BRANCH  37  38
HETATM   38  C29 UNL     1      -0.828   7.764  12.858  1.00  0.00     0.009 C 
BRANCH  38  39
HETATM   39  C30 UNL     1      -0.478   6.411  12.240  1.00  0.00     0.103 C 
BRANCH  39  40
HETATM   40  C31 UNL     1      -1.609   5.398  12.294  1.00  0.00     0.218 C 
HETATM   41  O7  UNL     1      -2.614   5.527  12.984  1.00  0.00    -0.274 OA
HETATM   42  N2  UNL     1      -1.377   4.302  11.487  1.00  0.00    -0.346 N 
HETATM   43  H45 UNL     1      -0.411   4.134  11.223  1.00  0.00     0.163 HD
BRANCH  42  44
HETATM   44  C32 UNL     1      -2.218   3.100  11.599  1.00  0.00     0.186 C 
BRANCH  44  45
HETATM   45  C33 UNL     1      -3.449   3.230  10.693  1.00  0.00     0.074 C 
BRANCH  45  46
HETATM   46  C34 UNL     1      -4.756   2.943  11.391  1.00  0.00    -0.056 A 
HETATM   47  C35 UNL     1      -5.414   1.721  11.194  1.00  0.00     0.007 A 
HETATM   48  C36 UNL     1      -6.630   1.461  11.827  1.00  0.00     0.001 A 
HETATM   49  C37 UNL     1      -7.200   2.419  12.664  1.00  0.00     0.000 A 
HETATM   50  C38 UNL     1      -6.554   3.636  12.870  1.00  0.00     0.001 A 
HETATM   51  C39 UNL     1      -5.337   3.897  12.239  1.00  0.00     0.007 A 
ENDBRANCH  45  46
ENDBRANCH  44  45
BRANCH  44  52
HETATM   52  C40 UNL     1      -1.354   1.926  11.142  1.00  0.00     0.163 C 
HETATM   53  O8  UNL     1      -1.763   0.797  10.899  1.00  0.00    -0.648 OA
BRANCH  52  54
HETATM   54  O9  UNL     1      -0.047   2.224  11.026  1.00  0.00    -0.775 OA
HETATM   55  H54 UNL     1       0.372   1.392  10.724  1.00  0.00     0.167 HD
ENDBRANCH  52  54
ENDBRANCH  44  52
ENDBRANCH  42  44
ENDBRANCH  39  40
ENDBRANCH  38  39
ENDBRANCH  37  38
ENDBRANCH  36  37
ENDBRANCH  35  36
ENDBRANCH  33  35
ENDBRANCH  30  31
ENDBRANCH  29  30
ENDBRANCH   1  29
TORSDOF 19
ENDMDL
MODEL 7
REMARK minimizedAffinity -9.37885761
REMARK CNNscore 0.275739729
REMARK CNNaffinity 6.30195475
REMARK  19 active torsions:
REMARK  status: ('A' for Active; 'I' for Inactive)
REMARK    1  A    between atoms: C19_20  and  O2_21 
REMARK    2  A    between atoms: C19_20  and  C20_22 
REMARK    3  A    between atoms: C20_22  and  C21_24 
REMARK    4  A    between atoms: C21_24  and  O4_25 
REMARK    5  A    between atoms: O4_25  and  C22_26 
REMARK    6  A    between atoms: C22_26  and  C23_28 
REMARK    7  A    between atoms: C23_28  and  C24_29 
REMARK    8  A    between atoms: C24_29  and  C25_30 
REMARK       I    between atoms: C25_30  and  N1_32 
REMARK    9  A    between atoms: N1_32  and  C26_33 
REMARK   10  A    between atoms: C26_33  and  C27_34 
REMARK   11  A    between atoms: C27_34  and  C28_35 
REMARK   12  A    between atoms: C28_35  and  C29_36 
REMARK   13  A    between atoms: C29_36  and  C30_37 
REMARK   14  A    between atoms: C30_37  and  C31_38 
REMARK       I    between atoms: C31_38  and  N2_40 
REMARK   15  A    between atoms: N2_40  and  C32_41 
REMARK   16  A    between atoms: C32_41  and  C33_42 
REMARK   17  A    between atoms: C32_41  and  C40_49 
REMARK   18  A    between atoms: C33_42  and  C34_43 
REMARK   19  A    between atoms: C40_49  and  O9_51 
ROOT
HETATM    1  C22 UNL     1       8.466   8.559  13.835  1.00  0.00     0.259 C 
HETATM    2  O5  UNL     1       9.377   7.744  13.818  1.00  0.00    -0.265 OA
ENDROOT
BRANCH   1   3
HETATM    3  O4  UNL     1       8.452   9.687  14.601  1.00  0.00    -0.314 OA
BRANCH   3   4
HETATM    4  C21 UNL     1       7.959   9.506  15.916  1.00  0.00     0.260 C 
BRANCH   4   5
HETATM    5  C20 UNL     1       6.934  10.470  16.514  1.00  0.00     0.185 C 
HETATM    6  O3  UNL     1       5.891  10.714  15.882  1.00  0.00    -0.292 OA
BRANCH   5   7
HETATM    7  C19 UNL     1       7.193  11.252  17.818  1.00  0.00     0.128 C 
HETATM    8  C14 UNL     1       6.357  12.544  18.051  1.00  0.00    -0.002 C 
HETATM    9  C13 UNL     1       4.852  12.274  18.199  1.00  0.00     0.013 C 
HETATM   10  C15 UNL     1       6.526  13.576  16.901  1.00  0.00     0.019 C 
HETATM   11  C16 UNL     1       7.026  13.150  19.333  1.00  0.00     0.002 C 
HETATM   12  C12 UNL     1       4.183  13.249  19.154  1.00  0.00     0.007 C 
HETATM   13  C11 UNL     1       4.685  13.083  20.598  1.00  0.00     0.002 C 
HETATM   14  C2  UNL     1       3.856  12.039  21.489  1.00  0.00    -0.016 C 
HETATM   15  C10 UNL     1       6.247  13.075  20.689  1.00  0.00    -0.004 C 
HETATM   16  C1  UNL     1       2.658  12.826  22.093  1.00  0.00     0.020 C 
HETATM   17  C3  UNL     1       3.309  10.823  20.693  1.00  0.00     0.022 C 
HETATM   18  C7  UNL     1       4.654  11.457  22.656  1.00  0.00    -0.068 C 
HETATM   19  C4  UNL     1       2.484   9.850  21.540  1.00  0.00     0.084 C 
HETATM   20  C5  UNL     1       3.168   9.495  22.836  1.00  0.00     0.149 C 
HETATM   21  O1  UNL     1       2.786   8.564  23.539  1.00  0.00    -0.293 OA
HETATM   22  C6  UNL     1       4.327  10.307  23.274  1.00  0.00     0.053 C 
HETATM   23  C8  UNL     1       5.927  12.155  23.012  1.00  0.00     0.035 C 
HETATM   24  C9  UNL     1       6.807  12.144  21.770  1.00  0.00     0.010 C 
HETATM   25  C17 UNL     1       8.480  12.605  19.337  1.00  0.00     0.009 C 
HETATM   26  C18 UNL     1       8.618  11.705  18.105  1.00  0.00     0.047 C 
BRANCH   7  27
HETATM   27  O2  UNL     1       6.872  10.318  18.884  1.00  0.00    -0.381 OA
HETATM   28  H27 UNL     1       6.336   9.601  18.479  1.00  0.00     0.211 HD
ENDBRANCH   7  27
ENDBRANCH   5   7
ENDBRANCH   4   5
ENDBRANCH   3   4
ENDBRANCH   1   3
BRANCH   1  29
HETATM   29  C23 UNL     1       7.196   8.463  13.036  1.00  0.00     0.120 C 
BRANCH  29  30
HETATM   30  C24 UNL     1       6.701   7.025  12.971  1.00  0.00     0.112 C 
BRANCH  30  31
HETATM   31  C25 UNL     1       6.256   6.667  11.569  1.00  0.00     0.217 C 
HETATM   32  O6  UNL     1       7.001   6.705  10.595  1.00  0.00    -0.274 OA
HETATM   33  N1  UNL     1       4.927   6.312  11.501  1.00  0.00    -0.361 N 
HETATM   34  H34 UNL     1       4.381   6.260  12.353  1.00  0.00     0.162 HD
BRANCH  33  35
HETATM   35  C26 UNL     1       4.290   5.959  10.248  1.00  0.00     0.122 C 
BRANCH  35  36
HETATM   36  C27 UNL     1       2.794   6.273  10.256  1.00  0.00     0.020 C 
BRANCH  36  37
HETATM   37  C28 UNL     1       1.955   5.200  10.960  1.00  0.00     0.002 C 
BRANCH  37  38
HETATM   38  C29 UNL     1       1.061   5.756  12.073  1.00  0.00     0.009 C 
BRANCH  38  39
HETATM   39  C30 UNL     1      -0.363   6.030  11.592  1.00  0.00     0.103 C 
BRANCH  39  40
HETATM   40  C31 UNL     1      -1.402   5.084  12.170  1.00  0.00     0.218 C 
HETATM   41  O7  UNL     1      -1.670   5.005  13.363  1.00  0.00    -0.274 OA
HETATM   42  N2  UNL     1      -2.008   4.307  11.202  1.00  0.00    -0.346 N 
HETATM   43  H45 UNL     1      -1.507   4.212  10.324  1.00  0.00     0.163 HD
BRANCH  42  44
HETATM   44  C32 UNL     1      -2.842   3.156  11.581  1.00  0.00     0.186 C 
BRANCH  44  45
HETATM   45  C33 UNL     1      -4.223   3.265  10.922  1.00  0.00     0.074 C 
BRANCH  45  46
HETATM   46  C34 UNL     1      -5.365   3.360  11.904  1.00  0.00    -0.056 A 
HETATM   47  C35 UNL     1      -6.355   2.368  11.940  1.00  0.00     0.007 A 
HETATM   48  C36 UNL     1      -7.419   2.462  12.838  1.00  0.00     0.001 A 
HETATM   49  C37 UNL     1      -7.504   3.548  13.708  1.00  0.00     0.000 A 
HETATM   50  C38 UNL     1      -6.524   4.538  13.683  1.00  0.00     0.001 A 
HETATM   51  C39 UNL     1      -5.458   4.445  12.787  1.00  0.00     0.007 A 
ENDBRANCH  45  46
ENDBRANCH  44  45
BRANCH  44  52
HETATM   52  C40 UNL     1      -2.116   1.912  11.073  1.00  0.00     0.163 C 
HETATM   53  O8  UNL     1      -1.010   1.902  10.547  1.00  0.00    -0.648 OA
BRANCH  52  54
HETATM   54  O9  UNL     1      -2.809   0.771  11.240  1.00  0.00    -0.775 OA
HETATM   55  H54 UNL     1      -2.226   0.070  10.881  1.00  0.00     0.167 HD
ENDBRANCH  52  54
ENDBRANCH  44  52
ENDBRANCH  42  44
ENDBRANCH  39  40
ENDBRANCH  38  39
ENDBRANCH  37  38
ENDBRANCH  36  37
ENDBRANCH  35  36
ENDBRANCH  33  35
ENDBRANCH  30  31
ENDBRANCH  29  30
ENDBRANCH   1  29
TORSDOF 19
ENDMDL
MODEL 8
REMARK minimizedAffinity -8.80274677
REMARK CNNscore 0.235757902
REMARK CNNaffinity 7.06756163
REMARK  19 active torsions:
REMARK  status: ('A' for Active; 'I' for Inactive)
REMARK    1  A    between atoms: C19_20  and  O2_21 
REMARK    2  A    between atoms: C19_20  and  C20_22 
REMARK    3  A    between atoms: C20_22  and  C21_24 
REMARK    4  A    between atoms: C21_24  and  O4_25 
REMARK    5  A    between atoms: O4_25  and  C22_26 
REMARK    6  A    between atoms: C22_26  and  C23_28 
REMARK    7  A    between atoms: C23_28  and  C24_29 
REMARK    8  A    between atoms: C24_29  and  C25_30 
REMARK       I    between atoms: C25_30  and  N1_32 
REMARK    9  A    between atoms: N1_32  and  C26_33 
REMARK   10  A    between atoms: C26_33  and  C27_34 
REMARK   11  A    between atoms: C27_34  and  C28_35 
REMARK   12  A    between atoms: C28_35  and  C29_36 
REMARK   13  A    between atoms: C29_36  and  C30_37 
REMARK   14  A    between atoms: C30_37  and  C31_38 
REMARK       I    between atoms: C31_38  and  N2_40 
REMARK   15  A    between atoms: N2_40  and  C32_41 
REMARK   16  A    between atoms: C32_41  and  C33_42 
REMARK   17  A    between atoms: C32_41  and  C40_49 
REMARK   18  A    between atoms: C33_42  and  C34_43 
REMARK   19  A    between atoms: C40_49  and  O9_51 
ROOT
HETATM    1  C22 UNL     1      -4.584   3.699  11.751  1.00  0.00     0.259 C 
HETATM    2  O5  UNL     1      -4.950   2.992  10.824  1.00  0.00    -0.265 OA
ENDROOT
BRANCH   1   3
HETATM    3  O4  UNL     1      -3.414   4.397  11.778  1.00  0.00    -0.314 OA
BRANCH   3   4
HETATM    4  C21 UNL     1      -2.634   4.206  12.943  1.00  0.00     0.260 C 
BRANCH   4   5
HETATM    5  C20 UNL     1      -1.800   5.346  13.531  1.00  0.00     0.185 C 
HETATM    6  O3  UNL     1      -1.577   5.366  14.753  1.00  0.00    -0.292 OA
BRANCH   5   7
HETATM    7  C19 UNL     1      -1.324   6.546  12.685  1.00  0.00     0.128 C 
HETATM    8  C14 UNL     1      -0.057   7.303  13.177  1.00  0.00    -0.002 C 
HETATM    9  C13 UNL     1       1.214   6.440  13.151  1.00  0.00     0.013 C 
HETATM   10  C15 UNL     1      -0.212   7.844  14.626  1.00  0.00     0.019 C 
HETATM   11  C16 UNL     1      -0.009   8.538  12.212  1.00  0.00     0.002 C 
HETATM   12  C12 UNL     1       2.458   7.255  12.839  1.00  0.00     0.007 C 
HETATM   13  C11 UNL     1       2.431   7.832  11.413  1.00  0.00     0.002 C 
HETATM   14  C2  UNL     1       3.075   6.891  10.288  1.00  0.00    -0.016 C 
HETATM   15  C10 UNL     1       1.089   8.573  11.097  1.00  0.00    -0.004 C 
HETATM   16  C1  UNL     1       4.602   7.192  10.281  1.00  0.00     0.020 C 
HETATM   17  C3  UNL     1       2.863   5.372  10.534  1.00  0.00     0.022 C 
HETATM   18  C7  UNL     1       2.550   7.169   8.879  1.00  0.00    -0.068 C 
HETATM   19  C4  UNL     1       3.516   4.477   9.478  1.00  0.00     0.084 C 
HETATM   20  C5  UNL     1       3.213   4.933   8.073  1.00  0.00     0.149 C 
HETATM   21  O1  UNL     1       3.446   4.227   7.095  1.00  0.00    -0.293 OA
HETATM   22  C6  UNL     1       2.629   6.280   7.872  1.00  0.00     0.053 C 
HETATM   23  C8  UNL     1       1.800   8.447   8.683  1.00  0.00     0.035 C 
HETATM   24  C9  UNL     1       0.620   8.425   9.645  1.00  0.00     0.010 C 
HETATM   25  C17 UNL     1      -1.475   8.757  11.750  1.00  0.00     0.009 C 
HETATM   26  C18 UNL     1      -2.317   7.668  12.420  1.00  0.00     0.047 C 
BRANCH   7  27
HETATM   27  O2  UNL     1      -1.028   5.986  11.377  1.00  0.00    -0.381 OA
HETATM   28  H27 UNL     1      -0.945   5.015  11.498  1.00  0.00     0.211 HD
ENDBRANCH   7  27
ENDBRANCH   5   7
ENDBRANCH   4   5
ENDBRANCH   3   4
ENDBRANCH   1   3
BRANCH   1  29
HETATM   29  C23 UNL     1      -5.341   3.913  13.033  1.00  0.00     0.120 C 
BRANCH  29  30
HETATM   30  C24 UNL     1      -6.623   4.696  12.784  1.00  0.00     0.112 C 
BRANCH  30  31
HETATM   31  C25 UNL     1      -7.159   5.285  14.071  1.00  0.00     0.217 C 
HETATM   32  O6  UNL     1      -7.411   4.612  15.066  1.00  0.00    -0.274 OA
HETATM   33  N1  UNL     1      -7.350   6.647  14.001  1.00  0.00    -0.361 N 
HETATM   34  H34 UNL     1      -7.081   7.146  13.162  1.00  0.00     0.162 HD
BRANCH  33  35
HETATM   35  C26 UNL     1      -7.884   7.405  15.115  1.00  0.00     0.122 C 
BRANCH  35  36
HETATM   36  C27 UNL     1      -9.349   7.784  14.902  1.00  0.00     0.020 C 
BRANCH  36  37
HETATM   37  C28 UNL     1     -10.063   6.890  13.881  1.00  0.00     0.002 C 
BRANCH  37  38
HETATM   38  C29 UNL     1     -11.589   7.015  13.922  1.00  0.00     0.009 C 
BRANCH  38  39
HETATM   39  C30 UNL     1     -12.081   8.328  13.312  1.00  0.00     0.103 C 
BRANCH  39  40
HETATM   40  C31 UNL     1     -13.470   8.244  12.705  1.00  0.00     0.218 C 
HETATM   41  O7  UNL     1     -14.040   9.184  12.162  1.00  0.00    -0.274 OA
HETATM   42  N2  UNL     1     -14.033   6.990  12.840  1.00  0.00    -0.346 N 
HETATM   43  H45 UNL     1     -13.639   6.397  13.564  1.00  0.00     0.163 HD
BRANCH  42  44
HETATM   44  C32 UNL     1     -15.461   6.777  12.556  1.00  0.00     0.186 C 
BRANCH  44  45
HETATM   45  C33 UNL     1     -16.198   6.362  13.837  1.00  0.00     0.074 C 
BRANCH  45  46
HETATM   46  C34 UNL     1     -16.857   5.008  13.752  1.00  0.00    -0.056 A 
HETATM   47  C35 UNL     1     -17.515   4.610  12.579  1.00  0.00     0.007 A 
HETATM   48  C36 UNL     1     -18.138   3.363  12.506  1.00  0.00     0.001 A 
HETATM   49  C37 UNL     1     -18.109   2.503  13.602  1.00  0.00     0.000 A 
HETATM   50  C38 UNL     1     -17.456   2.886  14.771  1.00  0.00     0.001 A 
HETATM   51  C39 UNL     1     -16.831   4.132  14.846  1.00  0.00     0.007 A 
ENDBRANCH  45  46
ENDBRANCH  44  45
BRANCH  44  52
HETATM   52  C40 UNL     1     -16.003   8.112  12.050  1.00  0.00     0.163 C 
HETATM   53  O8  UNL     1     -16.003   8.480  10.882  1.00  0.00    -0.648 OA
BRANCH  52  54
HETATM   54  O9  UNL     1     -16.498   8.902  13.020  1.00  0.00    -0.775 OA
HETATM   55  H54 UNL     1     -16.810   9.705  12.552  1.00  0.00     0.167 HD
ENDBRANCH  52  54
ENDBRANCH  44  52
ENDBRANCH  42  44
ENDBRANCH  39  40
ENDBRANCH  38  39
ENDBRANCH  37  38
ENDBRANCH  36  37
ENDBRANCH  35  36
ENDBRANCH  33  35
ENDBRANCH  30  31
ENDBRANCH  29  30
ENDBRANCH   1  29
TORSDOF 19
ENDMDL
MODEL 9
REMARK minimizedAffinity -7.98228264
REMARK CNNscore 0.223021299
REMARK CNNaffinity 6.29002714
REMARK  19 active torsions:
REMARK  status: ('A' for Active; 'I' for Inactive)
REMARK    1  A    between atoms: C19_20  and  O2_21 
REMARK    2  A    between atoms: C19_20  and  C20_22 
REMARK    3  A    between atoms: C20_22  and  C21_24 
REMARK    4  A    between atoms: C21_24  and  O4_25 
REMARK    5  A    between atoms: O4_25  and  C22_26 
REMARK    6  A    between atoms: C22_26  and  C23_28 
REMARK    7  A    between atoms: C23_28  and  C24_29 
REMARK    8  A    between atoms: C24_29  and  C25_30 
REMARK       I    between atoms: C25_30  and  N1_32 
REMARK    9  A    between atoms: N1_32  and  C26_33 
REMARK   10  A    between atoms: C26_33  and  C27_34 
REMARK   11  A    between atoms: C27_34  and  C28_35 
REMARK   12  A    between atoms: C28_35  and  C29_36 
REMARK   13  A    between atoms: C29_36  and  C30_37 
REMARK   14  A    between atoms: C30_37  and  C31_38 
REMARK       I    between atoms: C31_38  and  N2_40 
REMARK   15  A    between atoms: N2_40  and  C32_41 
REMARK   16  A    between atoms: C32_41  and  C33_42 
REMARK   17  A    between atoms: C32_41  and  C40_49 
REMARK   18  A    between atoms: C33_42  and  C34_43 
REMARK   19  A    between atoms: C40_49  and  O9_51 
ROOT
HETATM    1  C22 UNL     1       8.365   9.807  17.095  1.00  0.00     0.259 C 
HETATM    2  O5  UNL     1       7.237   9.912  16.637  1.00  0.00    -0.265 OA
ENDROOT
BRANCH   1   3
HETATM    3  O4  UNL     1       8.688   9.991  18.406  1.00  0.00    -0.314 OA
BRANCH   3   4
HETATM    4  C21 UNL     1       9.268  11.248  18.703  1.00  0.00     0.260 C 
BRANCH   4   5
HETATM    5  C20 UNL     1       9.221  11.823  20.120  1.00  0.00     0.185 C 
HETATM    6  O3  UNL     1      10.035  11.416  20.967  1.00  0.00    -0.292 OA
BRANCH   5   7
HETATM    7  C19 UNL     1       8.122  12.804  20.581  1.00  0.00     0.128 C 
HETATM    8  C14 UNL     1       6.961  13.088  19.585  1.00  0.00    -0.002 C 
HETATM    9  C13 UNL     1       6.102  11.849  19.286  1.00  0.00     0.013 C 
HETATM   10  C15 UNL     1       7.467  13.633  18.221  1.00  0.00     0.019 C 
HETATM   11  C16 UNL     1       6.182  14.247  20.300  1.00  0.00     0.002 C 
HETATM   12  C12 UNL     1       4.645  12.205  19.037  1.00  0.00     0.007 C 
HETATM   13  C11 UNL     1       3.964  12.774  20.293  1.00  0.00     0.002 C 
HETATM   14  C2  UNL     1       3.271  11.683  21.242  1.00  0.00    -0.016 C 
HETATM   15  C10 UNL     1       4.796  13.924  20.952  1.00  0.00    -0.004 C 
HETATM   16  C1  UNL     1       1.838  11.456  20.681  1.00  0.00     0.020 C 
HETATM   17  C3  UNL     1       4.015  10.321  21.290  1.00  0.00     0.022 C 
HETATM   18  C7  UNL     1       3.125  12.137  22.695  1.00  0.00    -0.068 C 
HETATM   19  C4  UNL     1       3.326   9.271  22.165  1.00  0.00     0.084 C 
HETATM   20  C5  UNL     1       2.932   9.818  23.514  1.00  0.00     0.149 C 
HETATM   21  O1  UNL     1       2.583   9.085  24.436  1.00  0.00    -0.293 OA
HETATM   22  C6  UNL     1       2.956  11.284  23.722  1.00  0.00     0.053 C 
HETATM   23  C8  UNL     1       3.318  13.595  22.966  1.00  0.00     0.035 C 
HETATM   24  C9  UNL     1       4.715  13.958  22.482  1.00  0.00     0.010 C 
HETATM   25  C17 UNL     1       7.229  14.949  21.206  1.00  0.00     0.009 C 
HETATM   26  C18 UNL     1       8.550  14.197  21.020  1.00  0.00     0.047 C 
BRANCH   7  27
HETATM   27  O2  UNL     1       7.550  12.192  21.768  1.00  0.00    -0.381 OA
HETATM   28  H27 UNL     1       7.820  11.248  21.757  1.00  0.00     0.211 HD
ENDBRANCH   7  27
ENDBRANCH   5   7
ENDBRANCH   4   5
ENDBRANCH   3   4
ENDBRANCH   1   3
BRANCH   1  29
HETATM   29  C23 UNL     1       9.599   9.475  16.302  1.00  0.00     0.120 C 
BRANCH  29  30
HETATM   30  C24 UNL     1       9.626   7.999  15.928  1.00  0.00     0.112 C 
BRANCH  30  31
HETATM   31  C25 UNL     1       8.954   7.765  14.593  1.00  0.00     0.217 C 
HETATM   32  O6  UNL     1       9.522   7.919  13.516  1.00  0.00    -0.274 OA
HETATM   33  N1  UNL     1       7.637   7.379  14.713  1.00  0.00    -0.361 N 
HETATM   34  H34 UNL     1       7.244   7.230  15.634  1.00  0.00     0.162 HD
BRANCH  33  35
HETATM   35  C26 UNL     1       6.801   7.130  13.555  1.00  0.00     0.122 C 
BRANCH  35  36
HETATM   36  C27 UNL     1       5.986   8.361  13.161  1.00  0.00     0.020 C 
BRANCH  36  37
HETATM   37  C28 UNL     1       5.980   8.624  11.650  1.00  0.00     0.002 C 
BRANCH  37  38
HETATM   38  C29 UNL     1       4.587   8.921  11.086  1.00  0.00     0.009 C 
BRANCH  38  39
HETATM   39  C30 UNL     1       3.472   8.525  12.055  1.00  0.00     0.103 C 
BRANCH  39  40
HETATM   40  C31 UNL     1       2.346   7.738  11.410  1.00  0.00     0.218 C 
HETATM   41  O7  UNL     1       2.470   7.073  10.387  1.00  0.00    -0.274 OA
HETATM   42  N2  UNL     1       1.153   7.861  12.095  1.00  0.00    -0.346 N 
HETATM   43  H45 UNL     1       1.071   8.662  12.713  1.00  0.00     0.163 HD
BRANCH  42  44
HETATM   44  C32 UNL     1      -0.106   7.395  11.494  1.00  0.00     0.186 C 
BRANCH  44  45
HETATM   45  C33 UNL     1      -1.060   6.894  12.587  1.00  0.00     0.074 C 
BRANCH  45  46
HETATM   46  C34 UNL     1      -1.763   5.605  12.241  1.00  0.00    -0.056 A 
HETATM   47  C35 UNL     1      -2.892   5.195  12.966  1.00  0.00     0.007 A 
HETATM   48  C36 UNL     1      -3.533   3.995  12.657  1.00  0.00     0.001 A 
HETATM   49  C37 UNL     1      -3.055   3.194  11.621  1.00  0.00     0.000 A 
HETATM   50  C38 UNL     1      -1.937   3.593  10.893  1.00  0.00     0.001 A 
HETATM   51  C39 UNL     1      -1.294   4.793  11.199  1.00  0.00     0.007 A 
ENDBRANCH  45  46
ENDBRANCH  44  45
BRANCH  44  52
HETATM   52  C40 UNL     1      -0.715   8.601  10.780  1.00  0.00     0.163 C 
HETATM   53  O8  UNL     1      -0.444   8.962   9.642  1.00  0.00    -0.648 OA
BRANCH  52  54
HETATM   54  O9  UNL     1      -1.607   9.280  11.524  1.00  0.00    -0.775 OA
HETATM   55  H54 UNL     1      -1.912  10.008  10.944  1.00  0.00     0.167 HD
ENDBRANCH  52  54
ENDBRANCH  44  52
ENDBRANCH  42  44
ENDBRANCH  39  40
ENDBRANCH  38  39
ENDBRANCH  37  38
ENDBRANCH  36  37
ENDBRANCH  35  36
ENDBRANCH  33  35
ENDBRANCH  30  31
ENDBRANCH  29  30
ENDBRANCH   1  29
TORSDOF 19
ENDMDL
