MODEL 1
REMARK minimizedAffinity -7.97275019
REMARK CNNscore 0.402395368
REMARK CNNaffinity 7.542624
REMARK  10 active torsions:
REMARK  status: ('A' for Active; 'I' for Inactive)
REMARK    1  A    between atoms: C2_2  and  C3_3 
REMARK    2  A    between atoms: C5_5  and  S1_6 
REMARK    3  A    between atoms: C14_18  and  C15_19 
REMARK    4  A    between atoms: C15_19  and  O4_20 
REMARK    5  A    between atoms: C21_26  and  O5_27 
REMARK    6  A    between atoms: C33_40  and  C34_41 
REMARK    7  A    between atoms: C33_40  and  N1_50 
REMARK    8  A    between atoms: C34_41  and  C35_42 
REMARK    9  A    between atoms: C35_42  and  C36_43 
REMARK   10  A    between atoms: C36_43  and  O7_44 
REMARK       I    between atoms: N1_50  and  C42_52 
REMARK       I    between atoms: C42_52  and  N2_53 
ROOT
HETATM    1  C3  UNL     1       5.751  53.936  -6.866  1.00  0.00     0.019 C 
HETATM    2  C4  UNL     1       4.521  53.228  -6.228  1.00  0.00     0.034 C 
HETATM    3  C5  UNL     1       3.504  52.568  -7.184  1.00  0.00     0.153 C 
HETATM    4  C6  UNL     1       2.787  53.497  -8.226  1.00  0.00     0.119 A 
HETATM    5  C7  UNL     1       2.130  52.653  -9.319  1.00  0.00     0.001 C 
HETATM    6  C8  UNL     1       1.460  53.277 -10.304  1.00  0.00    -0.049 C 
HETATM    7  C9  UNL     1       1.545  54.771 -10.358  1.00  0.00     0.043 C 
HETATM    8  C10 UNL     1       0.970  55.259  -9.027  1.00  0.00     0.016 C 
HETATM    9  C11 UNL     1      -0.581  55.101  -8.980  1.00  0.00     0.039 C 
HETATM   10  C12 UNL     1      -1.244  53.822  -9.574  1.00  0.00     0.123 C 
HETATM   11  C13 UNL     1      -2.778  54.070  -9.616  1.00  0.00     0.039 C 
HETATM   12  C14 UNL     1      -3.721  53.030 -10.279  1.00  0.00     0.023 C 
HETATM   13  C16 UNL     1      -3.948  53.238 -11.794  1.00  0.00     0.101 C 
HETATM   14  C17 UNL     1      -2.848  52.744 -12.625  1.00  0.00    -0.101 C 
HETATM   15  C18 UNL     1      -1.808  52.394 -13.113  1.00  0.00    -0.066 C 
HETATM   16  C19 UNL     1      -0.452  52.063 -13.430  1.00  0.00     0.029 A 
HETATM   17  C20 UNL     1      -0.174  51.584 -14.714  1.00  0.00     0.057 A 
HETATM   18  C21 UNL     1       1.118  51.168 -15.034  1.00  0.00     0.067 A 
HETATM   19  C22 UNL     1       2.134  51.252 -14.094  1.00  0.00     0.037 A 
HETATM   20  C23 UNL     1       1.861  51.756 -12.820  1.00  0.00     0.014 A 
HETATM   21  C24 UNL     1       0.567  52.198 -12.461  1.00  0.00    -0.006 A 
HETATM   22  C25 UNL     1       0.297  52.632 -11.011  1.00  0.00     0.185 C 
HETATM   23  O6  UNL     1      -0.792  53.575 -10.909  1.00  0.00    -0.371 OA
HETATM   24  C26 UNL     1       1.713  54.588  -7.777  1.00  0.00     0.113 A 
HETATM   25  C27 UNL     1       2.255  55.674  -6.845  1.00  0.00    -0.039 A 
HETATM   26  C28 UNL     1       2.043  55.573  -5.463  1.00  0.00     0.009 A 
HETATM   27  C29 UNL     1       2.567  56.523  -4.573  1.00  0.00     0.012 A 
HETATM   28  C30 UNL     1       3.277  57.645  -5.039  1.00  0.00    -0.003 A 
HETATM   29  C31 UNL     1       3.405  57.780  -6.437  1.00  0.00     0.012 A 
HETATM   30  C32 UNL     1       2.950  56.794  -7.317  1.00  0.00     0.009 A 
HETATM   31  C33 UNL     1       3.957  58.698  -4.099  1.00  0.00     0.171 C 
HETATM   32  O8  UNL     1       5.446  58.632  -4.095  1.00  0.00    -0.316 OA
HETATM   33  C43 UNL     1       5.995  57.492  -4.615  1.00  0.00     0.072 C 
HETATM   34  C44 UNL     1       6.453  57.531  -5.932  1.00  0.00     0.037 C 
HETATM   35  C45 UNL     1       6.531  56.334  -6.642  1.00  0.00     0.010 C 
HETATM   36  C46 UNL     1       6.197  55.126  -6.011  1.00  0.00    -0.054 C 
HETATM   37  C47 UNL     1       6.075  55.104  -4.612  1.00  0.00     0.010 C 
HETATM   38  C48 UNL     1       5.961  56.298  -3.909  1.00  0.00     0.037 C 
HETATM   39 NA1  UNL     1       2.260  55.648  -6.717  1.00  0.00    -0.230 Na
ENDROOT
BRANCH  31  40
HETATM   40  C34 UNL     1       3.558  58.516  -2.591  1.00  0.00     0.070 C 
BRANCH  40  41
HETATM   41  C35 UNL     1       2.159  59.015  -2.148  1.00  0.00     0.043 C 
BRANCH  41  42
HETATM   42  C36 UNL     1       2.056  60.259  -1.221  1.00  0.00     0.058 C 
HETATM   43  C37 UNL     1       1.330  59.884   0.090  1.00  0.00     0.038 C 
HETATM   44  C38 UNL     1      -0.170  59.657  -0.082  1.00  0.00     0.003 C 
HETATM   45  C39 UNL     1      -0.848  60.837  -0.770  1.00  0.00     0.000 C 
HETATM   46  C40 UNL     1      -0.153  61.218  -2.072  1.00  0.00     0.003 C 
HETATM   47  C41 UNL     1       1.338  61.461  -1.855  1.00  0.00     0.038 C 
BRANCH  42  48
HETATM   48  O7  UNL     1       3.365  60.691  -0.815  1.00  0.00    -0.390 OA
HETATM   49  H40 UNL     1       4.000  60.332  -1.467  1.00  0.00     0.210 HD
ENDBRANCH  42  48
ENDBRANCH  41  42
ENDBRANCH  40  41
ENDBRANCH  31  40
BRANCH  31  50
HETATM   50  N1  UNL     1       3.538  60.072  -4.470  1.00  0.00    -0.331 N 
HETATM   51  C42 UNL     1       4.141  61.142  -4.126  1.00  0.00     0.146 C 
HETATM   52  N2  UNL     1       3.642  62.334  -4.530  1.00  0.00    -0.274 NA
HETATM   53  N3  UNL     1       5.245  61.366  -3.387  1.00  0.00    -0.376 N 
HETATM   54  H51 UNL     1       2.749  62.208  -4.999  1.00  0.00     0.127 HD
HETATM   55  H52 UNL     1       3.574  63.001  -3.776  1.00  0.00     0.127 HD
HETATM   56  H53 UNL     1       5.762  62.200  -3.639  1.00  0.00     0.158 HD
HETATM   57  H54 UNL     1       5.839  60.573  -3.178  1.00  0.00     0.158 HD
ATOM     58  H1  UNL     1       2.701  60.169  -5.047  1.00  0.00     0.165 HD
ENDBRANCH  31  50
BRANCH   1  59
HETATM   59  C2  UNL     1       6.919  53.004  -7.245  1.00  0.00     0.005 C 
HETATM   60  C1  UNL     1       6.895  52.432  -8.657  1.00  0.00     0.006 C 
ENDBRANCH   1  59
BRANCH   3  61
HETATM   61  S1  UNL     1       2.366  51.462  -6.256  1.00  0.00     0.108 S 
HETATM   62  O1  UNL     1       3.002  51.266  -4.954  1.00  0.00    -0.595 OA
HETATM   63  O2  UNL     1       2.341  50.261  -7.090  1.00  0.00    -0.595 OA
HETATM   64  O3  UNL     1       1.085  52.155  -6.180  1.00  0.00    -0.595 OA
ENDBRANCH   3  61
BRANCH  12  65
HETATM   65  C15 UNL     1      -3.384  51.582  -9.916  1.00  0.00     0.169 C 
BRANCH  65  66
HETATM   66  O4  UNL     1      -2.666  51.561  -8.683  1.00  0.00    -0.400 OA
HETATM   67  H23 UNL     1      -1.764  51.231  -8.869  1.00  0.00     0.209 HD
ENDBRANCH  65  66
ENDBRANCH  12  65
BRANCH  18  68
HETATM   68  O5  UNL     1       1.425  50.644 -16.255  1.00  0.00    -0.361 OA
HETATM   69  H27 UNL     1       0.628  50.668 -16.806  1.00  0.00     0.217 HD
ENDBRANCH  18  68
TORSDOF 10
ENDMDL
MODEL 2
REMARK minimizedAffinity -7.8414712
REMARK CNNscore 0.299653888
REMARK CNNaffinity 7.03313875
REMARK  10 active torsions:
REMARK  status: ('A' for Active; 'I' for Inactive)
REMARK    1  A    between atoms: C2_2  and  C3_3 
REMARK    2  A    between atoms: C5_5  and  S1_6 
REMARK    3  A    between atoms: C14_18  and  C15_19 
REMARK    4  A    between atoms: C15_19  and  O4_20 
REMARK    5  A    between atoms: C21_26  and  O5_27 
REMARK    6  A    between atoms: C33_40  and  C34_41 
REMARK    7  A    between atoms: C33_40  and  N1_50 
REMARK    8  A    between atoms: C34_41  and  C35_42 
REMARK    9  A    between atoms: C35_42  and  C36_43 
REMARK   10  A    between atoms: C36_43  and  O7_44 
REMARK       I    between atoms: N1_50  and  C42_52 
REMARK       I    between atoms: C42_52  and  N2_53 
ROOT
HETATM    1  C3  UNL     1      -8.367  47.744 -26.037  1.00  0.00     0.019 C 
HETATM    2  C4  UNL     1      -8.070  46.217 -26.011  1.00  0.00     0.034 C 
HETATM    3  C5  UNL     1      -9.262  45.256 -26.213  1.00  0.00     0.153 C 
HETATM    4  C6  UNL     1     -10.434  45.334 -25.173  1.00  0.00     0.119 A 
HETATM    5  C7  UNL     1     -11.671  44.620 -25.719  1.00  0.00     0.001 C 
HETATM    6  C8  UNL     1     -12.781  44.577 -24.962  1.00  0.00    -0.049 C 
HETATM    7  C9  UNL     1     -12.786  45.381 -23.699  1.00  0.00     0.043 C 
HETATM    8  C10 UNL     1     -11.635  44.826 -22.859  1.00  0.00     0.016 C 
HETATM    9  C11 UNL     1     -11.980  43.427 -22.264  1.00  0.00     0.039 C 
HETATM   10  C12 UNL     1     -12.743  42.385 -23.137  1.00  0.00     0.123 C 
HETATM   11  C13 UNL     1     -13.164  41.216 -22.203  1.00  0.00     0.039 C 
HETATM   12  C14 UNL     1     -14.060  40.067 -22.742  1.00  0.00     0.023 C 
HETATM   13  C16 UNL     1     -15.580  40.321 -22.613  1.00  0.00     0.101 C 
HETATM   14  C17 UNL     1     -16.116  41.203 -23.651  1.00  0.00    -0.101 C 
HETATM   15  C18 UNL     1     -16.335  42.026 -24.499  1.00  0.00    -0.066 C 
HETATM   16  C19 UNL     1     -16.307  43.086 -25.459  1.00  0.00     0.029 A 
HETATM   17  C20 UNL     1     -17.489  43.383 -26.146  1.00  0.00     0.057 A 
HETATM   18  C21 UNL     1     -17.483  44.350 -27.151  1.00  0.00     0.067 A 
HETATM   19  C22 UNL     1     -16.316  45.036 -27.455  1.00  0.00     0.037 A 
HETATM   20  C23 UNL     1     -15.143  44.758 -26.750  1.00  0.00     0.014 A 
HETATM   21  C24 UNL     1     -15.112  43.793 -25.717  1.00  0.00    -0.006 A 
HETATM   22  C25 UNL     1     -13.768  43.444 -25.055  1.00  0.00     0.185 C 
HETATM   23  O6  UNL     1     -13.927  42.952 -23.707  1.00  0.00    -0.371 OA
HETATM   24  C26 UNL     1     -10.250  44.847 -23.664  1.00  0.00     0.113 A 
HETATM   25  C27 UNL     1      -9.193  45.617 -22.869  1.00  0.00    -0.039 A 
HETATM   26  C28 UNL     1      -7.910  45.074 -22.711  1.00  0.00     0.009 A 
HETATM   27  C29 UNL     1      -6.900  45.772 -22.030  1.00  0.00     0.012 A 
HETATM   28  C30 UNL     1      -7.155  47.019 -21.429  1.00  0.00    -0.003 A 
HETATM   29  C31 UNL     1      -8.473  47.511 -21.520  1.00  0.00     0.012 A 
HETATM   30  C32 UNL     1      -9.456  46.851 -22.263  1.00  0.00     0.009 A 
HETATM   31  C33 UNL     1      -6.056  47.888 -20.727  1.00  0.00     0.171 C 
HETATM   32  O8  UNL     1      -5.681  49.115 -21.484  1.00  0.00    -0.316 OA
HETATM   33  C43 UNL     1      -6.066  49.150 -22.796  1.00  0.00     0.072 C 
HETATM   34  C44 UNL     1      -7.225  49.856 -23.117  1.00  0.00     0.037 C 
HETATM   35  C45 UNL     1      -7.914  49.508 -24.278  1.00  0.00     0.010 C 
HETATM   36  C46 UNL     1      -7.407  48.500 -25.112  1.00  0.00    -0.054 C 
HETATM   37  C47 UNL     1      -6.084  48.067 -24.926  1.00  0.00     0.010 C 
HETATM   38  C48 UNL     1      -5.412  48.386 -23.751  1.00  0.00     0.037 C 
HETATM   39 NA1  UNL     1      -9.069  45.579 -22.880  1.00  0.00    -0.230 Na
ENDROOT
BRANCH  31  40
HETATM   40  C34 UNL     1      -4.700  47.119 -20.539  1.00  0.00     0.070 C 
BRANCH  40  41
HETATM   41  C35 UNL     1      -3.426  47.956 -20.257  1.00  0.00     0.043 C 
BRANCH  41  42
HETATM   42  C36 UNL     1      -2.235  47.885 -21.253  1.00  0.00     0.058 C 
HETATM   43  C37 UNL     1      -0.908  48.163 -20.513  1.00  0.00     0.038 C 
HETATM   44  C38 UNL     1      -0.724  49.625 -20.109  1.00  0.00     0.003 C 
HETATM   45  C39 UNL     1      -0.904  50.568 -21.294  1.00  0.00     0.000 C 
HETATM   46  C40 UNL     1      -2.213  50.317 -22.033  1.00  0.00     0.003 C 
HETATM   47  C41 UNL     1      -2.349  48.853 -22.442  1.00  0.00     0.038 C 
BRANCH  42  48
HETATM   48  O7  UNL     1      -2.101  46.555 -21.778  1.00  0.00    -0.390 OA
HETATM   49  H40 UNL     1      -2.964  46.111 -21.659  1.00  0.00     0.210 HD
ENDBRANCH  42  48
ENDBRANCH  41  42
ENDBRANCH  40  41
ENDBRANCH  31  40
BRANCH  31  50
HETATM   50  N1  UNL     1      -6.497  48.279 -19.365  1.00  0.00    -0.331 N 
HETATM   51  C42 UNL     1      -6.748  47.466 -18.414  1.00  0.00     0.146 C 
HETATM   52  N2  UNL     1      -7.152  47.961 -17.221  1.00  0.00    -0.274 NA
HETATM   53  N3  UNL     1      -6.704  46.123 -18.329  1.00  0.00    -0.376 N 
HETATM   54  H51 UNL     1      -7.300  48.965 -17.280  1.00  0.00     0.127 HD
HETATM   55  H52 UNL     1      -7.966  47.487 -16.860  1.00  0.00     0.127 HD
HETATM   56  H53 UNL     1      -6.492  45.762 -17.407  1.00  0.00     0.158 HD
HETATM   57  H54 UNL     1      -6.235  45.621 -19.074  1.00  0.00     0.158 HD
ATOM     58  H1  UNL     1      -6.609  49.275 -19.174  1.00  0.00     0.165 HD
ENDBRANCH  31  50
BRANCH   1  59
HETATM   59  C2  UNL     1      -8.458  48.370 -27.442  1.00  0.00     0.005 C 
HETATM   60  C1  UNL     1      -7.502  47.815 -28.491  1.00  0.00     0.006 C 
ENDBRANCH   1  59
BRANCH   3  61
HETATM   61  S1  UNL     1      -8.668  43.550 -26.549  1.00  0.00     0.108 S 
HETATM   62  O1  UNL     1      -7.728  43.252 -25.468  1.00  0.00    -0.595 OA
HETATM   63  O2  UNL     1      -8.037  43.685 -27.862  1.00  0.00    -0.595 OA
HETATM   64  O3  UNL     1      -9.847  42.692 -26.547  1.00  0.00    -0.595 OA
ENDBRANCH   3  61
BRANCH  12  65
HETATM   65  C15 UNL     1     -13.649  39.574 -24.130  1.00  0.00     0.169 C 
BRANCH  65  66
HETATM   66  O4  UNL     1     -14.178  38.266 -24.340  1.00  0.00    -0.400 OA
HETATM   67  H23 UNL     1     -13.424  37.647 -24.412  1.00  0.00     0.209 HD
ENDBRANCH  65  66
ENDBRANCH  12  65
BRANCH  18  68
HETATM   68  O5  UNL     1     -18.596  44.635 -27.883  1.00  0.00    -0.361 OA
HETATM   69  H27 UNL     1     -19.329  44.098 -27.546  1.00  0.00     0.217 HD
ENDBRANCH  18  68
TORSDOF 10
ENDMDL
MODEL 3
REMARK minimizedAffinity -8.11659336
REMARK CNNscore 0.232252151
REMARK CNNaffinity 7.93452263
REMARK  10 active torsions:
REMARK  status: ('A' for Active; 'I' for Inactive)
REMARK    1  A    between atoms: C2_2  and  C3_3 
REMARK    2  A    between atoms: C5_5  and  S1_6 
REMARK    3  A    between atoms: C14_18  and  C15_19 
REMARK    4  A    between atoms: C15_19  and  O4_20 
REMARK    5  A    between atoms: C21_26  and  O5_27 
REMARK    6  A    between atoms: C33_40  and  C34_41 
REMARK    7  A    between atoms: C33_40  and  N1_50 
REMARK    8  A    between atoms: C34_41  and  C35_42 
REMARK    9  A    between atoms: C35_42  and  C36_43 
REMARK   10  A    between atoms: C36_43  and  O7_44 
REMARK       I    between atoms: N1_50  and  C42_52 
REMARK       I    between atoms: C42_52  and  N2_53 
ROOT
HETATM    1  C3  UNL     1       4.101  54.557  -9.484  1.00  0.00     0.019 C 
HETATM    2  C4  UNL     1       4.157  53.005  -9.385  1.00  0.00     0.034 C 
HETATM    3  C5  UNL     1       3.764  52.197 -10.641  1.00  0.00     0.153 C 
HETATM    4  C6  UNL     1       2.311  52.394 -11.199  1.00  0.00     0.119 A 
HETATM    5  C7  UNL     1       2.214  51.843 -12.622  1.00  0.00     0.001 C 
HETATM    6  C8  UNL     1       1.036  51.918 -13.267  1.00  0.00    -0.049 C 
HETATM    7  C9  UNL     1      -0.063  52.692 -12.608  1.00  0.00     0.043 C 
HETATM    8  C10 UNL     1      -0.313  51.987 -11.273  1.00  0.00     0.016 C 
HETATM    9  C11 UNL     1      -1.050  50.627 -11.471  1.00  0.00     0.039 C 
HETATM   10  C12 UNL     1      -0.654  49.701 -12.660  1.00  0.00     0.123 C 
HETATM   11  C13 UNL     1      -1.719  48.573 -12.745  1.00  0.00     0.039 C 
HETATM   12  C14 UNL     1      -1.684  47.550 -13.913  1.00  0.00     0.023 C 
HETATM   13  C16 UNL     1      -2.475  47.980 -15.171  1.00  0.00     0.101 C 
HETATM   14  C17 UNL     1      -1.760  48.940 -16.013  1.00  0.00    -0.101 C 
HETATM   15  C18 UNL     1      -1.073  49.800 -16.494  1.00  0.00    -0.066 C 
HETATM   16  C19 UNL     1      -0.165  50.868 -16.782  1.00  0.00     0.029 A 
HETATM   17  C20 UNL     1      -0.075  51.317 -18.104  1.00  0.00     0.057 A 
HETATM   18  C21 UNL     1       0.860  52.296 -18.441  1.00  0.00     0.067 A 
HETATM   19  C22 UNL     1       1.682  52.844 -17.468  1.00  0.00     0.037 A 
HETATM   20  C23 UNL     1       1.572  52.415 -16.143  1.00  0.00     0.014 A 
HETATM   21  C24 UNL     1       0.630  51.433 -15.760  1.00  0.00    -0.006 A 
HETATM   22  C25 UNL     1       0.633  50.912 -14.313  1.00  0.00     0.185 C 
HETATM   23  O6  UNL     1      -0.658  50.417 -13.900  1.00  0.00    -0.371 OA
HETATM   24  C26 UNL     1       1.031  51.859 -10.410  1.00  0.00     0.113 A 
HETATM   25  C27 UNL     1       0.826  52.481  -9.027  1.00  0.00    -0.039 A 
HETATM   26  C28 UNL     1       1.244  51.786  -7.883  1.00  0.00     0.009 A 
HETATM   27  C29 UNL     1       1.118  52.346  -6.602  1.00  0.00     0.012 A 
HETATM   28  C30 UNL     1       0.513  53.602  -6.412  1.00  0.00    -0.003 A 
HETATM   29  C31 UNL     1       0.017  54.249  -7.562  1.00  0.00     0.012 A 
HETATM   30  C32 UNL     1       0.212  53.726  -8.844  1.00  0.00     0.009 A 
HETATM   31  C33 UNL     1       0.413  54.320  -5.022  1.00  0.00     0.171 C 
HETATM   32  O8  UNL     1       1.303  55.508  -4.891  1.00  0.00    -0.316 OA
HETATM   33  C43 UNL     1       2.300  55.615  -5.821  1.00  0.00     0.072 C 
HETATM   34  C44 UNL     1       2.089  56.460  -6.910  1.00  0.00     0.037 C 
HETATM   35  C45 UNL     1       2.801  56.219  -8.084  1.00  0.00     0.010 C 
HETATM   36  C46 UNL     1       3.737  55.175  -8.129  1.00  0.00    -0.054 C 
HETATM   37  C47 UNL     1       4.152  54.584  -6.925  1.00  0.00     0.010 C 
HETATM   38  C48 UNL     1       3.419  54.797  -5.762  1.00  0.00     0.037 C 
HETATM   39 NA1  UNL     1       0.891  52.429  -8.926  1.00  0.00    -0.230 Na
ENDROOT
BRANCH  31  40
HETATM   40  C34 UNL     1       0.830  53.391  -3.826  1.00  0.00     0.070 C 
BRANCH  40  41
HETATM   41  C35 UNL     1       1.664  54.018  -2.680  1.00  0.00     0.043 C 
BRANCH  41  42
HETATM   42  C36 UNL     1       1.065  54.065  -1.245  1.00  0.00     0.058 C 
HETATM   43  C37 UNL     1      -0.313  54.762  -1.270  1.00  0.00     0.038 C 
HETATM   44  C38 UNL     1      -0.235  56.272  -1.488  1.00  0.00     0.003 C 
HETATM   45  C39 UNL     1       0.706  56.941  -0.491  1.00  0.00     0.000 C 
HETATM   46  C40 UNL     1       2.076  56.275  -0.459  1.00  0.00     0.003 C 
HETATM   47  C41 UNL     1       1.958  54.774  -0.213  1.00  0.00     0.038 C 
BRANCH  42  48
HETATM   48  O7  UNL     1       0.806  52.737  -0.767  1.00  0.00    -0.390 OA
HETATM   49  H40 UNL     1       1.364  52.128  -1.291  1.00  0.00     0.210 HD
ENDBRANCH  42  48
ENDBRANCH  41  42
ENDBRANCH  40  41
ENDBRANCH  31  40
BRANCH  31  50
HETATM   50  N1  UNL     1      -0.986  54.733  -4.752  1.00  0.00    -0.331 N 
HETATM   51  C42 UNL     1      -1.914  53.958  -4.344  1.00  0.00     0.146 C 
HETATM   52  N2  UNL     1      -3.152  54.468  -4.145  1.00  0.00    -0.274 NA
HETATM   53  N3  UNL     1      -1.939  52.644  -4.053  1.00  0.00    -0.376 N 
HETATM   54  H51 UNL     1      -3.196  55.435  -4.458  1.00  0.00     0.127 HD
HETATM   55  H52 UNL     1      -3.875  53.908  -4.571  1.00  0.00     0.127 HD
HETATM   56  H53 UNL     1      -2.610  52.380  -3.341  1.00  0.00     0.158 HD
HETATM   57  H54 UNL     1      -1.051  52.166  -3.964  1.00  0.00     0.158 HD
ATOM     58  H1  UNL     1      -1.225  55.714  -4.904  1.00  0.00     0.165 HD
ENDBRANCH  31  50
BRANCH   1  59
HETATM   59  C2  UNL     1       5.336  55.217 -10.127  1.00  0.00     0.005 C 
HETATM   60  C1  UNL     1       6.665  55.001  -9.414  1.00  0.00     0.006 C 
ENDBRANCH   1  59
BRANCH   3  61
HETATM   61  S1  UNL     1       4.270  50.440 -10.465  1.00  0.00     0.108 S 
HETATM   62  O1  UNL     1       3.040  49.719 -10.132  1.00  0.00    -0.595 OA
HETATM   63  O2  UNL     1       5.237  50.495  -9.369  1.00  0.00    -0.595 OA
HETATM   64  O3  UNL     1       4.848  50.044 -11.743  1.00  0.00    -0.595 OA
ENDBRANCH   3  61
BRANCH  12  65
HETATM   65  C15 UNL     1      -0.279  47.038 -14.235  1.00  0.00     0.169 C 
BRANCH  65  66
HETATM   66  O4  UNL     1      -0.378  45.835 -14.995  1.00  0.00    -0.400 OA
HETATM   67  H23 UNL     1      -0.009  45.109 -14.452  1.00  0.00     0.209 HD
ENDBRANCH  65  66
ENDBRANCH  12  65
BRANCH  18  68
HETATM   68  O5  UNL     1       1.021  52.727 -19.724  1.00  0.00    -0.361 OA
HETATM   69  H27 UNL     1       0.370  52.274 -20.282  1.00  0.00     0.217 HD
ENDBRANCH  18  68
TORSDOF 10
ENDMDL
MODEL 4
REMARK minimizedAffinity -9.68102169
REMARK CNNscore 0.199668393
REMARK CNNaffinity 6.59603882
REMARK  10 active torsions:
REMARK  status: ('A' for Active; 'I' for Inactive)
REMARK    1  A    between atoms: C2_2  and  C3_3 
REMARK    2  A    between atoms: C5_5  and  S1_6 
REMARK    3  A    between atoms: C14_18  and  C15_19 
REMARK    4  A    between atoms: C15_19  and  O4_20 
REMARK    5  A    between atoms: C21_26  and  O5_27 
REMARK    6  A    between atoms: C33_40  and  C34_41 
REMARK    7  A    between atoms: C33_40  and  N1_50 
REMARK    8  A    between atoms: C34_41  and  C35_42 
REMARK    9  A    between atoms: C35_42  and  C36_43 
REMARK   10  A    between atoms: C36_43  and  O7_44 
REMARK       I    between atoms: N1_50  and  C42_52 
REMARK       I    between atoms: C42_52  and  N2_53 
ROOT
HETATM    1  C3  UNL     1     -10.904  44.751 -22.117  1.00  0.00     0.019 C 
HETATM    2  C4  UNL     1     -10.625  43.709 -23.240  1.00  0.00     0.034 C 
HETATM    3  C5  UNL     1      -9.461  44.003 -24.211  1.00  0.00     0.153 C 
HETATM    4  C6  UNL     1      -9.546  45.320 -25.060  1.00  0.00     0.119 A 
HETATM    5  C7  UNL     1      -8.179  45.650 -25.659  1.00  0.00     0.001 C 
HETATM    6  C8  UNL     1      -8.056  46.746 -26.427  1.00  0.00    -0.049 C 
HETATM    7  C9  UNL     1      -9.233  47.668 -26.508  1.00  0.00     0.043 C 
HETATM    8  C10 UNL     1     -10.370  46.825 -27.087  1.00  0.00     0.016 C 
HETATM    9  C11 UNL     1     -10.165  46.551 -28.609  1.00  0.00     0.039 C 
HETATM   10  C12 UNL     1      -8.739  46.224 -29.147  1.00  0.00     0.123 C 
HETATM   11  C13 UNL     1      -8.809  46.261 -30.699  1.00  0.00     0.039 C 
HETATM   12  C14 UNL     1      -7.516  46.103 -31.545  1.00  0.00     0.023 C 
HETATM   13  C16 UNL     1      -6.777  47.427 -31.846  1.00  0.00     0.101 C 
HETATM   14  C17 UNL     1      -5.965  47.912 -30.728  1.00  0.00    -0.101 C 
HETATM   15  C18 UNL     1      -5.467  48.199 -29.673  1.00  0.00    -0.066 C 
HETATM   16  C19 UNL     1      -5.107  48.388 -28.301  1.00  0.00     0.029 A 
HETATM   17  C20 UNL     1      -3.984  49.172 -28.017  1.00  0.00     0.057 A 
HETATM   18  C21 UNL     1      -3.549  49.308 -26.699  1.00  0.00     0.067 A 
HETATM   19  C22 UNL     1      -4.240  48.691 -25.666  1.00  0.00     0.037 A 
HETATM   20  C23 UNL     1      -5.378  47.931 -25.948  1.00  0.00     0.014 A 
HETATM   21  C24 UNL     1      -5.856  47.778 -27.270  1.00  0.00    -0.006 A 
HETATM   22  C25 UNL     1      -7.041  46.835 -27.536  1.00  0.00     0.185 C 
HETATM   23  O6  UNL     1      -7.785  47.200 -28.718  1.00  0.00    -0.371 OA
HETATM   24  C26 UNL     1     -10.616  45.493 -26.232  1.00  0.00     0.113 A 
HETATM   25  C27 UNL     1     -12.076  45.422 -25.781  1.00  0.00    -0.039 A 
HETATM   26  C28 UNL     1     -12.794  44.227 -25.932  1.00  0.00     0.009 A 
HETATM   27  C29 UNL     1     -14.120  44.110 -25.485  1.00  0.00     0.012 A 
HETATM   28  C30 UNL     1     -14.798  45.206 -24.919  1.00  0.00    -0.003 A 
HETATM   29  C31 UNL     1     -14.093  46.425 -24.855  1.00  0.00     0.012 A 
HETATM   30  C32 UNL     1     -12.749  46.520 -25.230  1.00  0.00     0.009 A 
HETATM   31  C33 UNL     1     -16.246  45.122 -24.326  1.00  0.00     0.171 C 
HETATM   32  O8  UNL     1     -16.297  45.219 -22.840  1.00  0.00    -0.316 OA
HETATM   33  C43 UNL     1     -15.111  45.026 -22.187  1.00  0.00     0.072 C 
HETATM   34  C44 UNL     1     -14.398  46.154 -21.782  1.00  0.00     0.037 C 
HETATM   35  C45 UNL     1     -13.021  46.038 -21.598  1.00  0.00     0.010 C 
HETATM   36  C46 UNL     1     -12.397  44.794 -21.776  1.00  0.00    -0.054 C 
HETATM   37  C47 UNL     1     -13.194  43.640 -21.846  1.00  0.00     0.010 C 
HETATM   38  C48 UNL     1     -14.562  43.757 -22.066  1.00  0.00     0.037 C 
HETATM   39 NA1  UNL     1     -12.131  45.304 -25.768  1.00  0.00    -0.230 Na
ENDROOT
BRANCH  31  40
HETATM   40  C34 UNL     1     -16.959  43.761 -24.651  1.00  0.00     0.070 C 
BRANCH  40  41
HETATM   41  C35 UNL     1     -18.303  43.815 -25.422  1.00  0.00     0.043 C 
BRANCH  41  42
HETATM   42  C36 UNL     1     -18.284  43.990 -26.967  1.00  0.00     0.058 C 
HETATM   43  C37 UNL     1     -19.473  43.233 -27.600  1.00  0.00     0.038 C 
HETATM   44  C38 UNL     1     -19.312  41.713 -27.584  1.00  0.00     0.003 C 
HETATM   45  C39 UNL     1     -17.987  41.277 -28.200  1.00  0.00     0.000 C 
HETATM   46  C40 UNL     1     -16.799  42.005 -27.582  1.00  0.00     0.003 C 
HETATM   47  C41 UNL     1     -16.985  43.519 -27.639  1.00  0.00     0.038 C 
BRANCH  42  48
HETATM   48  O7  UNL     1     -18.488  45.368 -27.316  1.00  0.00    -0.390 OA
HETATM   49  H40 UNL     1     -18.253  45.901 -26.531  1.00  0.00     0.210 HD
ENDBRANCH  42  48
ENDBRANCH  41  42
ENDBRANCH  40  41
ENDBRANCH  31  40
BRANCH  31  50
HETATM   50  N1  UNL     1     -17.105  46.184 -24.907  1.00  0.00    -0.331 N 
HETATM   51  C42 UNL     1     -18.104  46.721 -24.322  1.00  0.00     0.146 C 
HETATM   52  N2  UNL     1     -18.808  47.676 -24.974  1.00  0.00    -0.274 NA
HETATM   53  N3  UNL     1     -18.659  46.530 -23.110  1.00  0.00    -0.376 N 
HETATM   54  H51 UNL     1     -18.482  47.770 -25.933  1.00  0.00     0.127 HD
HETATM   55  H52 UNL     1     -19.804  47.518 -24.935  1.00  0.00     0.127 HD
HETATM   56  H53 UNL     1     -19.106  47.348 -22.714  1.00  0.00     0.158 HD
HETATM   57  H54 UNL     1     -18.133  45.991 -22.432  1.00  0.00     0.158 HD
ATOM     58  H1  UNL     1     -16.880  46.509 -25.848  1.00  0.00     0.165 HD
ENDBRANCH  31  50
BRANCH   1  59
HETATM   59  C2  UNL     1     -10.010  44.622 -20.868  1.00  0.00     0.005 C 
HETATM   60  C1  UNL     1      -8.879  45.635 -20.741  1.00  0.00     0.006 C 
ENDBRANCH   1  59
BRANCH   3  61
HETATM   61  S1  UNL     1      -9.038  42.505 -25.187  1.00  0.00     0.108 S 
HETATM   62  O1  UNL     1      -7.577  42.431 -25.161  1.00  0.00    -0.595 OA
HETATM   63  O2  UNL     1      -9.592  42.817 -26.504  1.00  0.00    -0.595 OA
HETATM   64  O3  UNL     1      -9.689  41.381 -24.524  1.00  0.00    -0.595 OA
ENDBRANCH   3  61
BRANCH  12  65
HETATM   65  C15 UNL     1      -6.587  44.998 -31.038  1.00  0.00     0.169 C 
BRANCH  65  66
HETATM   66  O4  UNL     1      -5.542  44.791 -31.987  1.00  0.00    -0.400 OA
HETATM   67  H23 UNL     1      -5.645  43.889 -32.352  1.00  0.00     0.209 HD
ENDBRANCH  65  66
ENDBRANCH  12  65
BRANCH  18  68
HETATM   68  O5  UNL     1      -2.430  50.018 -26.379  1.00  0.00    -0.361 OA
HETATM   69  H27 UNL     1      -2.070  50.403 -27.192  1.00  0.00     0.217 HD
ENDBRANCH  18  68
TORSDOF 10
ENDMDL
MODEL 5
REMARK minimizedAffinity -8.9223814
REMARK CNNscore 0.188835666
REMARK CNNaffinity 7.88607645
REMARK  10 active torsions:
REMARK  status: ('A' for Active; 'I' for Inactive)
REMARK    1  A    between atoms: C2_2  and  C3_3 
REMARK    2  A    between atoms: C5_5  and  S1_6 
REMARK    3  A    between atoms: C14_18  and  C15_19 
REMARK    4  A    between atoms: C15_19  and  O4_20 
REMARK    5  A    between atoms: C21_26  and  O5_27 
REMARK    6  A    between atoms: C33_40  and  C34_41 
REMARK    7  A    between atoms: C33_40  and  N1_50 
REMARK    8  A    between atoms: C34_41  and  C35_42 
REMARK    9  A    between atoms: C35_42  and  C36_43 
REMARK   10  A    between atoms: C36_43  and  O7_44 
REMARK       I    between atoms: N1_50  and  C42_52 
REMARK       I    between atoms: C42_52  and  N2_53 
ROOT
HETATM    1  C3  UNL     1       0.687  51.028 -11.899  1.00  0.00     0.019 C 
HETATM    2  C4  UNL     1       0.694  49.628 -12.579  1.00  0.00     0.034 C 
HETATM    3  C5  UNL     1       0.819  49.584 -14.117  1.00  0.00     0.153 C 
HETATM    4  C6  UNL     1      -0.300  50.300 -14.952  1.00  0.00     0.119 A 
HETATM    5  C7  UNL     1       0.164  50.496 -16.395  1.00  0.00     0.001 C 
HETATM    6  C8  UNL     1      -0.668  51.091 -17.268  1.00  0.00    -0.049 C 
HETATM    7  C9  UNL     1      -1.934  51.677 -16.724  1.00  0.00     0.043 C 
HETATM    8  C10 UNL     1      -2.688  50.503 -16.096  1.00  0.00     0.016 C 
HETATM    9  C11 UNL     1      -3.296  49.564 -17.182  1.00  0.00     0.039 C 
HETATM   10  C12 UNL     1      -2.471  49.230 -18.461  1.00  0.00     0.123 C 
HETATM   11  C13 UNL     1      -3.423  48.504 -19.452  1.00  0.00     0.039 C 
HETATM   12  C14 UNL     1      -2.940  48.148 -20.884  1.00  0.00     0.023 C 
HETATM   13  C16 UNL     1      -3.175  49.256 -21.938  1.00  0.00     0.101 C 
HETATM   14  C17 UNL     1      -2.183  50.331 -21.889  1.00  0.00    -0.101 C 
HETATM   15  C18 UNL     1      -1.359  51.160 -21.612  1.00  0.00    -0.066 C 
HETATM   16  C19 UNL     1      -0.407  52.036 -21.001  1.00  0.00     0.029 A 
HETATM   17  C20 UNL     1       0.194  53.015 -21.801  1.00  0.00     0.057 A 
HETATM   18  C21 UNL     1       1.191  53.831 -21.266  1.00  0.00     0.067 A 
HETATM   19  C22 UNL     1       1.570  53.694 -19.939  1.00  0.00     0.037 A 
HETATM   20  C23 UNL     1       0.950  52.736 -19.134  1.00  0.00     0.014 A 
HETATM   21  C24 UNL     1      -0.071  51.898 -19.636  1.00  0.00    -0.006 A 
HETATM   22  C25 UNL     1      -0.636  50.781 -18.741  1.00  0.00     0.185 C 
HETATM   23  O6  UNL     1      -1.988  50.420 -19.094  1.00  0.00    -0.371 OA
HETATM   24  C26 UNL     1      -1.789  49.729 -15.020  1.00  0.00     0.113 A 
HETATM   25  C27 UNL     1      -2.515  49.673 -13.674  1.00  0.00    -0.039 A 
HETATM   26  C28 UNL     1      -2.579  48.462 -12.969  1.00  0.00     0.009 A 
HETATM   27  C29 UNL     1      -3.193  48.383 -11.709  1.00  0.00     0.012 A 
HETATM   28  C30 UNL     1      -3.819  49.504 -11.132  1.00  0.00    -0.003 A 
HETATM   29  C31 UNL     1      -3.824  50.691 -11.892  1.00  0.00     0.012 A 
HETATM   30  C32 UNL     1      -3.146  50.788 -13.111  1.00  0.00     0.009 A 
HETATM   31  C33 UNL     1      -4.450  49.506  -9.697  1.00  0.00     0.171 C 
HETATM   32  O8  UNL     1      -3.677  50.298  -8.699  1.00  0.00    -0.316 OA
HETATM   33  C43 UNL     1      -2.396  50.619  -9.052  1.00  0.00     0.072 C 
HETATM   34  C44 UNL     1      -2.161  51.893  -9.569  1.00  0.00     0.037 C 
HETATM   35  C45 UNL     1      -1.048  52.082 -10.387  1.00  0.00     0.010 C 
HETATM   36  C46 UNL     1      -0.174  51.012 -10.631  1.00  0.00    -0.054 C 
HETATM   37  C47 UNL     1      -0.264  49.865  -9.827  1.00  0.00     0.010 C 
HETATM   38  C48 UNL     1      -1.392  49.661  -9.039  1.00  0.00     0.037 C 
HETATM   39 NA1  UNL     1      -2.494  49.568 -13.598  1.00  0.00    -0.230 Na
ENDROOT
BRANCH  31  40
HETATM   40  C34 UNL     1      -4.538  48.070  -9.068  1.00  0.00     0.070 C 
BRANCH  40  41
HETATM   41  C35 UNL     1      -3.285  47.522  -8.337  1.00  0.00     0.043 C 
BRANCH  41  42
HETATM   42  C36 UNL     1      -3.315  47.374  -6.790  1.00  0.00     0.058 C 
HETATM   43  C37 UNL     1      -2.020  46.690  -6.298  1.00  0.00     0.038 C 
HETATM   44  C38 UNL     1      -1.950  45.199  -6.626  1.00  0.00     0.003 C 
HETATM   45  C39 UNL     1      -3.188  44.453  -6.140  1.00  0.00     0.000 C 
HETATM   46  C40 UNL     1      -4.478  45.106  -6.622  1.00  0.00     0.003 C 
HETATM   47  C41 UNL     1      -4.522  46.587  -6.254  1.00  0.00     0.038 C 
BRANCH  42  48
HETATM   48  O7  UNL     1      -3.318  48.666  -6.163  1.00  0.00    -0.390 OA
HETATM   49  H40 UNL     1      -3.638  49.307  -6.828  1.00  0.00     0.210 HD
ENDBRANCH  42  48
ENDBRANCH  41  42
ENDBRANCH  40  41
ENDBRANCH  31  40
BRANCH  31  50
HETATM   50  N1  UNL     1      -5.842  50.018  -9.744  1.00  0.00    -0.331 N 
HETATM   51  C42 UNL     1      -6.798  49.483 -10.397  1.00  0.00     0.146 C 
HETATM   52  N2  UNL     1      -8.021  50.063 -10.359  1.00  0.00    -0.274 NA
HETATM   53  N3  UNL     1      -6.865  48.391 -11.182  1.00  0.00    -0.376 N 
HETATM   54  H51 UNL     1      -7.983  50.950  -9.863  1.00  0.00     0.127 HD
HETATM   55  H52 UNL     1      -8.429  50.169 -11.276  1.00  0.00     0.127 HD
HETATM   56  H53 UNL     1      -7.768  47.931 -11.194  1.00  0.00     0.158 HD
HETATM   57  H54 UNL     1      -6.086  47.744 -11.153  1.00  0.00     0.158 HD
ATOM     58  H1  UNL     1      -6.050  50.864  -9.213  1.00  0.00     0.165 HD
ENDBRANCH  31  50
BRANCH   1  59
HETATM   59  C2  UNL     1       2.079  51.649 -11.667  1.00  0.00     0.005 C 
HETATM   60  C1  UNL     1       3.266  50.699 -11.760  1.00  0.00     0.006 C 
ENDBRANCH   1  59
BRANCH   3  61
HETATM   61  S1  UNL     1       1.208  47.880 -14.686  1.00  0.00     0.108 S 
HETATM   62  O1  UNL     1       2.655  47.744 -14.523  1.00  0.00    -0.595 OA
HETATM   63  O2  UNL     1       0.769  47.903 -16.081  1.00  0.00    -0.595 OA
HETATM   64  O3  UNL     1       0.439  46.975 -13.840  1.00  0.00    -0.595 OA
ENDBRANCH   3  61
BRANCH  12  65
HETATM   65  C15 UNL     1      -1.522  47.573 -20.925  1.00  0.00     0.169 C 
BRANCH  65  66
HETATM   66  O4  UNL     1      -0.943  47.658 -19.624  1.00  0.00    -0.400 OA
HETATM   67  H23 UNL     1      -0.188  48.278 -19.673  1.00  0.00     0.209 HD
ENDBRANCH  65  66
ENDBRANCH  12  65
BRANCH  18  68
HETATM   68  O5  UNL     1       1.842  54.761 -22.020  1.00  0.00    -0.361 OA
HETATM   69  H27 UNL     1       1.459  54.755 -22.910  1.00  0.00     0.217 HD
ENDBRANCH  18  68
TORSDOF 10
ENDMDL
MODEL 6
REMARK minimizedAffinity -8.51921654
REMARK CNNscore 0.160409942
REMARK CNNaffinity 7.53367853
REMARK  10 active torsions:
REMARK  status: ('A' for Active; 'I' for Inactive)
REMARK    1  A    between atoms: C2_2  and  C3_3 
REMARK    2  A    between atoms: C5_5  and  S1_6 
REMARK    3  A    between atoms: C14_18  and  C15_19 
REMARK    4  A    between atoms: C15_19  and  O4_20 
REMARK    5  A    between atoms: C21_26  and  O5_27 
REMARK    6  A    between atoms: C33_40  and  C34_41 
REMARK    7  A    between atoms: C33_40  and  N1_50 
REMARK    8  A    between atoms: C34_41  and  C35_42 
REMARK    9  A    between atoms: C35_42  and  C36_43 
REMARK   10  A    between atoms: C36_43  and  O7_44 
REMARK       I    between atoms: N1_50  and  C42_52 
REMARK       I    between atoms: C42_52  and  N2_53 
ROOT
HETATM    1  C3  UNL     1       2.790  54.943  -9.202  1.00  0.00     0.019 C 
HETATM    2  C4  UNL     1       3.238  53.455  -9.107  1.00  0.00     0.034 C 
HETATM    3  C5  UNL     1       3.123  52.594 -10.384  1.00  0.00     0.153 C 
HETATM    4  C6  UNL     1       1.694  52.421 -11.009  1.00  0.00     0.119 A 
HETATM    5  C7  UNL     1       1.806  51.886 -12.437  1.00  0.00     0.001 C 
HETATM    6  C8  UNL     1       0.679  51.667 -13.137  1.00  0.00    -0.049 C 
HETATM    7  C9  UNL     1      -0.611  52.123 -12.527  1.00  0.00     0.043 C 
HETATM    8  C10 UNL     1      -0.730  51.356 -11.209  1.00  0.00     0.016 C 
HETATM    9  C11 UNL     1      -1.085  49.856 -11.447  1.00  0.00     0.039 C 
HETATM   10  C12 UNL     1      -0.411  49.082 -12.620  1.00  0.00     0.123 C 
HETATM   11  C13 UNL     1      -1.146  47.720 -12.759  1.00  0.00     0.039 C 
HETATM   12  C14 UNL     1      -0.797  46.759 -13.929  1.00  0.00     0.023 C 
HETATM   13  C16 UNL     1      -1.615  46.992 -15.220  1.00  0.00     0.101 C 
HETATM   14  C17 UNL     1      -1.133  48.117 -16.024  1.00  0.00    -0.101 C 
HETATM   15  C18 UNL     1      -0.669  49.132 -16.469  1.00  0.00    -0.066 C 
HETATM   16  C19 UNL     1      -0.055  50.401 -16.709  1.00  0.00     0.029 A 
HETATM   17  C20 UNL     1      -0.024  50.880 -18.023  1.00  0.00     0.057 A 
HETATM   18  C21 UNL     1       0.643  52.070 -18.312  1.00  0.00     0.067 A 
HETATM   19  C22 UNL     1       1.252  52.795 -17.298  1.00  0.00     0.037 A 
HETATM   20  C23 UNL     1       1.197  52.331 -15.982  1.00  0.00     0.014 A 
HETATM   21  C24 UNL     1       0.522  51.134 -15.648  1.00  0.00    -0.006 A 
HETATM   22  C25 UNL     1       0.594  50.609 -14.204  1.00  0.00     0.185 C 
HETATM   23  O6  UNL     1      -0.543  49.792 -13.855  1.00  0.00    -0.371 OA
HETATM   24  C26 UNL     1       0.561  51.563 -10.283  1.00  0.00     0.113 A 
HETATM   25  C27 UNL     1       0.141  52.089  -8.909  1.00  0.00    -0.039 A 
HETATM   26  C28 UNL     1       0.672  51.507  -7.750  1.00  0.00     0.009 A 
HETATM   27  C29 UNL     1       0.350  51.995  -6.474  1.00  0.00     0.012 A 
HETATM   28  C30 UNL     1      -0.566  53.051  -6.307  1.00  0.00    -0.003 A 
HETATM   29  C31 UNL     1      -1.159  53.567  -7.477  1.00  0.00     0.012 A 
HETATM   30  C32 UNL     1      -0.779  53.132  -8.750  1.00  0.00     0.009 A 
HETATM   31  C33 UNL     1      -0.908  53.696  -4.921  1.00  0.00     0.171 C 
HETATM   32  O8  UNL     1      -0.361  55.071  -4.743  1.00  0.00    -0.316 OA
HETATM   33  C43 UNL     1       0.616  55.444  -5.624  1.00  0.00     0.072 C 
HETATM   34  C44 UNL     1       0.244  56.224  -6.719  1.00  0.00     0.037 C 
HETATM   35  C45 UNL     1       1.046  56.193  -7.859  1.00  0.00     0.010 C 
HETATM   36  C46 UNL     1       2.220  55.424  -7.863  1.00  0.00    -0.054 C 
HETATM   37  C47 UNL     1       2.718  54.941  -6.643  1.00  0.00     0.010 C 
HETATM   38  C48 UNL     1       1.904  54.940  -5.516  1.00  0.00     0.037 C 
HETATM   39 NA1  UNL     1       0.213  52.054  -8.806  1.00  0.00    -0.230 Na
ENDROOT
BRANCH  31  40
HETATM   40  C34 UNL     1      -0.321  52.886  -3.710  1.00  0.00     0.070 C 
BRANCH  40  41
HETATM   41  C35 UNL     1      -1.246  51.857  -3.012  1.00  0.00     0.043 C 
BRANCH  41  42
HETATM   42  C36 UNL     1      -1.125  50.352  -3.385  1.00  0.00     0.058 C 
HETATM   43  C37 UNL     1      -1.843  49.485  -2.327  1.00  0.00     0.038 C 
HETATM   44  C38 UNL     1      -1.102  49.405  -0.993  1.00  0.00     0.003 C 
HETATM   45  C39 UNL     1       0.348  48.969  -1.175  1.00  0.00     0.000 C 
HETATM   46  C40 UNL     1       1.078  49.819  -2.208  1.00  0.00     0.003 C 
HETATM   47  C41 UNL     1       0.321  49.854  -3.533  1.00  0.00     0.038 C 
BRANCH  42  48
HETATM   48  O7  UNL     1      -1.812  50.086  -4.618  1.00  0.00    -0.390 OA
HETATM   49  H40 UNL     1      -1.895  50.938  -5.091  1.00  0.00     0.210 HD
ENDBRANCH  42  48
ENDBRANCH  41  42
ENDBRANCH  40  41
ENDBRANCH  31  40
BRANCH  31  50
HETATM   50  N1  UNL     1      -2.378  53.733  -4.715  1.00  0.00    -0.331 N 
HETATM   51  C42 UNL     1      -2.987  54.517  -3.915  1.00  0.00     0.146 C 
HETATM   52  N2  UNL     1      -4.334  54.437  -3.820  1.00  0.00    -0.274 NA
HETATM   53  N3  UNL     1      -2.553  55.475  -3.073  1.00  0.00    -0.376 N 
HETATM   54  H51 UNL     1      -4.687  53.652  -4.361  1.00  0.00     0.127 HD
HETATM   55  H52 UNL     1      -4.655  54.401  -2.863  1.00  0.00     0.127 HD
HETATM   56  H53 UNL     1      -3.208  56.232  -2.917  1.00  0.00     0.158 HD
HETATM   57  H54 UNL     1      -1.594  55.787  -3.172  1.00  0.00     0.158 HD
ATOM     58  H1  UNL     1      -2.945  53.080  -5.257  1.00  0.00     0.165 HD
ENDBRANCH  31  50
BRANCH   1  59
HETATM   59  C2  UNL     1       3.842  55.908  -9.783  1.00  0.00     0.005 C 
HETATM   60  C1  UNL     1       3.530  56.501 -11.151  1.00  0.00     0.006 C 
ENDBRANCH   1  59
BRANCH   3  61
HETATM   61  S1  UNL     1       4.055  51.022 -10.190  1.00  0.00     0.108 S 
HETATM   62  O1  UNL     1       5.336  51.407  -9.599  1.00  0.00    -0.595 OA
HETATM   63  O2  UNL     1       4.159  50.543 -11.568  1.00  0.00    -0.595 OA
HETATM   64  O3  UNL     1       3.249  50.166  -9.327  1.00  0.00    -0.595 OA
ENDBRANCH   3  61
BRANCH  12  65
HETATM   65  C15 UNL     1       0.706  46.630 -14.185  1.00  0.00     0.169 C 
BRANCH  65  66
HETATM   66  O4  UNL     1       1.046  47.358 -15.364  1.00  0.00    -0.400 OA
HETATM   67  H23 UNL     1       1.353  46.714 -16.034  1.00  0.00     0.209 HD
ENDBRANCH  65  66
ENDBRANCH  12  65
BRANCH  18  68
HETATM   68  O5  UNL     1       0.745  52.549 -19.584  1.00  0.00    -0.361 OA
HETATM   69  H27 UNL     1       0.258  51.953 -20.174  1.00  0.00     0.217 HD
ENDBRANCH  18  68
TORSDOF 10
ENDMDL
MODEL 7
REMARK minimizedAffinity -8.14117146
REMARK CNNscore 0.124720924
REMARK CNNaffinity 6.78345728
REMARK  10 active torsions:
REMARK  status: ('A' for Active; 'I' for Inactive)
REMARK    1  A    between atoms: C2_2  and  C3_3 
REMARK    2  A    between atoms: C5_5  and  S1_6 
REMARK    3  A    between atoms: C14_18  and  C15_19 
REMARK    4  A    between atoms: C15_19  and  O4_20 
REMARK    5  A    between atoms: C21_26  and  O5_27 
REMARK    6  A    between atoms: C33_40  and  C34_41 
REMARK    7  A    between atoms: C33_40  and  N1_50 
REMARK    8  A    between atoms: C34_41  and  C35_42 
REMARK    9  A    between atoms: C35_42  and  C36_43 
REMARK   10  A    between atoms: C36_43  and  O7_44 
REMARK       I    between atoms: N1_50  and  C42_52 
REMARK       I    between atoms: C42_52  and  N2_53 
ROOT
HETATM    1  C3  UNL     1       5.699  54.950  -7.838  1.00  0.00     0.019 C 
HETATM    2  C4  UNL     1       5.101  53.991  -6.768  1.00  0.00     0.034 C 
HETATM    3  C5  UNL     1       5.963  52.788  -6.329  1.00  0.00     0.153 C 
HETATM    4  C6  UNL     1       6.377  51.756  -7.436  1.00  0.00     0.119 A 
HETATM    5  C7  UNL     1       7.515  50.870  -6.931  1.00  0.00     0.001 C 
HETATM    6  C8  UNL     1       8.003  49.916  -7.743  1.00  0.00    -0.049 C 
HETATM    7  C9  UNL     1       7.510  49.895  -9.157  1.00  0.00     0.043 C 
HETATM    8  C10 UNL     1       5.998  49.686  -9.057  1.00  0.00     0.016 C 
HETATM    9  C11 UNL     1       5.646  48.222  -8.650  1.00  0.00     0.039 C 
HETATM   10  C12 UNL     1       6.501  47.497  -7.567  1.00  0.00     0.123 C 
HETATM   11  C13 UNL     1       6.081  46.000  -7.570  1.00  0.00     0.039 C 
HETATM   12  C14 UNL     1       6.841  44.972  -6.689  1.00  0.00     0.023 C 
HETATM   13  C16 UNL     1       8.065  44.319  -7.370  1.00  0.00     0.101 C 
HETATM   14  C17 UNL     1       9.257  45.170  -7.375  1.00  0.00    -0.101 C 
HETATM   15  C18 UNL     1      10.073  46.051  -7.384  1.00  0.00    -0.066 C 
HETATM   16  C19 UNL     1      10.804  47.281  -7.402  1.00  0.00     0.029 A 
HETATM   17  C20 UNL     1      12.200  47.217  -7.448  1.00  0.00     0.057 A 
HETATM   18  C21 UNL     1      12.951  48.390  -7.378  1.00  0.00     0.067 A 
HETATM   19  C22 UNL     1      12.319  49.622  -7.290  1.00  0.00     0.037 A 
HETATM   20  C23 UNL     1      10.924  49.687  -7.272  1.00  0.00     0.014 A 
HETATM   21  C24 UNL     1      10.128  48.521  -7.352  1.00  0.00    -0.006 A 
HETATM   22  C25 UNL     1       8.602  48.641  -7.209  1.00  0.00     0.185 C 
HETATM   23  O6  UNL     1       7.897  47.571  -7.873  1.00  0.00    -0.371 OA
HETATM   24  C26 UNL     1       5.308  50.787  -8.120  1.00  0.00     0.113 A 
HETATM   25  C27 UNL     1       4.194  51.503  -8.886  1.00  0.00    -0.039 A 
HETATM   26  C28 UNL     1       2.944  51.692  -8.281  1.00  0.00     0.009 A 
HETATM   27  C29 UNL     1       1.914  52.388  -8.933  1.00  0.00     0.012 A 
HETATM   28  C30 UNL     1       2.078  52.872 -10.245  1.00  0.00    -0.003 A 
HETATM   29  C31 UNL     1       3.310  52.596 -10.874  1.00  0.00     0.012 A 
HETATM   30  C32 UNL     1       4.360  51.971 -10.195  1.00  0.00     0.009 A 
HETATM   31  C33 UNL     1       1.002  53.725 -11.000  1.00  0.00     0.171 C 
HETATM   32  O8  UNL     1       1.378  55.156 -11.172  1.00  0.00    -0.316 OA
HETATM   33  C43 UNL     1       2.403  55.604 -10.385  1.00  0.00     0.072 C 
HETATM   34  C44 UNL     1       3.677  55.673 -10.949  1.00  0.00     0.037 C 
HETATM   35  C45 UNL     1       4.782  55.619 -10.101  1.00  0.00     0.010 C 
HETATM   36  C46 UNL     1       4.591  55.547  -8.713  1.00  0.00    -0.054 C 
HETATM   37  C47 UNL     1       3.318  55.822  -8.189  1.00  0.00     0.010 C 
HETATM   38  C48 UNL     1       2.212  55.839  -9.031  1.00  0.00     0.037 C 
HETATM   39 NA1  UNL     1       4.090  51.545  -8.819  1.00  0.00    -0.230 Na
ENDROOT
BRANCH  31  40
HETATM   40  C34 UNL     1      -0.375  53.774 -10.246  1.00  0.00     0.070 C 
BRANCH  40  41
HETATM   41  C35 UNL     1      -1.366  52.605 -10.474  1.00  0.00     0.043 C 
BRANCH  41  42
HETATM   42  C36 UNL     1      -2.735  52.893 -11.155  1.00  0.00     0.058 C 
HETATM   43  C37 UNL     1      -3.888  52.394 -10.256  1.00  0.00     0.038 C 
HETATM   44  C38 UNL     1      -4.019  50.872 -10.213  1.00  0.00     0.003 C 
HETATM   45  C39 UNL     1      -4.108  50.271 -11.612  1.00  0.00     0.000 C 
HETATM   46  C40 UNL     1      -2.972  50.742 -12.512  1.00  0.00     0.003 C 
HETATM   47  C41 UNL     1      -2.889  52.266 -12.550  1.00  0.00     0.038 C 
BRANCH  42  48
HETATM   48  O7  UNL     1      -2.942  54.308 -11.281  1.00  0.00    -0.390 OA
HETATM   49  H40 UNL     1      -2.063  54.733 -11.230  1.00  0.00     0.210 HD
ENDBRANCH  42  48
ENDBRANCH  41  42
ENDBRANCH  40  41
ENDBRANCH  31  40
BRANCH  31  50
HETATM   50  N1  UNL     1       0.718  53.138 -12.333  1.00  0.00    -0.331 N 
HETATM   51  C42 UNL     1       0.687  51.889 -12.593  1.00  0.00     0.146 C 
HETATM   52  N2  UNL     1       0.423  51.491 -13.860  1.00  0.00    -0.274 NA
HETATM   53  N3  UNL     1       0.881  50.796 -11.831  1.00  0.00    -0.376 N 
HETATM   54  H51 UNL     1       0.377  52.292 -14.485  1.00  0.00     0.127 HD
HETATM   55  H52 UNL     1       1.075  50.798 -14.193  1.00  0.00     0.127 HD
HETATM   56  H53 UNL     1       0.365  49.975 -12.127  1.00  0.00     0.158 HD
HETATM   57  H54 UNL     1       0.894  50.921 -10.826  1.00  0.00     0.158 HD
ATOM     58  H1  UNL     1       0.534  53.783 -13.102  1.00  0.00     0.165 HD
ENDBRANCH  31  50
BRANCH   1  59
HETATM   59  C2  UNL     1       6.667  56.018  -7.292  1.00  0.00     0.005 C 
HETATM   60  C1  UNL     1       6.239  56.726  -6.013  1.00  0.00     0.006 C 
ENDBRANCH   1  59
BRANCH   3  61
HETATM   61  S1  UNL     1       5.278  52.022  -4.806  1.00  0.00     0.108 S 
HETATM   62  O1  UNL     1       6.433  51.797  -3.937  1.00  0.00    -0.595 OA
HETATM   63  O2  UNL     1       4.670  50.792  -5.313  1.00  0.00    -0.595 OA
HETATM   64  O3  UNL     1       4.316  52.973  -4.260  1.00  0.00    -0.595 OA
ENDBRANCH   3  61
BRANCH  12  65
HETATM   65  C15 UNL     1       7.141  45.482  -5.278  1.00  0.00     0.169 C 
BRANCH  65  66
HETATM   66  O4  UNL     1       6.047  45.162  -4.419  1.00  0.00    -0.400 OA
HETATM   67  H23 UNL     1       5.640  46.003  -4.129  1.00  0.00     0.209 HD
ENDBRANCH  65  66
ENDBRANCH  12  65
BRANCH  18  68
HETATM   68  O5  UNL     1      14.314  48.374  -7.366  1.00  0.00    -0.361 OA
HETATM   69  H27 UNL     1      14.609  47.455  -7.453  1.00  0.00     0.217 HD
ENDBRANCH  18  68
TORSDOF 10
ENDMDL
MODEL 8
REMARK minimizedAffinity -8.12858582
REMARK CNNscore 0.114164859
REMARK CNNaffinity 6.77141953
REMARK  10 active torsions:
REMARK  status: ('A' for Active; 'I' for Inactive)
REMARK    1  A    between atoms: C2_2  and  C3_3 
REMARK    2  A    between atoms: C5_5  and  S1_6 
REMARK    3  A    between atoms: C14_18  and  C15_19 
REMARK    4  A    between atoms: C15_19  and  O4_20 
REMARK    5  A    between atoms: C21_26  and  O5_27 
REMARK    6  A    between atoms: C33_40  and  C34_41 
REMARK    7  A    between atoms: C33_40  and  N1_50 
REMARK    8  A    between atoms: C34_41  and  C35_42 
REMARK    9  A    between atoms: C35_42  and  C36_43 
REMARK   10  A    between atoms: C36_43  and  O7_44 
REMARK       I    between atoms: N1_50  and  C42_52 
REMARK       I    between atoms: C42_52  and  N2_53 
ROOT
HETATM    1  C3  UNL     1       0.083  53.777  -7.843  1.00  0.00     0.019 C 
HETATM    2  C4  UNL     1       1.163  52.939  -7.098  1.00  0.00     0.034 C 
HETATM    3  C5  UNL     1       2.129  53.696  -6.161  1.00  0.00     0.153 C 
HETATM    4  C6  UNL     1       3.027  54.813  -6.799  1.00  0.00     0.119 A 
HETATM    5  C7  UNL     1       3.619  55.702  -5.706  1.00  0.00     0.001 C 
HETATM    6  C8  UNL     1       4.425  56.717  -6.063  1.00  0.00    -0.049 C 
HETATM    7  C9  UNL     1       4.555  57.014  -7.524  1.00  0.00     0.043 C 
HETATM    8  C10 UNL     1       5.118  55.737  -8.150  1.00  0.00     0.016 C 
HETATM    9  C11 UNL     1       6.626  55.544  -7.802  1.00  0.00     0.039 C 
HETATM   10  C12 UNL     1       7.133  55.872  -6.365  1.00  0.00     0.123 C 
HETATM   11  C13 UNL     1       8.686  55.833  -6.401  1.00  0.00     0.039 C 
HETATM   12  C14 UNL     1       9.509  56.245  -5.150  1.00  0.00     0.023 C 
HETATM   13  C16 UNL     1       9.848  57.752  -5.069  1.00  0.00     0.101 C 
HETATM   14  C17 UNL     1       8.738  58.577  -4.590  1.00  0.00    -0.101 C 
HETATM   15  C18 UNL     1       7.687  59.085  -4.302  1.00  0.00    -0.066 C 
HETATM   16  C19 UNL     1       6.319  59.450  -4.102  1.00  0.00     0.029 A 
HETATM   17  C20 UNL     1       6.049  60.660  -3.454  1.00  0.00     0.057 A 
HETATM   18  C21 UNL     1       4.731  61.012  -3.162  1.00  0.00     0.067 A 
HETATM   19  C22 UNL     1       3.686  60.179  -3.535  1.00  0.00     0.037 A 
HETATM   20  C23 UNL     1       3.955  58.984  -4.207  1.00  0.00     0.014 A 
HETATM   21  C24 UNL     1       5.276  58.599  -4.530  1.00  0.00    -0.006 A 
HETATM   22  C25 UNL     1       5.523  57.219  -5.162  1.00  0.00     0.185 C 
HETATM   23  O6  UNL     1       6.727  57.183  -5.958  1.00  0.00    -0.371 OA
HETATM   24  C26 UNL     1       4.218  54.459  -7.801  1.00  0.00     0.113 A 
HETATM   25  C27 UNL     1       3.784  53.757  -9.089  1.00  0.00    -0.039 A 
HETATM   26  C28 UNL     1       3.901  52.363  -9.195  1.00  0.00     0.009 A 
HETATM   27  C29 UNL     1       3.467  51.679 -10.342  1.00  0.00     0.012 A 
HETATM   28  C30 UNL     1       2.951  52.372 -11.452  1.00  0.00    -0.003 A 
HETATM   29  C31 UNL     1       2.922  53.779 -11.366  1.00  0.00     0.012 A 
HETATM   30  C32 UNL     1       3.282  54.453 -10.195  1.00  0.00     0.009 A 
HETATM   31  C33 UNL     1       2.374  51.668 -12.728  1.00  0.00     0.171 C 
HETATM   32  O8  UNL     1       0.893  51.771 -12.858  1.00  0.00    -0.316 OA
HETATM   33  C43 UNL     1       0.218  52.145 -11.729  1.00  0.00     0.072 C 
HETATM   34  C44 UNL     1      -0.154  53.483 -11.604  1.00  0.00     0.037 C 
HETATM   35  C45 UNL     1      -0.361  53.999 -10.326  1.00  0.00     0.010 C 
HETATM   36  C46 UNL     1      -0.237  53.159  -9.209  1.00  0.00    -0.054 C 
HETATM   37  C47 UNL     1      -0.199  51.769  -9.406  1.00  0.00     0.010 C 
HETATM   38  C48 UNL     1       0.043  51.258 -10.676  1.00  0.00     0.037 C 
HETATM   39 NA1  UNL     1       3.768  53.627  -9.086  1.00  0.00    -0.230 Na
ENDROOT
BRANCH  31  40
HETATM   40  C34 UNL     1       2.658  50.123 -12.751  1.00  0.00     0.070 C 
BRANCH  40  41
HETATM   41  C35 UNL     1       1.462  49.164 -12.522  1.00  0.00     0.043 C 
BRANCH  41  42
HETATM   42  C36 UNL     1       0.671  48.632 -13.750  1.00  0.00     0.058 C 
HETATM   43  C37 UNL     1      -0.209  47.433 -13.334  1.00  0.00     0.038 C 
HETATM   44  C38 UNL     1       0.583  46.156 -13.057  1.00  0.00     0.003 C 
HETATM   45  C39 UNL     1       1.498  45.792 -14.221  1.00  0.00     0.000 C 
HETATM   46  C40 UNL     1       2.383  46.960 -14.642  1.00  0.00     0.003 C 
HETATM   47  C41 UNL     1       1.555  48.207 -14.934  1.00  0.00     0.038 C 
BRANCH  42  48
HETATM   48  O7  UNL     1      -0.250  49.628 -14.222  1.00  0.00    -0.390 OA
HETATM   49  H40 UNL     1       0.069  50.492 -13.894  1.00  0.00     0.210 HD
ENDBRANCH  42  48
ENDBRANCH  41  42
ENDBRANCH  40  41
ENDBRANCH  31  40
BRANCH  31  50
HETATM   50  N1  UNL     1       3.004  52.218 -13.953  1.00  0.00    -0.331 N 
HETATM   51  C42 UNL     1       2.475  52.218 -15.114  1.00  0.00     0.146 C 
HETATM   52  N2  UNL     1       3.167  52.748 -16.149  1.00  0.00    -0.274 NA
HETATM   53  N3  UNL     1       1.293  51.766 -15.575  1.00  0.00    -0.376 N 
HETATM   54  H51 UNL     1       4.109  53.001 -15.859  1.00  0.00     0.127 HD
HETATM   55  H52 UNL     1       3.179  52.144 -16.958  1.00  0.00     0.127 HD
HETATM   56  H53 UNL     1       0.924  52.275 -16.369  1.00  0.00     0.158 HD
HETATM   57  H54 UNL     1       0.585  51.522 -14.892  1.00  0.00     0.158 HD
ATOM     58  H1  UNL     1       3.934  52.630 -13.860  1.00  0.00     0.165 HD
ENDBRANCH  31  50
BRANCH   1  59
HETATM   59  C2  UNL     1      -1.181  54.094  -7.021  1.00  0.00     0.005 C 
HETATM   60  C1  UNL     1      -1.360  53.308  -5.728  1.00  0.00     0.006 C 
ENDBRANCH   1  59
BRANCH   3  61
HETATM   61  S1  UNL     1       3.044  52.518  -5.088  1.00  0.00     0.108 S 
HETATM   62  O1  UNL     1       4.382  52.427  -5.673  1.00  0.00    -0.595 OA
HETATM   63  O2  UNL     1       2.257  51.292  -5.217  1.00  0.00    -0.595 OA
HETATM   64  O3  UNL     1       3.035  53.086  -3.745  1.00  0.00    -0.595 OA
ENDBRANCH   3  61
BRANCH  12  65
HETATM   65  C15 UNL     1       8.950  55.685  -3.841  1.00  0.00     0.169 C 
BRANCH  65  66
HETATM   66  O4  UNL     1       9.538  54.411  -3.585  1.00  0.00    -0.400 OA
HETATM   67  H23 UNL     1       8.827  53.740  -3.629  1.00  0.00     0.209 HD
ENDBRANCH  65  66
ENDBRANCH  12  65
BRANCH  18  68
HETATM   68  O5  UNL     1       4.422  62.154  -2.486  1.00  0.00    -0.361 OA
HETATM   69  H27 UNL     1       5.244  62.638  -2.313  1.00  0.00     0.217 HD
ENDBRANCH  18  68
TORSDOF 10
ENDMDL
MODEL 9
REMARK minimizedAffinity -9.46693611
REMARK CNNscore 0.109690793
REMARK CNNaffinity 6.84821129
REMARK  10 active torsions:
REMARK  status: ('A' for Active; 'I' for Inactive)
REMARK    1  A    between atoms: C2_2  and  C3_3 
REMARK    2  A    between atoms: C5_5  and  S1_6 
REMARK    3  A    between atoms: C14_18  and  C15_19 
REMARK    4  A    between atoms: C15_19  and  O4_20 
REMARK    5  A    between atoms: C21_26  and  O5_27 
REMARK    6  A    between atoms: C33_40  and  C34_41 
REMARK    7  A    between atoms: C33_40  and  N1_50 
REMARK    8  A    between atoms: C34_41  and  C35_42 
REMARK    9  A    between atoms: C35_42  and  C36_43 
REMARK   10  A    between atoms: C36_43  and  O7_44 
REMARK       I    between atoms: N1_50  and  C42_52 
REMARK       I    between atoms: C42_52  and  N2_53 
ROOT
HETATM    1  C3  UNL     1     -11.914  44.145 -25.825  1.00  0.00     0.019 C 
HETATM    2  C4  UNL     1     -10.472  43.567 -25.727  1.00  0.00     0.034 C 
HETATM    3  C5  UNL     1      -9.750  43.682 -24.367  1.00  0.00     0.153 C 
HETATM    4  C6  UNL     1      -9.516  45.124 -23.795  1.00  0.00     0.119 A 
HETATM    5  C7  UNL     1      -9.155  45.050 -22.311  1.00  0.00     0.001 C 
HETATM    6  C8  UNL     1      -8.912  46.193 -21.645  1.00  0.00    -0.049 C 
HETATM    7  C9  UNL     1      -9.179  47.479 -22.364  1.00  0.00     0.043 C 
HETATM    8  C10 UNL     1      -8.264  47.457 -23.590  1.00  0.00     0.016 C 
HETATM    9  C11 UNL     1      -6.774  47.696 -23.198  1.00  0.00     0.039 C 
HETATM   10  C12 UNL     1      -6.197  47.027 -21.914  1.00  0.00     0.123 C 
HETATM   11  C13 UNL     1      -4.797  47.650 -21.654  1.00  0.00     0.039 C 
HETATM   12  C14 UNL     1      -4.007  47.289 -20.367  1.00  0.00     0.023 C 
HETATM   13  C16 UNL     1      -4.305  48.196 -19.151  1.00  0.00     0.101 C 
HETATM   14  C17 UNL     1      -5.550  47.858 -18.460  1.00  0.00    -0.101 C 
HETATM   15  C18 UNL     1      -6.646  47.509 -18.113  1.00  0.00    -0.066 C 
HETATM   16  C19 UNL     1      -7.985  47.019 -17.991  1.00  0.00     0.029 A 
HETATM   17  C20 UNL     1      -8.606  47.105 -16.740  1.00  0.00     0.057 A 
HETATM   18  C21 UNL     1      -9.877  46.560 -16.558  1.00  0.00     0.067 A 
HETATM   19  C22 UNL     1     -10.538  45.957 -17.618  1.00  0.00     0.037 A 
HETATM   20  C23 UNL     1      -9.929  45.897 -18.873  1.00  0.00     0.014 A 
HETATM   21  C24 UNL     1      -8.646  46.447 -19.100  1.00  0.00    -0.006 A 
HETATM   22  C25 UNL     1      -7.974  46.248 -20.469  1.00  0.00     0.185 C 
HETATM   23  O6  UNL     1      -7.024  47.290 -20.776  1.00  0.00    -0.371 OA
HETATM   24  C26 UNL     1      -8.485  46.137 -24.470  1.00  0.00     0.113 A 
HETATM   25  C27 UNL     1      -8.816  46.520 -25.914  1.00  0.00    -0.039 A 
HETATM   26  C28 UNL     1      -8.161  45.876 -26.973  1.00  0.00     0.009 A 
HETATM   27  C29 UNL     1      -8.474  46.165 -28.310  1.00  0.00     0.012 A 
HETATM   28  C30 UNL     1      -9.418  47.156 -28.640  1.00  0.00    -0.003 A 
HETATM   29  C31 UNL     1     -10.004  47.858 -27.566  1.00  0.00     0.012 A 
HETATM   30  C32 UNL     1      -9.747  47.515 -26.235  1.00  0.00     0.009 A 
HETATM   31  C33 UNL     1      -9.873  47.472 -30.105  1.00  0.00     0.171 C 
HETATM   32  O8  UNL     1     -11.264  47.034 -30.413  1.00  0.00    -0.316 OA
HETATM   33  C43 UNL     1     -11.819  46.144 -29.535  1.00  0.00     0.072 C 
HETATM   34  C44 UNL     1     -12.678  46.643 -28.556  1.00  0.00     0.037 C 
HETATM   35  C45 UNL     1     -12.845  45.909 -27.383  1.00  0.00     0.010 C 
HETATM   36  C46 UNL     1     -12.192  44.676 -27.235  1.00  0.00    -0.054 C 
HETATM   37  C47 UNL     1     -11.624  44.069 -28.366  1.00  0.00     0.010 C 
HETATM   38  C48 UNL     1     -11.426  44.814 -29.524  1.00  0.00     0.037 C 
HETATM   39 NA1  UNL     1      -8.777  46.440 -26.009  1.00  0.00    -0.230 Na
ENDROOT
BRANCH  31  40
HETATM   40  C34 UNL     1      -8.992  46.749 -31.186  1.00  0.00     0.070 C 
BRANCH  40  41
HETATM   41  C35 UNL     1      -9.475  46.790 -32.658  1.00  0.00     0.043 C 
BRANCH  41  42
HETATM   42  C36 UNL     1      -9.213  45.563 -33.576  1.00  0.00     0.058 C 
HETATM   43  C37 UNL     1      -9.752  45.840 -34.997  1.00  0.00     0.038 C 
HETATM   44  C38 UNL     1     -11.277  45.820 -35.091  1.00  0.00     0.003 C 
HETATM   45  C39 UNL     1     -11.863  44.533 -34.518  1.00  0.00     0.000 C 
HETATM   46  C40 UNL     1     -11.351  44.246 -33.112  1.00  0.00     0.003 C 
HETATM   47  C41 UNL     1      -9.826  44.250 -33.064  1.00  0.00     0.038 C 
BRANCH  42  48
HETATM   48  O7  UNL     1      -7.802  45.356 -33.744  1.00  0.00    -0.390 OA
HETATM   49  H40 UNL     1      -7.355  45.800 -32.996  1.00  0.00     0.210 HD
ENDBRANCH  42  48
ENDBRANCH  41  42
ENDBRANCH  40  41
ENDBRANCH  31  40
BRANCH  31  50
HETATM   50  N1  UNL     1      -9.753  48.925 -30.383  1.00  0.00    -0.331 N 
HETATM   51  C42 UNL     1      -8.654  49.560 -30.501  1.00  0.00     0.146 C 
HETATM   52  N2  UNL     1      -8.690  50.891 -30.747  1.00  0.00    -0.274 NA
HETATM   53  N3  UNL     1      -7.366  49.174 -30.420  1.00  0.00    -0.376 N 
HETATM   54  H51 UNL     1      -9.646  51.237 -30.707  1.00  0.00     0.127 HD
HETATM   55  H52 UNL     1      -8.081  51.415 -30.137  1.00  0.00     0.127 HD
HETATM   56  H53 UNL     1      -6.724  49.716 -30.986  1.00  0.00     0.158 HD
HETATM   57  H54 UNL     1      -7.173  48.180 -30.435  1.00  0.00     0.158 HD
ATOM     58  H1  UNL     1     -10.618  49.456 -30.489  1.00  0.00     0.165 HD
ENDBRANCH  31  50
BRANCH   1  59
HETATM   59  C2  UNL     1     -13.028  43.214 -25.308  1.00  0.00     0.005 C 
HETATM   60  C1  UNL     1     -14.351  43.263 -26.062  1.00  0.00     0.006 C 
ENDBRANCH   1  59
BRANCH   3  61
HETATM   61  S1  UNL     1      -8.257  42.611 -24.335  1.00  0.00     0.108 S 
HETATM   62  O1  UNL     1      -8.769  41.245 -24.213  1.00  0.00    -0.595 OA
HETATM   63  O2  UNL     1      -7.550  43.085 -23.146  1.00  0.00    -0.595 OA
HETATM   64  O3  UNL     1      -7.544  42.855 -25.583  1.00  0.00    -0.595 OA
ENDBRANCH   3  61
BRANCH  12  65
HETATM   65  C15 UNL     1      -4.044  45.798 -20.027  1.00  0.00     0.169 C 
BRANCH  65  66
HETATM   66  O4  UNL     1      -3.532  45.050 -21.129  1.00  0.00    -0.400 OA
HETATM   67  H23 UNL     1      -4.264  44.507 -21.486  1.00  0.00     0.209 HD
ENDBRANCH  65  66
ENDBRANCH  12  65
BRANCH  18  68
HETATM   68  O5  UNL     1     -10.499  46.572 -15.345  1.00  0.00    -0.361 OA
HETATM   69  H27 UNL     1      -9.930  47.040 -14.715  1.00  0.00     0.217 HD
ENDBRANCH  18  68
TORSDOF 10
ENDMDL
