MODEL 1
REMARK minimizedAffinity -9.26380539
REMARK  9 active torsions:
REMARK  status: ('A' for Active; 'I' for Inactive)
REMARK    1  A    between atoms: C3_3  and  O1_4 
REMARK    2  A    between atoms: N1_14  and  O2_16 
REMARK    3  A    between atoms: O2_16  and  C13_17 
REMARK    4  A    between atoms: C13_17  and  C14_18 
REMARK       I    between atoms: C14_18  and  N2_20 
REMARK    5  A    between atoms: N2_20  and  C15_21 
REMARK    6  A    between atoms: C15_21  and  C16_22 
REMARK    7  A    between atoms: C15_21  and  C17_25 
REMARK    8  A    between atoms: C16_22  and  O5_24 
REMARK    9  A    between atoms: C17_25  and  C19_27 
ROOT
HETATM    1  C1  UNL     1       1.664  54.490 -22.890  1.00  0.00     0.015 C 
HETATM    2  C2  UNL     1       0.969  53.888 -23.663  1.00  0.00    -0.078 C 
HETATM    3  C3  UNL     1       0.109  53.164 -24.613  1.00  0.00     0.128 C 
HETATM    4  C4  UNL     1       0.930  52.385 -25.671  1.00  0.00     0.052 C 
HETATM    5  C5  UNL     1       0.126  51.104 -25.989  1.00  0.00     0.010 C 
HETATM    6  C6  UNL     1      -1.197  51.290 -25.252  1.00  0.00     0.002 C 
HETATM    7  C7  UNL     1      -2.063  50.055 -24.966  1.00  0.00    -0.004 C 
HETATM    8  C8  UNL     1      -2.413  49.311 -26.263  1.00  0.00     0.010 C 
HETATM    9  C9  UNL     1      -3.334  48.126 -25.995  1.00  0.00     0.035 C 
HETATM   10  C10 UNL     1      -4.579  48.549 -25.251  1.00  0.00    -0.069 C 
HETATM   11  C11 UNL     1      -5.789  48.258 -25.761  1.00  0.00     0.030 C 
HETATM   12  C12 UNL     1      -7.037  48.595 -25.023  1.00  0.00     0.032 C 
HETATM   13  N1  UNL     1      -8.242  48.565 -25.505  1.00  0.00    -0.271 N 
ATOM     14  H1  UNL     1      -9.083  48.746 -24.957  1.00  0.00     0.194 HD
HETATM   15  C21 UNL     1      -6.876  48.965 -23.567  1.00  0.00     0.060 C 
HETATM   16  C22 UNL     1      -5.703  49.920 -23.426  1.00  0.00     0.020 C 
HETATM   17  C23 UNL     1      -4.359  49.326 -23.944  1.00  0.00    -0.016 C 
HETATM   18  C24 UNL     1      -3.810  48.352 -22.877  1.00  0.00     0.020 C 
HETATM   19  C25 UNL     1      -3.363  50.514 -24.233  1.00  0.00     0.002 C 
HETATM   20  C26 UNL     1      -3.044  51.386 -22.989  1.00  0.00     0.007 C 
HETATM   21  C27 UNL     1      -2.089  52.553 -23.301  1.00  0.00     0.014 C 
HETATM   22  C28 UNL     1      -0.794  52.067 -23.974  1.00  0.00     0.003 C 
HETATM   23  C29 UNL     1       0.019  51.204 -22.966  1.00  0.00     0.020 C 
ENDROOT
BRANCH   3  24
HETATM   24  O1  UNL     1      -0.682  54.123 -25.317  1.00  0.00    -0.377 OA
HETATM   25  H2  UNL     1      -1.019  54.753 -24.658  1.00  0.00     0.211 HD
ENDBRANCH   3  24
BRANCH  13  26
HETATM   26  O2  UNL     1      -8.245  48.253 -26.875  1.00  0.00    -0.271 OA
BRANCH  26  27
HETATM   27  C13 UNL     1      -7.226  47.296 -27.150  1.00  0.00     0.303 C 
BRANCH  27  28
HETATM   28  C14 UNL     1      -7.095  46.959 -28.635  1.00  0.00     0.244 C 
HETATM   29  O3  UNL     1      -7.109  45.801 -29.047  1.00  0.00    -0.271 OA
HETATM   30  N2  UNL     1      -6.952  48.054 -29.457  1.00  0.00    -0.344 N 
HETATM   31  H16 UNL     1      -6.606  48.883 -28.972  1.00  0.00     0.163 HD
BRANCH  30  32
HETATM   32  C15 UNL     1      -6.614  47.914 -30.875  1.00  0.00     0.186 C 
BRANCH  32  33
HETATM   33  C16 UNL     1      -5.231  48.538 -31.129  1.00  0.00     0.163 C 
HETATM   34  O4  UNL     1      -4.446  48.230 -32.013  1.00  0.00    -0.648 OA
BRANCH  33  35
HETATM   35  O5  UNL     1      -4.938  49.582 -30.319  1.00  0.00    -0.775 OA
HETATM   36  H18 UNL     1      -4.041  49.854 -30.606  1.00  0.00     0.167 HD
ENDBRANCH  33  35
ENDBRANCH  32  33
BRANCH  32  37
HETATM   37  C17 UNL     1      -7.697  48.596 -31.749  1.00  0.00     0.014 C 
HETATM   38  C18 UNL     1      -8.744  49.312 -30.879  1.00  0.00     0.012 C 
BRANCH  37  39
HETATM   39  C19 UNL     1      -8.402  47.642 -32.740  1.00  0.00     0.002 C 
HETATM   40  C20 UNL     1      -7.629  47.347 -34.018  1.00  0.00     0.005 C 
ENDBRANCH  37  39
ENDBRANCH  32  37
ENDBRANCH  30  32
ENDBRANCH  27  28
ENDBRANCH  26  27
ENDBRANCH  13  26
TORSDOF 9
ENDMDL
MODEL 2
REMARK minimizedAffinity -9.20223427
REMARK  9 active torsions:
REMARK  status: ('A' for Active; 'I' for Inactive)
REMARK    1  A    between atoms: C3_3  and  O1_4 
REMARK    2  A    between atoms: N1_14  and  O2_16 
REMARK    3  A    between atoms: O2_16  and  C13_17 
REMARK    4  A    between atoms: C13_17  and  C14_18 
REMARK       I    between atoms: C14_18  and  N2_20 
REMARK    5  A    between atoms: N2_20  and  C15_21 
REMARK    6  A    between atoms: C15_21  and  C16_22 
REMARK    7  A    between atoms: C15_21  and  C17_25 
REMARK    8  A    between atoms: C16_22  and  O5_24 
REMARK    9  A    between atoms: C17_25  and  C19_27 
ROOT
HETATM    1  C1  UNL     1       0.320  49.967 -16.547  1.00  0.00     0.015 C 
HETATM    2  C2  UNL     1      -0.463  49.973 -17.458  1.00  0.00    -0.078 C 
HETATM    3  C3  UNL     1      -1.420  49.963 -18.576  1.00  0.00     0.128 C 
HETATM    4  C4  UNL     1      -2.791  50.565 -18.179  1.00  0.00     0.052 C 
HETATM    5  C5  UNL     1      -3.335  51.277 -19.438  1.00  0.00     0.010 C 
HETATM    6  C6  UNL     1      -2.355  50.899 -20.545  1.00  0.00     0.002 C 
HETATM    7  C7  UNL     1      -2.307  51.761 -21.815  1.00  0.00    -0.004 C 
HETATM    8  C8  UNL     1      -3.685  51.830 -22.489  1.00  0.00     0.010 C 
HETATM    9  C9  UNL     1      -3.631  52.622 -23.791  1.00  0.00     0.035 C 
HETATM   10  C10 UNL     1      -2.586  52.069 -24.731  1.00  0.00    -0.069 C 
HETATM   11  C11 UNL     1      -2.938  51.712 -25.980  1.00  0.00     0.030 C 
HETATM   12  C12 UNL     1      -1.925  51.231 -26.958  1.00  0.00     0.032 C 
HETATM   13  N1  UNL     1      -2.173  50.659 -28.097  1.00  0.00    -0.271 N 
ATOM     14  H1  UNL     1      -1.456  50.392 -28.772  1.00  0.00     0.194 HD
HETATM   15  C21 UNL     1      -0.477  51.473 -26.598  1.00  0.00     0.060 C 
HETATM   16  C22 UNL     1      -0.264  51.113 -25.137  1.00  0.00     0.020 C 
HETATM   17  C23 UNL     1      -1.166  51.928 -24.163  1.00  0.00    -0.016 C 
HETATM   18  C24 UNL     1      -0.558  53.339 -23.997  1.00  0.00     0.020 C 
HETATM   19  C25 UNL     1      -1.253  51.153 -22.793  1.00  0.00     0.002 C 
HETATM   20  C26 UNL     1       0.120  50.943 -22.099  1.00  0.00     0.007 C 
HETATM   21  C27 UNL     1       0.012  50.164 -20.775  1.00  0.00     0.014 C 
HETATM   22  C28 UNL     1      -0.994  50.814 -19.810  1.00  0.00     0.003 C 
HETATM   23  C29 UNL     1      -0.455  52.203 -19.360  1.00  0.00     0.020 C 
ENDROOT
BRANCH   3  24
HETATM   24  O1  UNL     1      -1.650  48.604 -18.954  1.00  0.00    -0.377 OA
HETATM   25  H2  UNL     1      -0.783  48.167 -18.984  1.00  0.00     0.211 HD
ENDBRANCH   3  24
BRANCH  13  26
HETATM   26  O2  UNL     1      -3.550  50.453 -28.284  1.00  0.00    -0.271 OA
BRANCH  26  27
HETATM   27  C13 UNL     1      -3.855  49.072 -28.108  1.00  0.00     0.303 C 
BRANCH  27  28
HETATM   28  C14 UNL     1      -4.959  48.572 -29.038  1.00  0.00     0.244 C 
HETATM   29  O3  UNL     1      -4.778  48.415 -30.244  1.00  0.00    -0.271 OA
HETATM   30  N2  UNL     1      -6.161  48.324 -28.414  1.00  0.00    -0.344 N 
HETATM   31  H16 UNL     1      -6.267  48.820 -27.529  1.00  0.00     0.163 HD
BRANCH  30  32
HETATM   32  C15 UNL     1      -7.379  48.033 -29.174  1.00  0.00     0.186 C 
BRANCH  32  33
HETATM   33  C16 UNL     1      -8.586  48.054 -28.221  1.00  0.00     0.163 C 
HETATM   34  O4  UNL     1      -9.119  47.084 -27.703  1.00  0.00    -0.648 OA
BRANCH  33  35
HETATM   35  O5  UNL     1      -9.009  49.295 -27.889  1.00  0.00    -0.775 OA
HETATM   36  H18 UNL     1      -9.768  49.131 -27.292  1.00  0.00     0.167 HD
ENDBRANCH  33  35
ENDBRANCH  32  33
BRANCH  32  37
HETATM   37  C17 UNL     1      -7.251  46.657 -29.875  1.00  0.00     0.014 C 
HETATM   38  C18 UNL     1      -8.422  46.416 -30.844  1.00  0.00     0.012 C 
BRANCH  37  39
HETATM   39  C19 UNL     1      -7.121  45.463 -28.903  1.00  0.00     0.002 C 
HETATM   40  C20 UNL     1      -7.454  44.102 -29.499  1.00  0.00     0.005 C 
ENDBRANCH  37  39
ENDBRANCH  32  37
ENDBRANCH  30  32
ENDBRANCH  27  28
ENDBRANCH  26  27
ENDBRANCH  13  26
TORSDOF 9
ENDMDL
MODEL 3
REMARK minimizedAffinity -9.11027431
REMARK  9 active torsions:
REMARK  status: ('A' for Active; 'I' for Inactive)
REMARK    1  A    between atoms: C3_3  and  O1_4 
REMARK    2  A    between atoms: N1_14  and  O2_16 
REMARK    3  A    between atoms: O2_16  and  C13_17 
REMARK    4  A    between atoms: C13_17  and  C14_18 
REMARK       I    between atoms: C14_18  and  N2_20 
REMARK    5  A    between atoms: N2_20  and  C15_21 
REMARK    6  A    between atoms: C15_21  and  C16_22 
REMARK    7  A    between atoms: C15_21  and  C17_25 
REMARK    8  A    between atoms: C16_22  and  O5_24 
REMARK    9  A    between atoms: C17_25  and  C19_27 
ROOT
HETATM    1  C1  UNL     1       1.361  50.710 -11.976  1.00  0.00     0.015 C 
HETATM    2  C2  UNL     1       1.214  51.162 -13.079  1.00  0.00    -0.078 C 
HETATM    3  C3  UNL     1       1.025  51.728 -14.424  1.00  0.00     0.128 C 
HETATM    4  C4  UNL     1       2.372  52.016 -15.134  1.00  0.00     0.052 C 
HETATM    5  C5  UNL     1       2.136  51.754 -16.638  1.00  0.00     0.010 C 
HETATM    6  C6  UNL     1       0.634  51.514 -16.754  1.00  0.00     0.002 C 
HETATM    7  C7  UNL     1       0.095  50.792 -17.997  1.00  0.00    -0.004 C 
HETATM    8  C8  UNL     1       0.495  51.530 -19.283  1.00  0.00     0.010 C 
HETATM    9  C9  UNL     1      -0.098  50.862 -20.518  1.00  0.00     0.035 C 
HETATM   10  C10 UNL     1      -1.599  50.725 -20.407  1.00  0.00    -0.069 C 
HETATM   11  C11 UNL     1      -2.385  51.231 -21.374  1.00  0.00     0.030 C 
HETATM   12  C12 UNL     1      -3.862  51.055 -21.336  1.00  0.00     0.032 C 
HETATM   13  N1  UNL     1      -4.726  51.676 -22.080  1.00  0.00    -0.271 N 
ATOM     14  H1  UNL     1      -5.729  51.491 -22.071  1.00  0.00     0.194 HD
HETATM   15  C21 UNL     1      -4.390  50.024 -20.366  1.00  0.00     0.060 C 
HETATM   16  C22 UNL     1      -3.672  50.184 -19.035  1.00  0.00     0.020 C 
HETATM   17  C23 UNL     1      -2.126  50.024 -19.147  1.00  0.00    -0.016 C 
HETATM   18  C24 UNL     1      -1.796  48.517 -19.247  1.00  0.00     0.020 C 
HETATM   19  C25 UNL     1      -1.459  50.696 -17.886  1.00  0.00     0.002 C 
HETATM   20  C26 UNL     1      -1.902  50.076 -16.533  1.00  0.00     0.007 C 
HETATM   21  C27 UNL     1      -1.256  50.764 -15.316  1.00  0.00     0.014 C 
HETATM   22  C28 UNL     1       0.279  50.799 -15.427  1.00  0.00     0.003 C 
HETATM   23  C29 UNL     1       0.834  49.347 -15.348  1.00  0.00     0.020 C 
ENDROOT
BRANCH   3  24
HETATM   24  O1  UNL     1       0.344  52.977 -14.291  1.00  0.00    -0.377 OA
HETATM   25  H2  UNL     1      -0.380  52.840 -13.658  1.00  0.00     0.211 HD
ENDBRANCH   3  24
BRANCH  13  26
HETATM   26  O2  UNL     1      -4.108  52.635 -22.901  1.00  0.00    -0.271 OA
BRANCH  26  27
HETATM   27  C13 UNL     1      -4.154  52.204 -24.258  1.00  0.00     0.303 C 
BRANCH  27  28
HETATM   28  C14 UNL     1      -2.862  52.481 -25.026  1.00  0.00     0.244 C 
HETATM   29  O3  UNL     1      -2.862  52.967 -26.155  1.00  0.00    -0.271 OA
HETATM   30  N2  UNL     1      -1.713  52.133 -24.351  1.00  0.00    -0.344 N 
HETATM   31  H16 UNL     1      -1.868  51.440 -23.618  1.00  0.00     0.163 HD
BRANCH  30  32
HETATM   32  C15 UNL     1      -0.403  52.140 -25.006  1.00  0.00     0.186 C 
BRANCH  32  33
HETATM   33  C16 UNL     1       0.124  53.585 -25.064  1.00  0.00     0.163 C 
HETATM   34  O4  UNL     1       1.028  54.055 -24.392  1.00  0.00    -0.648 OA
BRANCH  33  35
HETATM   35  O5  UNL     1      -0.447  54.345 -26.027  1.00  0.00    -0.775 OA
HETATM   36  H18 UNL     1      -0.010  55.216 -25.927  1.00  0.00     0.167 HD
ENDBRANCH  33  35
ENDBRANCH  32  33
BRANCH  32  37
HETATM   37  C17 UNL     1      -0.517  51.536 -26.429  1.00  0.00     0.014 C 
HETATM   38  C18 UNL     1      -1.080  50.106 -26.382  1.00  0.00     0.012 C 
BRANCH  37  39
HETATM   39  C19 UNL     1       0.805  51.554 -27.230  1.00  0.00     0.002 C 
HETATM   40  C20 UNL     1       2.056  51.230 -26.425  1.00  0.00     0.005 C 
ENDBRANCH  37  39
ENDBRANCH  32  37
ENDBRANCH  30  32
ENDBRANCH  27  28
ENDBRANCH  26  27
ENDBRANCH  13  26
TORSDOF 9
ENDMDL
MODEL 4
REMARK minimizedAffinity -9.01701927
REMARK  9 active torsions:
REMARK  status: ('A' for Active; 'I' for Inactive)
REMARK    1  A    between atoms: C3_3  and  O1_4 
REMARK    2  A    between atoms: N1_14  and  O2_16 
REMARK    3  A    between atoms: O2_16  and  C13_17 
REMARK    4  A    between atoms: C13_17  and  C14_18 
REMARK       I    between atoms: C14_18  and  N2_20 
REMARK    5  A    between atoms: N2_20  and  C15_21 
REMARK    6  A    between atoms: C15_21  and  C16_22 
REMARK    7  A    between atoms: C15_21  and  C17_25 
REMARK    8  A    between atoms: C16_22  and  O5_24 
REMARK    9  A    between atoms: C17_25  and  C19_27 
ROOT
HETATM    1  C1  UNL     1       1.487  54.715 -22.607  1.00  0.00     0.015 C 
HETATM    2  C2  UNL     1       0.902  54.088 -23.448  1.00  0.00    -0.078 C 
HETATM    3  C3  UNL     1       0.177  53.332 -24.481  1.00  0.00     0.128 C 
HETATM    4  C4  UNL     1       1.135  52.610 -25.461  1.00  0.00     0.052 C 
HETATM    5  C5  UNL     1       0.433  51.293 -25.864  1.00  0.00     0.010 C 
HETATM    6  C6  UNL     1      -0.962  51.402 -25.257  1.00  0.00     0.002 C 
HETATM    7  C7  UNL     1      -1.785  50.120 -25.064  1.00  0.00    -0.004 C 
HETATM    8  C8  UNL     1      -1.970  49.375 -26.394  1.00  0.00     0.010 C 
HETATM    9  C9  UNL     1      -2.848  48.141 -26.226  1.00  0.00     0.035 C 
HETATM   10  C10 UNL     1      -4.179  48.490 -25.602  1.00  0.00    -0.069 C 
HETATM   11  C11 UNL     1      -5.318  48.142 -26.228  1.00  0.00     0.030 C 
HETATM   12  C12 UNL     1      -6.647  48.406 -25.612  1.00  0.00     0.032 C 
HETATM   13  N1  UNL     1      -7.797  48.319 -26.208  1.00  0.00    -0.271 N 
ATOM     14  H1  UNL     1      -8.695  48.449 -25.743  1.00  0.00     0.194 HD
HETATM   15  C21 UNL     1      -6.647  48.765 -24.145  1.00  0.00     0.060 C 
HETATM   16  C22 UNL     1      -5.544  49.779 -23.884  1.00  0.00     0.020 C 
HETATM   17  C23 UNL     1      -4.127  49.261 -24.275  1.00  0.00    -0.016 C 
HETATM   18  C24 UNL     1      -3.633  48.304 -23.167  1.00  0.00     0.020 C 
HETATM   19  C25 UNL     1      -3.172  50.502 -24.457  1.00  0.00     0.002 C 
HETATM   20  C26 UNL     1      -3.021  51.374 -23.182  1.00  0.00     0.007 C 
HETATM   21  C27 UNL     1      -2.102  52.593 -23.392  1.00  0.00     0.014 C 
HETATM   22  C28 UNL     1      -0.725  52.183 -23.941  1.00  0.00     0.003 C 
HETATM   23  C29 UNL     1       0.032  51.350 -22.865  1.00  0.00     0.020 C 
ENDROOT
BRANCH   3  24
HETATM   24  O1  UNL     1      -0.593  54.258 -25.252  1.00  0.00    -0.377 OA
HETATM   25  H2  UNL     1      -1.024  54.861 -24.624  1.00  0.00     0.211 HD
ENDBRANCH   3  24
BRANCH  13  26
HETATM   26  O2  UNL     1      -7.652  48.024 -27.574  1.00  0.00    -0.271 OA
BRANCH  26  27
HETATM   27  C13 UNL     1      -8.404  46.857 -27.894  1.00  0.00     0.303 C 
BRANCH  27  28
HETATM   28  C14 UNL     1      -9.912  47.043 -27.727  1.00  0.00     0.244 C 
HETATM   29  O3  UNL     1     -10.532  46.552 -26.786  1.00  0.00    -0.271 OA
HETATM   30  N2  UNL     1     -10.506  47.791 -28.719  1.00  0.00    -0.344 N 
HETATM   31  H16 UNL     1      -9.965  47.822 -29.583  1.00  0.00     0.163 HD
BRANCH  30  32
HETATM   32  C15 UNL     1     -11.963  47.903 -28.830  1.00  0.00     0.186 C 
BRANCH  32  33
HETATM   33  C16 UNL     1     -12.549  48.243 -27.449  1.00  0.00     0.163 C 
HETATM   34  O4  UNL     1     -13.567  47.779 -26.959  1.00  0.00    -0.648 OA
BRANCH  33  35
HETATM   35  O5  UNL     1     -11.782  49.078 -26.711  1.00  0.00    -0.775 OA
HETATM   36  H18 UNL     1     -12.291  49.190 -25.881  1.00  0.00     0.167 HD
ENDBRANCH  33  35
ENDBRANCH  32  33
BRANCH  32  37
HETATM   37  C17 UNL     1     -12.558  46.580 -29.373  1.00  0.00     0.014 C 
HETATM   38  C18 UNL     1     -12.789  45.568 -28.238  1.00  0.00     0.012 C 
BRANCH  37  39
HETATM   39  C19 UNL     1     -11.723  45.926 -30.498  1.00  0.00     0.002 C 
HETATM   40  C20 UNL     1     -10.958  46.898 -31.386  1.00  0.00     0.005 C 
ENDBRANCH  37  39
ENDBRANCH  32  37
ENDBRANCH  30  32
ENDBRANCH  27  28
ENDBRANCH  26  27
ENDBRANCH  13  26
TORSDOF 9
ENDMDL
MODEL 5
REMARK minimizedAffinity -8.91233921
REMARK  9 active torsions:
REMARK  status: ('A' for Active; 'I' for Inactive)
REMARK    1  A    between atoms: C3_3  and  O1_4 
REMARK    2  A    between atoms: N1_14  and  O2_16 
REMARK    3  A    between atoms: O2_16  and  C13_17 
REMARK    4  A    between atoms: C13_17  and  C14_18 
REMARK       I    between atoms: C14_18  and  N2_20 
REMARK    5  A    between atoms: N2_20  and  C15_21 
REMARK    6  A    between atoms: C15_21  and  C16_22 
REMARK    7  A    between atoms: C15_21  and  C17_25 
REMARK    8  A    between atoms: C16_22  and  O5_24 
REMARK    9  A    between atoms: C17_25  and  C19_27 
ROOT
HETATM    1  C1  UNL     1      -1.201  51.717 -27.769  1.00  0.00     0.015 C 
HETATM    2  C2  UNL     1      -0.618  51.867 -26.729  1.00  0.00    -0.078 C 
HETATM    3  C3  UNL     1       0.104  52.039 -25.459  1.00  0.00     0.128 C 
HETATM    4  C4  UNL     1       0.691  53.464 -25.305  1.00  0.00     0.052 C 
HETATM    5  C5  UNL     1       0.621  53.804 -23.800  1.00  0.00     0.010 C 
HETATM    6  C6  UNL     1       0.179  52.504 -23.134  1.00  0.00     0.002 C 
HETATM    7  C7  UNL     1      -0.424  52.565 -21.724  1.00  0.00    -0.004 C 
HETATM    8  C8  UNL     1       0.546  53.227 -20.734  1.00  0.00     0.010 C 
HETATM    9  C9  UNL     1      -0.014  53.224 -19.317  1.00  0.00     0.035 C 
HETATM   10  C10 UNL     1      -0.388  51.829 -18.872  1.00  0.00    -0.069 C 
HETATM   11  C11 UNL     1       0.132  51.334 -17.734  1.00  0.00     0.030 C 
HETATM   12  C12 UNL     1      -0.266  49.992 -17.226  1.00  0.00     0.032 C 
HETATM   13  N1  UNL     1       0.322  49.329 -16.277  1.00  0.00    -0.271 N 
ATOM     14  H1  UNL     1      -0.010  48.436 -15.912  1.00  0.00     0.194 HD
HETATM   15  C21 UNL     1      -1.495  49.376 -17.851  1.00  0.00     0.060 C 
HETATM   16  C22 UNL     1      -1.427  49.559 -19.359  1.00  0.00     0.020 C 
HETATM   17  C23 UNL     1      -1.338  51.052 -19.795  1.00  0.00    -0.016 C 
HETATM   18  C24 UNL     1      -2.747  51.677 -19.692  1.00  0.00     0.020 C 
HETATM   19  C25 UNL     1      -0.767  51.113 -21.263  1.00  0.00     0.002 C 
HETATM   20  C26 UNL     1      -1.637  50.367 -22.310  1.00  0.00     0.007 C 
HETATM   21  C27 UNL     1      -1.047  50.421 -23.731  1.00  0.00     0.014 C 
HETATM   22  C28 UNL     1      -0.768  51.866 -24.180  1.00  0.00     0.003 C 
HETATM   23  C29 UNL     1      -2.117  52.629 -24.328  1.00  0.00     0.020 C 
ENDROOT
BRANCH   3  24
HETATM   24  O1  UNL     1       1.205  51.127 -25.446  1.00  0.00    -0.377 OA
HETATM   25  H2  UNL     1       0.870  50.272 -25.764  1.00  0.00     0.211 HD
ENDBRANCH   3  24
BRANCH  13  26
HETATM   26  O2  UNL     1       1.473  49.991 -15.817  1.00  0.00    -0.271 OA
BRANCH  26  27
HETATM   27  C13 UNL     1       1.354  50.242 -14.420  1.00  0.00     0.303 C 
BRANCH  27  28
HETATM   28  C14 UNL     1       0.500  51.467 -14.094  1.00  0.00     0.244 C 
HETATM   29  O3  UNL     1       0.714  52.567 -14.600  1.00  0.00    -0.271 OA
HETATM   30  N2  UNL     1      -0.509  51.233 -13.187  1.00  0.00    -0.344 N 
HETATM   31  H16 UNL     1      -0.347  50.412 -12.604  1.00  0.00     0.163 HD
BRANCH  30  32
HETATM   32  C15 UNL     1      -1.293  52.327 -12.609  1.00  0.00     0.186 C 
BRANCH  32  33
HETATM   33  C16 UNL     1      -0.552  52.886 -11.381  1.00  0.00     0.163 C 
HETATM   34  O4  UNL     1       0.116  52.246 -10.584  1.00  0.00    -0.648 OA
BRANCH  33  35
HETATM   35  O5  UNL     1      -0.608  54.232 -11.265  1.00  0.00    -0.775 OA
HETATM   36  H18 UNL     1      -0.099  54.418 -10.449  1.00  0.00     0.167 HD
ENDBRANCH  33  35
ENDBRANCH  32  33
BRANCH  32  37
HETATM   37  C17 UNL     1      -2.704  51.821 -12.218  1.00  0.00     0.014 C 
HETATM   38  C18 UNL     1      -3.212  50.766 -13.216  1.00  0.00     0.012 C 
BRANCH  37  39
HETATM   39  C19 UNL     1      -3.756  52.942 -12.059  1.00  0.00     0.002 C 
HETATM   40  C20 UNL     1      -4.146  53.266 -10.623  1.00  0.00     0.005 C 
ENDBRANCH  37  39
ENDBRANCH  32  37
ENDBRANCH  30  32
ENDBRANCH  27  28
ENDBRANCH  26  27
ENDBRANCH  13  26
TORSDOF 9
ENDMDL
MODEL 6
REMARK minimizedAffinity -8.86841297
REMARK  9 active torsions:
REMARK  status: ('A' for Active; 'I' for Inactive)
REMARK    1  A    between atoms: C3_3  and  O1_4 
REMARK    2  A    between atoms: N1_14  and  O2_16 
REMARK    3  A    between atoms: O2_16  and  C13_17 
REMARK    4  A    between atoms: C13_17  and  C14_18 
REMARK       I    between atoms: C14_18  and  N2_20 
REMARK    5  A    between atoms: N2_20  and  C15_21 
REMARK    6  A    between atoms: C15_21  and  C16_22 
REMARK    7  A    between atoms: C15_21  and  C17_25 
REMARK    8  A    between atoms: C16_22  and  O5_24 
REMARK    9  A    between atoms: C17_25  and  C19_27 
ROOT
HETATM    1  C1  UNL     1       1.469  51.986 -16.945  1.00  0.00     0.015 C 
HETATM    2  C2  UNL     1       0.554  51.566 -17.601  1.00  0.00    -0.078 C 
HETATM    3  C3  UNL     1      -0.560  51.038 -18.404  1.00  0.00     0.128 C 
HETATM    4  C4  UNL     1      -1.940  51.400 -17.801  1.00  0.00     0.052 C 
HETATM    5  C5  UNL     1      -2.898  51.602 -18.997  1.00  0.00     0.010 C 
HETATM    6  C6  UNL     1      -2.087  51.167 -20.214  1.00  0.00     0.002 C 
HETATM    7  C7  UNL     1      -2.534  51.637 -21.605  1.00  0.00    -0.004 C 
HETATM    8  C8  UNL     1      -3.980  51.209 -21.897  1.00  0.00     0.010 C 
HETATM    9  C9  UNL     1      -4.407  51.607 -23.305  1.00  0.00     0.035 C 
HETATM   10  C10 UNL     1      -3.453  51.069 -24.346  1.00  0.00    -0.069 C 
HETATM   11  C11 UNL     1      -3.927  50.316 -25.355  1.00  0.00     0.030 C 
HETATM   12  C12 UNL     1      -3.030  49.826 -26.438  1.00  0.00     0.032 C 
HETATM   13  N1  UNL     1      -3.324  48.926 -27.325  1.00  0.00    -0.271 N 
ATOM     14  H1  UNL     1      -2.708  48.654 -28.091  1.00  0.00     0.194 HD
HETATM   15  C21 UNL     1      -1.669  50.477 -26.527  1.00  0.00     0.060 C 
HETATM   16  C22 UNL     1      -1.081  50.586 -25.129  1.00  0.00     0.020 C 
HETATM   17  C23 UNL     1      -1.969  51.411 -24.149  1.00  0.00    -0.016 C 
HETATM   18  C24 UNL     1      -1.764  52.912 -24.450  1.00  0.00     0.020 C 
HETATM   19  C25 UNL     1      -1.563  51.040 -22.672  1.00  0.00     0.002 C 
HETATM   20  C26 UNL     1      -0.079  51.341 -22.331  1.00  0.00     0.007 C 
HETATM   21  C27 UNL     1       0.299  50.948 -20.890  1.00  0.00     0.014 C 
HETATM   22  C28 UNL     1      -0.642  51.593 -19.857  1.00  0.00     0.003 C 
HETATM   23  C29 UNL     1      -0.439  53.136 -19.868  1.00  0.00     0.020 C 
ENDROOT
BRANCH   3  24
HETATM   24  O1  UNL     1      -0.466  49.612 -18.412  1.00  0.00    -0.377 OA
HETATM   25  H2  UNL     1       0.466  49.390 -18.573  1.00  0.00     0.211 HD
ENDBRANCH   3  24
BRANCH  13  26
HETATM   26  O2  UNL     1      -4.596  48.372 -27.100  1.00  0.00    -0.271 OA
BRANCH  26  27
HETATM   27  C13 UNL     1      -5.136  47.901 -28.331  1.00  0.00     0.303 C 
BRANCH  27  28
HETATM   28  C14 UNL     1      -6.662  47.970 -28.389  1.00  0.00     0.244 C 
HETATM   29  O3  UNL     1      -7.274  48.052 -29.453  1.00  0.00    -0.271 OA
HETATM   30  N2  UNL     1      -7.280  47.942 -27.159  1.00  0.00    -0.344 N 
HETATM   31  H16 UNL     1      -6.671  48.229 -26.393  1.00  0.00     0.163 HD
BRANCH  30  32
HETATM   32  C15 UNL     1      -8.715  48.199 -27.013  1.00  0.00     0.186 C 
BRANCH  32  33
HETATM   33  C16 UNL     1      -8.945  49.082 -25.774  1.00  0.00     0.163 C 
HETATM   34  O4  UNL     1      -8.364  48.996 -24.703  1.00  0.00    -0.648 OA
BRANCH  33  35
HETATM   35  O5  UNL     1      -9.827  50.090 -25.967  1.00  0.00    -0.775 OA
HETATM   36  H18 UNL     1      -9.858  50.543 -25.099  1.00  0.00     0.167 HD
ENDBRANCH  33  35
ENDBRANCH  32  33
BRANCH  32  37
HETATM   37  C17 UNL     1      -9.485  46.861 -26.887  1.00  0.00     0.014 C 
HETATM   38  C18 UNL     1     -10.894  46.971 -27.494  1.00  0.00     0.012 C 
BRANCH  37  39
HETATM   39  C19 UNL     1      -9.576  46.317 -25.444  1.00  0.00     0.002 C 
HETATM   40  C20 UNL     1      -9.469  44.803 -25.313  1.00  0.00     0.005 C 
ENDBRANCH  37  39
ENDBRANCH  32  37
ENDBRANCH  30  32
ENDBRANCH  27  28
ENDBRANCH  26  27
ENDBRANCH  13  26
TORSDOF 9
ENDMDL
MODEL 7
REMARK minimizedAffinity -8.78465748
REMARK  9 active torsions:
REMARK  status: ('A' for Active; 'I' for Inactive)
REMARK    1  A    between atoms: C3_3  and  O1_4 
REMARK    2  A    between atoms: N1_14  and  O2_16 
REMARK    3  A    between atoms: O2_16  and  C13_17 
REMARK    4  A    between atoms: C13_17  and  C14_18 
REMARK       I    between atoms: C14_18  and  N2_20 
REMARK    5  A    between atoms: N2_20  and  C15_21 
REMARK    6  A    between atoms: C15_21  and  C16_22 
REMARK    7  A    between atoms: C15_21  and  C17_25 
REMARK    8  A    between atoms: C16_22  and  O5_24 
REMARK    9  A    between atoms: C17_25  and  C19_27 
ROOT
HETATM    1  C1  UNL     1      -1.712  51.148 -27.692  1.00  0.00     0.015 C 
HETATM    2  C2  UNL     1      -1.064  51.421 -26.717  1.00  0.00    -0.078 C 
HETATM    3  C3  UNL     1      -0.262  51.743 -25.527  1.00  0.00     0.128 C 
HETATM    4  C4  UNL     1       0.283  53.193 -25.560  1.00  0.00     0.052 C 
HETATM    5  C5  UNL     1       0.305  53.683 -24.095  1.00  0.00     0.010 C 
HETATM    6  C6  UNL     1      -0.042  52.447 -23.272  1.00  0.00     0.002 C 
HETATM    7  C7  UNL     1      -0.548  52.635 -21.835  1.00  0.00    -0.004 C 
HETATM    8  C8  UNL     1       0.464  53.422 -20.990  1.00  0.00     0.010 C 
HETATM    9  C9  UNL     1       0.004  53.549 -19.542  1.00  0.00     0.035 C 
HETATM   10  C10 UNL     1      -0.287  52.197 -18.934  1.00  0.00    -0.069 C 
HETATM   11  C11 UNL     1       0.327  51.837 -17.792  1.00  0.00     0.030 C 
HETATM   12  C12 UNL     1       0.015  50.544 -17.125  1.00  0.00     0.032 C 
HETATM   13  N1  UNL     1       0.691  49.999 -16.160  1.00  0.00    -0.271 N 
ATOM     14  H1  UNL     1       0.417  49.140 -15.683  1.00  0.00     0.194 HD
HETATM   15  C21 UNL     1      -1.232  49.831 -17.594  1.00  0.00     0.060 C 
HETATM   16  C22 UNL     1      -1.276  49.860 -19.113  1.00  0.00     0.020 C 
HETATM   17  C23 UNL     1      -1.270  51.303 -19.703  1.00  0.00    -0.016 C 
HETATM   18  C24 UNL     1      -2.691  51.895 -19.560  1.00  0.00     0.020 C 
HETATM   19  C25 UNL     1      -0.805  51.229 -21.207  1.00  0.00     0.002 C 
HETATM   20  C26 UNL     1      -1.719  50.355 -22.107  1.00  0.00     0.007 C 
HETATM   21  C27 UNL     1      -1.231  50.279 -23.566  1.00  0.00     0.014 C 
HETATM   22  C28 UNL     1      -1.037  51.678 -24.177  1.00  0.00     0.003 C 
HETATM   23  C29 UNL     1      -2.419  52.382 -24.303  1.00  0.00     0.020 C 
ENDROOT
BRANCH   3  24
HETATM   24  O1  UNL     1       0.869  50.869 -25.503  1.00  0.00    -0.377 OA
HETATM   25  H2  UNL     1       0.544  49.977 -25.707  1.00  0.00     0.211 HD
ENDBRANCH   3  24
BRANCH  13  26
HETATM   26  O2  UNL     1       1.845  50.738 -15.853  1.00  0.00    -0.271 OA
BRANCH  26  27
HETATM   27  C13 UNL     1       1.594  51.573 -14.727  1.00  0.00     0.303 C 
BRANCH  27  28
HETATM   28  C14 UNL     1       0.491  51.042 -13.812  1.00  0.00     0.244 C 
HETATM   29  O3  UNL     1       0.560  49.938 -13.276  1.00  0.00    -0.271 OA
HETATM   30  N2  UNL     1      -0.577  51.896 -13.653  1.00  0.00    -0.344 N 
HETATM   31  H16 UNL     1      -0.665  52.580 -14.405  1.00  0.00     0.163 HD
BRANCH  30  32
HETATM   32  C15 UNL     1      -1.807  51.474 -12.978  1.00  0.00     0.186 C 
BRANCH  32  33
HETATM   33  C16 UNL     1      -2.984  51.578 -13.963  1.00  0.00     0.163 C 
HETATM   34  O4  UNL     1      -3.565  52.600 -14.294  1.00  0.00    -0.648 OA
BRANCH  33  35
HETATM   35  O5  UNL     1      -3.316  50.408 -14.556  1.00  0.00    -0.775 OA
HETATM   36  H18 UNL     1      -4.068  50.646 -15.137  1.00  0.00     0.167 HD
ENDBRANCH  33  35
ENDBRANCH  32  33
BRANCH  32  37
HETATM   37  C17 UNL     1      -2.055  52.352 -11.726  1.00  0.00     0.014 C 
HETATM   38  C18 UNL     1      -0.999  52.083 -10.640  1.00  0.00     0.012 C 
BRANCH  37  39
HETATM   39  C19 UNL     1      -3.472  52.212 -11.126  1.00  0.00     0.002 C 
HETATM   40  C20 UNL     1      -4.178  53.526 -10.816  1.00  0.00     0.005 C 
ENDBRANCH  37  39
ENDBRANCH  32  37
ENDBRANCH  30  32
ENDBRANCH  27  28
ENDBRANCH  26  27
ENDBRANCH  13  26
TORSDOF 9
ENDMDL
MODEL 8
REMARK minimizedAffinity -8.75862026
REMARK  9 active torsions:
REMARK  status: ('A' for Active; 'I' for Inactive)
REMARK    1  A    between atoms: C3_3  and  O1_4 
REMARK    2  A    between atoms: N1_14  and  O2_16 
REMARK    3  A    between atoms: O2_16  and  C13_17 
REMARK    4  A    between atoms: C13_17  and  C14_18 
REMARK       I    between atoms: C14_18  and  N2_20 
REMARK    5  A    between atoms: N2_20  and  C15_21 
REMARK    6  A    between atoms: C15_21  and  C16_22 
REMARK    7  A    between atoms: C15_21  and  C17_25 
REMARK    8  A    between atoms: C16_22  and  O5_24 
REMARK    9  A    between atoms: C17_25  and  C19_27 
ROOT
HETATM    1  C1  UNL     1      -2.627  51.043  -8.798  1.00  0.00     0.015 C 
HETATM    2  C2  UNL     1      -2.243  51.525  -9.829  1.00  0.00    -0.078 C 
HETATM    3  C3  UNL     1      -1.788  52.122 -11.094  1.00  0.00     0.128 C 
HETATM    4  C4  UNL     1      -0.534  53.011 -10.906  1.00  0.00     0.052 C 
HETATM    5  C5  UNL     1       0.306  52.857 -12.194  1.00  0.00     0.010 C 
HETATM    6  C6  UNL     1      -0.580  52.046 -13.134  1.00  0.00     0.002 C 
HETATM    7  C7  UNL     1       0.071  51.322 -14.321  1.00  0.00    -0.004 C 
HETATM    8  C8  UNL     1       0.835  52.305 -15.219  1.00  0.00     0.010 C 
HETATM    9  C9  UNL     1       1.422  51.607 -16.440  1.00  0.00     0.035 C 
HETATM   10  C10 UNL     1       0.360  50.864 -17.217  1.00  0.00    -0.069 C 
HETATM   11  C11 UNL     1       0.194  51.121 -18.527  1.00  0.00     0.030 C 
HETATM   12  C12 UNL     1      -0.792  50.361 -19.342  1.00  0.00     0.032 C 
HETATM   13  N1  UNL     1      -1.191  50.664 -20.540  1.00  0.00    -0.271 N 
ATOM     14  H1  UNL     1      -1.825  50.090 -21.095  1.00  0.00     0.194 HD
HETATM   15  C21 UNL     1      -1.342  49.097 -18.722  1.00  0.00     0.060 C 
HETATM   16  C22 UNL     1      -1.701  49.374 -17.271  1.00  0.00     0.020 C 
HETATM   17  C23 UNL     1      -0.492  49.865 -16.420  1.00  0.00    -0.016 C 
HETATM   18  C24 UNL     1       0.385  48.643 -16.065  1.00  0.00     0.020 C 
HETATM   19  C25 UNL     1      -1.044  50.594 -15.136  1.00  0.00     0.002 C 
HETATM   20  C26 UNL     1      -1.924  49.692 -14.229  1.00  0.00     0.007 C 
HETATM   21  C27 UNL     1      -2.471  50.433 -12.994  1.00  0.00     0.014 C 
HETATM   22  C28 UNL     1      -1.346  51.096 -12.180  1.00  0.00     0.003 C 
HETATM   23  C29 UNL     1      -0.440  49.994 -11.559  1.00  0.00     0.020 C 
ENDROOT
BRANCH   3  24
HETATM   24  O1  UNL     1      -2.831  52.965 -11.590  1.00  0.00    -0.377 OA
HETATM   25  H2  UNL     1      -3.663  52.472 -11.496  1.00  0.00     0.211 HD
ENDBRANCH   3  24
BRANCH  13  26
HETATM   26  O2  UNL     1      -0.640  51.881 -20.976  1.00  0.00    -0.271 OA
BRANCH  26  27
HETATM   27  C13 UNL     1      -1.147  52.198 -22.269  1.00  0.00     0.303 C 
BRANCH  27  28
HETATM   28  C14 UNL     1      -0.064  52.637 -23.254  1.00  0.00     0.244 C 
HETATM   29  O3  UNL     1       0.872  53.361 -22.919  1.00  0.00    -0.271 OA
HETATM   30  N2  UNL     1      -0.235  52.163 -24.536  1.00  0.00    -0.344 N 
HETATM   31  H16 UNL     1      -1.197  51.895 -24.744  1.00  0.00     0.163 HD
BRANCH  30  32
HETATM   32  C15 UNL     1       0.589  52.642 -25.650  1.00  0.00     0.186 C 
BRANCH  32  33
HETATM   33  C16 UNL     1      -0.043  53.919 -26.230  1.00  0.00     0.163 C 
HETATM   34  O4  UNL     1      -0.874  53.977 -27.123  1.00  0.00    -0.648 OA
BRANCH  33  35
HETATM   35  O5  UNL     1       0.331  55.057 -25.601  1.00  0.00    -0.775 OA
HETATM   36  H18 UNL     1      -0.149  55.760 -26.086  1.00  0.00     0.167 HD
ENDBRANCH  33  35
ENDBRANCH  32  33
BRANCH  32  37
HETATM   37  C17 UNL     1       0.707  51.542 -26.734  1.00  0.00     0.014 C 
HETATM   38  C18 UNL     1       0.856  52.157 -28.136  1.00  0.00     0.012 C 
BRANCH  37  39
HETATM   39  C19 UNL     1      -0.455  50.522 -26.729  1.00  0.00     0.002 C 
HETATM   40  C20 UNL     1      -1.691  50.944 -27.512  1.00  0.00     0.005 C 
ENDBRANCH  37  39
ENDBRANCH  32  37
ENDBRANCH  30  32
ENDBRANCH  27  28
ENDBRANCH  26  27
ENDBRANCH  13  26
TORSDOF 9
ENDMDL
MODEL 9
REMARK minimizedAffinity -8.69111443
REMARK  9 active torsions:
REMARK  status: ('A' for Active; 'I' for Inactive)
REMARK    1  A    between atoms: C3_3  and  O1_4 
REMARK    2  A    between atoms: N1_14  and  O2_16 
REMARK    3  A    between atoms: O2_16  and  C13_17 
REMARK    4  A    between atoms: C13_17  and  C14_18 
REMARK       I    between atoms: C14_18  and  N2_20 
REMARK    5  A    between atoms: N2_20  and  C15_21 
REMARK    6  A    between atoms: C15_21  and  C16_22 
REMARK    7  A    between atoms: C15_21  and  C17_25 
REMARK    8  A    between atoms: C16_22  and  O5_24 
REMARK    9  A    between atoms: C17_25  and  C19_27 
ROOT
HETATM    1  C1  UNL     1       1.543  52.165 -16.876  1.00  0.00     0.015 C 
HETATM    2  C2  UNL     1       0.660  51.693 -17.541  1.00  0.00    -0.078 C 
HETATM    3  C3  UNL     1      -0.414  51.100 -18.353  1.00  0.00     0.128 C 
HETATM    4  C4  UNL     1      -1.817  51.362 -17.752  1.00  0.00     0.052 C 
HETATM    5  C5  UNL     1      -2.782  51.513 -18.949  1.00  0.00     0.010 C 
HETATM    6  C6  UNL     1      -1.941  51.148 -20.168  1.00  0.00     0.002 C 
HETATM    7  C7  UNL     1      -2.414  51.604 -21.556  1.00  0.00    -0.004 C 
HETATM    8  C8  UNL     1      -3.826  51.083 -21.858  1.00  0.00     0.010 C 
HETATM    9  C9  UNL     1      -4.275  51.469 -23.263  1.00  0.00     0.035 C 
HETATM   10  C10 UNL     1      -3.283  51.008 -24.306  1.00  0.00    -0.069 C 
HETATM   11  C11 UNL     1      -3.703  50.237 -25.326  1.00  0.00     0.030 C 
HETATM   12  C12 UNL     1      -2.772  49.822 -26.411  1.00  0.00     0.032 C 
HETATM   13  N1  UNL     1      -3.002  48.914 -27.310  1.00  0.00    -0.271 N 
ATOM     14  H1  UNL     1      -2.366  48.693 -28.076  1.00  0.00     0.194 HD
HETATM   15  C21 UNL     1      -1.458  50.563 -26.487  1.00  0.00     0.060 C 
HETATM   16  C22 UNL     1      -0.882  50.695 -25.086  1.00  0.00     0.020 C 
HETATM   17  C23 UNL     1      -1.826  51.446 -24.100  1.00  0.00    -0.016 C 
HETATM   18  C24 UNL     1      -1.722  52.962 -24.382  1.00  0.00     0.020 C 
HETATM   19  C25 UNL     1      -1.402  51.086 -22.625  1.00  0.00     0.002 C 
HETATM   20  C26 UNL     1       0.058  51.482 -22.275  1.00  0.00     0.007 C 
HETATM   21  C27 UNL     1       0.457  51.098 -20.837  1.00  0.00     0.014 C 
HETATM   22  C28 UNL     1      -0.528  51.666 -19.800  1.00  0.00     0.003 C 
HETATM   23  C29 UNL     1      -0.430  53.219 -19.792  1.00  0.00     0.020 C 
ENDROOT
BRANCH   3  24
HETATM   24  O1  UNL     1      -0.224  49.684 -18.378  1.00  0.00    -0.377 OA
HETATM   25  H2  UNL     1       0.721  49.527 -18.538  1.00  0.00     0.211 HD
ENDBRANCH   3  24
BRANCH  13  26
HETATM   26  O2  UNL     1      -4.234  48.274 -27.097  1.00  0.00    -0.271 OA
BRANCH  26  27
HETATM   27  C13 UNL     1      -4.881  48.054 -28.346  1.00  0.00     0.303 C 
BRANCH  27  28
HETATM   28  C14 UNL     1      -6.375  47.757 -28.212  1.00  0.00     0.244 C 
HETATM   29  O3  UNL     1      -6.903  47.533 -27.125  1.00  0.00    -0.271 OA
HETATM   30  N2  UNL     1      -7.064  47.754 -29.405  1.00  0.00    -0.344 N 
HETATM   31  H16 UNL     1      -6.467  47.599 -30.217  1.00  0.00     0.163 HD
BRANCH  30  32
HETATM   32  C15 UNL     1      -8.453  47.295 -29.490  1.00  0.00     0.186 C 
BRANCH  32  33
HETATM   33  C16 UNL     1      -9.270  47.951 -28.363  1.00  0.00     0.163 C 
HETATM   34  O4  UNL     1     -10.026  47.383 -27.590  1.00  0.00    -0.648 OA
BRANCH  33  35
HETATM   35  O5  UNL     1      -9.030  49.272 -28.201  1.00  0.00    -0.775 OA
HETATM   36  H18 UNL     1      -9.620  49.527 -27.461  1.00  0.00     0.167 HD
ENDBRANCH  33  35
ENDBRANCH  32  33
BRANCH  32  37
HETATM   37  C17 UNL     1      -8.509  45.751 -29.387  1.00  0.00     0.014 C 
HETATM   38  C18 UNL     1      -7.109  45.132 -29.534  1.00  0.00     0.012 C 
BRANCH  37  39
HETATM   39  C19 UNL     1      -9.484  45.086 -30.385  1.00  0.00     0.002 C 
HETATM   40  C20 UNL     1     -10.960  45.356 -30.128  1.00  0.00     0.005 C 
ENDBRANCH  37  39
ENDBRANCH  32  37
ENDBRANCH  30  32
ENDBRANCH  27  28
ENDBRANCH  26  27
ENDBRANCH  13  26
TORSDOF 9
ENDMDL
