MODEL 1
REMARK minimizedAffinity -5.62207127
REMARK  1 active torsions:
REMARK  status: ('A' for Active; 'I' for Inactive)
REMARK    1  A    between atoms: N1_2  and  C2_3 
ROOT
HETATM    1  C2  UNL     1       9.485  -4.112  33.039  1.00  0.00     0.164 C 
HETATM    2  C3  UNL     1       9.987  -5.566  33.103  1.00  0.00     0.050 C 
HETATM    3  C4  UNL     1      10.649  -3.062  33.163  1.00  0.00     0.025 C 
HETATM    4  C5  UNL     1      11.768  -3.290  32.124  1.00  0.00     0.007 C 
HETATM    5  C6  UNL     1      11.135  -2.818  30.814  1.00  0.00     0.006 C 
HETATM    6  C7  UNL     1       9.710  -2.429  31.244  1.00  0.00    -0.004 C 
HETATM    7  C8  UNL     1      10.002  -1.790  32.607  1.00  0.00     0.012 C 
HETATM    8  C9  UNL     1       8.846  -3.685  31.625  1.00  0.00    -0.008 C 
HETATM    9  C10 UNL     1       8.875  -4.780  30.541  1.00  0.00     0.018 C 
HETATM   10  C11 UNL     1       7.363  -3.228  31.703  1.00  0.00     0.018 C 
ENDROOT
BRANCH   1  11
HETATM   11  N1  UNL     1       8.475  -3.927  34.112  1.00  0.00     0.089 N 
HETATM   12  C1  UNL     1       8.789  -4.472  35.423  1.00  0.00     0.307 C 
HETATM   13  H4  UNL     1       7.586  -4.320  33.799  1.00  0.00     0.316 HD
ENDBRANCH   1  11
TORSDOF 1
ENDMDL
MODEL 2
REMARK minimizedAffinity -5.52844858
REMARK  1 active torsions:
REMARK  status: ('A' for Active; 'I' for Inactive)
REMARK    1  A    between atoms: N1_2  and  C2_3 
ROOT
HETATM    1  C2  UNL     1       8.828  -3.707  31.859  1.00  0.00     0.164 C 
HETATM    2  C3  UNL     1       8.310  -4.573  30.695  1.00  0.00     0.050 C 
HETATM    3  C4  UNL     1       9.320  -4.564  33.081  1.00  0.00     0.025 C 
HETATM    4  C5  UNL     1      10.379  -5.615  32.682  1.00  0.00     0.007 C 
HETATM    5  C6  UNL     1      11.633  -4.776  32.435  1.00  0.00     0.006 C 
HETATM    6  C7  UNL     1      11.135  -3.340  32.664  1.00  0.00    -0.004 C 
HETATM    7  C8  UNL     1      10.190  -3.566  33.851  1.00  0.00     0.012 C 
HETATM    8  C9  UNL     1      10.159  -2.866  31.527  1.00  0.00    -0.008 C 
HETATM    9  C10 UNL     1      10.735  -3.089  30.115  1.00  0.00     0.018 C 
HETATM   10  C11 UNL     1       9.995  -1.326  31.661  1.00  0.00     0.018 C 
ENDROOT
BRANCH   1  11
HETATM   11  N1  UNL     1       7.742  -2.775  32.256  1.00  0.00     0.089 N 
HETATM   12  C1  UNL     1       6.517  -2.809  31.473  1.00  0.00     0.307 C 
HETATM   13  H4  UNL     1       8.107  -1.822  32.250  1.00  0.00     0.316 HD
ENDBRANCH   1  11
TORSDOF 1
ENDMDL
MODEL 3
REMARK minimizedAffinity -5.50335503
REMARK  1 active torsions:
REMARK  status: ('A' for Active; 'I' for Inactive)
REMARK    1  A    between atoms: N1_2  and  C2_3 
ROOT
HETATM    1  C2  UNL     1      10.816  -3.229  32.897  1.00  0.00     0.164 C 
HETATM    2  C3  UNL     1       9.849  -3.812  33.944  1.00  0.00     0.050 C 
HETATM    3  C4  UNL     1      11.515  -4.339  32.031  1.00  0.00     0.025 C 
HETATM    4  C5  UNL     1      10.505  -5.290  31.356  1.00  0.00     0.007 C 
HETATM    5  C6  UNL     1       9.905  -4.434  30.239  1.00  0.00     0.006 C 
HETATM    6  C7  UNL     1      10.598  -3.076  30.440  1.00  0.00    -0.004 C 
HETATM    7  C8  UNL     1      12.009  -3.544  30.818  1.00  0.00     0.012 C 
HETATM    8  C9  UNL     1      10.110  -2.352  31.747  1.00  0.00    -0.008 C 
HETATM    9  C10 UNL     1       8.574  -2.268  31.844  1.00  0.00     0.018 C 
HETATM   10  C11 UNL     1      10.594  -0.877  31.675  1.00  0.00     0.018 C 
ENDROOT
BRANCH   1  11
HETATM   11  N1  UNL     1      11.814  -2.392  33.610  1.00  0.00     0.089 N 
HETATM   12  C1  UNL     1      12.172  -2.791  34.963  1.00  0.00     0.307 C 
HETATM   13  H4  UNL     1      11.482  -1.427  33.632  1.00  0.00     0.316 HD
ENDBRANCH   1  11
TORSDOF 1
ENDMDL
MODEL 4
REMARK minimizedAffinity -5.41938019
REMARK  1 active torsions:
REMARK  status: ('A' for Active; 'I' for Inactive)
REMARK    1  A    between atoms: N1_2  and  C2_3 
ROOT
HETATM    1  C2  UNL     1      11.450  -3.694  31.407  1.00  0.00     0.164 C 
HETATM    2  C3  UNL     1      11.362  -3.661  29.870  1.00  0.00     0.050 C 
HETATM    3  C4  UNL     1      11.835  -2.299  32.023  1.00  0.00     0.025 C 
HETATM    4  C5  UNL     1      10.893  -1.166  31.564  1.00  0.00     0.007 C 
HETATM    5  C6  UNL     1       9.604  -1.442  32.340  1.00  0.00     0.006 C 
HETATM    6  C7  UNL     1       9.937  -2.732  33.108  1.00  0.00    -0.004 C 
HETATM    7  C8  UNL     1      11.399  -2.455  33.483  1.00  0.00     0.012 C 
HETATM    8  C9  UNL     1      10.052  -3.974  32.153  1.00  0.00    -0.008 C 
HETATM    9  C10 UNL     1       8.834  -4.123  31.219  1.00  0.00     0.018 C 
HETATM   10  C11 UNL     1      10.042  -5.250  33.040  1.00  0.00     0.018 C 
ENDROOT
BRANCH   1  11
HETATM   11  N1  UNL     1      12.431  -4.742  31.789  1.00  0.00     0.089 N 
HETATM   12  C1  UNL     1      12.658  -5.818  30.838  1.00  0.00     0.307 C 
HETATM   13  H4  UNL     1      12.148  -5.149  32.681  1.00  0.00     0.316 HD
ENDBRANCH   1  11
TORSDOF 1
ENDMDL
MODEL 5
REMARK minimizedAffinity -5.40361786
REMARK  1 active torsions:
REMARK  status: ('A' for Active; 'I' for Inactive)
REMARK    1  A    between atoms: N1_2  and  C2_3 
ROOT
HETATM    1  C2  UNL     1      10.826  -3.445  32.537  1.00  0.00     0.164 C 
HETATM    2  C3  UNL     1      10.554  -1.987  32.123  1.00  0.00     0.050 C 
HETATM    3  C4  UNL     1       9.612  -4.097  33.296  1.00  0.00     0.025 C 
HETATM    4  C5  UNL     1       8.293  -4.002  32.499  1.00  0.00     0.007 C 
HETATM    5  C6  UNL     1       8.481  -5.031  31.382  1.00  0.00     0.006 C 
HETATM    6  C7  UNL     1       9.906  -5.553  31.634  1.00  0.00    -0.004 C 
HETATM    7  C8  UNL     1       9.913  -5.593  33.168  1.00  0.00     0.012 C 
HETATM    8  C9  UNL     1      10.996  -4.470  31.308  1.00  0.00    -0.008 C 
HETATM    9  C10 UNL     1      10.819  -3.846  29.911  1.00  0.00     0.018 C 
HETATM   10  C11 UNL     1      12.373  -5.190  31.260  1.00  0.00     0.018 C 
ENDROOT
BRANCH   1  11
HETATM   11  N1  UNL     1      12.056  -3.464  33.369  1.00  0.00     0.089 N 
HETATM   12  C1  UNL     1      12.026  -2.719  34.618  1.00  0.00     0.307 C 
HETATM   13  H4  UNL     1      12.839  -3.129  32.808  1.00  0.00     0.316 HD
ENDBRANCH   1  11
TORSDOF 1
ENDMDL
MODEL 6
REMARK minimizedAffinity -5.32245779
REMARK  1 active torsions:
REMARK  status: ('A' for Active; 'I' for Inactive)
REMARK    1  A    between atoms: N1_2  and  C2_3 
ROOT
HETATM    1  C2  UNL     1       9.252  -3.690  31.447  1.00  0.00     0.164 C 
HETATM    2  C3  UNL     1       7.844  -3.218  31.852  1.00  0.00     0.050 C 
HETATM    3  C4  UNL     1      10.180  -2.507  30.986  1.00  0.00     0.025 C 
HETATM    4  C5  UNL     1      10.273  -1.381  32.037  1.00  0.00     0.007 C 
HETATM    5  C6  UNL     1      11.156  -1.989  33.129  1.00  0.00     0.006 C 
HETATM    6  C7  UNL     1      11.418  -3.411  32.604  1.00  0.00    -0.004 C 
HETATM    7  C8  UNL     1      11.578  -3.122  31.106  1.00  0.00     0.012 C 
HETATM    8  C9  UNL     1      10.126  -4.304  32.651  1.00  0.00    -0.008 C 
HETATM    9  C10 UNL     1       9.437  -4.284  34.030  1.00  0.00     0.018 C 
HETATM   10  C11 UNL     1      10.567  -5.779  32.437  1.00  0.00     0.018 C 
ENDROOT
BRANCH   1  11
HETATM   11  N1  UNL     1       9.105  -4.709  30.376  1.00  0.00     0.089 N 
HETATM   12  C1  UNL     1       7.763  -5.202  30.107  1.00  0.00     0.307 C 
HETATM   13  H4  UNL     1       9.707  -5.504  30.592  1.00  0.00     0.316 HD
ENDBRANCH   1  11
TORSDOF 1
ENDMDL
MODEL 7
REMARK minimizedAffinity -5.26184702
REMARK  1 active torsions:
REMARK  status: ('A' for Active; 'I' for Inactive)
REMARK    1  A    between atoms: N1_2  and  C2_3 
ROOT
HETATM    1  C2  UNL     1       9.541  -3.107  31.809  1.00  0.00     0.164 C 
HETATM    2  C3  UNL     1       8.067  -2.660  31.847  1.00  0.00     0.050 C 
HETATM    3  C4  UNL     1      10.153  -3.303  33.243  1.00  0.00     0.025 C 
HETATM    4  C5  UNL     1       9.323  -4.267  34.117  1.00  0.00     0.007 C 
HETATM    5  C6  UNL     1       9.629  -5.640  33.517  1.00  0.00     0.006 C 
HETATM    6  C7  UNL     1      10.552  -5.299  32.335  1.00  0.00    -0.004 C 
HETATM    7  C8  UNL     1      11.384  -4.170  32.957  1.00  0.00     0.012 C 
HETATM    8  C9  UNL     1       9.781  -4.567  31.178  1.00  0.00    -0.008 C 
HETATM    9  C10 UNL     1       8.501  -5.311  30.751  1.00  0.00     0.018 C 
HETATM   10  C11 UNL     1      10.698  -4.581  29.922  1.00  0.00     0.018 C 
ENDROOT
BRANCH   1  11
HETATM   11  N1  UNL     1      10.305  -2.101  31.028  1.00  0.00     0.089 N 
HETATM   12  C1  UNL     1      10.490  -0.791  31.632  1.00  0.00     0.307 C 
HETATM   13  H4  UNL     1       9.860  -1.981  30.118  1.00  0.00     0.316 HD
ENDBRANCH   1  11
TORSDOF 1
ENDMDL
MODEL 8
REMARK minimizedAffinity -5.21049213
REMARK  1 active torsions:
REMARK  status: ('A' for Active; 'I' for Inactive)
REMARK    1  A    between atoms: N1_2  and  C2_3 
ROOT
HETATM    1  C2  UNL     1      10.853  -3.814  31.245  1.00  0.00     0.164 C 
HETATM    2  C3  UNL     1      12.245  -4.471  31.301  1.00  0.00     0.050 C 
HETATM    3  C4  UNL     1       9.689  -4.833  31.525  1.00  0.00     0.025 C 
HETATM    4  C5  UNL     1       9.871  -5.592  32.857  1.00  0.00     0.007 C 
HETATM    5  C6  UNL     1       9.546  -4.534  33.913  1.00  0.00     0.006 C 
HETATM    6  C7  UNL     1       9.273  -3.279  33.067  1.00  0.00    -0.004 C 
HETATM    7  C8  UNL     1       8.524  -3.907  31.885  1.00  0.00     0.012 C 
HETATM    8  C9  UNL     1      10.580  -2.724  32.397  1.00  0.00    -0.008 C 
HETATM    9  C10 UNL     1      11.733  -2.536  33.402  1.00  0.00     0.018 C 
HETATM   10  C11 UNL     1      10.266  -1.296  31.867  1.00  0.00     0.018 C 
ENDROOT
BRANCH   1  11
HETATM   11  N1  UNL     1      10.701  -3.173  29.914  1.00  0.00     0.089 N 
HETATM   12  C1  UNL     1      10.797  -4.035  28.746  1.00  0.00     0.307 C 
HETATM   13  H4  UNL     1      11.392  -2.427  29.826  1.00  0.00     0.316 HD
ENDBRANCH   1  11
TORSDOF 1
ENDMDL
MODEL 9
REMARK minimizedAffinity -5.05577564
REMARK  1 active torsions:
REMARK  status: ('A' for Active; 'I' for Inactive)
REMARK    1  A    between atoms: N1_2  and  C2_3 
ROOT
HETATM    1  C2  UNL     1      11.336  -4.414  31.852  1.00  0.00     0.164 C 
HETATM    2  C3  UNL     1      11.858  -3.754  33.142  1.00  0.00     0.050 C 
HETATM    3  C4  UNL     1      10.381  -5.630  32.136  1.00  0.00     0.025 C 
HETATM    4  C5  UNL     1       9.204  -5.258  33.062  1.00  0.00     0.007 C 
HETATM    5  C6  UNL     1       8.294  -4.422  32.159  1.00  0.00     0.006 C 
HETATM    6  C7  UNL     1       9.083  -4.365  30.840  1.00  0.00    -0.004 C 
HETATM    7  C8  UNL     1       9.650  -5.790  30.800  1.00  0.00     0.012 C 
HETATM    8  C9  UNL     1      10.375  -3.479  30.963  1.00  0.00    -0.008 C 
HETATM    9  C10 UNL     1      10.089  -2.086  31.559  1.00  0.00     0.018 C 
HETATM   10  C11 UNL     1      10.896  -3.207  29.524  1.00  0.00     0.018 C 
ENDROOT
BRANCH   1  11
HETATM   11  N1  UNL     1      12.509  -4.827  31.041  1.00  0.00     0.089 N 
HETATM   12  C1  UNL     1      12.689  -6.252  30.807  1.00  0.00     0.307 C 
HETATM   13  H4  UNL     1      13.357  -4.459  31.474  1.00  0.00     0.316 HD
ENDBRANCH   1  11
TORSDOF 1
ENDMDL
