MODEL 1
REMARK minimizedAffinity -8.32990932
REMARK  14 active torsions:
REMARK  status: ('A' for Active; 'I' for Inactive)
REMARK    1  A    between atoms: O1_2  and  C2_3 
REMARK    2  A    between atoms: C2_3  and  C3_4 
REMARK    3  A    between atoms: C2_3  and  C24_30 
REMARK    4  A    between atoms: C3_4  and  C5_6 
REMARK    5  A    between atoms: C6_8  and  C8_10 
REMARK    6  A    between atoms: C8_10  and  C9_11 
REMARK    7  A    between atoms: C9_11  and  O3_13 
REMARK    8  A    between atoms: C9_11  and  C11_14 
REMARK    9  A    between atoms: C12_15  and  C13_16 
REMARK   10  A    between atoms: C14_17  and  C16_19 
REMARK   11  A    between atoms: C17_21  and  C18_22 
REMARK   12  A    between atoms: C18_22  and  C19_23 
REMARK   13  A    between atoms: C19_23  and  O6_25 
REMARK   14  A    between atoms: C24_30  and  O7_32 
ROOT
HETATM    1  C9  UNL     1       0.574   6.012  12.850  1.00  0.00     0.075 C 
HETATM    2  C10 UNL     1       1.184   5.240  11.675  1.00  0.00     0.050 C 
ENDROOT
BRANCH   1   3
HETATM    3  C8  UNL     1       0.607   7.547  12.649  1.00  0.00     0.082 C 
BRANCH   3   4
HETATM    4  C6  UNL     1       1.414   8.029  11.457  1.00  0.00     0.087 A 
HETATM    5  C5  UNL     1       2.931   7.851  11.478  1.00  0.00     0.163 A 
HETATM    6  O2  UNL     1       2.314   9.106  11.789  1.00  0.00    -0.369 OA
HETATM    7  C7  UNL     1       0.667   8.302  10.181  1.00  0.00     0.049 C 
BRANCH   5   8
HETATM    8  C3  UNL     1       3.777   7.854  10.233  1.00  0.00     0.045 C 
HETATM    9  C4  UNL     1       3.622   6.500   9.523  1.00  0.00     0.015 C 
BRANCH   8  10
HETATM   10  C2  UNL     1       5.273   8.139  10.546  1.00  0.00     0.155 C 
BRANCH  10  11
HETATM   11  O1  UNL     1       5.383   9.548  10.830  1.00  0.00    -0.388 OA
HETATM   12  C1  UNL     1       6.690  10.064  10.611  1.00  0.00     0.202 C 
ENDBRANCH  10  11
BRANCH  10  13
HETATM   13  C24 UNL     1       5.823   7.311  11.747  1.00  0.00     0.143 C 
HETATM   14  C25 UNL     1       5.266   7.769  13.089  1.00  0.00     0.042 C 
BRANCH  13  15
HETATM   15  O7  UNL     1       5.537   5.916  11.627  1.00  0.00    -0.393 OA
HETATM   16  H42 UNL     1       6.050   5.591  10.864  1.00  0.00     0.210 HD
ENDBRANCH  13  15
ENDBRANCH  10  13
ENDBRANCH   8  10
ENDBRANCH   5   8
ENDBRANCH   3   4
ENDBRANCH   1   3
BRANCH   1  17
HETATM   17  O3  UNL     1       1.350   5.682  14.010  1.00  0.00    -0.386 OA
HETATM   18  H18 UNL     1       1.162   4.750  14.220  1.00  0.00     0.211 HD
ENDBRANCH   1  17
BRANCH   1  19
HETATM   19  C11 UNL     1      -0.848   5.602  13.186  1.00  0.00     0.010 C 
HETATM   20  C12 UNL     1      -1.755   5.045  12.365  1.00  0.00    -0.001 C 
BRANCH  20  21
HETATM   21  C13 UNL     1      -3.073   4.655  12.816  1.00  0.00     0.005 C 
HETATM   22  C14 UNL     1      -4.035   4.039  12.098  1.00  0.00    -0.055 C 
HETATM   23  C15 UNL     1      -3.926   3.666  10.641  1.00  0.00     0.046 C 
BRANCH  22  24
HETATM   24  C16 UNL     1      -5.351   3.624  12.749  1.00  0.00     0.154 C 
HETATM   25  O4  UNL     1      -6.072   4.827  13.065  1.00  0.00    -0.375 OA
HETATM   26  C17 UNL     1      -7.259   4.587  13.832  1.00  0.00     0.132 C 
HETATM   27  C20 UNL     1      -8.229   3.738  13.004  1.00  0.00     0.033 C 
HETATM   28  C21 UNL     1      -7.566   2.437  12.565  1.00  0.00     0.009 C 
HETATM   29  C22 UNL     1      -6.227   2.710  11.862  1.00  0.00     0.015 C 
HETATM   30  C23 UNL     1      -5.549   1.385  11.511  1.00  0.00     0.012 C 
BRANCH  26  31
HETATM   31  C18 UNL     1      -7.850   5.949  14.187  1.00  0.00     0.141 C 
BRANCH  31  32
HETATM   32  C19 UNL     1      -8.059   6.098  15.664  1.00  0.00     0.141 C 
HETATM   33  O5  UNL     1      -7.206   6.277  16.516  1.00  0.00    -0.650 OA
BRANCH  32  34
HETATM   34  O6  UNL     1      -9.363   6.043  16.002  1.00  0.00    -0.776 OA
HETATM   35  H29 UNL     1      -9.368   6.166  16.974  1.00  0.00     0.167 HD
ENDBRANCH  32  34
ENDBRANCH  31  32
ENDBRANCH  26  31
ENDBRANCH  22  24
ENDBRANCH  20  21
ENDBRANCH   1  19
TORSDOF 14
ENDMDL
MODEL 2
REMARK minimizedAffinity -8.32539272
REMARK  14 active torsions:
REMARK  status: ('A' for Active; 'I' for Inactive)
REMARK    1  A    between atoms: O1_2  and  C2_3 
REMARK    2  A    between atoms: C2_3  and  C3_4 
REMARK    3  A    between atoms: C2_3  and  C24_30 
REMARK    4  A    between atoms: C3_4  and  C5_6 
REMARK    5  A    between atoms: C6_8  and  C8_10 
REMARK    6  A    between atoms: C8_10  and  C9_11 
REMARK    7  A    between atoms: C9_11  and  O3_13 
REMARK    8  A    between atoms: C9_11  and  C11_14 
REMARK    9  A    between atoms: C12_15  and  C13_16 
REMARK   10  A    between atoms: C14_17  and  C16_19 
REMARK   11  A    between atoms: C17_21  and  C18_22 
REMARK   12  A    between atoms: C18_22  and  C19_23 
REMARK   13  A    between atoms: C19_23  and  O6_25 
REMARK   14  A    between atoms: C24_30  and  O7_32 
ROOT
HETATM    1  C9  UNL     1       0.585   5.980  12.806  1.00  0.00     0.075 C 
HETATM    2  C10 UNL     1       1.249   4.943  11.892  1.00  0.00     0.050 C 
ENDROOT
BRANCH   1   3
HETATM    3  C8  UNL     1       0.646   7.418  12.236  1.00  0.00     0.082 C 
BRANCH   3   4
HETATM    4  C6  UNL     1       1.138   7.529  10.804  1.00  0.00     0.087 A 
HETATM    5  C5  UNL     1       2.643   7.492  10.542  1.00  0.00     0.163 A 
HETATM    6  O2  UNL     1       1.912   8.723  10.571  1.00  0.00    -0.369 OA
HETATM    7  C7  UNL     1       0.138   7.292   9.709  1.00  0.00     0.049 C 
BRANCH   5   8
HETATM    8  C3  UNL     1       3.235   7.139   9.203  1.00  0.00     0.045 C 
HETATM    9  C4  UNL     1       2.798   8.190   8.172  1.00  0.00     0.015 C 
BRANCH   8  10
HETATM   10  C2  UNL     1       2.820   5.714   8.741  1.00  0.00     0.155 C 
BRANCH  10  11
HETATM   11  O1  UNL     1       2.623   5.774   7.314  1.00  0.00    -0.388 OA
HETATM   12  C1  UNL     1       3.187   4.666   6.623  1.00  0.00     0.202 C 
ENDBRANCH  10  11
BRANCH  10  13
HETATM   13  C24 UNL     1       3.873   4.619   9.086  1.00  0.00     0.143 C 
HETATM   14  C25 UNL     1       4.944   5.108  10.054  1.00  0.00     0.042 C 
BRANCH  13  15
HETATM   15  O7  UNL     1       3.282   3.453   9.667  1.00  0.00    -0.393 OA
HETATM   16  H42 UNL     1       2.736   3.042   8.971  1.00  0.00     0.210 HD
ENDBRANCH  13  15
ENDBRANCH  10  13
ENDBRANCH   8  10
ENDBRANCH   5   8
ENDBRANCH   3   4
ENDBRANCH   1   3
BRANCH   1  17
HETATM   17  O3  UNL     1       1.294   5.947  14.053  1.00  0.00    -0.386 OA
HETATM   18  H18 UNL     1       1.085   5.095  14.474  1.00  0.00     0.211 HD
ENDBRANCH   1  17
BRANCH   1  19
HETATM   19  C11 UNL     1      -0.858   5.662  13.155  1.00  0.00     0.010 C 
HETATM   20  C12 UNL     1      -1.754   5.000  12.403  1.00  0.00    -0.001 C 
BRANCH  20  21
HETATM   21  C13 UNL     1      -3.096   4.718  12.865  1.00  0.00     0.005 C 
HETATM   22  C14 UNL     1      -4.085   4.103  12.183  1.00  0.00    -0.055 C 
HETATM   23  C15 UNL     1      -3.983   3.615  10.761  1.00  0.00     0.046 C 
BRANCH  22  24
HETATM   24  C16 UNL     1      -5.427   3.811  12.847  1.00  0.00     0.154 C 
HETATM   25  O4  UNL     1      -6.016   5.074  13.198  1.00  0.00    -0.375 OA
HETATM   26  C17 UNL     1      -7.211   4.940  13.979  1.00  0.00     0.132 C 
HETATM   27  C20 UNL     1      -8.274   4.212  13.150  1.00  0.00     0.033 C 
HETATM   28  C21 UNL     1      -7.754   2.860  12.675  1.00  0.00     0.009 C 
HETATM   29  C22 UNL     1      -6.403   3.009  11.957  1.00  0.00     0.015 C 
HETATM   30  C23 UNL     1      -5.870   1.630  11.569  1.00  0.00     0.012 C 
BRANCH  26  31
HETATM   31  C18 UNL     1      -7.655   6.348  14.369  1.00  0.00     0.141 C 
BRANCH  31  32
HETATM   32  C19 UNL     1      -8.090   6.417  15.802  1.00  0.00     0.141 C 
HETATM   33  O5  UNL     1      -7.445   6.828  16.751  1.00  0.00    -0.650 OA
BRANCH  32  34
HETATM   34  O6  UNL     1      -9.356   5.984  15.971  1.00  0.00    -0.776 OA
HETATM   35  H29 UNL     1      -9.523   6.092  16.930  1.00  0.00     0.167 HD
ENDBRANCH  32  34
ENDBRANCH  31  32
ENDBRANCH  26  31
ENDBRANCH  22  24
ENDBRANCH  20  21
ENDBRANCH   1  19
TORSDOF 14
ENDMDL
MODEL 3
REMARK minimizedAffinity -8.01995277
REMARK  14 active torsions:
REMARK  status: ('A' for Active; 'I' for Inactive)
REMARK    1  A    between atoms: O1_2  and  C2_3 
REMARK    2  A    between atoms: C2_3  and  C3_4 
REMARK    3  A    between atoms: C2_3  and  C24_30 
REMARK    4  A    between atoms: C3_4  and  C5_6 
REMARK    5  A    between atoms: C6_8  and  C8_10 
REMARK    6  A    between atoms: C8_10  and  C9_11 
REMARK    7  A    between atoms: C9_11  and  O3_13 
REMARK    8  A    between atoms: C9_11  and  C11_14 
REMARK    9  A    between atoms: C12_15  and  C13_16 
REMARK   10  A    between atoms: C14_17  and  C16_19 
REMARK   11  A    between atoms: C17_21  and  C18_22 
REMARK   12  A    between atoms: C18_22  and  C19_23 
REMARK   13  A    between atoms: C19_23  and  O6_25 
REMARK   14  A    between atoms: C24_30  and  O7_32 
ROOT
HETATM    1  C9  UNL     1      -3.785   9.065  14.818  1.00  0.00     0.075 C 
HETATM    2  C10 UNL     1      -4.043  10.367  15.584  1.00  0.00     0.050 C 
ENDROOT
BRANCH   1   3
HETATM    3  C8  UNL     1      -4.970   8.651  13.911  1.00  0.00     0.082 C 
BRANCH   3   4
HETATM    4  C6  UNL     1      -5.496   7.245  14.131  1.00  0.00     0.087 A 
HETATM    5  C5  UNL     1      -5.054   6.138  13.176  1.00  0.00     0.163 A 
HETATM    6  O2  UNL     1      -6.326   6.782  13.046  1.00  0.00    -0.369 OA
HETATM    7  C7  UNL     1      -6.108   6.937  15.469  1.00  0.00     0.049 C 
BRANCH   5   8
HETATM    8  C3  UNL     1      -5.118   4.675  13.526  1.00  0.00     0.045 C 
HETATM    9  C4  UNL     1      -3.731   4.050  13.313  1.00  0.00     0.015 C 
BRANCH   8  10
HETATM   10  C2  UNL     1      -6.190   3.923  12.687  1.00  0.00     0.155 C 
BRANCH  10  11
HETATM   11  O1  UNL     1      -5.505   2.885  11.958  1.00  0.00    -0.388 OA
HETATM   12  C1  UNL     1      -5.615   3.023  10.547  1.00  0.00     0.202 C 
ENDBRANCH  10  11
BRANCH  10  13
HETATM   13  C24 UNL     1      -7.329   3.302  13.551  1.00  0.00     0.143 C 
HETATM   14  C25 UNL     1      -7.424   3.919  14.941  1.00  0.00     0.042 C 
BRANCH  13  15
HETATM   15  O7  UNL     1      -8.615   3.437  12.941  1.00  0.00    -0.393 OA
HETATM   16  H42 UNL     1      -8.602   2.883  12.139  1.00  0.00     0.210 HD
ENDBRANCH  13  15
ENDBRANCH  10  13
ENDBRANCH   8  10
ENDBRANCH   5   8
ENDBRANCH   3   4
ENDBRANCH   1   3
BRANCH   1  17
HETATM   17  O3  UNL     1      -3.576   8.041  15.801  1.00  0.00    -0.386 OA
HETATM   18  H18 UNL     1      -2.724   8.232  16.231  1.00  0.00     0.211 HD
ENDBRANCH   1  17
BRANCH   1  19
HETATM   19  C11 UNL     1      -2.520   9.083  13.979  1.00  0.00     0.010 C 
HETATM   20  C12 UNL     1      -2.415   8.885  12.653  1.00  0.00    -0.001 C 
BRANCH  20  21
HETATM   21  C13 UNL     1      -1.151   8.971  11.955  1.00  0.00     0.005 C 
HETATM   22  C14 UNL     1      -0.356   7.950  11.572  1.00  0.00    -0.055 C 
HETATM   23  C15 UNL     1      -0.626   6.492  11.842  1.00  0.00     0.046 C 
BRANCH  22  24
HETATM   24  C16 UNL     1       0.916   8.210  10.769  1.00  0.00     0.154 C 
HETATM   25  O4  UNL     1       1.979   7.479  11.401  1.00  0.00    -0.375 OA
HETATM   26  C17 UNL     1       3.268   7.764  10.841  1.00  0.00     0.132 C 
HETATM   27  C20 UNL     1       3.288   7.324   9.374  1.00  0.00     0.033 C 
HETATM   28  C21 UNL     1       2.169   8.003   8.593  1.00  0.00     0.009 C 
HETATM   29  C22 UNL     1       0.811   7.799   9.282  1.00  0.00     0.015 C 
HETATM   30  C23 UNL     1      -0.275   8.561   8.522  1.00  0.00     0.012 C 
BRANCH  26  31
HETATM   31  C18 UNL     1       4.300   7.011  11.678  1.00  0.00     0.141 C 
BRANCH  31  32
HETATM   32  C19 UNL     1       5.396   6.441  10.829  1.00  0.00     0.141 C 
HETATM   33  O5  UNL     1       6.436   6.985  10.502  1.00  0.00    -0.650 OA
BRANCH  32  34
HETATM   34  O6  UNL     1       5.137   5.173  10.450  1.00  0.00    -0.776 OA
HETATM   35  H29 UNL     1       5.921   4.913   9.923  1.00  0.00     0.167 HD
ENDBRANCH  32  34
ENDBRANCH  31  32
ENDBRANCH  26  31
ENDBRANCH  22  24
ENDBRANCH  20  21
ENDBRANCH   1  19
TORSDOF 14
ENDMDL
MODEL 4
REMARK minimizedAffinity -8.00650311
REMARK  14 active torsions:
REMARK  status: ('A' for Active; 'I' for Inactive)
REMARK    1  A    between atoms: O1_2  and  C2_3 
REMARK    2  A    between atoms: C2_3  and  C3_4 
REMARK    3  A    between atoms: C2_3  and  C24_30 
REMARK    4  A    between atoms: C3_4  and  C5_6 
REMARK    5  A    between atoms: C6_8  and  C8_10 
REMARK    6  A    between atoms: C8_10  and  C9_11 
REMARK    7  A    between atoms: C9_11  and  O3_13 
REMARK    8  A    between atoms: C9_11  and  C11_14 
REMARK    9  A    between atoms: C12_15  and  C13_16 
REMARK   10  A    between atoms: C14_17  and  C16_19 
REMARK   11  A    between atoms: C17_21  and  C18_22 
REMARK   12  A    between atoms: C18_22  and  C19_23 
REMARK   13  A    between atoms: C19_23  and  O6_25 
REMARK   14  A    between atoms: C24_30  and  O7_32 
ROOT
HETATM    1  C9  UNL     1       0.149   5.826  11.426  1.00  0.00     0.075 C 
HETATM    2  C10 UNL     1       0.307   6.860  10.305  1.00  0.00     0.050 C 
ENDROOT
BRANCH   1   3
HETATM    3  C8  UNL     1       0.886   6.226  12.728  1.00  0.00     0.082 C 
BRANCH   3   4
HETATM    4  C6  UNL     1       1.883   7.362  12.587  1.00  0.00     0.087 A 
HETATM    5  C5  UNL     1       3.366   7.022  12.442  1.00  0.00     0.163 A 
HETATM    6  O2  UNL     1       2.805   7.436  13.694  1.00  0.00    -0.369 OA
HETATM    7  C7  UNL     1       1.342   8.716  12.222  1.00  0.00     0.049 C 
BRANCH   5   8
HETATM    8  C3  UNL     1       4.374   7.973  11.855  1.00  0.00     0.045 C 
HETATM    9  C4  UNL     1       3.829   9.405  11.964  1.00  0.00     0.015 C 
BRANCH   8  10
HETATM   10  C2  UNL     1       4.707   7.626  10.376  1.00  0.00     0.155 C 
BRANCH  10  11
HETATM   11  O1  UNL     1       5.607   6.500  10.400  1.00  0.00    -0.388 OA
HETATM   12  C1  UNL     1       6.849   6.786  11.029  1.00  0.00     0.202 C 
ENDBRANCH  10  11
BRANCH  10  13
HETATM   13  C24 UNL     1       3.450   7.283   9.522  1.00  0.00     0.143 C 
HETATM   14  C25 UNL     1       3.198   8.290   8.405  1.00  0.00     0.042 C 
BRANCH  13  15
HETATM   15  O7  UNL     1       3.537   5.993   8.912  1.00  0.00    -0.393 OA
HETATM   16  H42 UNL     1       3.512   5.340   9.637  1.00  0.00     0.210 HD
ENDBRANCH  13  15
ENDBRANCH  10  13
ENDBRANCH   8  10
ENDBRANCH   5   8
ENDBRANCH   3   4
ENDBRANCH   1   3
BRANCH   1  17
HETATM   17  O3  UNL     1       0.707   4.598  10.939  1.00  0.00    -0.386 OA
HETATM   18  H18 UNL     1       0.112   4.277  10.238  1.00  0.00     0.211 HD
ENDBRANCH   1  17
BRANCH   1  19
HETATM   19  C11 UNL     1      -1.294   5.505  11.771  1.00  0.00     0.010 C 
HETATM   20  C12 UNL     1      -2.088   6.142  12.649  1.00  0.00    -0.001 C 
BRANCH  20  21
HETATM   21  C13 UNL     1      -3.469   5.768  12.859  1.00  0.00     0.005 C 
HETATM   22  C14 UNL     1      -3.983   4.521  12.899  1.00  0.00    -0.055 C 
HETATM   23  C15 UNL     1      -3.197   3.252  12.686  1.00  0.00     0.046 C 
BRANCH  22  24
HETATM   24  C16 UNL     1      -5.459   4.294  13.210  1.00  0.00     0.154 C 
HETATM   25  O4  UNL     1      -6.011   5.557  13.620  1.00  0.00    -0.375 OA
HETATM   26  C17 UNL     1      -7.357   5.454  14.099  1.00  0.00     0.132 C 
HETATM   27  C20 UNL     1      -8.260   4.966  12.962  1.00  0.00     0.033 C 
HETATM   28  C21 UNL     1      -7.755   3.639  12.405  1.00  0.00     0.009 C 
HETATM   29  C22 UNL     1      -6.270   3.732  12.020  1.00  0.00     0.015 C 
HETATM   30  C23 UNL     1      -5.773   2.366  11.545  1.00  0.00     0.012 C 
BRANCH  26  31
HETATM   31  C18 UNL     1      -7.766   6.838  14.600  1.00  0.00     0.141 C 
BRANCH  31  32
HETATM   32  C19 UNL     1      -8.291   6.789  16.003  1.00  0.00     0.141 C 
HETATM   33  O5  UNL     1      -7.705   7.112  17.023  1.00  0.00    -0.650 OA
BRANCH  32  34
HETATM   34  O6  UNL     1      -9.567   6.357  16.054  1.00  0.00    -0.776 OA
HETATM   35  H29 UNL     1      -9.794   6.385  17.007  1.00  0.00     0.167 HD
ENDBRANCH  32  34
ENDBRANCH  31  32
ENDBRANCH  26  31
ENDBRANCH  22  24
ENDBRANCH  20  21
ENDBRANCH   1  19
TORSDOF 14
ENDMDL
MODEL 5
REMARK minimizedAffinity -7.94505596
REMARK  14 active torsions:
REMARK  status: ('A' for Active; 'I' for Inactive)
REMARK    1  A    between atoms: O1_2  and  C2_3 
REMARK    2  A    between atoms: C2_3  and  C3_4 
REMARK    3  A    between atoms: C2_3  and  C24_30 
REMARK    4  A    between atoms: C3_4  and  C5_6 
REMARK    5  A    between atoms: C6_8  and  C8_10 
REMARK    6  A    between atoms: C8_10  and  C9_11 
REMARK    7  A    between atoms: C9_11  and  O3_13 
REMARK    8  A    between atoms: C9_11  and  C11_14 
REMARK    9  A    between atoms: C12_15  and  C13_16 
REMARK   10  A    between atoms: C14_17  and  C16_19 
REMARK   11  A    between atoms: C17_21  and  C18_22 
REMARK   12  A    between atoms: C18_22  and  C19_23 
REMARK   13  A    between atoms: C19_23  and  O6_25 
REMARK   14  A    between atoms: C24_30  and  O7_32 
ROOT
HETATM    1  C9  UNL     1      -2.857   7.796  15.497  1.00  0.00     0.075 C 
HETATM    2  C10 UNL     1      -3.644   9.085  15.765  1.00  0.00     0.050 C 
ENDROOT
BRANCH   1   3
HETATM    3  C8  UNL     1      -3.752   6.533  15.484  1.00  0.00     0.082 C 
BRANCH   3   4
HETATM    4  C6  UNL     1      -4.425   6.227  14.158  1.00  0.00     0.087 A 
HETATM    5  C5  UNL     1      -4.397   4.791  13.635  1.00  0.00     0.163 A 
HETATM    6  O2  UNL     1      -3.494   5.789  13.146  1.00  0.00    -0.369 OA
HETATM    7  C7  UNL     1      -5.391   7.246  13.621  1.00  0.00     0.049 C 
BRANCH   5   8
HETATM    8  C3  UNL     1      -5.374   4.268  12.617  1.00  0.00     0.045 C 
HETATM    9  C4  UNL     1      -6.679   3.883  13.330  1.00  0.00     0.015 C 
BRANCH   8  10
HETATM   10  C2  UNL     1      -4.802   3.055  11.831  1.00  0.00     0.155 C 
BRANCH  10  11
HETATM   11  O1  UNL     1      -5.870   2.540  11.011  1.00  0.00    -0.388 OA
HETATM   12  C1  UNL     1      -6.013   1.128  11.096  1.00  0.00     0.202 C 
ENDBRANCH  10  11
BRANCH  10  13
HETATM   13  C24 UNL     1      -3.576   3.416  10.940  1.00  0.00     0.143 C 
HETATM   14  C25 UNL     1      -2.412   2.447  11.108  1.00  0.00     0.042 C 
BRANCH  13  15
HETATM   15  O7  UNL     1      -3.901   3.446   9.547  1.00  0.00    -0.393 OA
HETATM   16  H42 UNL     1      -4.511   4.195   9.420  1.00  0.00     0.210 HD
ENDBRANCH  13  15
ENDBRANCH  10  13
ENDBRANCH   8  10
ENDBRANCH   5   8
ENDBRANCH   3   4
ENDBRANCH   1   3
BRANCH   1  17
HETATM   17  O3  UNL     1      -1.897   7.671  16.555  1.00  0.00    -0.386 OA
HETATM   18  H18 UNL     1      -1.240   8.377  16.425  1.00  0.00     0.211 HD
ENDBRANCH   1  17
BRANCH   1  19
HETATM   19  C11 UNL     1      -2.045   7.824  14.215  1.00  0.00     0.010 C 
HETATM   20  C12 UNL     1      -0.882   7.197  13.969  1.00  0.00    -0.001 C 
BRANCH  20  21
HETATM   21  C13 UNL     1      -0.222   7.264  12.684  1.00  0.00     0.005 C 
HETATM   22  C14 UNL     1       0.784   8.088  12.322  1.00  0.00    -0.055 C 
HETATM   23  C15 UNL     1       1.397   9.146  13.202  1.00  0.00     0.046 C 
BRANCH  22  24
HETATM   24  C16 UNL     1       1.426   7.977  10.942  1.00  0.00     0.154 C 
HETATM   25  O4  UNL     1       2.329   6.859  10.977  1.00  0.00    -0.375 OA
HETATM   26  C17 UNL     1       3.123   6.740   9.790  1.00  0.00     0.132 C 
HETATM   27  C20 UNL     1       2.202   6.481   8.593  1.00  0.00     0.033 C 
HETATM   28  C21 UNL     1       1.159   7.586   8.468  1.00  0.00     0.009 C 
HETATM   29  C22 UNL     1       0.409   7.790   9.793  1.00  0.00     0.015 C 
HETATM   30  C23 UNL     1      -0.568   8.959   9.659  1.00  0.00     0.012 C 
BRANCH  26  31
HETATM   31  C18 UNL     1       4.103   5.591  10.016  1.00  0.00     0.141 C 
BRANCH  31  32
HETATM   32  C19 UNL     1       3.678   4.347   9.295  1.00  0.00     0.141 C 
HETATM   33  O5  UNL     1       3.903   4.053   8.133  1.00  0.00    -0.650 OA
BRANCH  32  34
HETATM   34  O6  UNL     1       3.003   3.499  10.097  1.00  0.00    -0.776 OA
HETATM   35  H29 UNL     1       2.799   2.733   9.522  1.00  0.00     0.167 HD
ENDBRANCH  32  34
ENDBRANCH  31  32
ENDBRANCH  26  31
ENDBRANCH  22  24
ENDBRANCH  20  21
ENDBRANCH   1  19
TORSDOF 14
ENDMDL
MODEL 6
REMARK minimizedAffinity -7.94085789
REMARK  14 active torsions:
REMARK  status: ('A' for Active; 'I' for Inactive)
REMARK    1  A    between atoms: O1_2  and  C2_3 
REMARK    2  A    between atoms: C2_3  and  C3_4 
REMARK    3  A    between atoms: C2_3  and  C24_30 
REMARK    4  A    between atoms: C3_4  and  C5_6 
REMARK    5  A    between atoms: C6_8  and  C8_10 
REMARK    6  A    between atoms: C8_10  and  C9_11 
REMARK    7  A    between atoms: C9_11  and  O3_13 
REMARK    8  A    between atoms: C9_11  and  C11_14 
REMARK    9  A    between atoms: C12_15  and  C13_16 
REMARK   10  A    between atoms: C14_17  and  C16_19 
REMARK   11  A    between atoms: C17_21  and  C18_22 
REMARK   12  A    between atoms: C18_22  and  C19_23 
REMARK   13  A    between atoms: C19_23  and  O6_25 
REMARK   14  A    between atoms: C24_30  and  O7_32 
ROOT
HETATM    1  C9  UNL     1       0.482   6.000  11.192  1.00  0.00     0.075 C 
HETATM    2  C10 UNL     1       0.395   7.010  10.042  1.00  0.00     0.050 C 
ENDROOT
BRANCH   1   3
HETATM    3  C8  UNL     1       1.375   6.487  12.359  1.00  0.00     0.082 C 
BRANCH   3   4
HETATM    4  C6  UNL     1       2.676   7.153  11.949  1.00  0.00     0.087 A 
HETATM    5  C5  UNL     1       3.156   8.373  12.734  1.00  0.00     0.163 A 
HETATM    6  O2  UNL     1       2.489   8.501  11.473  1.00  0.00    -0.369 OA
HETATM    7  C7  UNL     1       3.601   6.372  11.057  1.00  0.00     0.049 C 
BRANCH   5   8
HETATM    8  C3  UNL     1       4.589   8.834  12.742  1.00  0.00     0.045 C 
HETATM    9  C4  UNL     1       5.031   9.107  11.296  1.00  0.00     0.015 C 
BRANCH   8  10
HETATM   10  C2  UNL     1       5.530   7.797  13.415  1.00  0.00     0.155 C 
BRANCH  10  11
HETATM   11  O1  UNL     1       6.640   7.589  12.518  1.00  0.00    -0.388 OA
HETATM   12  C1  UNL     1       7.894   7.949  13.084  1.00  0.00     0.202 C 
ENDBRANCH  10  11
BRANCH  10  13
HETATM   13  C24 UNL     1       6.054   8.249  14.811  1.00  0.00     0.143 C 
HETATM   14  C25 UNL     1       5.526   9.617  15.229  1.00  0.00     0.042 C 
BRANCH  13  15
HETATM   15  O7  UNL     1       5.708   7.330  15.850  1.00  0.00    -0.393 OA
HETATM   16  H42 UNL     1       6.202   6.508  15.671  1.00  0.00     0.210 HD
ENDBRANCH  13  15
ENDBRANCH  10  13
ENDBRANCH   8  10
ENDBRANCH   5   8
ENDBRANCH   3   4
ENDBRANCH   1   3
BRANCH   1  17
HETATM   17  O3  UNL     1       1.048   4.800  10.647  1.00  0.00    -0.386 OA
HETATM   18  H18 UNL     1       0.380   4.419  10.050  1.00  0.00     0.211 HD
ENDBRANCH   1  17
BRANCH   1  19
HETATM   19  C11 UNL     1      -0.866   5.590  11.757  1.00  0.00     0.010 C 
HETATM   20  C12 UNL     1      -1.484   4.405  11.622  1.00  0.00    -0.001 C 
BRANCH  20  21
HETATM   21  C13 UNL     1      -2.755   4.117  12.249  1.00  0.00     0.005 C 
HETATM   22  C14 UNL     1      -3.904   3.754  11.641  1.00  0.00    -0.055 C 
HETATM   23  C15 UNL     1      -4.091   3.614  10.152  1.00  0.00     0.046 C 
BRANCH  22  24
HETATM   24  C16 UNL     1      -5.145   3.408  12.459  1.00  0.00     0.154 C 
HETATM   25  O4  UNL     1      -5.759   4.647  12.851  1.00  0.00    -0.375 OA
HETATM   26  C17 UNL     1      -6.849   4.470  13.765  1.00  0.00     0.132 C 
HETATM   27  C20 UNL     1      -7.958   3.666  13.076  1.00  0.00     0.033 C 
HETATM   28  C21 UNL     1      -7.420   2.332  12.571  1.00  0.00     0.009 C 
HETATM   29  C22 UNL     1      -6.170   2.534  11.701  1.00  0.00     0.015 C 
HETATM   30  C23 UNL     1      -5.608   1.175  11.281  1.00  0.00     0.012 C 
BRANCH  26  31
HETATM   31  C18 UNL     1      -7.324   5.862  14.177  1.00  0.00     0.141 C 
BRANCH  31  32
HETATM   32  C19 UNL     1      -7.931   5.860  15.548  1.00  0.00     0.141 C 
HETATM   33  O5  UNL     1      -8.430   6.804  16.135  1.00  0.00    -0.650 OA
BRANCH  32  34
HETATM   34  O6  UNL     1      -7.906   4.636  16.113  1.00  0.00    -0.776 OA
HETATM   35  H29 UNL     1      -8.338   4.763  16.983  1.00  0.00     0.167 HD
ENDBRANCH  32  34
ENDBRANCH  31  32
ENDBRANCH  26  31
ENDBRANCH  22  24
ENDBRANCH  20  21
ENDBRANCH   1  19
TORSDOF 14
ENDMDL
MODEL 7
REMARK minimizedAffinity -7.93147182
REMARK  14 active torsions:
REMARK  status: ('A' for Active; 'I' for Inactive)
REMARK    1  A    between atoms: O1_2  and  C2_3 
REMARK    2  A    between atoms: C2_3  and  C3_4 
REMARK    3  A    between atoms: C2_3  and  C24_30 
REMARK    4  A    between atoms: C3_4  and  C5_6 
REMARK    5  A    between atoms: C6_8  and  C8_10 
REMARK    6  A    between atoms: C8_10  and  C9_11 
REMARK    7  A    between atoms: C9_11  and  O3_13 
REMARK    8  A    between atoms: C9_11  and  C11_14 
REMARK    9  A    between atoms: C12_15  and  C13_16 
REMARK   10  A    between atoms: C14_17  and  C16_19 
REMARK   11  A    between atoms: C17_21  and  C18_22 
REMARK   12  A    between atoms: C18_22  and  C19_23 
REMARK   13  A    between atoms: C19_23  and  O6_25 
REMARK   14  A    between atoms: C24_30  and  O7_32 
ROOT
HETATM    1  C9  UNL     1      -1.375   9.594  14.187  1.00  0.00     0.075 C 
HETATM    2  C10 UNL     1      -1.405   9.878  15.693  1.00  0.00     0.050 C 
ENDROOT
BRANCH   1   3
HETATM    3  C8  UNL     1      -0.013   9.039  13.703  1.00  0.00     0.082 C 
BRANCH   3   4
HETATM    4  C6  UNL     1       0.036   8.618  12.245  1.00  0.00     0.087 A 
HETATM    5  C5  UNL     1       1.027   7.533  11.828  1.00  0.00     0.163 A 
HETATM    6  O2  UNL     1       1.298   8.924  11.617  1.00  0.00    -0.369 OA
HETATM    7  C7  UNL     1      -1.127   9.005  11.375  1.00  0.00     0.049 C 
BRANCH   5   8
HETATM    8  C3  UNL     1       0.875   6.720  10.570  1.00  0.00     0.045 C 
HETATM    9  C4  UNL     1       0.516   5.276  10.950  1.00  0.00     0.015 C 
BRANCH   8  10
HETATM   10  C2  UNL     1       2.162   6.752   9.698  1.00  0.00     0.155 C 
BRANCH  10  11
HETATM   11  O1  UNL     1       2.347   5.423   9.170  1.00  0.00    -0.388 OA
HETATM   12  C1  UNL     1       3.625   4.874   9.467  1.00  0.00     0.202 C 
ENDBRANCH  10  11
BRANCH  10  13
HETATM   13  C24 UNL     1       2.094   7.781   8.530  1.00  0.00     0.143 C 
HETATM   14  C25 UNL     1       1.987   7.121   7.161  1.00  0.00     0.042 C 
BRANCH  13  15
HETATM   15  O7  UNL     1       0.987   8.678   8.653  1.00  0.00    -0.393 OA
HETATM   16  H42 UNL     1       1.160   9.228   9.440  1.00  0.00     0.210 HD
ENDBRANCH  13  15
ENDBRANCH  10  13
ENDBRANCH   8  10
ENDBRANCH   5   8
ENDBRANCH   3   4
ENDBRANCH   1   3
BRANCH   1  17
HETATM   17  O3  UNL     1      -1.628  10.840  13.525  1.00  0.00    -0.386 OA
HETATM   18  H18 UNL     1      -2.557  11.070  13.702  1.00  0.00     0.211 HD
ENDBRANCH   1  17
BRANCH   1  19
HETATM   19  C11 UNL     1      -2.471   8.656  13.715  1.00  0.00     0.010 C 
HETATM   20  C12 UNL     1      -3.799   8.834  13.814  1.00  0.00    -0.001 C 
BRANCH  20  21
HETATM   21  C13 UNL     1      -4.751   7.882  13.282  1.00  0.00     0.005 C 
HETATM   22  C14 UNL     1      -5.161   6.729  13.851  1.00  0.00    -0.055 C 
HETATM   23  C15 UNL     1      -4.661   6.185  15.165  1.00  0.00     0.046 C 
BRANCH  22  24
HETATM   24  C16 UNL     1      -6.236   5.872  13.191  1.00  0.00     0.154 C 
HETATM   25  O4  UNL     1      -5.645   4.597  12.891  1.00  0.00    -0.375 OA
HETATM   26  C17 UNL     1      -6.503   3.747  12.118  1.00  0.00     0.132 C 
HETATM   27  C20 UNL     1      -7.762   3.430  12.932  1.00  0.00     0.033 C 
HETATM   28  C21 UNL     1      -8.468   4.714  13.353  1.00  0.00     0.009 C 
HETATM   29  C22 UNL     1      -7.497   5.671  14.063  1.00  0.00     0.015 C 
HETATM   30  C23 UNL     1      -8.214   6.980  14.396  1.00  0.00     0.012 C 
BRANCH  26  31
HETATM   31  C18 UNL     1      -5.707   2.488  11.782  1.00  0.00     0.141 C 
BRANCH  31  32
HETATM   32  C19 UNL     1      -4.472   2.804  10.993  1.00  0.00     0.141 C 
HETATM   33  O5  UNL     1      -4.353   3.635  10.110  1.00  0.00    -0.650 OA
BRANCH  32  34
HETATM   34  O6  UNL     1      -3.415   2.063  11.384  1.00  0.00    -0.776 OA
HETATM   35  H29 UNL     1      -2.680   2.370  10.813  1.00  0.00     0.167 HD
ENDBRANCH  32  34
ENDBRANCH  31  32
ENDBRANCH  26  31
ENDBRANCH  22  24
ENDBRANCH  20  21
ENDBRANCH   1  19
TORSDOF 14
ENDMDL
MODEL 8
REMARK minimizedAffinity -7.8390584
REMARK  14 active torsions:
REMARK  status: ('A' for Active; 'I' for Inactive)
REMARK    1  A    between atoms: O1_2  and  C2_3 
REMARK    2  A    between atoms: C2_3  and  C3_4 
REMARK    3  A    between atoms: C2_3  and  C24_30 
REMARK    4  A    between atoms: C3_4  and  C5_6 
REMARK    5  A    between atoms: C6_8  and  C8_10 
REMARK    6  A    between atoms: C8_10  and  C9_11 
REMARK    7  A    between atoms: C9_11  and  O3_13 
REMARK    8  A    between atoms: C9_11  and  C11_14 
REMARK    9  A    between atoms: C12_15  and  C13_16 
REMARK   10  A    between atoms: C14_17  and  C16_19 
REMARK   11  A    between atoms: C17_21  and  C18_22 
REMARK   12  A    between atoms: C18_22  and  C19_23 
REMARK   13  A    between atoms: C19_23  and  O6_25 
REMARK   14  A    between atoms: C24_30  and  O7_32 
ROOT
HETATM    1  C9  UNL     1       0.394   7.943  14.636  1.00  0.00     0.075 C 
HETATM    2  C10 UNL     1       1.646   7.088  14.405  1.00  0.00     0.050 C 
ENDROOT
BRANCH   1   3
HETATM    3  C8  UNL     1       0.242   9.086  13.603  1.00  0.00     0.082 C 
BRANCH   3   4
HETATM    4  C6  UNL     1       0.150   8.643  12.153  1.00  0.00     0.087 A 
HETATM    5  C5  UNL     1       1.111   7.566  11.653  1.00  0.00     0.163 A 
HETATM    6  O2  UNL     1       1.336   8.957  11.396  1.00  0.00    -0.369 OA
HETATM    7  C7  UNL     1      -1.101   8.999  11.400  1.00  0.00     0.049 C 
BRANCH   5   8
HETATM    8  C3  UNL     1       0.846   6.732  10.428  1.00  0.00     0.045 C 
HETATM    9  C4  UNL     1       0.386   5.334  10.868  1.00  0.00     0.015 C 
BRANCH   8  10
HETATM   10  C2  UNL     1       2.097   6.633   9.511  1.00  0.00     0.155 C 
BRANCH  10  11
HETATM   11  O1  UNL     1       2.322   5.232   9.253  1.00  0.00    -0.388 OA
HETATM   12  C1  UNL     1       3.677   4.839   9.428  1.00  0.00     0.202 C 
ENDBRANCH  10  11
BRANCH  10  13
HETATM   13  C24 UNL     1       1.941   7.401   8.164  1.00  0.00     0.143 C 
HETATM   14  C25 UNL     1       2.932   8.550   8.017  1.00  0.00     0.042 C 
BRANCH  13  15
HETATM   15  O7  UNL     1       2.109   6.552   7.026  1.00  0.00    -0.393 OA
HETATM   16  H42 UNL     1       1.357   5.931   7.029  1.00  0.00     0.210 HD
ENDBRANCH  13  15
ENDBRANCH  10  13
ENDBRANCH   8  10
ENDBRANCH   5   8
ENDBRANCH   3   4
ENDBRANCH   1   3
BRANCH   1  17
HETATM   17  O3  UNL     1       0.521   8.517  15.944  1.00  0.00    -0.386 OA
HETATM   18  H18 UNL     1       0.429   7.789  16.583  1.00  0.00     0.211 HD
ENDBRANCH   1  17
BRANCH   1  19
HETATM   19  C11 UNL     1      -0.898   7.148  14.668  1.00  0.00     0.010 C 
HETATM   20  C12 UNL     1      -1.987   7.324  13.900  1.00  0.00    -0.001 C 
BRANCH  20  21
HETATM   21  C13 UNL     1      -3.150   6.469  13.994  1.00  0.00     0.005 C 
HETATM   22  C14 UNL     1      -4.419   6.771  13.650  1.00  0.00    -0.055 C 
HETATM   23  C15 UNL     1      -4.881   8.107  13.126  1.00  0.00     0.046 C 
BRANCH  22  24
HETATM   24  C16 UNL     1      -5.523   5.722  13.739  1.00  0.00     0.154 C 
HETATM   25  O4  UNL     1      -6.777   6.401  13.555  1.00  0.00    -0.375 OA
HETATM   26  C17 UNL     1      -7.912   5.555  13.777  1.00  0.00     0.132 C 
HETATM   27  C20 UNL     1      -7.907   4.424  12.743  1.00  0.00     0.033 C 
HETATM   28  C21 UNL     1      -6.599   3.643  12.806  1.00  0.00     0.009 C 
HETATM   29  C22 UNL     1      -5.389   4.584  12.701  1.00  0.00     0.015 C 
HETATM   30  C23 UNL     1      -4.096   3.782  12.852  1.00  0.00     0.012 C 
BRANCH  26  31
HETATM   31  C18 UNL     1      -9.158   6.431  13.660  1.00  0.00     0.141 C 
BRANCH  31  32
HETATM   32  C19 UNL     1      -9.685   6.832  15.005  1.00  0.00     0.141 C 
HETATM   33  O5  UNL     1      -9.037   7.115  15.998  1.00  0.00    -0.650 OA
BRANCH  32  34
HETATM   34  O6  UNL     1     -11.032   6.890  15.027  1.00  0.00    -0.776 OA
HETATM   35  H29 UNL     1     -11.247   7.173  15.940  1.00  0.00     0.167 HD
ENDBRANCH  32  34
ENDBRANCH  31  32
ENDBRANCH  26  31
ENDBRANCH  22  24
ENDBRANCH  20  21
ENDBRANCH   1  19
TORSDOF 14
ENDMDL
MODEL 9
REMARK minimizedAffinity -7.82625771
REMARK  14 active torsions:
REMARK  status: ('A' for Active; 'I' for Inactive)
REMARK    1  A    between atoms: O1_2  and  C2_3 
REMARK    2  A    between atoms: C2_3  and  C3_4 
REMARK    3  A    between atoms: C2_3  and  C24_30 
REMARK    4  A    between atoms: C3_4  and  C5_6 
REMARK    5  A    between atoms: C6_8  and  C8_10 
REMARK    6  A    between atoms: C8_10  and  C9_11 
REMARK    7  A    between atoms: C9_11  and  O3_13 
REMARK    8  A    between atoms: C9_11  and  C11_14 
REMARK    9  A    between atoms: C12_15  and  C13_16 
REMARK   10  A    between atoms: C14_17  and  C16_19 
REMARK   11  A    between atoms: C17_21  and  C18_22 
REMARK   12  A    between atoms: C18_22  and  C19_23 
REMARK   13  A    between atoms: C19_23  and  O6_25 
REMARK   14  A    between atoms: C24_30  and  O7_32 
ROOT
HETATM    1  C9  UNL     1      -0.327   7.833  12.175  1.00  0.00     0.075 C 
HETATM    2  C10 UNL     1       0.823   7.528  13.141  1.00  0.00     0.050 C 
ENDROOT
BRANCH   1   3
HETATM    3  C8  UNL     1       0.023   7.522  10.699  1.00  0.00     0.082 C 
BRANCH   3   4
HETATM    4  C6  UNL     1       1.300   6.728  10.487  1.00  0.00     0.087 A 
HETATM    5  C5  UNL     1       2.528   7.448   9.935  1.00  0.00     0.163 A 
HETATM    6  O2  UNL     1       1.684   6.647   9.100  1.00  0.00    -0.369 OA
HETATM    7  C7  UNL     1       1.406   5.394  11.173  1.00  0.00     0.049 C 
BRANCH   5   8
HETATM    8  C3  UNL     1       3.931   6.928  10.102  1.00  0.00     0.045 C 
HETATM    9  C4  UNL     1       3.943   5.423   9.796  1.00  0.00     0.015 C 
BRANCH   8  10
HETATM   10  C2  UNL     1       4.486   7.201  11.528  1.00  0.00     0.155 C 
BRANCH  10  11
HETATM   11  O1  UNL     1       5.650   6.366  11.695  1.00  0.00    -0.388 OA
HETATM   12  C1  UNL     1       6.444   6.728  12.818  1.00  0.00     0.202 C 
ENDBRANCH  10  11
BRANCH  10  13
HETATM   13  C24 UNL     1       4.864   8.693  11.771  1.00  0.00     0.143 C 
HETATM   14  C25 UNL     1       5.449   9.367  10.535  1.00  0.00     0.042 C 
BRANCH  13  15
HETATM   15  O7  UNL     1       3.747   9.481  12.190  1.00  0.00    -0.393 OA
HETATM   16  H42 UNL     1       3.494   9.157  13.074  1.00  0.00     0.210 HD
ENDBRANCH  13  15
ENDBRANCH  10  13
ENDBRANCH   8  10
ENDBRANCH   5   8
ENDBRANCH   3   4
ENDBRANCH   1   3
BRANCH   1  17
HETATM   17  O3  UNL     1      -0.609   9.234  12.297  1.00  0.00    -0.386 OA
HETATM   18  H18 UNL     1      -1.002   9.367  13.177  1.00  0.00     0.211 HD
ENDBRANCH   1  17
BRANCH   1  19
HETATM   19  C11 UNL     1      -1.626   7.128  12.519  1.00  0.00     0.010 C 
HETATM   20  C12 UNL     1      -1.817   5.812  12.717  1.00  0.00    -0.001 C 
BRANCH  20  21
HETATM   21  C13 UNL     1      -3.102   5.261  13.086  1.00  0.00     0.005 C 
HETATM   22  C14 UNL     1      -3.862   4.406  12.371  1.00  0.00    -0.055 C 
HETATM   23  C15 UNL     1      -3.522   3.880  11.000  1.00  0.00     0.046 C 
BRANCH  22  24
HETATM   24  C16 UNL     1      -5.166   3.855  12.943  1.00  0.00     0.154 C 
HETATM   25  O4  UNL     1      -5.958   4.978  13.364  1.00  0.00    -0.375 OA
HETATM   26  C17 UNL     1      -7.145   4.596  14.071  1.00  0.00     0.132 C 
HETATM   27  C20 UNL     1      -8.050   3.789  13.134  1.00  0.00     0.033 C 
HETATM   28  C21 UNL     1      -7.307   2.579  12.579  1.00  0.00     0.009 C 
HETATM   29  C22 UNL     1      -5.971   2.994  11.943  1.00  0.00     0.015 C 
HETATM   30  C23 UNL     1      -5.215   1.752  11.473  1.00  0.00     0.012 C 
BRANCH  26  31
HETATM   31  C18 UNL     1      -7.818   5.880  14.551  1.00  0.00     0.141 C 
BRANCH  31  32
HETATM   32  C19 UNL     1      -6.929   6.665  15.468  1.00  0.00     0.141 C 
HETATM   33  O5  UNL     1      -6.492   7.789  15.290  1.00  0.00    -0.650 OA
BRANCH  32  34
HETATM   34  O6  UNL     1      -6.652   5.995  16.605  1.00  0.00    -0.776 OA
HETATM   35  H29 UNL     1      -6.086   6.610  17.117  1.00  0.00     0.167 HD
ENDBRANCH  32  34
ENDBRANCH  31  32
ENDBRANCH  26  31
ENDBRANCH  22  24
ENDBRANCH  20  21
ENDBRANCH   1  19
TORSDOF 14
ENDMDL
