MODEL 1
REMARK minimizedAffinity -9.01862812
REMARK  7 active torsions:
REMARK  status: ('A' for Active; 'I' for Inactive)
REMARK    1  A    between atoms: C2_2  and  C4_4 
REMARK    2  A    between atoms: C7_7  and  C8_8 
REMARK    3  A    between atoms: C8_8  and  O2_10 
REMARK    4  A    between atoms: C15_17  and  O3_18 
REMARK    5  A    between atoms: C21_24  and  O4_25 
REMARK    6  A    between atoms: C22_26  and  C24_28 
REMARK    7  A    between atoms: C24_28  and  O5_29 
ROOT
HETATM    1  C4  UNL     1      -6.548   4.073  12.154  1.00  0.00     0.019 C 
HETATM    2  C5  UNL     1      -7.101   2.738  11.583  1.00  0.00     0.011 C 
HETATM    3  C6  UNL     1      -5.902   1.782  11.453  1.00  0.00     0.021 C 
HETATM    4  C7  UNL     1      -4.691   2.717  11.377  1.00  0.00     0.050 C 
HETATM    5  C9  UNL     1      -3.347   2.087  11.751  1.00  0.00     0.022 C 
HETATM    6  C10 UNL     1      -2.263   3.178  11.831  1.00  0.00     0.011 C 
HETATM    7  C11 UNL     1      -2.569   4.365  12.822  1.00  0.00    -0.032 C 
HETATM    8  C12 UNL     1      -2.469   3.721  14.244  1.00  0.00     0.016 C 
HETATM    9  C13 UNL     1      -4.028   4.896  12.575  1.00  0.00     0.003 C 
HETATM   10  C14 UNL     1      -4.423   5.914  13.651  1.00  0.00     0.038 C 
HETATM   11  C15 UNL     1      -3.353   6.969  13.957  1.00  0.00     0.124 C 
HETATM   12  C16 UNL     1      -2.210   7.053  12.914  1.00  0.00     0.032 C 
HETATM   13  C17 UNL     1      -1.192   8.298  13.155  1.00  0.00    -0.033 C 
HETATM   14  C18 UNL     1      -0.684   8.780  11.761  1.00  0.00     0.016 C 
HETATM   15  C19 UNL     1      -1.931   9.524  13.782  1.00  0.00     0.012 C 
HETATM   16  C20 UNL     1      -1.018  10.681  14.198  1.00  0.00     0.033 C 
HETATM   17  C21 UNL     1       0.096  10.230  15.139  1.00  0.00     0.128 C 
HETATM   18  C22 UNL     1       0.949   9.042  14.596  1.00  0.00     0.007 C 
HETATM   19  C23 UNL     1       1.880   9.554  13.476  1.00  0.00     0.020 C 
HETATM   20  C25 UNL     1      -0.019   7.878  14.121  1.00  0.00     0.007 C 
HETATM   21  C26 UNL     1       0.691   6.617  13.601  1.00  0.00     0.007 C 
HETATM   22  C27 UNL     1      -0.278   5.438  13.551  1.00  0.00     0.011 C 
HETATM   23  C28 UNL     1      -1.519   5.629  12.642  1.00  0.00    -0.030 C 
HETATM   24  C29 UNL     1      -1.000   5.641  11.172  1.00  0.00     0.016 C 
HETATM   25  C30 UNL     1      -5.065   3.747  12.465  1.00  0.00     0.017 C 
ENDROOT
BRANCH   4  26
HETATM   26  C8  UNL     1      -4.622   3.268   9.944  1.00  0.00     0.149 C 
HETATM   27  O1  UNL     1      -5.550   3.503   9.189  1.00  0.00    -0.649 OA
BRANCH  26  28
HETATM   28  O2  UNL     1      -3.357   3.479   9.524  1.00  0.00    -0.776 OA
HETATM   29  H11 UNL     1      -3.465   3.819   8.611  1.00  0.00     0.167 HD
ENDBRANCH  26  28
ENDBRANCH   4  26
BRANCH   1  30
HETATM   30  C2  UNL     1      -7.447   4.585  13.268  1.00  0.00    -0.088 C 
HETATM   31  C1  UNL     1      -7.499   4.069  14.509  1.00  0.00     0.014 C 
HETATM   32  C3  UNL     1      -8.341   5.736  12.884  1.00  0.00     0.043 C 
ENDBRANCH   1  30
BRANCH  11  33
HETATM   33  O3  UNL     1      -2.829   6.793  15.269  1.00  0.00    -0.395 OA
HETATM   34  H23 UNL     1      -3.582   6.738  15.882  1.00  0.00     0.210 HD
ENDBRANCH  11  33
BRANCH  18  35
HETATM   35  C24 UNL     1       1.849   8.559  15.784  1.00  0.00     0.176 C 
BRANCH  35  36
HETATM   36  O5  UNL     1       1.276   7.497  16.539  1.00  0.00    -0.400 OA
HETATM   37  H39 UNL     1       1.401   6.676  16.034  1.00  0.00     0.209 HD
ENDBRANCH  35  36
ENDBRANCH  18  35
BRANCH  17  38
HETATM   38  O4  UNL     1      -0.486   9.915  16.409  1.00  0.00    -0.395 OA
HETATM   39  H33 UNL     1      -1.074   9.145  16.302  1.00  0.00     0.210 HD
ENDBRANCH  17  38
TORSDOF 7
ENDMDL
MODEL 2
REMARK minimizedAffinity -8.7368412
REMARK  7 active torsions:
REMARK  status: ('A' for Active; 'I' for Inactive)
REMARK    1  A    between atoms: C2_2  and  C4_4 
REMARK    2  A    between atoms: C7_7  and  C8_8 
REMARK    3  A    between atoms: C8_8  and  O2_10 
REMARK    4  A    between atoms: C15_17  and  O3_18 
REMARK    5  A    between atoms: C21_24  and  O4_25 
REMARK    6  A    between atoms: C22_26  and  C24_28 
REMARK    7  A    between atoms: C24_28  and  O5_29 
ROOT
HETATM    1  C4  UNL     1      -4.287   4.605  13.125  1.00  0.00     0.019 C 
HETATM    2  C5  UNL     1      -5.830   4.429  13.092  1.00  0.00     0.011 C 
HETATM    3  C6  UNL     1      -6.439   5.831  13.265  1.00  0.00     0.021 C 
HETATM    4  C7  UNL     1      -5.330   6.632  13.955  1.00  0.00     0.050 C 
HETATM    5  C9  UNL     1      -5.426   8.152  13.807  1.00  0.00     0.022 C 
HETATM    6  C10 UNL     1      -4.151   8.812  14.365  1.00  0.00     0.011 C 
HETATM    7  C11 UNL     1      -2.797   8.316  13.728  1.00  0.00    -0.032 C 
HETATM    8  C12 UNL     1      -2.825   8.877  12.269  1.00  0.00     0.016 C 
HETATM    9  C13 UNL     1      -2.773   6.745  13.699  1.00  0.00     0.003 C 
HETATM   10  C14 UNL     1      -1.560   6.238  12.909  1.00  0.00     0.038 C 
HETATM   11  C15 UNL     1      -0.238   6.938  13.247  1.00  0.00     0.124 C 
HETATM   12  C16 UNL     1      -0.266   7.781  14.546  1.00  0.00     0.032 C 
HETATM   13  C17 UNL     1       1.190   8.359  14.984  1.00  0.00    -0.033 C 
HETATM   14  C18 UNL     1       1.233   8.419  16.542  1.00  0.00     0.016 C 
HETATM   15  C19 UNL     1       2.337   7.383  14.569  1.00  0.00     0.012 C 
HETATM   16  C20 UNL     1       3.753   7.923  14.792  1.00  0.00     0.033 C 
HETATM   17  C21 UNL     1       3.970   9.274  14.115  1.00  0.00     0.128 C 
HETATM   18  C22 UNL     1       2.916  10.358  14.498  1.00  0.00     0.007 C 
HETATM   19  C23 UNL     1       3.191  10.850  15.935  1.00  0.00     0.020 C 
HETATM   20  C25 UNL     1       1.459   9.757  14.311  1.00  0.00     0.007 C 
HETATM   21  C26 UNL     1       0.312  10.738  14.610  1.00  0.00     0.007 C 
HETATM   22  C27 UNL     1      -1.002  10.218  14.032  1.00  0.00     0.011 C 
HETATM   23  C28 UNL     1      -1.472   8.841  14.566  1.00  0.00    -0.030 C 
HETATM   24  C29 UNL     1      -1.876   9.053  16.057  1.00  0.00     0.016 C 
HETATM   25  C30 UNL     1      -4.098   6.143  13.164  1.00  0.00     0.017 C 
ENDROOT
BRANCH   4  26
HETATM   26  C8  UNL     1      -5.349   6.256  15.445  1.00  0.00     0.149 C 
HETATM   27  O1  UNL     1      -6.320   6.050  16.152  1.00  0.00    -0.649 OA
BRANCH  26  28
HETATM   28  O2  UNL     1      -4.113   6.178  15.982  1.00  0.00    -0.776 OA
HETATM   29  H11 UNL     1      -4.275   5.940  16.918  1.00  0.00     0.167 HD
ENDBRANCH  26  28
ENDBRANCH   4  26
BRANCH   1  30
HETATM   30  C2  UNL     1      -3.638   3.804  12.007  1.00  0.00    -0.088 C 
HETATM   31  C1  UNL     1      -2.600   4.226  11.265  1.00  0.00     0.014 C 
HETATM   32  C3  UNL     1      -4.268   2.461  11.740  1.00  0.00     0.043 C 
ENDBRANCH   1  30
BRANCH  11  33
HETATM   33  O3  UNL     1       0.217   7.718  12.146  1.00  0.00    -0.395 OA
HETATM   34  H23 UNL     1       0.208   7.148  11.357  1.00  0.00     0.210 HD
ENDBRANCH  11  33
BRANCH  18  35
HETATM   35  C24 UNL     1       3.143  11.564  13.526  1.00  0.00     0.176 C 
BRANCH  35  36
HETATM   36  O5  UNL     1       2.598  12.791  14.001  1.00  0.00    -0.400 OA
HETATM   37  H39 UNL     1       3.206  13.142  14.673  1.00  0.00     0.209 HD
ENDBRANCH  35  36
ENDBRANCH  18  35
BRANCH  17  38
HETATM   38  O4  UNL     1       4.013   9.067  12.699  1.00  0.00    -0.395 OA
HETATM   39  H33 UNL     1       3.139   8.756  12.400  1.00  0.00     0.210 HD
ENDBRANCH  17  38
TORSDOF 7
ENDMDL
MODEL 3
REMARK minimizedAffinity -8.07850647
REMARK  7 active torsions:
REMARK  status: ('A' for Active; 'I' for Inactive)
REMARK    1  A    between atoms: C2_2  and  C4_4 
REMARK    2  A    between atoms: C7_7  and  C8_8 
REMARK    3  A    between atoms: C8_8  and  O2_10 
REMARK    4  A    between atoms: C15_17  and  O3_18 
REMARK    5  A    between atoms: C21_24  and  O4_25 
REMARK    6  A    between atoms: C22_26  and  C24_28 
REMARK    7  A    between atoms: C24_28  and  O5_29 
ROOT
HETATM    1  C4  UNL     1      -6.112   5.435  12.862  1.00  0.00     0.019 C 
HETATM    2  C5  UNL     1      -4.593   5.224  13.115  1.00  0.00     0.011 C 
HETATM    3  C6  UNL     1      -4.266   5.921  14.447  1.00  0.00     0.021 C 
HETATM    4  C7  UNL     1      -5.383   6.956  14.606  1.00  0.00     0.050 C 
HETATM    5  C9  UNL     1      -5.629   7.446  16.036  1.00  0.00     0.022 C 
HETATM    6  C10 UNL     1      -6.899   8.316  16.078  1.00  0.00     0.011 C 
HETATM    7  C11 UNL     1      -8.210   7.626  15.537  1.00  0.00    -0.032 C 
HETATM    8  C12 UNL     1      -8.544   6.532  16.604  1.00  0.00     0.016 C 
HETATM    9  C13 UNL     1      -7.915   6.949  14.150  1.00  0.00     0.003 C 
HETATM   10  C14 UNL     1      -9.112   6.107  13.693  1.00  0.00     0.038 C 
HETATM   11  C15 UNL     1     -10.474   6.795  13.844  1.00  0.00     0.124 C 
HETATM   12  C16 UNL     1     -10.403   8.322  14.098  1.00  0.00     0.032 C 
HETATM   13  C17 UNL     1     -11.851   9.061  14.068  1.00  0.00    -0.033 C 
HETATM   14  C18 UNL     1     -11.643  10.502  13.509  1.00  0.00     0.016 C 
HETATM   15  C19 UNL     1     -12.826   8.359  13.068  1.00  0.00     0.012 C 
HETATM   16  C20 UNL     1     -14.265   8.884  13.098  1.00  0.00     0.033 C 
HETATM   17  C21 UNL     1     -14.866   8.845  14.501  1.00  0.00     0.128 C 
HETATM   18  C22 UNL     1     -14.008   9.569  15.584  1.00  0.00     0.007 C 
HETATM   19  C23 UNL     1     -14.133  11.096  15.396  1.00  0.00     0.020 C 
HETATM   20  C25 UNL     1     -12.512   9.049  15.498  1.00  0.00     0.007 C 
HETATM   21  C26 UNL     1     -11.557   9.647  16.546  1.00  0.00     0.007 C 
HETATM   22  C27 UNL     1     -10.281   8.815  16.645  1.00  0.00     0.011 C 
HETATM   23  C28 UNL     1      -9.455   8.696  15.339  1.00  0.00    -0.030 C 
HETATM   24  C29 UNL     1      -8.858  10.108  15.056  1.00  0.00     0.016 C 
HETATM   25  C30 UNL     1      -6.603   6.121  14.162  1.00  0.00     0.017 C 
ENDROOT
BRANCH   4  26
HETATM   26  C8  UNL     1      -5.037   8.151  13.703  1.00  0.00     0.149 C 
HETATM   27  O1  UNL     1      -5.487   8.408  12.600  1.00  0.00    -0.649 OA
BRANCH  26  28
HETATM   28  O2  UNL     1      -4.107   8.966  14.245  1.00  0.00    -0.776 OA
HETATM   29  H11 UNL     1      -3.985   9.666  13.571  1.00  0.00     0.167 HD
ENDBRANCH  26  28
ENDBRANCH   4  26
BRANCH   1  30
HETATM   30  C2  UNL     1      -6.760   4.134  12.417  1.00  0.00    -0.088 C 
HETATM   31  C1  UNL     1      -7.928   3.661  12.884  1.00  0.00     0.014 C 
HETATM   32  C3  UNL     1      -5.974   3.349  11.398  1.00  0.00     0.043 C 
ENDBRANCH   1  30
BRANCH  11  33
HETATM   33  O3  UNL     1     -11.259   6.152  14.844  1.00  0.00    -0.395 OA
HETATM   34  H23 UNL     1     -11.266   5.200  14.645  1.00  0.00     0.210 HD
ENDBRANCH  11  33
BRANCH  18  35
HETATM   35  C24 UNL     1     -14.639   9.204  16.970  1.00  0.00     0.176 C 
BRANCH  35  36
HETATM   36  O5  UNL     1     -14.320   7.889  17.414  1.00  0.00    -0.400 OA
HETATM   37  H39 UNL     1     -13.415   7.909  17.766  1.00  0.00     0.209 HD
ENDBRANCH  35  36
ENDBRANCH  18  35
BRANCH  17  38
HETATM   38  O4  UNL     1     -15.103   7.478  14.852  1.00  0.00    -0.395 OA
HETATM   39  H33 UNL     1     -14.247   7.017  14.916  1.00  0.00     0.210 HD
ENDBRANCH  17  38
TORSDOF 7
ENDMDL
MODEL 4
REMARK minimizedAffinity -7.97463799
REMARK  7 active torsions:
REMARK  status: ('A' for Active; 'I' for Inactive)
REMARK    1  A    between atoms: C2_2  and  C4_4 
REMARK    2  A    between atoms: C7_7  and  C8_8 
REMARK    3  A    between atoms: C8_8  and  O2_10 
REMARK    4  A    between atoms: C15_17  and  O3_18 
REMARK    5  A    between atoms: C21_24  and  O4_25 
REMARK    6  A    between atoms: C22_26  and  C24_28 
REMARK    7  A    between atoms: C24_28  and  O5_29 
ROOT
HETATM    1  C4  UNL     1       2.397   5.839  10.992  1.00  0.00     0.019 C 
HETATM    2  C5  UNL     1       0.857   5.723  10.822  1.00  0.00     0.011 C 
HETATM    3  C6  UNL     1       0.245   6.982  11.461  1.00  0.00     0.021 C 
HETATM    4  C7  UNL     1       1.318   7.453  12.447  1.00  0.00     0.050 C 
HETATM    5  C9  UNL     1       1.237   8.926  12.855  1.00  0.00     0.022 C 
HETATM    6  C10 UNL     1       2.482   9.310  13.676  1.00  0.00     0.011 C 
HETATM    7  C11 UNL     1       3.867   9.046  12.970  1.00  0.00    -0.032 C 
HETATM    8  C12 UNL     1       3.920  10.097  11.813  1.00  0.00     0.016 C 
HETATM    9  C13 UNL     1       3.886   7.592  12.375  1.00  0.00     0.003 C 
HETATM   10  C14 UNL     1       5.137   7.375  11.516  1.00  0.00     0.038 C 
HETATM   11  C15 UNL     1       6.442   7.875  12.148  1.00  0.00     0.124 C 
HETATM   12  C16 UNL     1       6.348   8.192  13.661  1.00  0.00     0.032 C 
HETATM   13  C17 UNL     1       7.780   8.538  14.350  1.00  0.00    -0.033 C 
HETATM   14  C18 UNL     1       7.739   8.031  15.824  1.00  0.00     0.016 C 
HETATM   15  C19 UNL     1       8.944   7.752  13.666  1.00  0.00     0.012 C 
HETATM   16  C20 UNL     1      10.348   8.141  14.139  1.00  0.00     0.033 C 
HETATM   17  C21 UNL     1      10.607   9.640  14.008  1.00  0.00     0.128 C 
HETATM   18  C22 UNL     1       9.538  10.537  14.705  1.00  0.00     0.007 C 
HETATM   19  C23 UNL     1       9.737  10.471  16.235  1.00  0.00     0.020 C 
HETATM   20  C25 UNL     1       8.091  10.079  14.242  1.00  0.00     0.007 C 
HETATM   21  C26 UNL     1       6.933  10.912  14.820  1.00  0.00     0.007 C 
HETATM   22  C27 UNL     1       5.651  10.667  14.029  1.00  0.00     0.011 C 
HETATM   23  C28 UNL     1       5.147   9.202  14.004  1.00  0.00    -0.030 C 
HETATM   24  C29 UNL     1       4.663   8.870  15.449  1.00  0.00     0.016 C 
HETATM   25  C30 UNL     1       2.589   7.254  11.594  1.00  0.00     0.017 C 
ENDROOT
BRANCH   4  26
HETATM   26  C8  UNL     1       1.217   6.565  13.698  1.00  0.00     0.149 C 
HETATM   27  O1  UNL     1       0.245   5.950  14.101  1.00  0.00    -0.649 OA
BRANCH  26  28
HETATM   28  O2  UNL     1       2.369   6.514  14.399  1.00  0.00    -0.776 OA
HETATM   29  H11 UNL     1       2.160   5.928  15.155  1.00  0.00     0.167 HD
ENDBRANCH  26  28
ENDBRANCH   4  26
BRANCH   1  30
HETATM   30  C2  UNL     1       3.101   5.481   9.693  1.00  0.00    -0.088 C 
HETATM   31  C1  UNL     1       3.848   4.378   9.506  1.00  0.00     0.014 C 
HETATM   32  C3  UNL     1       2.938   6.487   8.583  1.00  0.00     0.043 C 
ENDBRANCH   1  30
BRANCH  11  33
HETATM   33  O3  UNL     1       6.959   8.989  11.428  1.00  0.00    -0.395 OA
HETATM   34  H23 UNL     1       6.991   8.743  10.487  1.00  0.00     0.210 HD
ENDBRANCH  11  33
BRANCH  18  35
HETATM   35  C24 UNL     1       9.823  12.008  14.248  1.00  0.00     0.176 C 
BRANCH  35  36
HETATM   36  O5  UNL     1       9.381  12.290  12.924  1.00  0.00    -0.400 OA
HETATM   37  H39 UNL     1       8.419  12.425  12.957  1.00  0.00     0.209 HD
ENDBRANCH  35  36
ENDBRANCH  18  35
BRANCH  17  38
HETATM   38  O4  UNL     1      10.726   9.958  12.617  1.00  0.00    -0.395 OA
HETATM   39  H33 UNL     1       9.868   9.796  12.184  1.00  0.00     0.210 HD
ENDBRANCH  17  38
TORSDOF 7
ENDMDL
MODEL 5
REMARK minimizedAffinity -7.7750802
REMARK  7 active torsions:
REMARK  status: ('A' for Active; 'I' for Inactive)
REMARK    1  A    between atoms: C2_2  and  C4_4 
REMARK    2  A    between atoms: C7_7  and  C8_8 
REMARK    3  A    between atoms: C8_8  and  O2_10 
REMARK    4  A    between atoms: C15_17  and  O3_18 
REMARK    5  A    between atoms: C21_24  and  O4_25 
REMARK    6  A    between atoms: C22_26  and  C24_28 
REMARK    7  A    between atoms: C24_28  and  O5_29 
ROOT
HETATM    1  C4  UNL     1      -5.365   3.933  13.199  1.00  0.00     0.019 C 
HETATM    2  C5  UNL     1      -6.805   3.387  13.000  1.00  0.00     0.011 C 
HETATM    3  C6  UNL     1      -7.756   4.588  13.140  1.00  0.00     0.021 C 
HETATM    4  C7  UNL     1      -6.953   5.601  13.960  1.00  0.00     0.050 C 
HETATM    5  C9  UNL     1      -7.408   7.058  13.837  1.00  0.00     0.022 C 
HETATM    6  C10 UNL     1      -6.397   7.982  14.541  1.00  0.00     0.011 C 
HETATM    7  C11 UNL     1      -4.907   7.862  14.040  1.00  0.00    -0.032 C 
HETATM    8  C12 UNL     1      -4.932   8.468  12.598  1.00  0.00     0.016 C 
HETATM    9  C13 UNL     1      -4.491   6.348  13.977  1.00  0.00     0.003 C 
HETATM   10  C14 UNL     1      -3.120   6.190  13.309  1.00  0.00     0.038 C 
HETATM   11  C15 UNL     1      -2.052   7.175  13.799  1.00  0.00     0.124 C 
HETATM   12  C16 UNL     1      -2.413   7.923  15.106  1.00  0.00     0.032 C 
HETATM   13  C17 UNL     1      -1.195   8.817  15.709  1.00  0.00    -0.033 C 
HETATM   14  C18 UNL     1      -1.319   8.811  17.264  1.00  0.00     0.016 C 
HETATM   15  C19 UNL     1       0.193   8.172  15.395  1.00  0.00     0.012 C 
HETATM   16  C20 UNL     1       1.402   9.030  15.778  1.00  0.00     0.033 C 
HETATM   17  C21 UNL     1       1.342  10.424  15.158  1.00  0.00     0.128 C 
HETATM   18  C22 UNL     1       0.020  11.198  15.452  1.00  0.00     0.007 C 
HETATM   19  C23 UNL     1       0.025  11.674  16.920  1.00  0.00     0.020 C 
HETATM   20  C25 UNL     1      -1.217  10.270  15.099  1.00  0.00     0.007 C 
HETATM   21  C26 UNL     1      -2.595  10.925  15.298  1.00  0.00     0.007 C 
HETATM   22  C27 UNL     1      -3.677  10.128  14.573  1.00  0.00     0.011 C 
HETATM   23  C28 UNL     1      -3.840   8.654  15.023  1.00  0.00    -0.030 C 
HETATM   24  C29 UNL     1      -4.426   8.690  16.468  1.00  0.00     0.016 C 
HETATM   25  C30 UNL     1      -5.568   5.466  13.292  1.00  0.00     0.017 C 
ENDROOT
BRANCH   4  26
HETATM   26  C8  UNL     1      -7.021   5.162  15.431  1.00  0.00     0.149 C 
HETATM   27  O1  UNL     1      -6.262   5.460  16.336  1.00  0.00    -0.649 OA
BRANCH  26  28
HETATM   28  O2  UNL     1      -8.057   4.334  15.684  1.00  0.00    -0.776 OA
HETATM   29  H11 UNL     1      -7.975   4.136  16.639  1.00  0.00     0.167 HD
ENDBRANCH  26  28
ENDBRANCH   4  26
BRANCH   1  30
HETATM   30  C2  UNL     1      -4.433   3.368  12.138  1.00  0.00    -0.088 C 
HETATM   31  C1  UNL     1      -3.231   2.819  12.387  1.00  0.00     0.014 C 
HETATM   32  C3  UNL     1      -4.936   3.488  10.722  1.00  0.00     0.043 C 
ENDBRANCH   1  30
BRANCH  11  33
HETATM   33  O3  UNL     1      -1.700   8.094  12.770  1.00  0.00    -0.395 OA
HETATM   34  H23 UNL     1      -1.491   7.578  11.972  1.00  0.00     0.210 HD
ENDBRANCH  11  33
BRANCH  18  35
HETATM   35  C24 UNL     1       0.035  12.468  14.537  1.00  0.00     0.176 C 
BRANCH  35  36
HETATM   36  O5  UNL     1       1.341  12.980  14.291  1.00  0.00    -0.400 OA
HETATM   37  H39 UNL     1       1.755  12.418  13.615  1.00  0.00     0.209 HD
ENDBRANCH  35  36
ENDBRANCH  18  35
BRANCH  17  38
HETATM   38  O4  UNL     1       1.572  10.302  13.749  1.00  0.00    -0.395 OA
HETATM   39  H33 UNL     1       0.835   9.801  13.354  1.00  0.00     0.210 HD
ENDBRANCH  17  38
TORSDOF 7
ENDMDL
MODEL 6
REMARK minimizedAffinity -7.61514139
REMARK  7 active torsions:
REMARK  status: ('A' for Active; 'I' for Inactive)
REMARK    1  A    between atoms: C2_2  and  C4_4 
REMARK    2  A    between atoms: C7_7  and  C8_8 
REMARK    3  A    between atoms: C8_8  and  O2_10 
REMARK    4  A    between atoms: C15_17  and  O3_18 
REMARK    5  A    between atoms: C21_24  and  O4_25 
REMARK    6  A    between atoms: C22_26  and  C24_28 
REMARK    7  A    between atoms: C24_28  and  O5_29 
ROOT
HETATM    1  C4  UNL     1       3.662   8.456  10.202  1.00  0.00     0.019 C 
HETATM    2  C5  UNL     1       5.212   8.559  10.210  1.00  0.00     0.011 C 
HETATM    3  C6  UNL     1       5.663   8.326  11.662  1.00  0.00     0.021 C 
HETATM    4  C7  UNL     1       4.426   8.678  12.494  1.00  0.00     0.050 C 
HETATM    5  C9  UNL     1       4.385   8.076  13.901  1.00  0.00     0.022 C 
HETATM    6  C10 UNL     1       3.008   8.337  14.540  1.00  0.00     0.011 C 
HETATM    7  C11 UNL     1       1.769   7.812  13.718  1.00  0.00    -0.032 C 
HETATM    8  C12 UNL     1       1.869   6.254  13.816  1.00  0.00     0.016 C 
HETATM    9  C13 UNL     1       1.902   8.265  12.219  1.00  0.00     0.003 C 
HETATM   10  C14 UNL     1       0.818   7.606  11.357  1.00  0.00     0.038 C 
HETATM   11  C15 UNL     1      -0.591   7.643  11.963  1.00  0.00     0.124 C 
HETATM   12  C16 UNL     1      -0.758   8.620  13.152  1.00  0.00     0.032 C 
HETATM   13  C17 UNL     1      -2.296   8.783  13.656  1.00  0.00    -0.033 C 
HETATM   14  C18 UNL     1      -2.480  10.243  14.174  1.00  0.00     0.016 C 
HETATM   15  C19 UNL     1      -3.302   8.627  12.471  1.00  0.00     0.012 C 
HETATM   16  C20 UNL     1      -4.778   8.599  12.880  1.00  0.00     0.033 C 
HETATM   17  C21 UNL     1      -5.067   7.530  13.930  1.00  0.00     0.128 C 
HETATM   18  C22 UNL     1      -4.161   7.617  15.197  1.00  0.00     0.007 C 
HETATM   19  C23 UNL     1      -4.606   8.817  16.060  1.00  0.00     0.020 C 
HETATM   20  C25 UNL     1      -2.641   7.700  14.747  1.00  0.00     0.007 C 
HETATM   21  C26 UNL     1      -1.626   7.744  15.902  1.00  0.00     0.007 C 
HETATM   22  C27 UNL     1      -0.223   7.423  15.394  1.00  0.00     0.011 C 
HETATM   23  C28 UNL     1       0.332   8.377  14.307  1.00  0.00    -0.030 C 
HETATM   24  C29 UNL     1       0.583   9.750  15.001  1.00  0.00     0.016 C 
HETATM   25  C30 UNL     1       3.321   8.011  11.647  1.00  0.00     0.017 C 
ENDROOT
BRANCH   4  26
HETATM   26  C8  UNL     1       4.352  10.210  12.586  1.00  0.00     0.149 C 
HETATM   27  O1  UNL     1       3.373  10.898  12.815  1.00  0.00    -0.649 OA
BRANCH  26  28
HETATM   28  O2  UNL     1       5.542  10.807  12.359  1.00  0.00    -0.776 OA
HETATM   29  H11 UNL     1       5.347  11.763  12.443  1.00  0.00     0.167 HD
ENDBRANCH  26  28
ENDBRANCH   4  26
BRANCH   1  30
HETATM   30  C2  UNL     1       3.195   7.605   9.032  1.00  0.00    -0.088 C 
HETATM   31  C1  UNL     1       3.238   6.261   8.996  1.00  0.00     0.014 C 
HETATM   32  C3  UNL     1       2.684   8.382   7.846  1.00  0.00     0.043 C 
ENDBRANCH   1  30
BRANCH  11  33
HETATM   33  O3  UNL     1      -1.023   6.333  12.318  1.00  0.00    -0.395 OA
HETATM   34  H23 UNL     1      -0.890   5.759  11.544  1.00  0.00     0.210 HD
ENDBRANCH  11  33
BRANCH  18  35
HETATM   35  C24 UNL     1      -4.421   6.311  16.022  1.00  0.00     0.176 C 
BRANCH  35  36
HETATM   36  O5  UNL     1      -5.800   6.059  16.272  1.00  0.00    -0.400 OA
HETATM   37  H39 UNL     1      -6.184   5.691  15.459  1.00  0.00     0.209 HD
ENDBRANCH  35  36
ENDBRANCH  18  35
BRANCH  17  38
HETATM   38  O4  UNL     1      -4.967   6.245  13.306  1.00  0.00    -0.395 OA
HETATM   39  H33 UNL     1      -4.044   6.103  13.027  1.00  0.00     0.210 HD
ENDBRANCH  17  38
TORSDOF 7
ENDMDL
MODEL 7
REMARK minimizedAffinity -7.59691668
REMARK  7 active torsions:
REMARK  status: ('A' for Active; 'I' for Inactive)
REMARK    1  A    between atoms: C2_2  and  C4_4 
REMARK    2  A    between atoms: C7_7  and  C8_8 
REMARK    3  A    between atoms: C8_8  and  O2_10 
REMARK    4  A    between atoms: C15_17  and  O3_18 
REMARK    5  A    between atoms: C21_24  and  O4_25 
REMARK    6  A    between atoms: C22_26  and  C24_28 
REMARK    7  A    between atoms: C24_28  and  O5_29 
ROOT
HETATM    1  C4  UNL     1       1.989   7.220  11.647  1.00  0.00     0.019 C 
HETATM    2  C5  UNL     1       1.608   6.365  10.408  1.00  0.00     0.011 C 
HETATM    3  C6  UNL     1       2.924   5.839   9.811  1.00  0.00     0.021 C 
HETATM    4  C7  UNL     1       3.979   6.828  10.316  1.00  0.00     0.050 C 
HETATM    5  C9  UNL     1       5.419   6.309  10.323  1.00  0.00     0.022 C 
HETATM    6  C10 UNL     1       6.335   7.320  11.040  1.00  0.00     0.011 C 
HETATM    7  C11 UNL     1       5.912   7.690  12.513  1.00  0.00    -0.032 C 
HETATM    8  C12 UNL     1       6.182   6.387  13.335  1.00  0.00     0.016 C 
HETATM    9  C13 UNL     1       4.380   8.039  12.550  1.00  0.00     0.003 C 
HETATM   10  C14 UNL     1       3.899   8.212  13.995  1.00  0.00     0.038 C 
HETATM   11  C15 UNL     1       4.819   9.064  14.878  1.00  0.00     0.124 C 
HETATM   12  C16 UNL     1       5.878   9.887  14.104  1.00  0.00     0.032 C 
HETATM   13  C17 UNL     1       6.715  10.924  15.038  1.00  0.00    -0.033 C 
HETATM   14  C18 UNL     1       7.070  12.171  14.171  1.00  0.00     0.016 C 
HETATM   15  C19 UNL     1       5.839  11.463  16.214  1.00  0.00     0.012 C 
HETATM   16  C20 UNL     1       6.594  12.314  17.239  1.00  0.00     0.033 C 
HETATM   17  C21 UNL     1       7.812  11.590  17.808  1.00  0.00     0.128 C 
HETATM   18  C22 UNL     1       8.799  11.052  16.726  1.00  0.00     0.007 C 
HETATM   19  C23 UNL     1       9.583  12.236  16.119  1.00  0.00     0.020 C 
HETATM   20  C25 UNL     1       7.987  10.221  15.647  1.00  0.00     0.007 C 
HETATM   21  C26 UNL     1       8.845   9.588  14.538  1.00  0.00     0.007 C 
HETATM   22  C27 UNL     1       8.058   8.507  13.801  1.00  0.00     0.011 C 
HETATM   23  C28 UNL     1       6.755   8.981  13.109  1.00  0.00    -0.030 C 
HETATM   24  C29 UNL     1       7.185   9.889  11.917  1.00  0.00     0.016 C 
HETATM   25  C30 UNL     1       3.519   7.006  11.779  1.00  0.00     0.017 C 
ENDROOT
BRANCH   4  26
HETATM   26  C8  UNL     1       3.889   8.087   9.438  1.00  0.00     0.149 C 
HETATM   27  O1  UNL     1       3.220   8.250   8.432  1.00  0.00    -0.649 OA
BRANCH  26  28
HETATM   28  O2  UNL     1       4.680   9.089   9.876  1.00  0.00    -0.776 OA
HETATM   29  H11 UNL     1       4.526   9.810   9.231  1.00  0.00     0.167 HD
ENDBRANCH  26  28
ENDBRANCH   4  26
BRANCH   1  30
HETATM   30  C2  UNL     1       1.087   6.881  12.823  1.00  0.00    -0.088 C 
HETATM   31  C1  UNL     1       0.952   5.654  13.357  1.00  0.00     0.014 C 
HETATM   32  C3  UNL     1       0.289   8.039  13.366  1.00  0.00     0.043 C 
ENDBRANCH   1  30
BRANCH  11  33
HETATM   33  O3  UNL     1       5.433   8.268  15.887  1.00  0.00    -0.395 OA
HETATM   34  H23 UNL     1       4.730   7.768  16.336  1.00  0.00     0.210 HD
ENDBRANCH  11  33
BRANCH  18  35
HETATM   35  C24 UNL     1       9.822  10.133  17.475  1.00  0.00     0.176 C 
BRANCH  35  36
HETATM   36  O5  UNL     1       9.457   8.757  17.477  1.00  0.00    -0.400 OA
HETATM   37  H39 UNL     1       9.679   8.392  16.604  1.00  0.00     0.209 HD
ENDBRANCH  35  36
ENDBRANCH  18  35
BRANCH  17  38
HETATM   38  O4  UNL     1       7.352  10.537  18.663  1.00  0.00    -0.395 OA
HETATM   39  H33 UNL     1       6.878   9.879  18.123  1.00  0.00     0.210 HD
ENDBRANCH  17  38
TORSDOF 7
ENDMDL
MODEL 8
REMARK minimizedAffinity -7.58823252
REMARK  7 active torsions:
REMARK  status: ('A' for Active; 'I' for Inactive)
REMARK    1  A    between atoms: C2_2  and  C4_4 
REMARK    2  A    between atoms: C7_7  and  C8_8 
REMARK    3  A    between atoms: C8_8  and  O2_10 
REMARK    4  A    between atoms: C15_17  and  O3_18 
REMARK    5  A    between atoms: C21_24  and  O4_25 
REMARK    6  A    between atoms: C22_26  and  C24_28 
REMARK    7  A    between atoms: C24_28  and  O5_29 
ROOT
HETATM    1  C4  UNL     1      -2.363   5.157  12.006  1.00  0.00     0.019 C 
HETATM    2  C5  UNL     1      -1.607   4.032  11.246  1.00  0.00     0.011 C 
HETATM    3  C6  UNL     1      -0.141   4.096  11.707  1.00  0.00     0.021 C 
HETATM    4  C7  UNL     1       0.025   5.531  12.214  1.00  0.00     0.050 C 
HETATM    5  C9  UNL     1       1.186   5.757  13.186  1.00  0.00     0.022 C 
HETATM    6  C10 UNL     1       1.109   7.181  13.768  1.00  0.00     0.011 C 
HETATM    7  C11 UNL     1      -0.245   7.546  14.488  1.00  0.00    -0.032 C 
HETATM    8  C12 UNL     1      -0.242   6.677  15.789  1.00  0.00     0.016 C 
HETATM    9  C13 UNL     1      -1.456   7.137  13.574  1.00  0.00     0.003 C 
HETATM   10  C14 UNL     1      -2.782   7.298  14.326  1.00  0.00     0.038 C 
HETATM   11  C15 UNL     1      -2.922   8.614  15.101  1.00  0.00     0.124 C 
HETATM   12  C16 UNL     1      -1.880   9.698  14.729  1.00  0.00     0.032 C 
HETATM   13  C17 UNL     1      -2.160  11.143  15.421  1.00  0.00    -0.033 C 
HETATM   14  C18 UNL     1      -1.674  12.250  14.436  1.00  0.00     0.016 C 
HETATM   15  C19 UNL     1      -3.691  11.394  15.614  1.00  0.00     0.012 C 
HETATM   16  C20 UNL     1      -4.040  12.655  16.410  1.00  0.00     0.033 C 
HETATM   17  C21 UNL     1      -3.348  12.690  17.771  1.00  0.00     0.128 C 
HETATM   18  C22 UNL     1      -1.800  12.509  17.705  1.00  0.00     0.007 C 
HETATM   19  C23 UNL     1      -1.159  13.804  17.163  1.00  0.00     0.020 C 
HETATM   20  C25 UNL     1      -1.461  11.229  16.831  1.00  0.00     0.007 C 
HETATM   21  C26 UNL     1       0.038  10.901  16.718  1.00  0.00     0.007 C 
HETATM   22  C27 UNL     1       0.237   9.473  16.217  1.00  0.00     0.011 C 
HETATM   23  C28 UNL     1      -0.370   9.160  14.826  1.00  0.00    -0.030 C 
HETATM   24  C29 UNL     1       0.471   9.954  13.781  1.00  0.00     0.016 C 
HETATM   25  C30 UNL     1      -1.299   5.710  12.988  1.00  0.00     0.017 C 
ENDROOT
BRANCH   4  26
HETATM   26  C8  UNL     1       0.197   6.438  10.984  1.00  0.00     0.149 C 
HETATM   27  O1  UNL     1      -0.335   7.512  10.768  1.00  0.00    -0.649 OA
BRANCH  26  28
HETATM   28  O2  UNL     1       1.036   5.918  10.064  1.00  0.00    -0.776 OA
HETATM   29  H11 UNL     1       1.046   6.587   9.348  1.00  0.00     0.167 HD
ENDBRANCH  26  28
ENDBRANCH   4  26
BRANCH   1  30
HETATM   30  C2  UNL     1      -3.681   4.632  12.554  1.00  0.00    -0.088 C 
HETATM   31  C1  UNL     1      -4.667   5.403  13.046  1.00  0.00     0.014 C 
HETATM   32  C3  UNL     1      -3.820   3.132  12.545  1.00  0.00     0.043 C 
ENDBRANCH   1  30
BRANCH  11  33
HETATM   33  O3  UNL     1      -2.927   8.377  16.505  1.00  0.00    -0.395 OA
HETATM   34  H23 UNL     1      -3.588   7.687  16.685  1.00  0.00     0.210 HD
ENDBRANCH  11  33
BRANCH  18  35
HETATM   35  C24 UNL     1      -1.312  12.314  19.180  1.00  0.00     0.176 C 
BRANCH  35  36
HETATM   36  O5  UNL     1      -0.255  13.193  19.553  1.00  0.00    -0.400 OA
HETATM   37  H39 UNL     1      -0.648  14.063  19.736  1.00  0.00     0.209 HD
ENDBRANCH  35  36
ENDBRANCH  18  35
BRANCH  17  38
HETATM   38  O4  UNL     1      -3.953  11.701  18.611  1.00  0.00    -0.395 OA
HETATM   39  H33 UNL     1      -3.768  10.819  18.240  1.00  0.00     0.210 HD
ENDBRANCH  17  38
TORSDOF 7
ENDMDL
MODEL 9
REMARK minimizedAffinity -7.42088175
REMARK  7 active torsions:
REMARK  status: ('A' for Active; 'I' for Inactive)
REMARK    1  A    between atoms: C2_2  and  C4_4 
REMARK    2  A    between atoms: C7_7  and  C8_8 
REMARK    3  A    between atoms: C8_8  and  O2_10 
REMARK    4  A    between atoms: C15_17  and  O3_18 
REMARK    5  A    between atoms: C21_24  and  O4_25 
REMARK    6  A    between atoms: C22_26  and  C24_28 
REMARK    7  A    between atoms: C24_28  and  O5_29 
ROOT
HETATM    1  C4  UNL     1       0.945   6.795  11.796  1.00  0.00     0.019 C 
HETATM    2  C5  UNL     1       0.915   5.452  11.016  1.00  0.00     0.011 C 
HETATM    3  C6  UNL     1      -0.513   4.896  11.149  1.00  0.00     0.021 C 
HETATM    4  C7  UNL     1      -1.055   5.569  12.413  1.00  0.00     0.050 C 
HETATM    5  C9  UNL     1      -2.581   5.622  12.529  1.00  0.00     0.022 C 
HETATM    6  C10 UNL     1      -2.983   6.498  13.730  1.00  0.00     0.011 C 
HETATM    7  C11 UNL     1      -2.416   7.969  13.715  1.00  0.00    -0.032 C 
HETATM    8  C12 UNL     1      -3.183   8.670  12.546  1.00  0.00     0.016 C 
HETATM    9  C13 UNL     1      -0.876   7.937  13.403  1.00  0.00     0.003 C 
HETATM   10  C14 UNL     1      -0.338   9.357  13.188  1.00  0.00     0.038 C 
HETATM   11  C15 UNL     1      -0.806  10.382  14.228  1.00  0.00     0.124 C 
HETATM   12  C16 UNL     1      -1.446   9.770  15.498  1.00  0.00     0.032 C 
HETATM   13  C17 UNL     1      -1.762  10.858  16.665  1.00  0.00    -0.033 C 
HETATM   14  C18 UNL     1      -1.588  10.150  18.043  1.00  0.00     0.016 C 
HETATM   15  C19 UNL     1      -0.719  12.021  16.654  1.00  0.00     0.012 C 
HETATM   16  C20 UNL     1      -1.034  13.177  17.608  1.00  0.00     0.033 C 
HETATM   17  C21 UNL     1      -2.430  13.751  17.380  1.00  0.00     0.128 C 
HETATM   18  C22 UNL     1      -3.573  12.690  17.426  1.00  0.00     0.007 C 
HETATM   19  C23 UNL     1      -3.811  12.261  18.890  1.00  0.00     0.020 C 
HETATM   20  C25 UNL     1      -3.198  11.478  16.473  1.00  0.00     0.007 C 
HETATM   21  C26 UNL     1      -4.263  10.371  16.384  1.00  0.00     0.007 C 
HETATM   22  C27 UNL     1      -4.007   9.477  15.174  1.00  0.00     0.011 C 
HETATM   23  C28 UNL     1      -2.638   8.750  15.155  1.00  0.00    -0.030 C 
HETATM   24  C29 UNL     1      -2.680   7.688  16.296  1.00  0.00     0.016 C 
HETATM   25  C30 UNL     1      -0.533   7.008  12.209  1.00  0.00     0.017 C 
ENDROOT
BRANCH   4  26
HETATM   26  C8  UNL     1      -0.471   4.820  13.621  1.00  0.00     0.149 C 
HETATM   27  O1  UNL     1       0.032   3.710  13.640  1.00  0.00    -0.649 OA
BRANCH  26  28
HETATM   28  O2  UNL     1      -0.573   5.520  14.771  1.00  0.00    -0.776 OA
HETATM   29  H11 UNL     1      -0.173   4.931  15.443  1.00  0.00     0.167 HD
ENDBRANCH  26  28
ENDBRANCH   4  26
BRANCH   1  30
HETATM   30  C2  UNL     1       1.651   7.866  10.980  1.00  0.00    -0.088 C 
HETATM   31  C1  UNL     1       2.824   8.434  11.311  1.00  0.00     0.014 C 
HETATM   32  C3  UNL     1       0.920   8.302   9.736  1.00  0.00     0.043 C 
ENDBRANCH   1  30
BRANCH  11  33
HETATM   33  O3  UNL     1      -1.673  11.344  13.636  1.00  0.00    -0.395 OA
HETATM   34  H23 UNL     1      -1.231  11.691  12.842  1.00  0.00     0.210 HD
ENDBRANCH  11  33
BRANCH  18  35
HETATM   35  C24 UNL     1      -4.869  13.408  16.921  1.00  0.00     0.176 C 
BRANCH  35  36
HETATM   36  O5  UNL     1      -4.967  13.477  15.502  1.00  0.00    -0.400 OA
HETATM   37  H39 UNL     1      -5.257  12.605  15.184  1.00  0.00     0.209 HD
ENDBRANCH  35  36
ENDBRANCH  18  35
BRANCH  17  38
HETATM   38  O4  UNL     1      -2.429  14.460  16.137  1.00  0.00    -0.395 OA
HETATM   39  H33 UNL     1      -2.279  13.825  15.413  1.00  0.00     0.210 HD
ENDBRANCH  17  38
TORSDOF 7
ENDMDL
