MODEL 1
REMARK minimizedAffinity -10.2990026
REMARK  5 active torsions:
REMARK  status: ('A' for Active; 'I' for Inactive)
REMARK    1  A    between atoms: N1_2  and  C2_3 
REMARK    2  A    between atoms: C4_5  and  N3_29 
REMARK    3  A    between atoms: C5_7  and  N2_12 
REMARK    4  A    between atoms: C7_9  and  O2_10 
REMARK    5  A    between atoms: C28_35  and  O4_36 
ROOT
HETATM    1  C2  UNL     1      10.096  -3.237  31.540  1.00  0.00     0.257 C 
HETATM    2  C3  UNL     1      10.028  -4.132  30.311  1.00  0.00     0.092 C 
HETATM    3  C4  UNL     1       9.046  -5.270  30.545  1.00  0.00     0.234 C 
HETATM    4  O1  UNL     1       8.750  -5.543  31.908  1.00  0.00    -0.333 OA
HETATM    5  C5  UNL     1       9.780  -5.382  32.914  1.00  0.00     0.168 C 
HETATM    6  C6  UNL     1       8.889  -5.342  34.179  1.00  0.00     0.074 C 
HETATM    7  C7  UNL     1      10.637  -4.069  32.734  1.00  0.00     0.209 C 
ENDROOT
BRANCH   1   8
HETATM    8  N1  UNL     1      10.811  -1.973  31.268  1.00  0.00     0.086 N 
HETATM    9  C1  UNL     1      10.267  -0.785  31.907  1.00  0.00     0.307 C 
HETATM   10  H4  UNL     1      10.848  -1.838  30.256  1.00  0.00     0.316 HD
ENDBRANCH   1   8
BRANCH   7  11
HETATM   11  O2  UNL     1      10.606  -3.255  33.927  1.00  0.00    -0.384 OA
HETATM   12  C8  UNL     1      11.875  -3.088  34.548  1.00  0.00     0.202 C 
ENDBRANCH   7  11
BRANCH   3  13
HETATM   13  N3  UNL     1       9.448  -6.502  29.886  1.00  0.00    -0.316 N 
HETATM   14  C24 UNL     1      10.709  -7.069  29.911  1.00  0.00     0.048 A 
HETATM   15  C19 UNL     1      10.631  -8.276  29.194  1.00  0.00     0.004 A 
HETATM   16  C23 UNL     1      11.905  -6.630  30.505  1.00  0.00     0.030 A 
HETATM   17  C18 UNL     1       9.281  -8.426  28.746  1.00  0.00     0.022 A 
HETATM   18  C20 UNL     1      11.804  -9.052  29.071  1.00  0.00     0.014 A 
HETATM   19  C17 UNL     1       8.493  -9.336  28.030  1.00  0.00     0.057 A 
HETATM   20  C25 UNL     1       8.602  -7.308  29.197  1.00  0.00     0.077 A 
HETATM   21  C16 UNL     1       7.097  -9.179  27.772  1.00  0.00     0.020 A 
HETATM   22  C27 UNL     1       8.897 -10.619  27.437  1.00  0.00     0.255 C 
HETATM   23  C15 UNL     1       6.376  -8.061  28.228  1.00  0.00     0.017 A 
HETATM   24  C28 UNL     1       6.609 -10.392  27.033  1.00  0.00     0.257 C 
HETATM   25  C14 UNL     1       5.025  -7.625  28.203  1.00  0.00     0.004 A 
HETATM   26  C26 UNL     1       7.085  -7.099  28.921  1.00  0.00     0.077 A 
HETATM   27  C9  UNL     1       4.957  -6.406  28.901  1.00  0.00     0.049 A 
HETATM   28  C13 UNL     1       3.842  -8.181  27.669  1.00  0.00     0.014 A 
HETATM   29  N2  UNL     1       6.262  -6.056  29.264  1.00  0.00    -0.308 N 
HETATM   30  C10 UNL     1       3.715  -5.773  29.102  1.00  0.00     0.030 A 
HETATM   31  C11 UNL     1       2.559  -6.350  28.571  1.00  0.00     0.002 A 
HETATM   32  C12 UNL     1       2.618  -7.536  27.854  1.00  0.00     0.001 A 
HETATM   33  N4  UNL     1       7.794 -11.142  26.799  1.00  0.00    -0.326 N 
HETATM   34  H24 UNL     1       7.802 -12.086  26.445  1.00  0.00     0.165 HD
HETATM   35  O3  UNL     1       9.984 -11.155  27.490  1.00  0.00    -0.268 OA
HETATM   36  C21 UNL     1      12.998  -8.619  29.656  1.00  0.00     0.001 A 
HETATM   37  C22 UNL     1      13.046  -7.424  30.365  1.00  0.00     0.002 A 
BRANCH  24  38
HETATM   38  O4  UNL     1       6.080 -10.080  25.773  1.00  0.00    -0.372 OA
HETATM   39  H26 UNL     1       6.843  -9.776  25.252  1.00  0.00     0.212 HD
ENDBRANCH  24  38
ENDBRANCH   3  13
TORSDOF 5
ENDMDL
MODEL 2
REMARK minimizedAffinity -10.2626133
REMARK  5 active torsions:
REMARK  status: ('A' for Active; 'I' for Inactive)
REMARK    1  A    between atoms: N1_2  and  C2_3 
REMARK    2  A    between atoms: C4_5  and  N3_29 
REMARK    3  A    between atoms: C5_7  and  N2_12 
REMARK    4  A    between atoms: C7_9  and  O2_10 
REMARK    5  A    between atoms: C28_35  and  O4_36 
ROOT
HETATM    1  C2  UNL     1      11.618  -7.263  28.079  1.00  0.00     0.257 C 
HETATM    2  C3  UNL     1      10.233  -7.544  28.645  1.00  0.00     0.092 C 
HETATM    3  C4  UNL     1       9.439  -8.411  27.681  1.00  0.00     0.234 C 
HETATM    4  O1  UNL     1       9.909  -8.412  26.339  1.00  0.00    -0.333 OA
HETATM    5  C5  UNL     1      10.482  -7.205  25.778  1.00  0.00     0.168 C 
HETATM    6  C6  UNL     1      11.214  -7.820  24.560  1.00  0.00     0.074 C 
HETATM    7  C7  UNL     1      11.463  -6.456  26.761  1.00  0.00     0.209 C 
ENDROOT
BRANCH   1   8
HETATM    8  N1  UNL     1      12.521  -6.670  29.087  1.00  0.00     0.086 N 
HETATM    9  C1  UNL     1      13.064  -7.591  30.073  1.00  0.00     0.307 C 
HETATM   10  H4  UNL     1      12.022  -5.912  29.556  1.00  0.00     0.316 HD
ENDBRANCH   1   8
BRANCH   7  11
HETATM   11  O2  UNL     1      12.766  -6.277  26.164  1.00  0.00    -0.384 OA
HETATM   12  C8  UNL     1      13.650  -7.375  26.360  1.00  0.00     0.202 C 
ENDBRANCH   7  11
BRANCH   3  13
HETATM   13  N3  UNL     1       8.018  -8.102  27.690  1.00  0.00    -0.316 N 
HETATM   14  C24 UNL     1       7.030  -8.774  26.994  1.00  0.00     0.048 A 
HETATM   15  C19 UNL     1       5.805  -8.177  27.340  1.00  0.00     0.004 A 
HETATM   16  C23 UNL     1       7.107  -9.855  26.098  1.00  0.00     0.030 A 
HETATM   17  C18 UNL     1       6.083  -7.133  28.277  1.00  0.00     0.022 A 
HETATM   18  C20 UNL     1       4.628  -8.689  26.752  1.00  0.00     0.014 A 
HETATM   19  C17 UNL     1       5.398  -6.172  29.033  1.00  0.00     0.057 A 
HETATM   20  C25 UNL     1       7.455  -7.130  28.452  1.00  0.00     0.077 A 
HETATM   21  C16 UNL     1       6.016  -5.253  29.935  1.00  0.00     0.020 A 
HETATM   22  C27 UNL     1       3.950  -5.925  29.092  1.00  0.00     0.255 C 
HETATM   23  C15 UNL     1       7.406  -5.235  30.144  1.00  0.00     0.017 A 
HETATM   24  C28 UNL     1       4.941  -4.437  30.593  1.00  0.00     0.257 C 
HETATM   25  C14 UNL     1       8.315  -4.526  30.973  1.00  0.00     0.004 A 
HETATM   26  C26 UNL     1       8.160  -6.135  29.416  1.00  0.00     0.077 A 
HETATM   27  C9  UNL     1       9.603  -5.033  30.727  1.00  0.00     0.049 A 
HETATM   28  C13 UNL     1       8.146  -3.510  31.940  1.00  0.00     0.014 A 
HETATM   29  N2  UNL     1       9.494  -5.971  29.695  1.00  0.00    -0.308 N 
HETATM   30  C10 UNL     1      10.704  -4.564  31.469  1.00  0.00     0.030 A 
HETATM   31  C11 UNL     1      10.508  -3.565  32.427  1.00  0.00     0.002 A 
HETATM   32  C12 UNL     1       9.247  -3.035  32.656  1.00  0.00     0.001 A 
HETATM   33  N4  UNL     1       3.751  -4.856  29.938  1.00  0.00    -0.326 N 
HETATM   34  H24 UNL     1       2.822  -4.603  30.240  1.00  0.00     0.165 HD
HETATM   35  O3  UNL     1       3.066  -6.534  28.526  1.00  0.00    -0.268 OA
HETATM   36  C21 UNL     1       4.698  -9.761  25.856  1.00  0.00     0.001 A 
HETATM   37  C22 UNL     1       5.922 -10.336  25.537  1.00  0.00     0.002 A 
BRANCH  24  38
HETATM   38  O4  UNL     1       5.073  -3.065  30.339  1.00  0.00    -0.372 OA
HETATM   39  H26 UNL     1       4.893  -2.970  29.388  1.00  0.00     0.212 HD
ENDBRANCH  24  38
ENDBRANCH   3  13
TORSDOF 5
ENDMDL
MODEL 3
REMARK minimizedAffinity -10.1381569
REMARK  5 active torsions:
REMARK  status: ('A' for Active; 'I' for Inactive)
REMARK    1  A    between atoms: N1_2  and  C2_3 
REMARK    2  A    between atoms: C4_5  and  N3_29 
REMARK    3  A    between atoms: C5_7  and  N2_12 
REMARK    4  A    between atoms: C7_9  and  O2_10 
REMARK    5  A    between atoms: C28_35  and  O4_36 
ROOT
HETATM    1  C2  UNL     1       6.851  -8.923  26.053  1.00  0.00     0.257 C 
HETATM    2  C3  UNL     1       7.726  -8.193  27.063  1.00  0.00     0.092 C 
HETATM    3  C4  UNL     1       7.079  -8.229  28.439  1.00  0.00     0.234 C 
HETATM    4  O1  UNL     1       5.683  -8.499  28.445  1.00  0.00    -0.333 OA
HETATM    5  C5  UNL     1       4.851  -8.000  27.369  1.00  0.00     0.168 C 
HETATM    6  C6  UNL     1       3.607  -8.898  27.580  1.00  0.00     0.074 C 
HETATM    7  C7  UNL     1       5.493  -8.178  25.939  1.00  0.00     0.209 C 
ENDROOT
BRANCH   1   8
HETATM    8  N1  UNL     1       7.557  -9.160  24.777  1.00  0.00     0.086 N 
HETATM    9  C1  UNL     1       8.822  -8.462  24.611  1.00  0.00     0.307 C 
HETATM   10  H4  UNL     1       6.924  -8.920  24.012  1.00  0.00     0.316 HD
ENDBRANCH   1   8
BRANCH   7  11
HETATM   11  O2  UNL     1       4.621  -8.924  25.062  1.00  0.00    -0.384 OA
HETATM   12  C8  UNL     1       4.723 -10.336  25.207  1.00  0.00     0.202 C 
ENDBRANCH   7  11
BRANCH   3  13
HETATM   13  N3  UNL     1       7.338  -7.025  29.212  1.00  0.00    -0.316 N 
HETATM   14  C24 UNL     1       6.403  -6.081  29.594  1.00  0.00     0.048 A 
HETATM   15  C19 UNL     1       7.079  -5.124  30.371  1.00  0.00     0.004 A 
HETATM   16  C23 UNL     1       5.025  -5.990  29.329  1.00  0.00     0.030 A 
HETATM   17  C18 UNL     1       8.448  -5.527  30.457  1.00  0.00     0.022 A 
HETATM   18  C20 UNL     1       6.334  -4.040  30.885  1.00  0.00     0.014 A 
HETATM   19  C17 UNL     1       9.646  -5.103  31.047  1.00  0.00     0.057 A 
HETATM   20  C25 UNL     1       8.550  -6.697  29.726  1.00  0.00     0.077 A 
HETATM   21  C16 UNL     1      10.893  -5.792  30.946  1.00  0.00     0.020 A 
HETATM   22  C27 UNL     1       9.875  -3.923  31.894  1.00  0.00     0.255 C 
HETATM   23  C15 UNL     1      11.025  -6.990  30.221  1.00  0.00     0.017 A 
HETATM   24  C28 UNL     1      11.913  -5.054  31.763  1.00  0.00     0.257 C 
HETATM   25  C14 UNL     1      12.057  -7.932  29.966  1.00  0.00     0.004 A 
HETATM   26  C26 UNL     1       9.895  -7.464  29.585  1.00  0.00     0.077 A 
HETATM   27  C9  UNL     1      11.508  -8.965  29.186  1.00  0.00     0.049 A 
HETATM   28  C13 UNL     1      13.411  -8.010  30.361  1.00  0.00     0.014 A 
HETATM   29  N2  UNL     1      10.188  -8.611  28.889  1.00  0.00    -0.308 N 
HETATM   30  C10 UNL     1      12.289 -10.085  28.841  1.00  0.00     0.030 A 
HETATM   31  C11 UNL     1      13.624 -10.141  29.253  1.00  0.00     0.002 A 
HETATM   32  C12 UNL     1      14.184  -9.113  29.996  1.00  0.00     0.001 A 
HETATM   33  N4  UNL     1      11.216  -3.895  32.205  1.00  0.00    -0.326 N 
HETATM   34  H24 UNL     1      11.573  -3.252  32.895  1.00  0.00     0.165 HD
HETATM   35  O3  UNL     1       9.059  -3.112  32.278  1.00  0.00    -0.268 OA
HETATM   36  C21 UNL     1       4.963  -3.942  30.622  1.00  0.00     0.001 A 
HETATM   37  C22 UNL     1       4.319  -4.905  29.855  1.00  0.00     0.002 A 
BRANCH  24  38
HETATM   38  O4  UNL     1      12.994  -4.599  30.996  1.00  0.00    -0.372 OA
HETATM   39  H26 UNL     1      12.617  -3.916  30.415  1.00  0.00     0.212 HD
ENDBRANCH  24  38
ENDBRANCH   3  13
TORSDOF 5
ENDMDL
MODEL 4
REMARK minimizedAffinity -10.0975857
REMARK  5 active torsions:
REMARK  status: ('A' for Active; 'I' for Inactive)
REMARK    1  A    between atoms: N1_2  and  C2_3 
REMARK    2  A    between atoms: C4_5  and  N3_29 
REMARK    3  A    between atoms: C5_7  and  N2_12 
REMARK    4  A    between atoms: C7_9  and  O2_10 
REMARK    5  A    between atoms: C28_35  and  O4_36 
ROOT
HETATM    1  C2  UNL     1      10.167  -4.297  33.392  1.00  0.00     0.257 C 
HETATM    2  C3  UNL     1       9.344  -5.409  32.756  1.00  0.00     0.092 C 
HETATM    3  C4  UNL     1       9.667  -5.519  31.275  1.00  0.00     0.234 C 
HETATM    4  O1  UNL     1      10.270  -4.367  30.699  1.00  0.00    -0.333 OA
HETATM    5  C5  UNL     1       9.891  -3.049  31.166  1.00  0.00     0.168 C 
HETATM    6  C6  UNL     1      11.083  -2.234  30.606  1.00  0.00     0.074 C 
HETATM    7  C7  UNL     1       9.771  -2.946  32.737  1.00  0.00     0.209 C 
ENDROOT
BRANCH   1   8
HETATM    8  N1  UNL     1      10.103  -4.333  34.868  1.00  0.00     0.086 N 
HETATM    9  C1  UNL     1       8.768  -4.386  35.444  1.00  0.00     0.307 C 
HETATM   10  H4  UNL     1      10.606  -3.521  35.229  1.00  0.00     0.316 HD
ENDBRANCH   1   8
BRANCH   7  11
HETATM   11  O2  UNL     1      10.621  -1.903  33.260  1.00  0.00    -0.384 OA
HETATM   12  C8  UNL     1      11.856  -2.372  33.788  1.00  0.00     0.202 C 
ENDBRANCH   7  11
BRANCH   3  13
HETATM   13  N3  UNL     1       8.515  -5.906  30.477  1.00  0.00    -0.316 N 
HETATM   14  C24 UNL     1       7.302  -5.245  30.417  1.00  0.00     0.048 A 
HETATM   15  C19 UNL     1       6.506  -5.931  29.482  1.00  0.00     0.004 A 
HETATM   16  C23 UNL     1       6.839  -4.105  31.097  1.00  0.00     0.030 A 
HETATM   17  C18 UNL     1       7.281  -7.018  28.970  1.00  0.00     0.022 A 
HETATM   18  C20 UNL     1       5.202  -5.448  29.240  1.00  0.00     0.014 A 
HETATM   19  C17 UNL     1       7.166  -8.063  28.044  1.00  0.00     0.057 A 
HETATM   20  C25 UNL     1       8.502  -6.956  29.617  1.00  0.00     0.077 A 
HETATM   21  C16 UNL     1       8.198  -9.004  27.744  1.00  0.00     0.020 A 
HETATM   22  C27 UNL     1       6.020  -8.394  27.185  1.00  0.00     0.255 C 
HETATM   23  C15 UNL     1       9.453  -8.959  28.375  1.00  0.00     0.017 A 
HETATM   24  C28 UNL     1       7.706  -9.921  26.661  1.00  0.00     0.257 C 
HETATM   25  C14 UNL     1      10.679  -9.670  28.284  1.00  0.00     0.004 A 
HETATM   26  C26 UNL     1       9.642  -7.973  29.324  1.00  0.00     0.077 A 
HETATM   27  C9  UNL     1      11.585  -9.077  29.181  1.00  0.00     0.049 A 
HETATM   28  C13 UNL     1      11.107 -10.755  27.488  1.00  0.00     0.014 A 
HETATM   29  N2  UNL     1      10.893  -8.080  29.878  1.00  0.00    -0.308 N 
HETATM   30  C10 UNL     1      12.915  -9.532  29.251  1.00  0.00     0.030 A 
HETATM   31  C11 UNL     1      13.315 -10.601  28.445  1.00  0.00     0.002 A 
HETATM   32  C12 UNL     1      12.422 -11.215  27.579  1.00  0.00     0.001 A 
HETATM   33  N4  UNL     1       6.353  -9.525  26.474  1.00  0.00    -0.326 N 
HETATM   34  H24 UNL     1       5.771  -9.849  25.716  1.00  0.00     0.165 HD
HETATM   35  O3  UNL     1       4.967  -7.799  27.084  1.00  0.00    -0.268 OA
HETATM   36  C21 UNL     1       4.734  -4.316  29.917  1.00  0.00     0.001 A 
HETATM   37  C22 UNL     1       5.544  -3.654  30.831  1.00  0.00     0.002 A 
BRANCH  24  38
HETATM   38  O4  UNL     1       7.677 -11.263  27.062  1.00  0.00    -0.372 OA
HETATM   39  H26 UNL     1       6.981 -11.305  27.741  1.00  0.00     0.212 HD
ENDBRANCH  24  38
ENDBRANCH   3  13
TORSDOF 5
ENDMDL
MODEL 5
REMARK minimizedAffinity -9.96106625
REMARK  5 active torsions:
REMARK  status: ('A' for Active; 'I' for Inactive)
REMARK    1  A    between atoms: N1_2  and  C2_3 
REMARK    2  A    between atoms: C4_5  and  N3_29 
REMARK    3  A    between atoms: C5_7  and  N2_12 
REMARK    4  A    between atoms: C7_9  and  O2_10 
REMARK    5  A    between atoms: C28_35  and  O4_36 
ROOT
HETATM    1  C2  UNL     1      11.545  -7.942  28.325  1.00  0.00     0.257 C 
HETATM    2  C3  UNL     1      10.425  -7.310  29.142  1.00  0.00     0.092 C 
HETATM    3  C4  UNL     1       9.207  -8.219  29.150  1.00  0.00     0.234 C 
HETATM    4  O1  UNL     1       9.161  -9.183  28.106  1.00  0.00    -0.333 OA
HETATM    5  C5  UNL     1       9.692  -8.851  26.799  1.00  0.00     0.168 C 
HETATM    6  C6  UNL     1       9.828 -10.278  26.216  1.00  0.00     0.074 C 
HETATM    7  C7  UNL     1      11.070  -8.083  26.854  1.00  0.00     0.209 C 
ENDROOT
BRANCH   1   8
HETATM    8  N1  UNL     1      12.833  -7.244  28.515  1.00  0.00     0.086 N 
HETATM    9  C1  UNL     1      13.433  -7.365  29.835  1.00  0.00     0.307 C 
HETATM   10  H4  UNL     1      12.699  -6.258  28.282  1.00  0.00     0.316 HD
ENDBRANCH   1   8
BRANCH   7  11
HETATM   11  O2  UNL     1      12.086  -8.777  26.097  1.00  0.00    -0.384 OA
HETATM   12  C8  UNL     1      12.544  -8.064  24.954  1.00  0.00     0.202 C 
ENDBRANCH   7  11
BRANCH   3  13
HETATM   13  N3  UNL     1       7.956  -7.478  29.173  1.00  0.00    -0.316 N 
HETATM   14  C24 UNL     1       6.773  -7.851  28.561  1.00  0.00     0.048 A 
HETATM   15  C19 UNL     1       5.814  -6.876  28.890  1.00  0.00     0.004 A 
HETATM   16  C23 UNL     1       6.463  -8.960  27.754  1.00  0.00     0.030 A 
HETATM   17  C18 UNL     1       6.452  -5.911  29.730  1.00  0.00     0.022 A 
HETATM   18  C20 UNL     1       4.508  -7.030  28.377  1.00  0.00     0.014 A 
HETATM   19  C17 UNL     1       6.141  -4.734  30.424  1.00  0.00     0.057 A 
HETATM   20  C25 UNL     1       7.764  -6.329  29.868  1.00  0.00     0.077 A 
HETATM   21  C16 UNL     1       7.060  -3.996  31.232  1.00  0.00     0.020 A 
HETATM   22  C27 UNL     1       4.848  -4.038  30.502  1.00  0.00     0.255 C 
HETATM   23  C15 UNL     1       8.395  -4.403  31.401  1.00  0.00     0.017 A 
HETATM   24  C28 UNL     1       6.329  -2.839  31.850  1.00  0.00     0.257 C 
HETATM   25  C14 UNL     1       9.521  -3.961  32.145  1.00  0.00     0.004 A 
HETATM   26  C26 UNL     1       8.793  -5.542  30.728  1.00  0.00     0.077 A 
HETATM   27  C9  UNL     1      10.572  -4.864  31.906  1.00  0.00     0.049 A 
HETATM   28  C13 UNL     1       9.728  -2.880  33.030  1.00  0.00     0.014 A 
HETATM   29  N2  UNL     1      10.124  -5.788  30.957  1.00  0.00    -0.308 N 
HETATM   30  C10 UNL     1      11.801  -4.716  32.578  1.00  0.00     0.030 A 
HETATM   31  C11 UNL     1      11.976  -3.642  33.456  1.00  0.00     0.002 A 
HETATM   32  C12 UNL     1      10.957  -2.728  33.675  1.00  0.00     0.001 A 
HETATM   33  N4  UNL     1       5.036  -2.906  31.263  1.00  0.00    -0.326 N 
HETATM   34  H24 UNL     1       4.249  -2.353  31.568  1.00  0.00     0.165 HD
HETATM   35  O3  UNL     1       3.791  -4.375  30.011  1.00  0.00    -0.268 OA
HETATM   36  C21 UNL     1       4.195  -8.128  27.570  1.00  0.00     0.001 A 
HETATM   37  C22 UNL     1       5.160  -9.080  27.266  1.00  0.00     0.002 A 
BRANCH  24  38
HETATM   38  O4  UNL     1       6.870  -1.600  31.481  1.00  0.00    -0.372 OA
HETATM   39  H26 UNL     1       6.680  -1.519  30.530  1.00  0.00     0.212 HD
ENDBRANCH  24  38
ENDBRANCH   3  13
TORSDOF 5
ENDMDL
MODEL 6
REMARK minimizedAffinity -9.80927467
REMARK  5 active torsions:
REMARK  status: ('A' for Active; 'I' for Inactive)
REMARK    1  A    between atoms: N1_2  and  C2_3 
REMARK    2  A    between atoms: C4_5  and  N3_29 
REMARK    3  A    between atoms: C5_7  and  N2_12 
REMARK    4  A    between atoms: C7_9  and  O2_10 
REMARK    5  A    between atoms: C28_35  and  O4_36 
ROOT
HETATM    1  C2  UNL     1       9.632  -4.327  32.343  1.00  0.00     0.257 C 
HETATM    2  C3  UNL     1       9.778  -5.824  32.102  1.00  0.00     0.092 C 
HETATM    3  C4  UNL     1      11.000  -6.099  31.240  1.00  0.00     0.234 C 
HETATM    4  O1  UNL     1      11.474  -4.988  30.489  1.00  0.00    -0.333 OA
HETATM    5  C5  UNL     1      10.531  -4.026  29.958  1.00  0.00     0.168 C 
HETATM    6  C6  UNL     1      11.506  -2.860  29.661  1.00  0.00     0.074 C 
HETATM    7  C7  UNL     1       9.397  -3.624  30.979  1.00  0.00     0.209 C 
ENDROOT
BRANCH   1   8
HETATM    8  N1  UNL     1       8.638  -4.029  33.394  1.00  0.00     0.086 N 
HETATM    9  C1  UNL     1       8.848  -4.688  34.673  1.00  0.00     0.307 C 
HETATM   10  H4  UNL     1       7.710  -4.259  33.032  1.00  0.00     0.316 HD
ENDBRANCH   1   8
BRANCH   7  11
HETATM   11  O2  UNL     1       9.362  -2.195  31.187  1.00  0.00    -0.384 OA
HETATM   12  C8  UNL     1      10.060  -1.761  32.349  1.00  0.00     0.202 C 
ENDBRANCH   7  11
BRANCH   3  13
HETATM   13  N3  UNL     1      10.815  -7.234  30.351  1.00  0.00    -0.316 N 
HETATM   14  C24 UNL     1      11.761  -8.195  30.044  1.00  0.00     0.048 A 
HETATM   15  C19 UNL     1      11.137  -9.130  29.198  1.00  0.00     0.004 A 
HETATM   16  C23 UNL     1      13.104  -8.326  30.438  1.00  0.00     0.030 A 
HETATM   17  C18 UNL     1       9.782  -8.711  29.016  1.00  0.00     0.022 A 
HETATM   18  C20 UNL     1      11.904 -10.222  28.736  1.00  0.00     0.014 A 
HETATM   19  C17 UNL     1       8.619  -9.129  28.357  1.00  0.00     0.057 A 
HETATM   20  C25 UNL     1       9.642  -7.542  29.743  1.00  0.00     0.077 A 
HETATM   21  C16 UNL     1       7.363  -8.450  28.410  1.00  0.00     0.020 A 
HETATM   22  C27 UNL     1       8.426 -10.325  27.525  1.00  0.00     0.255 C 
HETATM   23  C15 UNL     1       7.186  -7.268  29.150  1.00  0.00     0.017 A 
HETATM   24  C28 UNL     1       6.359  -9.245  27.626  1.00  0.00     0.257 C 
HETATM   25  C14 UNL     1       6.108  -6.397  29.458  1.00  0.00     0.004 A 
HETATM   26  C26 UNL     1       8.292  -6.772  29.811  1.00  0.00     0.077 A 
HETATM   27  C9  UNL     1       6.599  -5.396  30.315  1.00  0.00     0.049 A 
HETATM   28  C13 UNL     1       4.741  -6.391  29.103  1.00  0.00     0.014 A 
HETATM   29  N2  UNL     1       7.976  -5.600  30.452  1.00  0.00    -0.308 N 
HETATM   30  C10 UNL     1       5.727  -4.428  30.848  1.00  0.00     0.030 A 
HETATM   31  C11 UNL     1       4.377  -4.450  30.488  1.00  0.00     0.002 A 
HETATM   32  C12 UNL     1       3.888  -5.413  29.618  1.00  0.00     0.001 A 
HETATM   33  N4  UNL     1       7.131 -10.295  27.057  1.00  0.00    -0.326 N 
HETATM   34  H24 UNL     1       6.735 -11.092  26.582  1.00  0.00     0.165 HD
HETATM   35  O3  UNL     1       9.228 -11.202  27.283  1.00  0.00    -0.268 OA
HETATM   36  C21 UNL     1      13.242 -10.355  29.122  1.00  0.00     0.001 A 
HETATM   37  C22 UNL     1      13.831  -9.419  29.963  1.00  0.00     0.002 A 
BRANCH  24  38
HETATM   38  O4  UNL     1       5.818  -8.523  26.553  1.00  0.00    -0.372 OA
HETATM   39  H26 UNL     1       6.559  -8.403  25.935  1.00  0.00     0.212 HD
ENDBRANCH  24  38
ENDBRANCH   3  13
TORSDOF 5
ENDMDL
MODEL 7
REMARK minimizedAffinity -9.6311264
REMARK  5 active torsions:
REMARK  status: ('A' for Active; 'I' for Inactive)
REMARK    1  A    between atoms: N1_2  and  C2_3 
REMARK    2  A    between atoms: C4_5  and  N3_29 
REMARK    3  A    between atoms: C5_7  and  N2_12 
REMARK    4  A    between atoms: C7_9  and  O2_10 
REMARK    5  A    between atoms: C28_35  and  O4_36 
ROOT
HETATM    1  C2  UNL     1      10.979 -10.526  28.185  1.00  0.00     0.257 C 
HETATM    2  C3  UNL     1      10.325  -9.710  29.292  1.00  0.00     0.092 C 
HETATM    3  C4  UNL     1       9.321  -8.733  28.700  1.00  0.00     0.234 C 
HETATM    4  O1  UNL     1       9.497  -8.447  27.318  1.00  0.00    -0.333 OA
HETATM    5  C5  UNL     1      10.832  -8.397  26.759  1.00  0.00     0.168 C 
HETATM    6  C6  UNL     1      10.478  -8.518  25.257  1.00  0.00     0.074 C 
HETATM    7  C7  UNL     1      11.770  -9.564  27.258  1.00  0.00     0.209 C 
ENDROOT
BRANCH   1   8
HETATM    8  N1  UNL     1      11.744 -11.671  28.718  1.00  0.00     0.086 N 
HETATM    9  C1  UNL     1      11.792 -11.784  30.168  1.00  0.00     0.307 C 
HETATM   10  H4  UNL     1      12.693 -11.625  28.341  1.00  0.00     0.316 HD
ENDBRANCH   1   8
BRANCH   7  11
HETATM   11  O2  UNL     1      12.306 -10.316  26.148  1.00  0.00    -0.384 OA
HETATM   12  C8  UNL     1      13.727 -10.375  26.119  1.00  0.00     0.202 C 
ENDBRANCH   7  11
BRANCH   3  13
HETATM   13  N3  UNL     1       9.250  -7.484  29.442  1.00  0.00    -0.316 N 
HETATM   14  C24 UNL     1      10.311  -6.818  30.026  1.00  0.00     0.048 A 
HETATM   15  C19 UNL     1       9.797  -5.634  30.583  1.00  0.00     0.004 A 
HETATM   16  C23 UNL     1      11.675  -7.151  30.109  1.00  0.00     0.030 A 
HETATM   17  C18 UNL     1       8.395  -5.600  30.305  1.00  0.00     0.022 A 
HETATM   18  C20 UNL     1      10.693  -4.769  31.249  1.00  0.00     0.014 A 
HETATM   19  C17 UNL     1       7.288  -4.767  30.518  1.00  0.00     0.057 A 
HETATM   20  C25 UNL     1       8.114  -6.760  29.605  1.00  0.00     0.077 A 
HETATM   21  C16 UNL     1       5.963  -5.039  30.059  1.00  0.00     0.020 A 
HETATM   22  C27 UNL     1       7.247  -3.467  31.202  1.00  0.00     0.255 C 
HETATM   23  C15 UNL     1       5.649  -6.203  29.335  1.00  0.00     0.017 A 
HETATM   24  C28 UNL     1       5.082  -3.882  30.433  1.00  0.00     0.257 C 
HETATM   25  C14 UNL     1       4.500  -6.745  28.702  1.00  0.00     0.004 A 
HETATM   26  C26 UNL     1       6.680  -7.093  29.104  1.00  0.00     0.077 A 
HETATM   27  C9  UNL     1       4.879  -7.954  28.091  1.00  0.00     0.049 A 
HETATM   28  C13 UNL     1       3.168  -6.294  28.571  1.00  0.00     0.014 A 
HETATM   29  N2  UNL     1       6.216  -8.192  28.425  1.00  0.00    -0.308 N 
HETATM   30  C10 UNL     1       3.951  -8.680  27.320  1.00  0.00     0.030 A 
HETATM   31  C11 UNL     1       2.642  -8.205  27.198  1.00  0.00     0.002 A 
HETATM   32  C12 UNL     1       2.248  -7.031  27.823  1.00  0.00     0.001 A 
HETATM   33  N4  UNL     1       5.936  -3.044  31.202  1.00  0.00    -0.326 N 
HETATM   34  H24 UNL     1       5.695  -2.108  31.491  1.00  0.00     0.165 HD
HETATM   35  O3  UNL     1       8.174  -2.846  31.678  1.00  0.00    -0.268 OA
HETATM   36  C21 UNL     1      12.050  -5.097  31.338  1.00  0.00     0.001 A 
HETATM   37  C22 UNL     1      12.532  -6.271  30.773  1.00  0.00     0.002 A 
BRANCH  24  38
HETATM   38  O4  UNL     1       4.027  -4.256  31.276  1.00  0.00    -0.372 OA
HETATM   39  H26 UNL     1       4.455  -4.508  32.113  1.00  0.00     0.212 HD
ENDBRANCH  24  38
ENDBRANCH   3  13
TORSDOF 5
ENDMDL
MODEL 8
REMARK minimizedAffinity -9.55673218
REMARK  5 active torsions:
REMARK  status: ('A' for Active; 'I' for Inactive)
REMARK    1  A    between atoms: N1_2  and  C2_3 
REMARK    2  A    between atoms: C4_5  and  N3_29 
REMARK    3  A    between atoms: C5_7  and  N2_12 
REMARK    4  A    between atoms: C7_9  and  O2_10 
REMARK    5  A    between atoms: C28_35  and  O4_36 
ROOT
HETATM    1  C2  UNL     1      11.462  -9.128  26.812  1.00  0.00     0.257 C 
HETATM    2  C3  UNL     1      10.342  -8.214  27.290  1.00  0.00     0.092 C 
HETATM    3  C4  UNL     1       9.373  -8.989  28.170  1.00  0.00     0.234 C 
HETATM    4  O1  UNL     1       9.416 -10.403  28.019  1.00  0.00    -0.333 OA
HETATM    5  C5  UNL     1       9.686 -10.978  26.717  1.00  0.00     0.168 C 
HETATM    6  C6  UNL     1      10.068 -12.413  27.154  1.00  0.00     0.074 C 
HETATM    7  C7  UNL     1      10.848 -10.252  25.934  1.00  0.00     0.209 C 
ENDROOT
BRANCH   1   8
HETATM    8  N1  UNL     1      12.570  -8.371  26.194  1.00  0.00     0.086 N 
HETATM    9  C1  UNL     1      12.259  -7.009  25.785  1.00  0.00     0.307 C 
HETATM   10  H4  UNL     1      12.915  -8.904  25.394  1.00  0.00     0.316 HD
ENDBRANCH   1   8
BRANCH   7  11
HETATM   11  O2  UNL     1      11.890 -11.181  25.564  1.00  0.00    -0.384 OA
HETATM   12  C8  UNL     1      12.034 -11.360  24.160  1.00  0.00     0.202 C 
ENDBRANCH   7  11
BRANCH   3  13
HETATM   13  N3  UNL     1       8.000  -8.534  28.027  1.00  0.00    -0.316 N 
HETATM   14  C24 UNL     1       7.032  -9.094  27.214  1.00  0.00     0.048 A 
HETATM   15  C19 UNL     1       5.844  -8.375  27.433  1.00  0.00     0.004 A 
HETATM   16  C23 UNL     1       7.097 -10.171  26.312  1.00  0.00     0.030 A 
HETATM   17  C18 UNL     1       6.121  -7.372  28.414  1.00  0.00     0.022 A 
HETATM   18  C20 UNL     1       4.694  -8.757  26.709  1.00  0.00     0.014 A 
HETATM   19  C17 UNL     1       5.459  -6.351  29.108  1.00  0.00     0.057 A 
HETATM   20  C25 UNL     1       7.458  -7.514  28.740  1.00  0.00     0.077 A 
HETATM   21  C16 UNL     1       6.062  -5.508  30.090  1.00  0.00     0.020 A 
HETATM   22  C27 UNL     1       4.047  -5.954  29.011  1.00  0.00     0.255 C 
HETATM   23  C15 UNL     1       7.415  -5.636  30.452  1.00  0.00     0.017 A 
HETATM   24  C28 UNL     1       5.010  -4.588  30.640  1.00  0.00     0.257 C 
HETATM   25  C14 UNL     1       8.293  -5.032  31.390  1.00  0.00     0.004 A 
HETATM   26  C26 UNL     1       8.149  -6.604  29.795  1.00  0.00     0.077 A 
HETATM   27  C9  UNL     1       9.541  -5.669  31.278  1.00  0.00     0.049 A 
HETATM   28  C13 UNL     1       8.123  -4.011  32.351  1.00  0.00     0.014 A 
HETATM   29  N2  UNL     1       9.453  -6.583  30.223  1.00  0.00    -0.308 N 
HETATM   30  C10 UNL     1      10.594  -5.323  32.147  1.00  0.00     0.030 A 
HETATM   31  C11 UNL     1      10.396  -4.316  33.095  1.00  0.00     0.002 A 
HETATM   32  C12 UNL     1       9.179  -3.659  33.193  1.00  0.00     0.001 A 
HETATM   33  N4  UNL     1       3.864  -4.877  29.849  1.00  0.00    -0.326 N 
HETATM   34  H24 UNL     1       2.939  -4.530  30.051  1.00  0.00     0.165 HD
HETATM   35  O3  UNL     1       3.174  -6.463  28.339  1.00  0.00    -0.268 OA
HETATM   36  C21 UNL     1       4.754  -9.824  25.807  1.00  0.00     0.001 A 
HETATM   37  C22 UNL     1       5.940 -10.521  25.614  1.00  0.00     0.002 A 
BRANCH  24  38
HETATM   38  O4  UNL     1       5.310  -3.236  30.428  1.00  0.00    -0.372 OA
HETATM   39  H26 UNL     1       5.249  -3.116  29.464  1.00  0.00     0.212 HD
ENDBRANCH  24  38
ENDBRANCH   3  13
TORSDOF 5
ENDMDL
MODEL 9
REMARK minimizedAffinity -9.32452393
REMARK  5 active torsions:
REMARK  status: ('A' for Active; 'I' for Inactive)
REMARK    1  A    between atoms: N1_2  and  C2_3 
REMARK    2  A    between atoms: C4_5  and  N3_29 
REMARK    3  A    between atoms: C5_7  and  N2_12 
REMARK    4  A    between atoms: C7_9  and  O2_10 
REMARK    5  A    between atoms: C28_35  and  O4_36 
ROOT
HETATM    1  C2  UNL     1      11.365  -8.888  26.602  1.00  0.00     0.257 C 
HETATM    2  C3  UNL     1      10.251  -7.856  26.714  1.00  0.00     0.092 C 
HETATM    3  C4  UNL     1       9.837  -7.689  28.167  1.00  0.00     0.234 C 
HETATM    4  O1  UNL     1      10.196  -8.763  29.027  1.00  0.00    -0.333 OA
HETATM    5  C5  UNL     1      10.190 -10.120  28.522  1.00  0.00     0.168 C 
HETATM    6  C6  UNL     1      11.046 -10.798  29.619  1.00  0.00     0.074 C 
HETATM    7  C7  UNL     1      10.824 -10.261  27.083  1.00  0.00     0.209 C 
ENDROOT
BRANCH   1   8
HETATM    8  N1  UNL     1      11.993  -8.884  25.264  1.00  0.00     0.086 N 
HETATM    9  C1  UNL     1      12.536  -7.610  24.821  1.00  0.00     0.307 C 
HETATM   10  H4  UNL     1      11.307  -9.224  24.588  1.00  0.00     0.316 HD
ENDBRANCH   1   8
BRANCH   7  11
HETATM   11  O2  UNL     1      11.904 -11.220  27.078  1.00  0.00    -0.384 OA
HETATM   12  C8  UNL     1      13.184 -10.652  27.328  1.00  0.00     0.202 C 
ENDBRANCH   7  11
BRANCH   3  13
HETATM   13  N3  UNL     1       8.418  -7.409  28.317  1.00  0.00    -0.316 N 
HETATM   14  C24 UNL     1       7.378  -8.151  27.790  1.00  0.00     0.048 A 
HETATM   15  C19 UNL     1       6.183  -7.555  28.230  1.00  0.00     0.004 A 
HETATM   16  C23 UNL     1       7.384  -9.295  26.971  1.00  0.00     0.030 A 
HETATM   17  C18 UNL     1       6.535  -6.438  29.050  1.00  0.00     0.022 A 
HETATM   18  C20 UNL     1       4.962  -8.133  27.819  1.00  0.00     0.014 A 
HETATM   19  C17 UNL     1       5.912  -5.437  29.808  1.00  0.00     0.057 A 
HETATM   20  C25 UNL     1       7.917  -6.394  29.066  1.00  0.00     0.077 A 
HETATM   21  C16 UNL     1       6.601  -4.441  30.565  1.00  0.00     0.020 A 
HETATM   22  C27 UNL     1       4.474  -5.215  30.014  1.00  0.00     0.255 C 
HETATM   23  C15 UNL     1       8.005  -4.379  30.611  1.00  0.00     0.017 A 
HETATM   24  C28 UNL     1       5.585  -3.599  31.281  1.00  0.00     0.257 C 
HETATM   25  C14 UNL     1       8.981  -3.591  31.277  1.00  0.00     0.004 A 
HETATM   26  C26 UNL     1       8.698  -5.315  29.869  1.00  0.00     0.077 A 
HETATM   27  C9  UNL     1      10.247  -4.089  30.922  1.00  0.00     0.049 A 
HETATM   28  C13 UNL     1       8.893  -2.509  32.181  1.00  0.00     0.014 A 
HETATM   29  N2  UNL     1      10.050  -5.104  29.980  1.00  0.00    -0.308 N 
HETATM   30  C10 UNL     1      11.410  -3.544  31.498  1.00  0.00     0.030 A 
HETATM   31  C11 UNL     1      11.295  -2.480  32.397  1.00  0.00     0.002 A 
HETATM   32  C12 UNL     1      10.054  -1.960  32.730  1.00  0.00     0.001 A 
HETATM   33  N4  UNL     1       4.341  -4.090  30.798  1.00  0.00    -0.326 N 
HETATM   34  H24 UNL     1       3.445  -3.834  31.185  1.00  0.00     0.165 HD
HETATM   35  O3  UNL     1       3.550  -5.882  29.599  1.00  0.00    -0.268 OA
HETATM   36  C21 UNL     1       4.962  -9.268  27.001  1.00  0.00     0.001 A 
HETATM   37  C22 UNL     1       6.158  -9.840  26.585  1.00  0.00     0.002 A 
BRANCH  24  38
HETATM   38  O4  UNL     1       5.648  -2.248  30.914  1.00  0.00    -0.372 OA
HETATM   39  H26 UNL     1       5.359  -2.228  29.986  1.00  0.00     0.212 HD
ENDBRANCH  24  38
ENDBRANCH   3  13
TORSDOF 5
ENDMDL
