MODEL 1
REMARK minimizedAffinity -8.42573738
REMARK CNNscore 0.686155796
REMARK CNNaffinity 6.93318176
REMARK  8 active torsions:
REMARK  status: ('A' for Active; 'I' for Inactive)
REMARK    1  A    between atoms: C4_5  and  C5_6 
REMARK    2  A    between atoms: C5_6  and  O2_7 
REMARK    3  A    between atoms: C5_6  and  C6_8 
REMARK    4  A    between atoms: C6_8  and  O3_10 
REMARK    5  A    between atoms: C6_8  and  C8_11 
REMARK    6  A    between atoms: C15_19  and  C16_20 
REMARK    7  A    between atoms: C38_44  and  C39_45 
REMARK    8  A    between atoms: C39_45  and  O7_46 
ROOT
HETATM    1  C8  UNL     1       5.764  49.208  -7.632  1.00  0.00     0.034 C 
HETATM    2  C9  UNL     1       4.937  49.200  -6.321  1.00  0.00     0.012 C 
HETATM    3  C10 UNL     1       4.499  50.648  -6.050  1.00  0.00     0.044 C 
HETATM    4  C11 UNL     1       4.632  51.361  -7.413  1.00  0.00     0.093 C 
HETATM    5  O4  UNL     1       3.575  50.924  -8.300  1.00  0.00    -0.363 OA
HETATM    6  C12 UNL     1       2.230  51.139  -7.856  1.00  0.00     0.263 C 
HETATM    7  C13 UNL     1       1.476  51.953  -8.822  1.00  0.00    -0.080 C 
HETATM    8  C14 UNL     1       0.844  52.664  -9.557  1.00  0.00    -0.093 C 
HETATM    9  C15 UNL     1       0.129  53.597 -10.465  1.00  0.00     0.121 C 
HETATM   10  C22 UNL     1       0.297  55.070  -9.995  1.00  0.00     0.190 C 
HETATM   11  O5  UNL     1       1.464  55.718 -10.535  1.00  0.00    -0.384 OA
HETATM   12  C23 UNL     1       2.700  55.333  -9.936  1.00  0.00     0.122 C 
HETATM   13  C24 UNL     1       3.815  55.539 -10.960  1.00  0.00     0.033 C 
HETATM   14  C25 UNL     1       5.227  55.555 -10.369  1.00  0.00     0.013 C 
HETATM   15  C26 UNL     1       5.349  54.980  -8.932  1.00  0.00    -0.026 C 
HETATM   16  C27 UNL     1       6.779  55.321  -8.429  1.00  0.00     0.016 C 
HETATM   17  C28 UNL     1       4.351  55.767  -8.031  1.00  0.00     0.071 C 
HETATM   18  C29 UNL     1       2.974  56.086  -8.642  1.00  0.00     0.045 C 
HETATM   19  C30 UNL     1       4.192  55.137  -6.666  1.00  0.00     0.154 C 
HETATM   20  O6  UNL     1       3.932  55.809  -5.672  1.00  0.00    -0.293 OA
HETATM   21  C31 UNL     1       4.314  53.674  -6.512  1.00  0.00     0.057 C 
HETATM   22  C32 UNL     1       4.682  52.879  -7.528  1.00  0.00    -0.036 C 
HETATM   23  C33 UNL     1       5.096  53.413  -8.909  1.00  0.00     0.026 C 
HETATM   24  C34 UNL     1       6.253  52.614  -9.579  1.00  0.00     0.011 C 
HETATM   25  C35 UNL     1       6.180  51.095  -9.390  1.00  0.00     0.014 C 
HETATM   26  C36 UNL     1       5.996  50.741  -7.901  1.00  0.00    -0.002 C 
HETATM   27  C37 UNL     1       7.210  51.289  -7.096  1.00  0.00     0.019 C 
ENDROOT
BRANCH   1  28
HETATM   28  C6  UNL     1       6.960  48.187  -7.695  1.00  0.00     0.087 C 
HETATM   29  C7  UNL     1       6.825  46.958  -6.793  1.00  0.00     0.049 C 
BRANCH  28  30
HETATM   30  C5  UNL     1       7.364  47.756  -9.155  1.00  0.00     0.181 C 
BRANCH  30  31
HETATM   31  C4  UNL     1       8.559  46.810  -9.357  1.00  0.00     0.159 C 
HETATM   32  O1  UNL     1       8.122  45.686 -10.174  1.00  0.00    -0.382 OA
HETATM   33  C3  UNL     1       9.317  44.975 -10.544  1.00  0.00     0.173 C 
HETATM   34  C2  UNL     1      10.481  45.965 -10.467  1.00  0.00     0.014 C 
HETATM   35  C1  UNL     1      11.533  45.541  -9.436  1.00  0.00     0.012 C 
HETATM   36  C38 UNL     1       9.798  47.298 -10.106  1.00  0.00     0.046 C 
BRANCH  36  37
HETATM   37  C39 UNL     1       9.485  48.067 -11.391  1.00  0.00     0.172 C 
BRANCH  37  38
HETATM   38  O7  UNL     1       8.356  48.906 -11.158  1.00  0.00    -0.400 OA
HETATM   39  H52 UNL     1       8.671  49.826 -11.097  1.00  0.00     0.209 HD
ENDBRANCH  37  38
ENDBRANCH  36  37
ENDBRANCH  30  31
BRANCH  30  40
HETATM   40  O2  UNL     1       6.208  47.139  -9.771  1.00  0.00    -0.390 OA
HETATM   41  H9  UNL     1       6.549  46.745 -10.600  1.00  0.00     0.210 HD
ENDBRANCH  30  40
ENDBRANCH  28  30
BRANCH  28  42
HETATM   42  O3  UNL     1       8.122  48.892  -7.203  1.00  0.00    -0.387 OA
HETATM   43  H13 UNL     1       8.384  49.487  -7.936  1.00  0.00     0.210 HD
ENDBRANCH  28  42
ENDBRANCH   1  28
BRANCH   9  44
HETATM   44  C16 UNL     1      -1.330  53.182 -10.586  1.00  0.00    -0.040 A 
HETATM   45  C17 UNL     1      -2.378  54.096 -10.429  1.00  0.00     0.008 A 
HETATM   46  C18 UNL     1      -3.709  53.684 -10.527  1.00  0.00     0.001 A 
HETATM   47  C19 UNL     1      -4.012  52.343 -10.759  1.00  0.00     0.000 A 
HETATM   48  C20 UNL     1      -2.984  51.416 -10.907  1.00  0.00     0.001 A 
HETATM   49  C21 UNL     1      -1.651  51.832 -10.826  1.00  0.00     0.008 A 
ENDBRANCH   9  44
TORSDOF 8
ENDMDL
MODEL 2
REMARK minimizedAffinity -8.36118317
REMARK CNNscore 0.648771703
REMARK CNNaffinity 7.22974062
REMARK  8 active torsions:
REMARK  status: ('A' for Active; 'I' for Inactive)
REMARK    1  A    between atoms: C4_5  and  C5_6 
REMARK    2  A    between atoms: C5_6  and  O2_7 
REMARK    3  A    between atoms: C5_6  and  C6_8 
REMARK    4  A    between atoms: C6_8  and  O3_10 
REMARK    5  A    between atoms: C6_8  and  C8_11 
REMARK    6  A    between atoms: C15_19  and  C16_20 
REMARK    7  A    between atoms: C38_44  and  C39_45 
REMARK    8  A    between atoms: C39_45  and  O7_46 
ROOT
HETATM    1  C8  UNL     1      -2.083  52.978  -9.208  1.00  0.00     0.034 C 
HETATM    2  C9  UNL     1      -1.907  51.979  -8.036  1.00  0.00     0.012 C 
HETATM    3  C10 UNL     1      -0.434  52.041  -7.602  1.00  0.00     0.044 C 
HETATM    4  C11 UNL     1       0.084  53.385  -8.156  1.00  0.00     0.093 C 
HETATM    5  O4  UNL     1      -0.468  54.479  -7.383  1.00  0.00    -0.363 OA
HETATM    6  C12 UNL     1      -0.190  54.481  -5.978  1.00  0.00     0.263 C 
HETATM    7  C13 UNL     1       0.486  55.724  -5.573  1.00  0.00    -0.080 C 
HETATM    8  C14 UNL     1       1.090  56.699  -5.214  1.00  0.00    -0.093 C 
HETATM    9  C15 UNL     1       1.892  57.891  -4.834  1.00  0.00     0.121 C 
HETATM   10  C22 UNL     1       3.414  57.590  -4.922  1.00  0.00     0.190 C 
HETATM   11  O5  UNL     1       3.978  57.843  -6.224  1.00  0.00    -0.384 OA
HETATM   12  C23 UNL     1       3.675  56.862  -7.214  1.00  0.00     0.122 C 
HETATM   13  C24 UNL     1       3.734  57.532  -8.586  1.00  0.00     0.033 C 
HETATM   14  C25 UNL     1       3.827  56.560  -9.765  1.00  0.00     0.013 C 
HETATM   15  C26 UNL     1       3.456  55.089  -9.440  1.00  0.00    -0.026 C 
HETATM   16  C27 UNL     1       3.859  54.237 -10.675  1.00  0.00     0.016 C 
HETATM   17  C28 UNL     1       4.363  54.631  -8.259  1.00  0.00     0.071 C 
HETATM   18  C29 UNL     1       4.600  55.656  -7.133  1.00  0.00     0.045 C 
HETATM   19  C30 UNL     1       3.928  53.302  -7.683  1.00  0.00     0.154 C 
HETATM   20  O6  UNL     1       4.732  52.525  -7.175  1.00  0.00    -0.293 OA
HETATM   21  C31 UNL     1       2.500  52.929  -7.690  1.00  0.00     0.057 C 
HETATM   22  C32 UNL     1       1.571  53.679  -8.303  1.00  0.00    -0.036 C 
HETATM   23  C33 UNL     1       1.908  54.935  -9.123  1.00  0.00     0.026 C 
HETATM   24  C34 UNL     1       1.021  55.125 -10.389  1.00  0.00     0.011 C 
HETATM   25  C35 UNL     1      -0.458  54.769 -10.197  1.00  0.00     0.014 C 
HETATM   26  C36 UNL     1      -0.602  53.366  -9.574  1.00  0.00    -0.002 C 
HETATM   27  C37 UNL     1       0.048  52.319 -10.525  1.00  0.00     0.019 C 
ENDROOT
BRANCH   1  28
HETATM   28  C6  UNL     1      -3.106  52.553 -10.325  1.00  0.00     0.087 C 
HETATM   29  C7  UNL     1      -4.096  53.638 -10.758  1.00  0.00     0.049 C 
BRANCH  28  30
HETATM   30  C5  UNL     1      -2.442  51.879 -11.584  1.00  0.00     0.181 C 
BRANCH  30  31
HETATM   31  C4  UNL     1      -2.650  50.375 -11.830  1.00  0.00     0.159 C 
HETATM   32  O1  UNL     1      -4.080  50.100 -11.811  1.00  0.00    -0.382 OA
HETATM   33  C3  UNL     1      -4.232  48.754 -12.292  1.00  0.00     0.173 C 
HETATM   34  C2  UNL     1      -3.004  48.431 -13.145  1.00  0.00     0.014 C 
HETATM   35  C1  UNL     1      -2.195  47.261 -12.574  1.00  0.00     0.012 C 
HETATM   36  C38 UNL     1      -2.213  49.753 -13.154  1.00  0.00     0.046 C 
BRANCH  36  37
HETATM   37  C39 UNL     1      -2.612  50.569 -14.385  1.00  0.00     0.172 C 
BRANCH  37  38
HETATM   38  O7  UNL     1      -3.028  49.671 -15.413  1.00  0.00    -0.400 OA
HETATM   39  H52 UNL     1      -3.997  49.729 -15.491  1.00  0.00     0.209 HD
ENDBRANCH  37  38
ENDBRANCH  36  37
ENDBRANCH  30  31
BRANCH  30  40
HETATM   40  O2  UNL     1      -2.906  52.583 -12.761  1.00  0.00    -0.390 OA
HETATM   41  H9  UNL     1      -2.605  52.034 -13.514  1.00  0.00     0.210 HD
ENDBRANCH  30  40
ENDBRANCH  28  30
BRANCH  28  42
HETATM   42  O3  UNL     1      -3.920  51.505  -9.753  1.00  0.00    -0.387 OA
HETATM   43  H13 UNL     1      -3.345  50.712  -9.755  1.00  0.00     0.210 HD
ENDBRANCH  28  42
ENDBRANCH   1  28
BRANCH   9  44
HETATM   44  C16 UNL     1       1.468  58.380  -3.457  1.00  0.00    -0.040 A 
HETATM   45  C17 UNL     1       0.121  58.500  -3.094  1.00  0.00     0.008 A 
HETATM   46  C18 UNL     1      -0.241  58.969  -1.828  1.00  0.00     0.001 A 
HETATM   47  C19 UNL     1       0.742  59.351  -0.916  1.00  0.00     0.000 A 
HETATM   48  C20 UNL     1       2.087  59.249  -1.262  1.00  0.00     0.001 A 
HETATM   49  C21 UNL     1       2.449  58.763  -2.523  1.00  0.00     0.008 A 
ENDBRANCH   9  44
TORSDOF 8
ENDMDL
MODEL 3
REMARK minimizedAffinity -8.67010784
REMARK CNNscore 0.569169104
REMARK CNNaffinity 6.81400681
REMARK  8 active torsions:
REMARK  status: ('A' for Active; 'I' for Inactive)
REMARK    1  A    between atoms: C4_5  and  C5_6 
REMARK    2  A    between atoms: C5_6  and  O2_7 
REMARK    3  A    between atoms: C5_6  and  C6_8 
REMARK    4  A    between atoms: C6_8  and  O3_10 
REMARK    5  A    between atoms: C6_8  and  C8_11 
REMARK    6  A    between atoms: C15_19  and  C16_20 
REMARK    7  A    between atoms: C38_44  and  C39_45 
REMARK    8  A    between atoms: C39_45  and  O7_46 
ROOT
HETATM    1  C8  UNL     1       4.167  66.780 -37.413  1.00  0.00     0.034 C 
HETATM    2  C9  UNL     1       3.070  67.179 -36.394  1.00  0.00     0.012 C 
HETATM    3  C10 UNL     1       2.480  68.519 -36.862  1.00  0.00     0.044 C 
HETATM    4  C11 UNL     1       2.864  68.620 -38.353  1.00  0.00     0.093 C 
HETATM    5  O4  UNL     1       2.066  67.692 -39.128  1.00  0.00    -0.363 OA
HETATM    6  C12 UNL     1       0.644  67.851 -39.060  1.00  0.00     0.263 C 
HETATM    7  C13 UNL     1       0.069  68.063 -40.398  1.00  0.00    -0.080 C 
HETATM    8  C14 UNL     1      -0.430  68.296 -41.466  1.00  0.00    -0.093 C 
HETATM    9  C15 UNL     1      -0.989  68.644 -42.798  1.00  0.00     0.121 C 
HETATM   10  C22 UNL     1      -1.036  70.186 -42.996  1.00  0.00     0.190 C 
HETATM   11  O5  UNL     1       0.173  70.733 -43.555  1.00  0.00    -0.384 OA
HETATM   12  C23 UNL     1       1.268  70.833 -42.646  1.00  0.00     0.122 C 
HETATM   13  C24 UNL     1       2.566  70.776 -43.449  1.00  0.00     0.033 C 
HETATM   14  C25 UNL     1       3.805  71.261 -42.691  1.00  0.00     0.013 C 
HETATM   15  C26 UNL     1       3.642  71.356 -41.151  1.00  0.00    -0.026 C 
HETATM   16  C27 UNL     1       4.894  72.100 -40.609  1.00  0.00     0.016 C 
HETATM   17  C28 UNL     1       2.414  72.273 -40.869  1.00  0.00     0.071 C 
HETATM   18  C29 UNL     1       1.189  72.086 -41.784  1.00  0.00     0.045 C 
HETATM   19  C30 UNL     1       1.998  72.243 -39.416  1.00  0.00     0.154 C 
HETATM   20  O6  UNL     1       1.474  73.214 -38.875  1.00  0.00    -0.293 OA
HETATM   21  C31 UNL     1       2.186  71.014 -38.621  1.00  0.00     0.057 C 
HETATM   22  C32 UNL     1       2.830  69.941 -39.109  1.00  0.00    -0.036 C 
HETATM   23  C33 UNL     1       3.503  69.920 -40.490  1.00  0.00     0.026 C 
HETATM   24  C34 UNL     1       4.835  69.113 -40.535  1.00  0.00     0.011 C 
HETATM   25  C35 UNL     1       4.830  67.816 -39.718  1.00  0.00     0.014 C 
HETATM   26  C36 UNL     1       4.343  68.082 -38.280  1.00  0.00    -0.002 C 
HETATM   27  C37 UNL     1       5.303  69.100 -37.599  1.00  0.00     0.019 C 
ENDROOT
BRANCH   1  28
HETATM   28  C6  UNL     1       5.417  66.031 -36.819  1.00  0.00     0.087 C 
HETATM   29  C7  UNL     1       6.704  66.858 -36.740  1.00  0.00     0.049 C 
BRANCH  28  30
HETATM   30  C5  UNL     1       5.143  65.309 -35.447  1.00  0.00     0.181 C 
BRANCH  30  31
HETATM   31  C4  UNL     1       5.704  63.896 -35.215  1.00  0.00     0.159 C 
HETATM   32  O1  UNL     1       6.955  64.014 -34.477  1.00  0.00    -0.382 OA
HETATM   33  C3  UNL     1       7.303  62.680 -34.068  1.00  0.00     0.173 C 
HETATM   34  C2  UNL     1       6.011  61.861 -34.030  1.00  0.00     0.014 C 
HETATM   35  C1  UNL     1       6.043  60.685 -35.014  1.00  0.00     0.012 C 
HETATM   36  C38 UNL     1       4.919  62.893 -34.373  1.00  0.00     0.046 C 
BRANCH  36  37
HETATM   37  C39 UNL     1       4.356  63.477 -33.076  1.00  0.00     0.172 C 
BRANCH  37  38
HETATM   38  O7  UNL     1       4.479  62.501 -32.044  1.00  0.00    -0.400 OA
HETATM   39  H52 UNL     1       5.198  62.779 -31.448  1.00  0.00     0.209 HD
ENDBRANCH  37  38
ENDBRANCH  36  37
ENDBRANCH  30  31
BRANCH  30  40
HETATM   40  O2  UNL     1       5.646  66.158 -34.388  1.00  0.00    -0.390 OA
HETATM   41  H9  UNL     1       5.605  65.604 -33.583  1.00  0.00     0.210 HD
ENDBRANCH  30  40
ENDBRANCH  28  30
BRANCH  28  42
HETATM   42  O3  UNL     1       5.716  64.952 -37.732  1.00  0.00    -0.387 OA
HETATM   43  H13 UNL     1       5.029  64.276 -37.555  1.00  0.00     0.210 HD
ENDBRANCH  28  42
ENDBRANCH   1  28
BRANCH   9  44
HETATM   44  C16 UNL     1      -2.349  67.986 -42.975  1.00  0.00    -0.040 A 
HETATM   45  C17 UNL     1      -3.540  68.643 -42.642  1.00  0.00     0.008 A 
HETATM   46  C18 UNL     1      -4.776  68.009 -42.797  1.00  0.00     0.001 A 
HETATM   47  C19 UNL     1      -4.835  66.696 -43.262  1.00  0.00     0.000 A 
HETATM   48  C20 UNL     1      -3.661  66.022 -43.588  1.00  0.00     0.001 A 
HETATM   49  C21 UNL     1      -2.426  66.663 -43.449  1.00  0.00     0.008 A 
ENDBRANCH   9  44
TORSDOF 8
ENDMDL
MODEL 4
REMARK minimizedAffinity -10.0194674
REMARK CNNscore 0.568526804
REMARK CNNaffinity 6.83777857
REMARK  8 active torsions:
REMARK  status: ('A' for Active; 'I' for Inactive)
REMARK    1  A    between atoms: C4_5  and  C5_6 
REMARK    2  A    between atoms: C5_6  and  O2_7 
REMARK    3  A    between atoms: C5_6  and  C6_8 
REMARK    4  A    between atoms: C6_8  and  O3_10 
REMARK    5  A    between atoms: C6_8  and  C8_11 
REMARK    6  A    between atoms: C15_19  and  C16_20 
REMARK    7  A    between atoms: C38_44  and  C39_45 
REMARK    8  A    between atoms: C39_45  and  O7_46 
ROOT
HETATM    1  C8  UNL     1       5.073  64.961 -35.455  1.00  0.00     0.034 C 
HETATM    2  C9  UNL     1       4.100  65.853 -34.641  1.00  0.00     0.012 C 
HETATM    3  C10 UNL     1       4.253  67.290 -35.165  1.00  0.00     0.044 C 
HETATM    4  C11 UNL     1       4.901  67.134 -36.558  1.00  0.00     0.093 C 
HETATM    5  O4  UNL     1       3.929  66.610 -37.495  1.00  0.00    -0.363 OA
HETATM    6  C12 UNL     1       2.734  67.379 -37.683  1.00  0.00     0.263 C 
HETATM    7  C13 UNL     1       2.560  67.750 -39.096  1.00  0.00    -0.080 C 
HETATM    8  C14 UNL     1       2.413  68.123 -40.229  1.00  0.00    -0.093 C 
HETATM    9  C15 UNL     1       2.312  68.610 -41.629  1.00  0.00     0.121 C 
HETATM   10  C22 UNL     1       2.982  70.005 -41.783  1.00  0.00     0.190 C 
HETATM   11  O5  UNL     1       4.387  69.938 -42.093  1.00  0.00    -0.384 OA
HETATM   12  C23 UNL     1       5.233  69.596 -40.996  1.00  0.00     0.122 C 
HETATM   13  C24 UNL     1       6.494  68.935 -41.550  1.00  0.00     0.033 C 
HETATM   14  C25 UNL     1       7.663  68.868 -40.563  1.00  0.00     0.013 C 
HETATM   15  C26 UNL     1       7.287  69.105 -39.076  1.00  0.00    -0.026 C 
HETATM   16  C27 UNL     1       8.619  69.253 -38.291  1.00  0.00     0.016 C 
HETATM   17  C28 UNL     1       6.558  70.480 -38.995  1.00  0.00     0.071 C 
HETATM   18  C29 UNL     1       5.560  70.800 -40.124  1.00  0.00     0.045 C 
HETATM   19  C30 UNL     1       5.920  70.711 -37.643  1.00  0.00     0.154 C 
HETATM   20  O6  UNL     1       5.789  71.839 -37.177  1.00  0.00    -0.293 OA
HETATM   21  C31 UNL     1       5.404  69.566 -36.867  1.00  0.00     0.057 C 
HETATM   22  C32 UNL     1       5.586  68.296 -37.264  1.00  0.00    -0.036 C 
HETATM   23  C33 UNL     1       6.416  67.911 -38.499  1.00  0.00     0.026 C 
HETATM   24  C34 UNL     1       7.242  66.602 -38.325  1.00  0.00     0.011 C 
HETATM   25  C35 UNL     1       6.522  65.482 -37.565  1.00  0.00     0.014 C 
HETATM   26  C36 UNL     1       5.954  66.008 -36.232  1.00  0.00    -0.002 C 
HETATM   27  C37 UNL     1       7.125  66.538 -35.355  1.00  0.00     0.019 C 
ENDROOT
BRANCH   1  28
HETATM   28  C6  UNL     1       5.738  63.774 -34.666  1.00  0.00     0.087 C 
HETATM   29  C7  UNL     1       4.763  62.770 -34.043  1.00  0.00     0.049 C 
BRANCH  28  30
HETATM   30  C5  UNL     1       6.866  63.021 -35.466  1.00  0.00     0.181 C 
BRANCH  30  31
HETATM   31  C4  UNL     1       8.337  63.227 -35.067  1.00  0.00     0.159 C 
HETATM   32  O1  UNL     1       8.375  63.755 -33.710  1.00  0.00    -0.382 OA
HETATM   33  C3  UNL     1       9.750  63.689 -33.295  1.00  0.00     0.173 C 
HETATM   34  C2  UNL     1      10.429  62.603 -34.133  1.00  0.00     0.014 C 
HETATM   35  C1  UNL     1      11.570  63.163 -34.990  1.00  0.00     0.012 C 
HETATM   36  C38 UNL     1       9.278  62.027 -34.979  1.00  0.00     0.046 C 
BRANCH  36  37
HETATM   37  C39 UNL     1       8.678  60.820 -34.255  1.00  0.00     0.172 C 
BRANCH  37  38
HETATM   38  O7  UNL     1       8.398  61.189 -32.906  1.00  0.00    -0.400 OA
HETATM   39  H52 UNL     1       7.433  61.284 -32.813  1.00  0.00     0.209 HD
ENDBRANCH  37  38
ENDBRANCH  36  37
ENDBRANCH  30  31
BRANCH  30  40
HETATM   40  O2  UNL     1       6.589  61.602 -35.397  1.00  0.00    -0.390 OA
HETATM   41  H9  UNL     1       7.391  61.173 -35.758  1.00  0.00     0.210 HD
ENDBRANCH  30  40
ENDBRANCH  28  30
BRANCH  28  42
HETATM   42  O3  UNL     1       6.436  64.368 -33.549  1.00  0.00    -0.387 OA
HETATM   43  H13 UNL     1       7.240  64.768 -33.940  1.00  0.00     0.210 HD
ENDBRANCH  28  42
ENDBRANCH   1  28
BRANCH   9  44
HETATM   44  C16 UNL     1       0.856  68.606 -42.072  1.00  0.00    -0.040 A 
HETATM   45  C17 UNL     1       0.055  67.462 -41.978  1.00  0.00     0.008 A 
HETATM   46  C18 UNL     1      -1.274  67.480 -42.410  1.00  0.00     0.001 A 
HETATM   47  C19 UNL     1      -1.813  68.639 -42.968  1.00  0.00     0.000 A 
HETATM   48  C20 UNL     1      -1.028  69.784 -43.081  1.00  0.00     0.001 A 
HETATM   49  C21 UNL     1       0.296  69.770 -42.633  1.00  0.00     0.008 A 
ENDBRANCH   9  44
TORSDOF 8
ENDMDL
MODEL 5
REMARK minimizedAffinity -8.19066143
REMARK CNNscore 0.481505513
REMARK CNNaffinity 6.56214952
REMARK  8 active torsions:
REMARK  status: ('A' for Active; 'I' for Inactive)
REMARK    1  A    between atoms: C4_5  and  C5_6 
REMARK    2  A    between atoms: C5_6  and  O2_7 
REMARK    3  A    between atoms: C5_6  and  C6_8 
REMARK    4  A    between atoms: C6_8  and  O3_10 
REMARK    5  A    between atoms: C6_8  and  C8_11 
REMARK    6  A    between atoms: C15_19  and  C16_20 
REMARK    7  A    between atoms: C38_44  and  C39_45 
REMARK    8  A    between atoms: C39_45  and  O7_46 
ROOT
HETATM    1  C8  UNL     1       4.483  65.987 -37.174  1.00  0.00     0.034 C 
HETATM    2  C9  UNL     1       3.328  65.740 -36.169  1.00  0.00     0.012 C 
HETATM    3  C10 UNL     1       2.603  67.081 -35.971  1.00  0.00     0.044 C 
HETATM    4  C11 UNL     1       3.003  67.930 -37.197  1.00  0.00     0.093 C 
HETATM    5  O4  UNL     1       2.328  67.433 -38.378  1.00  0.00    -0.363 OA
HETATM    6  C12 UNL     1       0.896  67.414 -38.343  1.00  0.00     0.263 C 
HETATM    7  C13 UNL     1       0.328  68.201 -39.449  1.00  0.00    -0.080 C 
HETATM    8  C14 UNL     1      -0.173  68.881 -40.304  1.00  0.00    -0.093 C 
HETATM    9  C15 UNL     1      -0.741  69.785 -41.337  1.00  0.00     0.121 C 
HETATM   10  C22 UNL     1      -0.955  71.216 -40.769  1.00  0.00     0.190 C 
HETATM   11  O5  UNL     1       0.198  72.070 -40.906  1.00  0.00    -0.384 OA
HETATM   12  C23 UNL     1       1.256  71.808 -39.987  1.00  0.00     0.122 C 
HETATM   13  C24 UNL     1       2.569  72.263 -40.623  1.00  0.00     0.033 C 
HETATM   14  C25 UNL     1       3.731  72.422 -39.640  1.00  0.00     0.013 C 
HETATM   15  C26 UNL     1       3.529  71.739 -38.261  1.00  0.00    -0.026 C 
HETATM   16  C27 UNL     1       4.680  72.229 -37.340  1.00  0.00     0.016 C 
HETATM   17  C28 UNL     1       2.202  72.291 -37.660  1.00  0.00     0.071 C 
HETATM   18  C29 UNL     1       1.023  72.469 -38.635  1.00  0.00     0.045 C 
HETATM   19  C30 UNL     1       1.764  71.520 -36.435  1.00  0.00     0.154 C 
HETATM   20  O6  UNL     1       1.125  72.053 -35.531  1.00  0.00    -0.293 OA
HETATM   21  C31 UNL     1       2.071  70.081 -36.322  1.00  0.00     0.057 C 
HETATM   22  C32 UNL     1       2.838  69.443 -37.220  1.00  0.00    -0.036 C 
HETATM   23  C33 UNL     1       3.537  70.157 -38.389  1.00  0.00     0.026 C 
HETATM   24  C34 UNL     1       4.950  69.595 -38.723  1.00  0.00     0.011 C 
HETATM   25  C35 UNL     1       5.072  68.069 -38.637  1.00  0.00     0.014 C 
HETATM   26  C36 UNL     1       4.531  67.556 -37.288  1.00  0.00    -0.002 C 
HETATM   27  C37 UNL     1       5.359  68.191 -36.134  1.00  0.00     0.019 C 
ENDROOT
BRANCH   1  28
HETATM   28  C6  UNL     1       5.796  65.155 -36.928  1.00  0.00     0.087 C 
HETATM   29  C7  UNL     1       7.055  65.694 -37.613  1.00  0.00     0.049 C 
BRANCH  28  30
HETATM   30  C5  UNL     1       6.086  64.841 -35.412  1.00  0.00     0.181 C 
BRANCH  30  31
HETATM   31  C4  UNL     1       7.432  64.211 -35.018  1.00  0.00     0.159 C 
HETATM   32  O1  UNL     1       7.678  64.495 -33.611  1.00  0.00    -0.382 OA
HETATM   33  C3  UNL     1       8.802  63.681 -33.232  1.00  0.00     0.173 C 
HETATM   34  C2  UNL     1       8.857  62.497 -34.199  1.00  0.00     0.014 C 
HETATM   35  C1  UNL     1      10.159  62.472 -35.008  1.00  0.00     0.012 C 
HETATM   36  C38 UNL     1       7.612  62.695 -35.084  1.00  0.00     0.046 C 
BRANCH  36  37
HETATM   37  C39 UNL     1       6.443  61.905 -34.491  1.00  0.00     0.172 C 
BRANCH  37  38
HETATM   38  O7  UNL     1       6.905  60.603 -34.138  1.00  0.00    -0.400 OA
HETATM   39  H52 UNL     1       6.973  60.560 -33.167  1.00  0.00     0.209 HD
ENDBRANCH  37  38
ENDBRANCH  36  37
ENDBRANCH  30  31
BRANCH  30  40
HETATM   40  O2  UNL     1       5.947  66.075 -34.669  1.00  0.00    -0.390 OA
HETATM   41  H9  UNL     1       6.293  65.869 -33.776  1.00  0.00     0.210 HD
ENDBRANCH  30  40
ENDBRANCH  28  30
BRANCH  28  42
HETATM   42  O3  UNL     1       5.570  63.855 -37.519  1.00  0.00    -0.387 OA
HETATM   43  H13 UNL     1       4.973  63.396 -36.893  1.00  0.00     0.210 HD
ENDBRANCH  28  42
ENDBRANCH   1  28
BRANCH   9  44
HETATM   44  C16 UNL     1      -2.017  69.182 -41.906  1.00  0.00    -0.040 A 
HETATM   45  C17 UNL     1      -3.285  69.647 -41.539  1.00  0.00     0.008 A 
HETATM   46  C18 UNL     1      -4.442  69.063 -42.062  1.00  0.00     0.001 A 
HETATM   47  C19 UNL     1      -4.345  67.985 -42.941  1.00  0.00     0.000 A 
HETATM   48  C20 UNL     1      -3.093  67.500 -43.309  1.00  0.00     0.001 A 
HETATM   49  C21 UNL     1      -1.935  68.097 -42.799  1.00  0.00     0.008 A 
ENDBRANCH   9  44
TORSDOF 8
ENDMDL
MODEL 6
REMARK minimizedAffinity -8.52139187
REMARK CNNscore 0.429006696
REMARK CNNaffinity 6.53268814
REMARK  8 active torsions:
REMARK  status: ('A' for Active; 'I' for Inactive)
REMARK    1  A    between atoms: C4_5  and  C5_6 
REMARK    2  A    between atoms: C5_6  and  O2_7 
REMARK    3  A    between atoms: C5_6  and  C6_8 
REMARK    4  A    between atoms: C6_8  and  O3_10 
REMARK    5  A    between atoms: C6_8  and  C8_11 
REMARK    6  A    between atoms: C15_19  and  C16_20 
REMARK    7  A    between atoms: C38_44  and  C39_45 
REMARK    8  A    between atoms: C39_45  and  O7_46 
ROOT
HETATM    1  C8  UNL     1       4.577  66.662 -37.402  1.00  0.00     0.034 C 
HETATM    2  C9  UNL     1       3.533  65.755 -36.702  1.00  0.00     0.012 C 
HETATM    3  C10 UNL     1       2.403  66.668 -36.198  1.00  0.00     0.044 C 
HETATM    4  C11 UNL     1       2.545  67.964 -37.024  1.00  0.00     0.093 C 
HETATM    5  O4  UNL     1       2.111  67.727 -38.385  1.00  0.00    -0.363 OA
HETATM    6  C12 UNL     1       0.763  67.275 -38.563  1.00  0.00     0.263 C 
HETATM    7  C13 UNL     1       0.007  68.188 -39.434  1.00  0.00    -0.080 C 
HETATM    8  C14 UNL     1      -0.659  68.940 -40.094  1.00  0.00    -0.093 C 
HETATM    9  C15 UNL     1      -1.456  69.933 -40.860  1.00  0.00     0.121 C 
HETATM   10  C22 UNL     1      -2.145  70.950 -39.907  1.00  0.00     0.190 C 
HETATM   11  O5  UNL     1      -1.330  72.099 -39.603  1.00  0.00    -0.384 OA
HETATM   12  C23 UNL     1      -0.276  71.862 -38.671  1.00  0.00     0.122 C 
HETATM   13  C24 UNL     1       0.836  72.875 -38.938  1.00  0.00     0.033 C 
HETATM   14  C25 UNL     1       1.849  73.023 -37.799  1.00  0.00     0.013 C 
HETATM   15  C26 UNL     1       1.834  71.880 -36.749  1.00  0.00    -0.026 C 
HETATM   16  C27 UNL     1       2.729  72.341 -35.566  1.00  0.00     0.016 C 
HETATM   17  C28 UNL     1       0.379  71.772 -36.201  1.00  0.00     0.071 C 
HETATM   18  C29 UNL     1      -0.759  71.917 -37.229  1.00  0.00     0.045 C 
HETATM   19  C30 UNL     1       0.175  70.535 -35.356  1.00  0.00     0.154 C 
HETATM   20  O6  UNL     1      -0.633  70.510 -34.432  1.00  0.00    -0.293 OA
HETATM   21  C31 UNL     1       0.932  69.304 -35.659  1.00  0.00     0.057 C 
HETATM   22  C32 UNL     1       1.896  69.272 -36.593  1.00  0.00    -0.036 C 
HETATM   23  C33 UNL     1       2.362  70.516 -37.365  1.00  0.00     0.026 C 
HETATM   24  C34 UNL     1       3.892  70.548 -37.654  1.00  0.00     0.011 C 
HETATM   25  C35 UNL     1       4.503  69.195 -38.036  1.00  0.00     0.014 C 
HETATM   26  C36 UNL     1       4.114  68.114 -37.009  1.00  0.00    -0.002 C 
HETATM   27  C37 UNL     1       4.649  68.528 -35.608  1.00  0.00     0.019 C 
ENDROOT
BRANCH   1  28
HETATM   28  C6  UNL     1       6.081  66.224 -37.246  1.00  0.00     0.087 C 
HETATM   29  C7  UNL     1       7.106  67.142 -37.917  1.00  0.00     0.049 C 
BRANCH  28  30
HETATM   30  C5  UNL     1       6.510  65.911 -35.763  1.00  0.00     0.181 C 
BRANCH  30  31
HETATM   31  C4  UNL     1       5.976  64.642 -35.078  1.00  0.00     0.159 C 
HETATM   32  O1  UNL     1       7.112  63.860 -34.610  1.00  0.00    -0.382 OA
HETATM   33  C3  UNL     1       6.567  62.832 -33.766  1.00  0.00     0.173 C 
HETATM   34  C2  UNL     1       5.217  63.333 -33.249  1.00  0.00     0.014 C 
HETATM   35  C1  UNL     1       4.057  62.434 -33.696  1.00  0.00     0.012 C 
HETATM   36  C38 UNL     1       5.118  64.759 -33.820  1.00  0.00     0.046 C 
BRANCH  36  37
HETATM   37  C39 UNL     1       5.660  65.751 -32.789  1.00  0.00     0.172 C 
BRANCH  37  38
HETATM   38  O7  UNL     1       5.140  65.407 -31.506  1.00  0.00    -0.400 OA
HETATM   39  H52 UNL     1       5.860  65.007 -30.986  1.00  0.00     0.209 HD
ENDBRANCH  37  38
ENDBRANCH  36  37
ENDBRANCH  30  31
BRANCH  30  40
HETATM   40  O2  UNL     1       7.956  65.855 -35.722  1.00  0.00    -0.390 OA
HETATM   41  H9  UNL     1       8.166  65.500 -34.834  1.00  0.00     0.210 HD
ENDBRANCH  30  40
ENDBRANCH  28  30
BRANCH  28  42
HETATM   42  O3  UNL     1       6.207  64.955 -37.925  1.00  0.00    -0.387 OA
HETATM   43  H13 UNL     1       5.790  64.305 -37.321  1.00  0.00     0.210 HD
ENDBRANCH  28  42
ENDBRANCH   1  28
BRANCH   9  44
HETATM   44  C16 UNL     1      -2.444  69.213 -41.766  1.00  0.00    -0.040 A 
HETATM   45  C17 UNL     1      -3.811  69.515 -41.761  1.00  0.00     0.008 A 
HETATM   46  C18 UNL     1      -4.700  68.826 -42.589  1.00  0.00     0.001 A 
HETATM   47  C19 UNL     1      -4.237  67.804 -43.417  1.00  0.00     0.000 A 
HETATM   48  C20 UNL     1      -2.883  67.481 -43.428  1.00  0.00     0.001 A 
HETATM   49  C21 UNL     1      -1.990  68.183 -42.611  1.00  0.00     0.008 A 
ENDBRANCH   9  44
TORSDOF 8
ENDMDL
MODEL 7
REMARK minimizedAffinity -9.96699715
REMARK CNNscore 0.387891561
REMARK CNNaffinity 6.3294239
REMARK  8 active torsions:
REMARK  status: ('A' for Active; 'I' for Inactive)
REMARK    1  A    between atoms: C4_5  and  C5_6 
REMARK    2  A    between atoms: C5_6  and  O2_7 
REMARK    3  A    between atoms: C5_6  and  C6_8 
REMARK    4  A    between atoms: C6_8  and  O3_10 
REMARK    5  A    between atoms: C6_8  and  C8_11 
REMARK    6  A    between atoms: C15_19  and  C16_20 
REMARK    7  A    between atoms: C38_44  and  C39_45 
REMARK    8  A    between atoms: C39_45  and  O7_46 
ROOT
HETATM    1  C8  UNL     1       4.959  64.521 -35.143  1.00  0.00     0.034 C 
HETATM    2  C9  UNL     1       4.005  65.466 -34.369  1.00  0.00     0.012 C 
HETATM    3  C10 UNL     1       4.288  66.897 -34.854  1.00  0.00     0.044 C 
HETATM    4  C11 UNL     1       5.006  66.718 -36.209  1.00  0.00     0.093 C 
HETATM    5  O4  UNL     1       4.057  66.279 -37.212  1.00  0.00    -0.363 OA
HETATM    6  C12 UNL     1       2.933  67.134 -37.454  1.00  0.00     0.263 C 
HETATM    7  C13 UNL     1       2.869  67.539 -38.866  1.00  0.00    -0.080 C 
HETATM    8  C14 UNL     1       2.816  67.939 -39.999  1.00  0.00    -0.093 C 
HETATM    9  C15 UNL     1       2.833  68.456 -41.392  1.00  0.00     0.121 C 
HETATM   10  C22 UNL     1       3.607  69.801 -41.478  1.00  0.00     0.190 C 
HETATM   11  O5  UNL     1       5.020  69.640 -41.708  1.00  0.00    -0.384 OA
HETATM   12  C23 UNL     1       5.773  69.221 -40.570  1.00  0.00     0.122 C 
HETATM   13  C24 UNL     1       7.015  68.481 -41.063  1.00  0.00     0.033 C 
HETATM   14  C25 UNL     1       8.115  68.316 -40.011  1.00  0.00     0.013 C 
HETATM   15  C26 UNL     1       7.670  68.555 -38.545  1.00  0.00    -0.026 C 
HETATM   16  C27 UNL     1       8.960  68.595 -37.680  1.00  0.00     0.016 C 
HETATM   17  C28 UNL     1       7.035  69.976 -38.478  1.00  0.00     0.071 C 
HETATM   18  C29 UNL     1       6.131  70.385 -39.656  1.00  0.00     0.045 C 
HETATM   19  C30 UNL     1       6.335  70.230 -37.161  1.00  0.00     0.154 C 
HETATM   20  O6  UNL     1       6.256  71.357 -36.681  1.00  0.00    -0.293 OA
HETATM   21  C31 UNL     1       5.695  69.113 -36.440  1.00  0.00     0.057 C 
HETATM   22  C32 UNL     1       5.811  67.840 -36.851  1.00  0.00    -0.036 C 
HETATM   23  C33 UNL     1       6.684  67.416 -38.043  1.00  0.00     0.026 C 
HETATM   24  C34 UNL     1       7.405  66.049 -37.848  1.00  0.00     0.011 C 
HETATM   25  C35 UNL     1       6.565  64.971 -37.154  1.00  0.00     0.014 C 
HETATM   26  C36 UNL     1       5.957  65.515 -35.846  1.00  0.00    -0.002 C 
HETATM   27  C37 UNL     1       7.107  65.946 -34.891  1.00  0.00     0.019 C 
ENDROOT
BRANCH   1  28
HETATM   28  C6  UNL     1       5.492  63.276 -34.341  1.00  0.00     0.087 C 
HETATM   29  C7  UNL     1       4.449  62.199 -34.030  1.00  0.00     0.049 C 
BRANCH  28  30
HETATM   30  C5  UNL     1       6.791  62.626 -34.949  1.00  0.00     0.181 C 
BRANCH  30  31
HETATM   31  C4  UNL     1       8.074  62.576 -34.102  1.00  0.00     0.159 C 
HETATM   32  O1  UNL     1       8.406  61.179 -33.853  1.00  0.00    -0.382 OA
HETATM   33  C3  UNL     1       9.728  61.179 -33.288  1.00  0.00     0.173 C 
HETATM   34  C2  UNL     1      10.417  62.469 -33.736  1.00  0.00     0.014 C 
HETATM   35  C1  UNL     1      10.801  63.362 -32.550  1.00  0.00     0.012 C 
HETATM   36  C38 UNL     1       9.381  63.129 -34.666  1.00  0.00     0.046 C 
BRANCH  36  37
HETATM   37  C39 UNL     1       9.662  62.708 -36.109  1.00  0.00     0.172 C 
BRANCH  37  38
HETATM   38  O7  UNL     1       9.318  61.332 -36.259  1.00  0.00    -0.400 OA
HETATM   39  H52 UNL     1       8.492  61.281 -36.772  1.00  0.00     0.209 HD
ENDBRANCH  37  38
ENDBRANCH  36  37
ENDBRANCH  30  31
BRANCH  30  40
HETATM   40  O2  UNL     1       6.469  61.269 -35.336  1.00  0.00    -0.390 OA
HETATM   41  H9  UNL     1       7.333  60.860 -35.549  1.00  0.00     0.210 HD
ENDBRANCH  30  40
ENDBRANCH  28  30
BRANCH  28  42
HETATM   42  O3  UNL     1       5.917  63.775 -33.053  1.00  0.00    -0.387 OA
HETATM   43  H13 UNL     1       6.769  64.226 -33.227  1.00  0.00     0.210 HD
ENDBRANCH  28  42
ENDBRANCH   1  28
BRANCH   9  44
HETATM   44  C16 UNL     1       1.409  68.562 -41.919  1.00  0.00    -0.040 A 
HETATM   45  C17 UNL     1       0.930  69.725 -42.533  1.00  0.00     0.008 A 
HETATM   46  C18 UNL     1      -0.388  69.802 -42.992  1.00  0.00     0.001 A 
HETATM   47  C19 UNL     1      -1.254  68.723 -42.819  1.00  0.00     0.000 A 
HETATM   48  C20 UNL     1      -0.799  67.561 -42.201  1.00  0.00     0.001 A 
HETATM   49  C21 UNL     1       0.525  67.478 -41.757  1.00  0.00     0.008 A 
ENDBRANCH   9  44
TORSDOF 8
ENDMDL
MODEL 8
REMARK minimizedAffinity -8.30336189
REMARK CNNscore 0.385605901
REMARK CNNaffinity 6.14289284
REMARK  8 active torsions:
REMARK  status: ('A' for Active; 'I' for Inactive)
REMARK    1  A    between atoms: C4_5  and  C5_6 
REMARK    2  A    between atoms: C5_6  and  O2_7 
REMARK    3  A    between atoms: C5_6  and  C6_8 
REMARK    4  A    between atoms: C6_8  and  O3_10 
REMARK    5  A    between atoms: C6_8  and  C8_11 
REMARK    6  A    between atoms: C15_19  and  C16_20 
REMARK    7  A    between atoms: C38_44  and  C39_45 
REMARK    8  A    between atoms: C39_45  and  O7_46 
ROOT
HETATM    1  C8  UNL     1     -11.641  45.894 -27.384  1.00  0.00     0.034 C 
HETATM    2  C9  UNL     1     -11.325  44.378 -27.468  1.00  0.00     0.012 C 
HETATM    3  C10 UNL     1     -12.362  43.648 -26.599  1.00  0.00     0.044 C 
HETATM    4  C11 UNL     1     -13.524  44.653 -26.444  1.00  0.00     0.093 C 
HETATM    5  O4  UNL     1     -14.249  44.760 -27.693  1.00  0.00    -0.363 OA
HETATM    6  C12 UNL     1     -14.819  43.552 -28.213  1.00  0.00     0.263 C 
HETATM    7  C13 UNL     1     -16.273  43.688 -28.396  1.00  0.00    -0.080 C 
HETATM    8  C14 UNL     1     -17.468  43.740 -28.506  1.00  0.00    -0.093 C 
HETATM    9  C15 UNL     1     -18.950  43.835 -28.561  1.00  0.00     0.121 C 
HETATM   10  C22 UNL     1     -19.591  43.321 -27.241  1.00  0.00     0.190 C 
HETATM   11  O5  UNL     1     -19.739  44.342 -26.235  1.00  0.00    -0.384 OA
HETATM   12  C23 UNL     1     -18.534  44.710 -25.567  1.00  0.00     0.122 C 
HETATM   13  C24 UNL     1     -18.679  46.148 -25.071  1.00  0.00     0.033 C 
HETATM   14  C25 UNL     1     -17.659  46.561 -24.007  1.00  0.00     0.013 C 
HETATM   15  C26 UNL     1     -16.422  45.632 -23.882  1.00  0.00    -0.026 C 
HETATM   16  C27 UNL     1     -15.658  46.066 -22.601  1.00  0.00     0.016 C 
HETATM   17  C28 UNL     1     -16.948  44.188 -23.628  1.00  0.00     0.071 C 
HETATM   18  C29 UNL     1     -18.186  43.753 -24.435  1.00  0.00     0.045 C 
HETATM   19  C30 UNL     1     -15.854  43.151 -23.738  1.00  0.00     0.154 C 
HETATM   20  O6  UNL     1     -15.884  42.110 -23.088  1.00  0.00    -0.293 OA
HETATM   21  C31 UNL     1     -14.731  43.362 -24.673  1.00  0.00     0.057 C 
HETATM   22  C32 UNL     1     -14.576  44.509 -25.354  1.00  0.00    -0.036 C 
HETATM   23  C33 UNL     1     -15.488  45.731 -25.162  1.00  0.00     0.026 C 
HETATM   24  C34 UNL     1     -14.747  47.098 -25.253  1.00  0.00     0.011 C 
HETATM   25  C35 UNL     1     -13.664  47.172 -26.336  1.00  0.00     0.014 C 
HETATM   26  C36 UNL     1     -12.698  45.977 -26.220  1.00  0.00    -0.002 C 
HETATM   27  C37 UNL     1     -12.013  46.010 -24.823  1.00  0.00     0.019 C 
ENDROOT
BRANCH   1  28
HETATM   28  C6  UNL     1     -10.397  46.856 -27.414  1.00  0.00     0.087 C 
HETATM   29  C7  UNL     1     -10.264  47.721 -28.671  1.00  0.00     0.049 C 
BRANCH  28  30
HETATM   30  C5  UNL     1     -10.233  47.739 -26.119  1.00  0.00     0.181 C 
BRANCH  30  31
HETATM   31  C4  UNL     1      -8.822  48.128 -25.647  1.00  0.00     0.159 C 
HETATM   32  O1  UNL     1      -8.950  49.084 -24.556  1.00  0.00    -0.382 OA
HETATM   33  C3  UNL     1      -7.636  49.218 -23.988  1.00  0.00     0.173 C 
HETATM   34  C2  UNL     1      -6.861  47.942 -24.322  1.00  0.00     0.014 C 
HETATM   35  C1  UNL     1      -5.623  48.225 -25.181  1.00  0.00     0.012 C 
HETATM   36  C38 UNL     1      -7.900  47.067 -25.048  1.00  0.00     0.046 C 
BRANCH  36  37
HETATM   37  C39 UNL     1      -8.585  46.152 -24.031  1.00  0.00     0.172 C 
BRANCH  37  38
HETATM   38  O7  UNL     1      -8.730  44.856 -24.608  1.00  0.00    -0.400 OA
HETATM   39  H52 UNL     1      -8.083  44.263 -24.185  1.00  0.00     0.209 HD
ENDBRANCH  37  38
ENDBRANCH  36  37
ENDBRANCH  30  31
BRANCH  30  40
HETATM   40  O2  UNL     1     -10.980  48.962 -26.318  1.00  0.00    -0.390 OA
HETATM   41  H9  UNL     1     -10.717  49.539 -25.572  1.00  0.00     0.210 HD
ENDBRANCH  30  40
ENDBRANCH  28  30
BRANCH  28  42
HETATM   42  O3  UNL     1      -9.226  46.008 -27.412  1.00  0.00    -0.387 OA
HETATM   43  H13 UNL     1      -9.153  45.685 -26.490  1.00  0.00     0.210 HD
ENDBRANCH  28  42
ENDBRANCH   1  28
BRANCH   9  44
HETATM   44  C16 UNL     1     -19.468  43.102 -29.790  1.00  0.00    -0.040 A 
HETATM   45  C17 UNL     1     -20.628  42.319 -29.753  1.00  0.00     0.008 A 
HETATM   46  C18 UNL     1     -21.071  41.641 -30.892  1.00  0.00     0.001 A 
HETATM   47  C19 UNL     1     -20.344  41.717 -32.079  1.00  0.00     0.000 A 
HETATM   48  C20 UNL     1     -19.182  42.482 -32.133  1.00  0.00     0.001 A 
HETATM   49  C21 UNL     1     -18.748  43.174 -30.998  1.00  0.00     0.008 A 
ENDBRANCH   9  44
TORSDOF 8
ENDMDL
MODEL 9
REMARK minimizedAffinity -8.15387821
REMARK CNNscore 0.381852508
REMARK CNNaffinity 7.01869392
REMARK  8 active torsions:
REMARK  status: ('A' for Active; 'I' for Inactive)
REMARK    1  A    between atoms: C4_5  and  C5_6 
REMARK    2  A    between atoms: C5_6  and  O2_7 
REMARK    3  A    between atoms: C5_6  and  C6_8 
REMARK    4  A    between atoms: C6_8  and  O3_10 
REMARK    5  A    between atoms: C6_8  and  C8_11 
REMARK    6  A    between atoms: C15_19  and  C16_20 
REMARK    7  A    between atoms: C38_44  and  C39_45 
REMARK    8  A    between atoms: C39_45  and  O7_46 
ROOT
HETATM    1  C8  UNL     1       1.155  47.272 -13.256  1.00  0.00     0.034 C 
HETATM    2  C9  UNL     1       1.482  48.090 -14.531  1.00  0.00     0.012 C 
HETATM    3  C10 UNL     1       0.458  49.235 -14.612  1.00  0.00     0.044 C 
HETATM    4  C11 UNL     1      -0.100  49.366 -13.180  1.00  0.00     0.093 C 
HETATM    5  O4  UNL     1       0.899  49.962 -12.317  1.00  0.00    -0.363 OA
HETATM    6  C12 UNL     1       1.381  51.260 -12.689  1.00  0.00     0.263 C 
HETATM    7  C13 UNL     1       1.166  52.235 -11.609  1.00  0.00    -0.080 C 
HETATM    8  C14 UNL     1       0.956  53.073 -10.774  1.00  0.00    -0.093 C 
HETATM    9  C15 UNL     1       0.614  54.083  -9.739  1.00  0.00     0.121 C 
HETATM   10  C22 UNL     1      -0.763  54.741 -10.034  1.00  0.00     0.190 C 
HETATM   11  O5  UNL     1      -1.877  54.032  -9.459  1.00  0.00    -0.384 OA
HETATM   12  C23 UNL     1      -2.246  52.834 -10.139  1.00  0.00     0.122 C 
HETATM   13  C24 UNL     1      -2.916  51.898  -9.134  1.00  0.00     0.033 C 
HETATM   14  C25 UNL     1      -3.717  50.756  -9.764  1.00  0.00     0.013 C 
HETATM   15  C26 UNL     1      -3.416  50.485 -11.262  1.00  0.00    -0.026 C 
HETATM   16  C27 UNL     1      -4.495  49.487 -11.767  1.00  0.00     0.016 C 
HETATM   17  C28 UNL     1      -3.640  51.821 -12.030  1.00  0.00     0.071 C 
HETATM   18  C29 UNL     1      -3.139  53.105 -11.342  1.00  0.00     0.045 C 
HETATM   19  C30 UNL     1      -3.138  51.755 -13.455  1.00  0.00     0.154 C 
HETATM   20  O6  UNL     1      -3.657  52.412 -14.353  1.00  0.00    -0.293 OA
HETATM   21  C31 UNL     1      -1.973  50.911 -13.787  1.00  0.00     0.057 C 
HETATM   22  C32 UNL     1      -1.404  50.096 -12.885  1.00  0.00    -0.036 C 
HETATM   23  C33 UNL     1      -1.956  49.895 -11.465  1.00  0.00     0.026 C 
HETATM   24  C34 UNL     1      -1.825  48.437 -10.932  1.00  0.00     0.011 C 
HETATM   25  C35 UNL     1      -0.514  47.733 -11.299  1.00  0.00     0.014 C 
HETATM   26  C36 UNL     1      -0.245  47.840 -12.813  1.00  0.00    -0.002 C 
HETATM   27  C37 UNL     1      -1.412  47.161 -13.586  1.00  0.00     0.019 C 
ENDROOT
BRANCH   1  28
HETATM   28  C6  UNL     1       1.401  45.721 -13.354  1.00  0.00     0.087 C 
HETATM   29  C7  UNL     1       0.159  44.874 -13.647  1.00  0.00     0.049 C 
BRANCH  28  30
HETATM   30  C5  UNL     1       2.583  45.316 -14.313  1.00  0.00     0.181 C 
BRANCH  30  31
HETATM   31  C4  UNL     1       3.742  44.468 -13.762  1.00  0.00     0.159 C 
HETATM   32  O1  UNL     1       3.894  44.764 -12.344  1.00  0.00    -0.382 OA
HETATM   33  C3  UNL     1       4.803  43.777 -11.827  1.00  0.00     0.173 C 
HETATM   34  C2  UNL     1       4.734  42.562 -12.753  1.00  0.00     0.014 C 
HETATM   35  C1  UNL     1       6.084  42.264 -13.417  1.00  0.00     0.012 C 
HETATM   36  C38 UNL     1       3.643  42.944 -13.771  1.00  0.00     0.046 C 
BRANCH  36  37
HETATM   37  C39 UNL     1       2.295  42.407 -13.287  1.00  0.00     0.172 C 
BRANCH  37  38
HETATM   38  O7  UNL     1       2.278  42.432 -11.862  1.00  0.00    -0.400 OA
HETATM   39  H52 UNL     1       1.695  43.160 -11.579  1.00  0.00     0.209 HD
ENDBRANCH  37  38
ENDBRANCH  36  37
ENDBRANCH  30  31
BRANCH  30  40
HETATM   40  O2  UNL     1       2.017  44.603 -15.439  1.00  0.00    -0.390 OA
HETATM   41  H9  UNL     1       2.789  44.233 -15.913  1.00  0.00     0.210 HD
ENDBRANCH  30  40
ENDBRANCH  28  30
BRANCH  28  42
HETATM   42  O3  UNL     1       1.848  45.297 -12.046  1.00  0.00    -0.387 OA
HETATM   43  H13 UNL     1       2.777  45.601 -11.989  1.00  0.00     0.210 HD
ENDBRANCH  28  42
ENDBRANCH   1  28
BRANCH   9  44
HETATM   44  C16 UNL     1       1.739  55.101  -9.621  1.00  0.00    -0.040 A 
HETATM   45  C17 UNL     1       2.523  55.472 -10.720  1.00  0.00     0.008 A 
HETATM   46  C18 UNL     1       3.562  56.396 -10.580  1.00  0.00     0.001 A 
HETATM   47  C19 UNL     1       3.849  56.942  -9.330  1.00  0.00     0.000 A 
HETATM   48  C20 UNL     1       3.088  56.577  -8.222  1.00  0.00     0.001 A 
HETATM   49  C21 UNL     1       2.037  55.666  -8.366  1.00  0.00     0.008 A 
ENDBRANCH   9  44
TORSDOF 8
ENDMDL
