MODEL 1
REMARK minimizedAffinity -9.57335091
REMARK CNNscore 0.661741316
REMARK CNNaffinity 7.21297121
REMARK  10 active torsions:
REMARK  status: ('A' for Active; 'I' for Inactive)
REMARK    1  A    between atoms: C19_21  and  O3_22 
REMARK    2  A    between atoms: C19_21  and  C20_23 
REMARK    3  A    between atoms: C20_23  and  C21_25 
REMARK    4  A    between atoms: C21_25  and  O5_26 
REMARK    5  A    between atoms: O5_26  and  C22_27 
REMARK    6  A    between atoms: C22_27  and  C23_29 
REMARK    7  A    between atoms: C23_29  and  C24_30 
REMARK    8  A    between atoms: C24_30  and  C25_31 
REMARK       I    between atoms: C25_31  and  N1_33 
REMARK    9  A    between atoms: N1_33  and  C26_34 
REMARK   10  A    between atoms: C26_34  and  C27_35 
ROOT
HETATM    1  C1  UNL     1       4.175   8.143   9.898  1.00  0.00     0.021 C 
HETATM    2  C2  UNL     1       2.815   7.409  10.076  1.00  0.00    -0.009 C 
HETATM    3  C3  UNL     1       3.102   5.964  10.568  1.00  0.00     0.022 C 
HETATM    4  C4  UNL     1       3.853   5.100   9.554  1.00  0.00     0.084 C 
HETATM    5  C5  UNL     1       3.232   5.154   8.183  1.00  0.00     0.149 C 
HETATM    6  O1  UNL     1       3.453   4.295   7.331  1.00  0.00    -0.293 OA
HETATM    7  C6  UNL     1       2.360   6.299   7.842  1.00  0.00     0.053 C 
HETATM    8  C7  UNL     1       2.167   7.323   8.693  1.00  0.00    -0.067 C 
HETATM    9  C8  UNL     1       1.204   8.420   8.341  1.00  0.00     0.035 C 
HETATM   10  C9  UNL     1       0.017   8.288   9.283  1.00  0.00     0.010 C 
HETATM   11  C10 UNL     1       0.416   8.467  10.759  1.00  0.00     0.003 C 
HETATM   12  C11 UNL     1       1.936   8.283  11.063  1.00  0.00     0.072 C 
HETATM   13  C12 UNL     1       2.155   8.049  12.557  1.00  0.00     0.133 C 
HETATM   14  O2  UNL     1       3.193   7.580  13.018  1.00  0.00    -0.297 OA
HETATM   15  C13 UNL     1       1.099   8.603  13.485  1.00  0.00     0.091 C 
HETATM   16  C14 UNL     1      -0.337   8.071  13.221  1.00  0.00     0.005 C 
HETATM   17  C15 UNL     1      -1.280   9.205  13.682  1.00  0.00     0.019 C 
HETATM   18  C16 UNL     1      -0.552   7.729  11.712  1.00  0.00     0.002 C 
HETATM   19  C17 UNL     1      -0.496   6.192  11.608  1.00  0.00     0.009 C 
HETATM   20  C18 UNL     1      -0.073   5.678  12.978  1.00  0.00     0.047 C 
HETATM   21  C19 UNL     1      -0.637   6.715  13.951  1.00  0.00     0.128 C 
ENDROOT
BRANCH  21  22
HETATM   22  O3  UNL     1       0.051   6.623  15.190  1.00  0.00    -0.381 OA
HETATM   23  H25 UNL     1      -0.169   7.401  15.734  1.00  0.00     0.211 HD
ENDBRANCH  21  22
BRANCH  21  24
HETATM   24  C20 UNL     1      -2.141   6.364  14.172  1.00  0.00     0.185 C 
HETATM   25  O4  UNL     1      -2.893   7.087  14.829  1.00  0.00    -0.292 OA
BRANCH  24  26
HETATM   26  C21 UNL     1      -2.648   5.101  13.477  1.00  0.00     0.260 C 
BRANCH  26  27
HETATM   27  O5  UNL     1      -3.744   5.420  12.618  1.00  0.00    -0.314 OA
BRANCH  27  28
HETATM   28  C22 UNL     1      -4.852   4.652  12.794  1.00  0.00     0.259 C 
HETATM   29  O6  UNL     1      -5.108   3.635  12.166  1.00  0.00    -0.265 OA
BRANCH  28  30
HETATM   30  C23 UNL     1      -5.718   5.248  13.873  1.00  0.00     0.120 C 
BRANCH  30  31
HETATM   31  C24 UNL     1      -6.542   6.411  13.334  1.00  0.00     0.112 C 
BRANCH  31  32
HETATM   32  C25 UNL     1      -7.974   6.002  13.076  1.00  0.00     0.218 C 
HETATM   33  O7  UNL     1      -8.305   5.225  12.187  1.00  0.00    -0.274 OA
HETATM   34  N1  UNL     1      -8.865   6.589  13.945  1.00  0.00    -0.357 N 
HETATM   35  H32 UNL     1      -8.535   7.324  14.558  1.00  0.00     0.162 HD
BRANCH  34  36
HETATM   36  C26 UNL     1     -10.294   6.421  13.802  1.00  0.00     0.162 C 
BRANCH  36  37
HETATM   37  C27 UNL     1     -10.980   7.742  13.616  1.00  0.00    -0.025 A 
HETATM   38  C28 UNL     1     -10.612   8.867  14.359  1.00  0.00     0.011 A 
HETATM   39  C29 UNL     1     -11.281  10.072  14.172  1.00  0.00     0.018 A 
HETATM   40  C30 UNL     1     -12.305  10.113  13.241  1.00  0.00     0.087 A 
HETATM   41  N2  UNL     1     -12.694   9.050  12.506  1.00  0.00    -0.375 N 
HETATM   42  C31 UNL     1     -12.026   7.892  12.711  1.00  0.00     0.096 A 
ATOM     43  H2  UNL     1     -13.455   9.116  11.830  1.00  0.00     0.164 HD
ENDBRANCH  36  37
ENDBRANCH  34  36
ENDBRANCH  31  32
ENDBRANCH  30  31
ENDBRANCH  28  30
ENDBRANCH  27  28
ENDBRANCH  26  27
ENDBRANCH  24  26
ENDBRANCH  21  24
TORSDOF 10
ENDMDL
MODEL 2
REMARK minimizedAffinity -8.92540264
REMARK CNNscore 0.594191432
REMARK CNNaffinity 6.9371686
REMARK  10 active torsions:
REMARK  status: ('A' for Active; 'I' for Inactive)
REMARK    1  A    between atoms: C19_21  and  O3_22 
REMARK    2  A    between atoms: C19_21  and  C20_23 
REMARK    3  A    between atoms: C20_23  and  C21_25 
REMARK    4  A    between atoms: C21_25  and  O5_26 
REMARK    5  A    between atoms: O5_26  and  C22_27 
REMARK    6  A    between atoms: C22_27  and  C23_29 
REMARK    7  A    between atoms: C23_29  and  C24_30 
REMARK    8  A    between atoms: C24_30  and  C25_31 
REMARK       I    between atoms: C25_31  and  N1_33 
REMARK    9  A    between atoms: N1_33  and  C26_34 
REMARK   10  A    between atoms: C26_34  and  C27_35 
ROOT
HETATM    1  C1  UNL     1       3.158   5.107   9.850  1.00  0.00     0.021 C 
HETATM    2  C2  UNL     1       2.355   6.298  10.447  1.00  0.00    -0.009 C 
HETATM    3  C3  UNL     1       1.338   6.785   9.377  1.00  0.00     0.022 C 
HETATM    4  C4  UNL     1       1.989   7.374   8.124  1.00  0.00     0.084 C 
HETATM    5  C5  UNL     1       3.047   8.393   8.452  1.00  0.00     0.149 C 
HETATM    6  O1  UNL     1       3.438   9.218   7.629  1.00  0.00    -0.293 OA
HETATM    7  C6  UNL     1       3.662   8.372   9.798  1.00  0.00     0.053 C 
HETATM    8  C7  UNL     1       3.353   7.428  10.705  1.00  0.00    -0.067 C 
HETATM    9  C8  UNL     1       3.935   7.497  12.088  1.00  0.00     0.035 C 
HETATM   10  C9  UNL     1       2.791   7.830  13.033  1.00  0.00     0.010 C 
HETATM   11  C10 UNL     1       1.696   6.746  13.036  1.00  0.00     0.003 C 
HETATM   12  C11 UNL     1       1.702   5.794  11.799  1.00  0.00     0.072 C 
HETATM   13  C12 UNL     1       0.363   5.069  11.680  1.00  0.00     0.133 C 
HETATM   14  O2  UNL     1      -0.007   4.507  10.652  1.00  0.00    -0.297 OA
HETATM   15  C13 UNL     1      -0.425   4.900  12.958  1.00  0.00     0.091 C 
HETATM   16  C14 UNL     1      -0.774   6.230  13.682  1.00  0.00     0.005 C 
HETATM   17  C15 UNL     1      -0.870   5.862  15.180  1.00  0.00     0.019 C 
HETATM   18  C16 UNL     1       0.317   7.321  13.432  1.00  0.00     0.002 C 
HETATM   19  C17 UNL     1      -0.283   8.299  12.403  1.00  0.00     0.009 C 
HETATM   20  C18 UNL     1      -1.597   7.687  11.934  1.00  0.00     0.047 C 
HETATM   21  C19 UNL     1      -2.090   6.898  13.149  1.00  0.00     0.128 C 
ENDROOT
BRANCH  21  22
HETATM   22  O3  UNL     1      -3.037   5.927  12.727  1.00  0.00    -0.381 OA
HETATM   23  H25 UNL     1      -3.199   5.304  13.459  1.00  0.00     0.211 HD
ENDBRANCH  21  22
BRANCH  21  24
HETATM   24  C20 UNL     1      -2.787   7.915  14.103  1.00  0.00     0.185 C 
HETATM   25  O4  UNL     1      -2.386   8.118  15.252  1.00  0.00    -0.292 OA
BRANCH  24  26
HETATM   26  C21 UNL     1      -3.965   8.693  13.516  1.00  0.00     0.260 C 
BRANCH  26  27
HETATM   27  O5  UNL     1      -5.066   7.812  13.283  1.00  0.00    -0.314 OA
BRANCH  27  28
HETATM   28  C22 UNL     1      -5.962   7.733  14.302  1.00  0.00     0.259 C 
HETATM   29  O6  UNL     1      -6.420   8.692  14.908  1.00  0.00    -0.265 OA
BRANCH  28  30
HETATM   30  C23 UNL     1      -6.298   6.291  14.575  1.00  0.00     0.120 C 
BRANCH  30  31
HETATM   31  C24 UNL     1      -6.662   5.561  13.288  1.00  0.00     0.112 C 
BRANCH  31  32
HETATM   32  C25 UNL     1      -8.123   5.740  12.943  1.00  0.00     0.218 C 
HETATM   33  O7  UNL     1      -8.596   5.468  11.845  1.00  0.00    -0.274 OA
HETATM   34  N1  UNL     1      -8.865   6.235  13.991  1.00  0.00    -0.357 N 
HETATM   35  H32 UNL     1      -8.382   6.566  14.817  1.00  0.00     0.162 HD
BRANCH  34  36
HETATM   36  C26 UNL     1     -10.260   6.585  13.840  1.00  0.00     0.162 C 
BRANCH  36  37
HETATM   37  C27 UNL     1     -10.476   8.055  14.047  1.00  0.00    -0.025 A 
HETATM   38  C28 UNL     1      -9.825   8.752  15.069  1.00  0.00     0.011 A 
HETATM   39  C29 UNL     1     -10.062  10.111  15.241  1.00  0.00     0.018 A 
HETATM   40  C30 UNL     1     -10.949  10.735  14.381  1.00  0.00     0.087 A 
HETATM   41  N2  UNL     1     -11.601  10.098  13.385  1.00  0.00    -0.375 N 
HETATM   42  C31 UNL     1     -11.351   8.776  13.241  1.00  0.00     0.096 A 
ATOM     43  H2  UNL     1     -12.249  10.590  12.770  1.00  0.00     0.164 HD
ENDBRANCH  36  37
ENDBRANCH  34  36
ENDBRANCH  31  32
ENDBRANCH  30  31
ENDBRANCH  28  30
ENDBRANCH  27  28
ENDBRANCH  26  27
ENDBRANCH  24  26
ENDBRANCH  21  24
TORSDOF 10
ENDMDL
MODEL 3
REMARK minimizedAffinity -9.37343502
REMARK CNNscore 0.478604138
REMARK CNNaffinity 7.16595602
REMARK  10 active torsions:
REMARK  status: ('A' for Active; 'I' for Inactive)
REMARK    1  A    between atoms: C19_21  and  O3_22 
REMARK    2  A    between atoms: C19_21  and  C20_23 
REMARK    3  A    between atoms: C20_23  and  C21_25 
REMARK    4  A    between atoms: C21_25  and  O5_26 
REMARK    5  A    between atoms: O5_26  and  C22_27 
REMARK    6  A    between atoms: C22_27  and  C23_29 
REMARK    7  A    between atoms: C23_29  and  C24_30 
REMARK    8  A    between atoms: C24_30  and  C25_31 
REMARK       I    between atoms: C25_31  and  N1_33 
REMARK    9  A    between atoms: N1_33  and  C26_34 
REMARK   10  A    between atoms: C26_34  and  C27_35 
ROOT
HETATM    1  C1  UNL     1       2.988   5.214   9.864  1.00  0.00     0.021 C 
HETATM    2  C2  UNL     1       2.288   6.474  10.449  1.00  0.00    -0.009 C 
HETATM    3  C3  UNL     1       1.287   7.011   9.388  1.00  0.00     0.022 C 
HETATM    4  C4  UNL     1       1.954   7.524   8.110  1.00  0.00     0.084 C 
HETATM    5  C5  UNL     1       3.090   8.470   8.396  1.00  0.00     0.149 C 
HETATM    6  O1  UNL     1       3.524   9.246   7.547  1.00  0.00    -0.293 OA
HETATM    7  C6  UNL     1       3.729   8.432   9.730  1.00  0.00     0.053 C 
HETATM    8  C7  UNL     1       3.371   7.532  10.663  1.00  0.00    -0.067 C 
HETATM    9  C8  UNL     1       3.983   7.587  12.034  1.00  0.00     0.035 C 
HETATM   10  C9  UNL     1       2.886   8.023  12.992  1.00  0.00     0.010 C 
HETATM   11  C10 UNL     1       1.716   7.023  13.039  1.00  0.00     0.003 C 
HETATM   12  C11 UNL     1       1.627   6.047  11.825  1.00  0.00     0.072 C 
HETATM   13  C12 UNL     1       0.236   5.420  11.746  1.00  0.00     0.133 C 
HETATM   14  O2  UNL     1      -0.195   4.865  10.739  1.00  0.00    -0.297 OA
HETATM   15  C13 UNL     1      -0.536   5.337  13.043  1.00  0.00     0.091 C 
HETATM   16  C14 UNL     1      -0.772   6.703  13.743  1.00  0.00     0.005 C 
HETATM   17  C15 UNL     1      -0.864   6.375  15.251  1.00  0.00     0.019 C 
HETATM   18  C16 UNL     1       0.390   7.706  13.449  1.00  0.00     0.002 C 
HETATM   19  C17 UNL     1      -0.157   8.703  12.409  1.00  0.00     0.009 C 
HETATM   20  C18 UNL     1      -1.522   8.180  11.979  1.00  0.00     0.047 C 
HETATM   21  C19 UNL     1      -2.046   7.455  13.220  1.00  0.00     0.128 C 
ENDROOT
BRANCH  21  22
HETATM   22  O3  UNL     1      -3.070   6.548  12.838  1.00  0.00    -0.381 OA
HETATM   23  H25 UNL     1      -3.262   5.954  13.587  1.00  0.00     0.211 HD
ENDBRANCH  21  22
BRANCH  21  24
HETATM   24  C20 UNL     1      -2.647   8.541  14.164  1.00  0.00     0.185 C 
HETATM   25  O4  UNL     1      -2.386   9.739  14.036  1.00  0.00    -0.292 OA
BRANCH  24  26
HETATM   26  C21 UNL     1      -3.626   8.043  15.227  1.00  0.00     0.260 C 
BRANCH  26  27
HETATM   27  O5  UNL     1      -4.945   7.967  14.681  1.00  0.00    -0.314 OA
BRANCH  27  28
HETATM   28  C22 UNL     1      -5.566   6.770  14.850  1.00  0.00     0.259 C 
HETATM   29  O6  UNL     1      -5.507   6.086  15.862  1.00  0.00    -0.265 OA
BRANCH  28  30
HETATM   30  C23 UNL     1      -6.331   6.412  13.603  1.00  0.00     0.120 C 
BRANCH  30  31
HETATM   31  C24 UNL     1      -7.552   5.563  13.934  1.00  0.00     0.112 C 
BRANCH  31  32
HETATM   32  C25 UNL     1      -7.613   4.320  13.075  1.00  0.00     0.218 C 
HETATM   33  O7  UNL     1      -8.651   3.711  12.843  1.00  0.00    -0.274 OA
HETATM   34  N1  UNL     1      -6.384   3.950  12.579  1.00  0.00    -0.357 N 
HETATM   35  H32 UNL     1      -5.557   4.418  12.927  1.00  0.00     0.162 HD
BRANCH  34  36
HETATM   36  C26 UNL     1      -6.202   2.728  11.827  1.00  0.00     0.162 C 
BRANCH  36  37
HETATM   37  C27 UNL     1      -4.759   2.520  11.472  1.00  0.00    -0.025 A 
HETATM   38  C28 UNL     1      -4.067   1.372  11.870  1.00  0.00     0.011 A 
HETATM   39  C29 UNL     1      -2.726   1.221  11.536  1.00  0.00     0.018 A 
HETATM   40  C30 UNL     1      -2.114   2.229  10.812  1.00  0.00     0.087 A 
HETATM   41  N2  UNL     1      -2.744   3.354  10.412  1.00  0.00    -0.375 N 
HETATM   42  C31 UNL     1      -4.048   3.474  10.751  1.00  0.00     0.096 A 
ATOM     43  H2  UNL     1      -2.261   4.078   9.880  1.00  0.00     0.164 HD
ENDBRANCH  36  37
ENDBRANCH  34  36
ENDBRANCH  31  32
ENDBRANCH  30  31
ENDBRANCH  28  30
ENDBRANCH  27  28
ENDBRANCH  26  27
ENDBRANCH  24  26
ENDBRANCH  21  24
TORSDOF 10
ENDMDL
MODEL 4
REMARK minimizedAffinity -9.63473129
REMARK CNNscore 0.464911431
REMARK CNNaffinity 7.12230682
REMARK  10 active torsions:
REMARK  status: ('A' for Active; 'I' for Inactive)
REMARK    1  A    between atoms: C19_21  and  O3_22 
REMARK    2  A    between atoms: C19_21  and  C20_23 
REMARK    3  A    between atoms: C20_23  and  C21_25 
REMARK    4  A    between atoms: C21_25  and  O5_26 
REMARK    5  A    between atoms: O5_26  and  C22_27 
REMARK    6  A    between atoms: C22_27  and  C23_29 
REMARK    7  A    between atoms: C23_29  and  C24_30 
REMARK    8  A    between atoms: C24_30  and  C25_31 
REMARK       I    between atoms: C25_31  and  N1_33 
REMARK    9  A    between atoms: N1_33  and  C26_34 
REMARK   10  A    between atoms: C26_34  and  C27_35 
ROOT
HETATM    1  C1  UNL     1       4.168   7.837   9.719  1.00  0.00     0.021 C 
HETATM    2  C2  UNL     1       2.789   7.125   9.828  1.00  0.00    -0.009 C 
HETATM    3  C3  UNL     1       3.040   5.626  10.152  1.00  0.00     0.022 C 
HETATM    4  C4  UNL     1       3.759   4.862   9.038  1.00  0.00     0.084 C 
HETATM    5  C5  UNL     1       3.129   5.087   7.689  1.00  0.00     0.149 C 
HETATM    6  O1  UNL     1       3.320   4.325   6.744  1.00  0.00    -0.293 OA
HETATM    7  C6  UNL     1       2.287   6.287   7.488  1.00  0.00     0.053 C 
HETATM    8  C7  UNL     1       2.129   7.213   8.451  1.00  0.00    -0.067 C 
HETATM    9  C8  UNL     1       1.195   8.369   8.235  1.00  0.00     0.035 C 
HETATM   10  C9  UNL     1       0.012   8.163   9.168  1.00  0.00     0.010 C 
HETATM   11  C10 UNL     1       0.427   8.164  10.651  1.00  0.00     0.003 C 
HETATM   12  C11 UNL     1       1.943   7.905  10.916  1.00  0.00     0.072 C 
HETATM   13  C12 UNL     1       2.167   7.499  12.372  1.00  0.00     0.133 C 
HETATM   14  O2  UNL     1       3.194   6.953  12.767  1.00  0.00    -0.297 OA
HETATM   15  C13 UNL     1       1.134   7.973  13.368  1.00  0.00     0.091 C 
HETATM   16  C14 UNL     1      -0.319   7.513  13.061  1.00  0.00     0.005 C 
HETATM   17  C15 UNL     1      -1.226   8.613  13.657  1.00  0.00     0.019 C 
HETATM   18  C16 UNL     1      -0.555   7.349  11.525  1.00  0.00     0.002 C 
HETATM   19  C17 UNL     1      -0.542   5.833  11.248  1.00  0.00     0.009 C 
HETATM   20  C18 UNL     1      -0.124   5.156  12.547  1.00  0.00     0.047 C 
HETATM   21  C19 UNL     1      -0.652   6.092  13.637  1.00  0.00     0.128 C 
ENDROOT
BRANCH  21  22
HETATM   22  O3  UNL     1       0.043   5.842  14.850  1.00  0.00    -0.381 OA
HETATM   23  H25 UNL     1      -0.151   6.559  15.480  1.00  0.00     0.211 HD
ENDBRANCH  21  22
BRANCH  21  24
HETATM   24  C20 UNL     1      -2.163   5.760  13.832  1.00  0.00     0.185 C 
HETATM   25  O4  UNL     1      -2.709   5.813  14.936  1.00  0.00    -0.292 OA
BRANCH  24  26
HETATM   26  C21 UNL     1      -2.947   5.417  12.566  1.00  0.00     0.260 C 
BRANCH  26  27
HETATM   27  O5  UNL     1      -3.140   4.004  12.476  1.00  0.00    -0.314 OA
BRANCH  27  28
HETATM   28  C22 UNL     1      -4.247   3.620  11.787  1.00  0.00     0.259 C 
HETATM   29  O6  UNL     1      -4.324   3.543  10.569  1.00  0.00    -0.265 OA
BRANCH  28  30
HETATM   30  C23 UNL     1      -5.364   3.311  12.750  1.00  0.00     0.120 C 
BRANCH  30  31
HETATM   31  C24 UNL     1      -6.722   3.426  12.067  1.00  0.00     0.112 C 
BRANCH  31  32
HETATM   32  C25 UNL     1      -7.472   4.655  12.529  1.00  0.00     0.218 C 
HETATM   33  O7  UNL     1      -8.292   5.245  11.835  1.00  0.00    -0.274 OA
HETATM   34  N1  UNL     1      -7.140   5.036  13.808  1.00  0.00    -0.357 N 
HETATM   35  H32 UNL     1      -6.357   4.586  14.264  1.00  0.00     0.162 HD
BRANCH  34  36
HETATM   36  C26 UNL     1      -7.659   6.250  14.401  1.00  0.00     0.162 C 
BRANCH  36  37
HETATM   37  C27 UNL     1      -6.585   7.287  14.539  1.00  0.00    -0.025 A 
HETATM   38  C28 UNL     1      -5.727   7.597  13.480  1.00  0.00     0.011 A 
HETATM   39  C29 UNL     1      -4.732   8.553  13.649  1.00  0.00     0.018 A 
HETATM   40  C30 UNL     1      -4.624   9.174  14.882  1.00  0.00     0.087 A 
HETATM   41  N2  UNL     1      -5.429   8.902  15.931  1.00  0.00    -0.375 N 
HETATM   42  C31 UNL     1      -6.387   7.967  15.737  1.00  0.00     0.096 A 
ATOM     43  H2  UNL     1      -5.320   9.378  16.827  1.00  0.00     0.164 HD
ENDBRANCH  36  37
ENDBRANCH  34  36
ENDBRANCH  31  32
ENDBRANCH  30  31
ENDBRANCH  28  30
ENDBRANCH  27  28
ENDBRANCH  26  27
ENDBRANCH  24  26
ENDBRANCH  21  24
TORSDOF 10
ENDMDL
MODEL 5
REMARK minimizedAffinity -8.08607197
REMARK CNNscore 0.460055023
REMARK CNNaffinity 6.59996271
REMARK  10 active torsions:
REMARK  status: ('A' for Active; 'I' for Inactive)
REMARK    1  A    between atoms: C19_21  and  O3_22 
REMARK    2  A    between atoms: C19_21  and  C20_23 
REMARK    3  A    between atoms: C20_23  and  C21_25 
REMARK    4  A    between atoms: C21_25  and  O5_26 
REMARK    5  A    between atoms: O5_26  and  C22_27 
REMARK    6  A    between atoms: C22_27  and  C23_29 
REMARK    7  A    between atoms: C23_29  and  C24_30 
REMARK    8  A    between atoms: C24_30  and  C25_31 
REMARK       I    between atoms: C25_31  and  N1_33 
REMARK    9  A    between atoms: N1_33  and  C26_34 
REMARK   10  A    between atoms: C26_34  and  C27_35 
ROOT
HETATM    1  C1  UNL     1       4.739   9.721  11.670  1.00  0.00     0.021 C 
HETATM    2  C2  UNL     1       3.846   8.448  11.694  1.00  0.00    -0.009 C 
HETATM    3  C3  UNL     1       4.331   7.535  12.854  1.00  0.00     0.022 C 
HETATM    4  C4  UNL     1       5.745   6.985  12.662  1.00  0.00     0.084 C 
HETATM    5  C5  UNL     1       5.945   6.379  11.298  1.00  0.00     0.149 C 
HETATM    6  O1  UNL     1       6.859   5.593  11.060  1.00  0.00    -0.293 OA
HETATM    7  C6  UNL     1       5.032   6.775  10.203  1.00  0.00     0.053 C 
HETATM    8  C7  UNL     1       4.080   7.710  10.375  1.00  0.00    -0.067 C 
HETATM    9  C8  UNL     1       3.119   8.015   9.262  1.00  0.00     0.035 C 
HETATM   10  C9  UNL     1       1.755   7.505   9.702  1.00  0.00     0.010 C 
HETATM   11  C10 UNL     1       1.245   8.210  10.972  1.00  0.00     0.003 C 
HETATM   12  C11 UNL     1       2.342   8.932  11.816  1.00  0.00     0.072 C 
HETATM   13  C12 UNL     1       1.829   9.209  13.229  1.00  0.00     0.133 C 
HETATM   14  O2  UNL     1       2.570   9.482  14.171  1.00  0.00    -0.297 OA
HETATM   15  C13 UNL     1       0.331   9.325  13.388  1.00  0.00     0.091 C 
HETATM   16  C14 UNL     1      -0.466   8.072  12.931  1.00  0.00     0.005 C 
HETATM   17  C15 UNL     1      -1.843   8.610  12.479  1.00  0.00     0.019 C 
HETATM   18  C16 UNL     1       0.262   7.322  11.769  1.00  0.00     0.002 C 
HETATM   19  C17 UNL     1       0.905   6.073  12.402  1.00  0.00     0.009 C 
HETATM   20  C18 UNL     1       0.715   6.199  13.908  1.00  0.00     0.047 C 
HETATM   21  C19 UNL     1      -0.594   6.978  14.050  1.00  0.00     0.128 C 
ENDROOT
BRANCH  21  22
HETATM   22  O3  UNL     1      -0.659   7.558  15.345  1.00  0.00    -0.381 OA
HETATM   23  H25 UNL     1      -1.387   8.206  15.365  1.00  0.00     0.211 HD
ENDBRANCH  21  22
BRANCH  21  24
HETATM   24  C20 UNL     1      -1.757   5.952  13.886  1.00  0.00     0.185 C 
HETATM   25  O4  UNL     1      -1.700   5.019  13.083  1.00  0.00    -0.292 OA
BRANCH  24  26
HETATM   26  C21 UNL     1      -2.953   6.134  14.820  1.00  0.00     0.260 C 
BRANCH  26  27
HETATM   27  O5  UNL     1      -4.105   6.526  14.071  1.00  0.00    -0.314 OA
BRANCH  27  28
HETATM   28  C22 UNL     1      -5.277   6.489  14.760  1.00  0.00     0.259 C 
HETATM   29  O6  UNL     1      -5.392   6.145  15.927  1.00  0.00    -0.265 OA
BRANCH  28  30
HETATM   30  C23 UNL     1      -6.407   6.928  13.867  1.00  0.00     0.120 C 
BRANCH  30  31
HETATM   31  C24 UNL     1      -7.515   5.881  13.832  1.00  0.00     0.112 C 
BRANCH  31  32
HETATM   32  C25 UNL     1      -8.687   6.287  14.697  1.00  0.00     0.218 C 
HETATM   33  O7  UNL     1      -8.637   6.338  15.921  1.00  0.00    -0.274 OA
HETATM   34  N1  UNL     1      -9.812   6.594  13.967  1.00  0.00    -0.357 N 
HETATM   35  H32 UNL     1      -9.819   6.394  12.975  1.00  0.00     0.162 HD
BRANCH  34  36
HETATM   36  C26 UNL     1     -11.075   6.897  14.603  1.00  0.00     0.162 C 
BRANCH  36  37
HETATM   37  C27 UNL     1     -11.823   7.954  13.846  1.00  0.00    -0.025 A 
HETATM   38  C28 UNL     1     -13.120   7.735  13.373  1.00  0.00     0.011 A 
HETATM   39  C29 UNL     1     -13.777   8.733  12.661  1.00  0.00     0.018 A 
HETATM   40  C30 UNL     1     -13.111   9.926  12.441  1.00  0.00     0.087 A 
HETATM   41  N2  UNL     1     -11.858  10.177  12.877  1.00  0.00    -0.375 N 
HETATM   42  C31 UNL     1     -11.244   9.188  13.566  1.00  0.00     0.096 A 
ATOM     43  H2  UNL     1     -11.397  11.069  12.695  1.00  0.00     0.164 HD
ENDBRANCH  36  37
ENDBRANCH  34  36
ENDBRANCH  31  32
ENDBRANCH  30  31
ENDBRANCH  28  30
ENDBRANCH  27  28
ENDBRANCH  26  27
ENDBRANCH  24  26
ENDBRANCH  21  24
TORSDOF 10
ENDMDL
MODEL 6
REMARK minimizedAffinity -7.84897089
REMARK CNNscore 0.439194471
REMARK CNNaffinity 6.55362272
REMARK  10 active torsions:
REMARK  status: ('A' for Active; 'I' for Inactive)
REMARK    1  A    between atoms: C19_21  and  O3_22 
REMARK    2  A    between atoms: C19_21  and  C20_23 
REMARK    3  A    between atoms: C20_23  and  C21_25 
REMARK    4  A    between atoms: C21_25  and  O5_26 
REMARK    5  A    between atoms: O5_26  and  C22_27 
REMARK    6  A    between atoms: C22_27  and  C23_29 
REMARK    7  A    between atoms: C23_29  and  C24_30 
REMARK    8  A    between atoms: C24_30  and  C25_31 
REMARK       I    between atoms: C25_31  and  N1_33 
REMARK    9  A    between atoms: N1_33  and  C26_34 
REMARK   10  A    between atoms: C26_34  and  C27_35 
ROOT
HETATM    1  C1  UNL     1      -1.743   5.050  11.867  1.00  0.00     0.021 C 
HETATM    2  C2  UNL     1      -0.697   6.160  12.173  1.00  0.00    -0.009 C 
HETATM    3  C3  UNL     1       0.185   5.683  13.360  1.00  0.00     0.022 C 
HETATM    4  C4  UNL     1      -0.577   5.527  14.677  1.00  0.00     0.084 C 
HETATM    5  C5  UNL     1      -1.416   6.735  15.001  1.00  0.00     0.149 C 
HETATM    6  O1  UNL     1      -1.821   6.963  16.139  1.00  0.00    -0.293 OA
HETATM    7  C6  UNL     1      -1.795   7.652  13.904  1.00  0.00     0.053 C 
HETATM    8  C7  UNL     1      -1.473   7.398  12.623  1.00  0.00    -0.067 C 
HETATM    9  C8  UNL     1      -1.801   8.401  11.554  1.00  0.00     0.035 C 
HETATM   10  C9  UNL     1      -0.481   8.982  11.071  1.00  0.00     0.010 C 
HETATM   11  C10 UNL     1       0.439   7.914  10.450  1.00  0.00     0.003 C 
HETATM   12  C11 UNL     1       0.096   6.440  10.830  1.00  0.00     0.072 C 
HETATM   13  C12 UNL     1       1.284   5.525  10.538  1.00  0.00     0.133 C 
HETATM   14  O2  UNL     1       1.397   4.398  11.014  1.00  0.00    -0.297 OA
HETATM   15  C13 UNL     1       2.243   5.992   9.468  1.00  0.00     0.091 C 
HETATM   16  C14 UNL     1       2.887   7.380   9.738  1.00  0.00     0.005 C 
HETATM   17  C15 UNL     1       3.180   7.970   8.340  1.00  0.00     0.019 C 
HETATM   18  C16 UNL     1       1.931   8.305  10.558  1.00  0.00     0.002 C 
HETATM   19  C17 UNL     1       2.480   8.320  11.998  1.00  0.00     0.009 C 
HETATM   20  C18 UNL     1       3.601   7.290  12.049  1.00  0.00     0.047 C 
HETATM   21  C19 UNL     1       4.176   7.300  10.631  1.00  0.00     0.128 C 
ENDROOT
BRANCH  21  22
HETATM   22  O3  UNL     1       4.896   6.098  10.405  1.00  0.00    -0.381 OA
HETATM   23  H25 UNL     1       5.091   6.019   9.453  1.00  0.00     0.211 HD
ENDBRANCH  21  22
BRANCH  21  24
HETATM   24  C20 UNL     1       5.155   8.511  10.544  1.00  0.00     0.185 C 
HETATM   25  O4  UNL     1       4.963   9.456   9.775  1.00  0.00    -0.292 OA
BRANCH  24  26
HETATM   26  C21 UNL     1       6.341   8.490  11.507  1.00  0.00     0.260 C 
BRANCH  26  27
HETATM   27  O5  UNL     1       7.133   9.667  11.336  1.00  0.00    -0.314 OA
BRANCH  27  28
HETATM   28  C22 UNL     1       8.054   9.884  12.312  1.00  0.00     0.259 C 
HETATM   29  O6  UNL     1       8.491   9.027  13.066  1.00  0.00    -0.265 OA
BRANCH  28  30
HETATM   30  C23 UNL     1       8.449  11.338  12.326  1.00  0.00     0.120 C 
BRANCH  30  31
HETATM   31  C24 UNL     1       9.813  11.528  12.977  1.00  0.00     0.112 C 
BRANCH  31  32
HETATM   32  C25 UNL     1      10.935  11.216  12.012  1.00  0.00     0.218 C 
HETATM   33  O7  UNL     1      11.940  10.588  12.327  1.00  0.00    -0.274 OA
HETATM   34  N1  UNL     1      10.708  11.707  10.747  1.00  0.00    -0.357 N 
HETATM   35  H32 UNL     1       9.926  12.333  10.600  1.00  0.00     0.162 HD
BRANCH  34  36
HETATM   36  C26 UNL     1      11.705  11.617   9.703  1.00  0.00     0.162 C 
BRANCH  36  37
HETATM   37  C27 UNL     1      11.082  11.751   8.346  1.00  0.00    -0.025 A 
HETATM   38  C28 UNL     1      10.644  10.633   7.629  1.00  0.00     0.011 A 
HETATM   39  C29 UNL     1      10.085  10.795   6.366  1.00  0.00     0.018 A 
HETATM   40  C30 UNL     1       9.984  12.077   5.854  1.00  0.00     0.087 A 
HETATM   41  N2  UNL     1      10.397  13.181   6.511  1.00  0.00    -0.375 N 
HETATM   42  C31 UNL     1      10.937  12.994   7.737  1.00  0.00     0.096 A 
ATOM     43  H2  UNL     1      10.308  14.112   6.103  1.00  0.00     0.164 HD
ENDBRANCH  36  37
ENDBRANCH  34  36
ENDBRANCH  31  32
ENDBRANCH  30  31
ENDBRANCH  28  30
ENDBRANCH  27  28
ENDBRANCH  26  27
ENDBRANCH  24  26
ENDBRANCH  21  24
TORSDOF 10
ENDMDL
MODEL 7
REMARK minimizedAffinity -8.84513474
REMARK CNNscore 0.4086546
REMARK CNNaffinity 6.76687956
REMARK  10 active torsions:
REMARK  status: ('A' for Active; 'I' for Inactive)
REMARK    1  A    between atoms: C19_21  and  O3_22 
REMARK    2  A    between atoms: C19_21  and  C20_23 
REMARK    3  A    between atoms: C20_23  and  C21_25 
REMARK    4  A    between atoms: C21_25  and  O5_26 
REMARK    5  A    between atoms: O5_26  and  C22_27 
REMARK    6  A    between atoms: C22_27  and  C23_29 
REMARK    7  A    between atoms: C23_29  and  C24_30 
REMARK    8  A    between atoms: C24_30  and  C25_31 
REMARK       I    between atoms: C25_31  and  N1_33 
REMARK    9  A    between atoms: N1_33  and  C26_34 
REMARK   10  A    between atoms: C26_34  and  C27_35 
ROOT
HETATM    1  C1  UNL     1       4.338   8.209   9.780  1.00  0.00     0.021 C 
HETATM    2  C2  UNL     1       3.021   7.466  10.142  1.00  0.00    -0.009 C 
HETATM    3  C3  UNL     1       3.389   6.057  10.684  1.00  0.00     0.022 C 
HETATM    4  C4  UNL     1       4.050   5.146   9.647  1.00  0.00     0.084 C 
HETATM    5  C5  UNL     1       3.289   5.109   8.348  1.00  0.00     0.149 C 
HETATM    6  O1  UNL     1       3.439   4.205   7.529  1.00  0.00    -0.293 OA
HETATM    7  C6  UNL     1       2.361   6.218   8.036  1.00  0.00     0.053 C 
HETATM    8  C7  UNL     1       2.234   7.287   8.842  1.00  0.00    -0.067 C 
HETATM    9  C8  UNL     1       1.216   8.346   8.531  1.00  0.00     0.035 C 
HETATM   10  C9  UNL     1       0.137   8.251   9.598  1.00  0.00     0.010 C 
HETATM   11  C10 UNL     1       0.683   8.524  11.012  1.00  0.00     0.003 C 
HETATM   12  C11 UNL     1       2.230   8.382  11.165  1.00  0.00     0.072 C 
HETATM   13  C12 UNL     1       2.609   8.241  12.638  1.00  0.00     0.133 C 
HETATM   14  O2  UNL     1       3.699   7.817  13.014  1.00  0.00    -0.297 OA
HETATM   15  C13 UNL     1       1.643   8.832  13.639  1.00  0.00     0.091 C 
HETATM   16  C14 UNL     1       0.200   8.262  13.558  1.00  0.00     0.005 C 
HETATM   17  C15 UNL     1      -0.716   9.406  14.050  1.00  0.00     0.019 C 
HETATM   18  C16 UNL     1      -0.164   7.828  12.102  1.00  0.00     0.002 C 
HETATM   19  C17 UNL     1      -0.085   6.289  12.081  1.00  0.00     0.009 C 
HETATM   20  C18 UNL     1       0.489   5.863  13.427  1.00  0.00     0.047 C 
HETATM   21  C19 UNL     1       0.007   6.947  14.393  1.00  0.00     0.128 C 
ENDROOT
BRANCH  21  22
HETATM   22  O3  UNL     1       0.822   6.940  15.555  1.00  0.00    -0.381 OA
HETATM   23  H25 UNL     1       0.642   7.745  16.073  1.00  0.00     0.211 HD
ENDBRANCH  21  22
BRANCH  21  24
HETATM   24  C20 UNL     1      -1.458   6.586  14.789  1.00  0.00     0.185 C 
HETATM   25  O4  UNL     1      -2.105   7.262  15.592  1.00  0.00    -0.292 OA
BRANCH  24  26
HETATM   26  C21 UNL     1      -2.069   5.377  14.084  1.00  0.00     0.260 C 
BRANCH  26  27
HETATM   27  O5  UNL     1      -3.425   5.199  14.500  1.00  0.00    -0.314 OA
BRANCH  27  28
HETATM   28  C22 UNL     1      -4.346   5.289  13.504  1.00  0.00     0.259 C 
HETATM   29  O6  UNL     1      -4.126   5.062  12.323  1.00  0.00    -0.265 OA
BRANCH  28  30
HETATM   30  C23 UNL     1      -5.673   5.717  14.075  1.00  0.00     0.120 C 
BRANCH  30  31
HETATM   31  C24 UNL     1      -5.490   6.426  15.412  1.00  0.00     0.112 C 
BRANCH  31  32
HETATM   32  C25 UNL     1      -5.682   7.920  15.278  1.00  0.00     0.218 C 
HETATM   33  O7  UNL     1      -6.651   8.429  14.726  1.00  0.00    -0.274 OA
HETATM   34  N1  UNL     1      -4.658   8.645  15.842  1.00  0.00    -0.357 N 
HETATM   35  H32 UNL     1      -3.828   8.157  16.153  1.00  0.00     0.162 HD
BRANCH  34  36
HETATM   36  C26 UNL     1      -4.590  10.086  15.727  1.00  0.00     0.162 C 
BRANCH  36  37
HETATM   37  C27 UNL     1      -3.490  10.646  16.578  1.00  0.00    -0.025 A 
HETATM   38  C28 UNL     1      -3.301  10.226  17.898  1.00  0.00     0.011 A 
HETATM   39  C29 UNL     1      -2.280  10.780  18.663  1.00  0.00     0.018 A 
HETATM   40  C30 UNL     1      -1.476  11.744  18.081  1.00  0.00     0.087 A 
HETATM   41  N2  UNL     1      -1.627  12.181  16.812  1.00  0.00    -0.375 N 
HETATM   42  C31 UNL     1      -2.628  11.624  16.092  1.00  0.00     0.096 A 
ATOM     43  H2  UNL     1      -1.015  12.895  16.415  1.00  0.00     0.164 HD
ENDBRANCH  36  37
ENDBRANCH  34  36
ENDBRANCH  31  32
ENDBRANCH  30  31
ENDBRANCH  28  30
ENDBRANCH  27  28
ENDBRANCH  26  27
ENDBRANCH  24  26
ENDBRANCH  21  24
TORSDOF 10
ENDMDL
MODEL 8
REMARK minimizedAffinity -9.54187965
REMARK CNNscore 0.405519694
REMARK CNNaffinity 6.87632608
REMARK  10 active torsions:
REMARK  status: ('A' for Active; 'I' for Inactive)
REMARK    1  A    between atoms: C19_21  and  O3_22 
REMARK    2  A    between atoms: C19_21  and  C20_23 
REMARK    3  A    between atoms: C20_23  and  C21_25 
REMARK    4  A    between atoms: C21_25  and  O5_26 
REMARK    5  A    between atoms: O5_26  and  C22_27 
REMARK    6  A    between atoms: C22_27  and  C23_29 
REMARK    7  A    between atoms: C23_29  and  C24_30 
REMARK    8  A    between atoms: C24_30  and  C25_31 
REMARK       I    between atoms: C25_31  and  N1_33 
REMARK    9  A    between atoms: N1_33  and  C26_34 
REMARK   10  A    between atoms: C26_34  and  C27_35 
ROOT
HETATM    1  C1  UNL     1       3.064   5.220   9.845  1.00  0.00     0.021 C 
HETATM    2  C2  UNL     1       2.367   6.481  10.433  1.00  0.00    -0.009 C 
HETATM    3  C3  UNL     1       1.308   6.974   9.408  1.00  0.00     0.022 C 
HETATM    4  C4  UNL     1       1.904   7.468   8.088  1.00  0.00     0.084 C 
HETATM    5  C5  UNL     1       3.035   8.440   8.298  1.00  0.00     0.149 C 
HETATM    6  O1  UNL     1       3.413   9.204   7.412  1.00  0.00    -0.293 OA
HETATM    7  C6  UNL     1       3.735   8.447   9.601  1.00  0.00     0.053 C 
HETATM    8  C7  UNL     1       3.438   7.563  10.571  1.00  0.00    -0.067 C 
HETATM    9  C8  UNL     1       4.113   7.664  11.910  1.00  0.00     0.035 C 
HETATM   10  C9  UNL     1       3.053   8.102  12.908  1.00  0.00     0.010 C 
HETATM   11  C10 UNL     1       1.906   7.082  13.033  1.00  0.00     0.003 C 
HETATM   12  C11 UNL     1       1.780   6.076  11.848  1.00  0.00     0.072 C 
HETATM   13  C12 UNL     1       0.400   5.421  11.849  1.00  0.00     0.133 C 
HETATM   14  O2  UNL     1      -0.067   4.834  10.876  1.00  0.00    -0.297 OA
HETATM   15  C13 UNL     1      -0.310   5.356  13.182  1.00  0.00     0.091 C 
HETATM   16  C14 UNL     1      -0.539   6.734  13.861  1.00  0.00     0.005 C 
HETATM   17  C15 UNL     1      -0.555   6.441  15.378  1.00  0.00     0.019 C 
HETATM   18  C16 UNL     1       0.588   7.750  13.488  1.00  0.00     0.002 C 
HETATM   19  C17 UNL     1      -0.027   8.712  12.453  1.00  0.00     0.009 C 
HETATM   20  C18 UNL     1      -1.399   8.154  12.100  1.00  0.00     0.047 C 
HETATM   21  C19 UNL     1      -1.851   7.449  13.380  1.00  0.00     0.128 C 
ENDROOT
BRANCH  21  22
HETATM   22  O3  UNL     1      -2.874   6.514  13.068  1.00  0.00    -0.381 OA
HETATM   23  H25 UNL     1      -3.020   5.936  13.839  1.00  0.00     0.211 HD
ENDBRANCH  21  22
BRANCH  21  24
HETATM   24  C20 UNL     1      -2.429   8.547  14.326  1.00  0.00     0.185 C 
HETATM   25  O4  UNL     1      -2.055   9.721  14.274  1.00  0.00    -0.292 OA
BRANCH  24  26
HETATM   26  C21 UNL     1      -3.529   8.098  15.287  1.00  0.00     0.260 C 
BRANCH  26  27
HETATM   27  O5  UNL     1      -4.693   8.909  15.113  1.00  0.00    -0.314 OA
BRANCH  27  28
HETATM   28  C22 UNL     1      -5.668   8.354  14.345  1.00  0.00     0.259 C 
HETATM   29  O6  UNL     1      -5.484   7.800  13.271  1.00  0.00    -0.265 OA
BRANCH  28  30
HETATM   30  C23 UNL     1      -7.006   8.530  15.015  1.00  0.00     0.120 C 
BRANCH  30  31
HETATM   31  C24 UNL     1      -7.466   7.232  15.667  1.00  0.00     0.112 C 
BRANCH  31  32
HETATM   32  C25 UNL     1      -8.050   6.278  14.649  1.00  0.00     0.218 C 
HETATM   33  O7  UNL     1      -9.120   6.468  14.083  1.00  0.00    -0.274 OA
HETATM   34  N1  UNL     1      -7.254   5.179  14.425  1.00  0.00    -0.357 N 
HETATM   35  H32 UNL     1      -6.458   5.021  15.030  1.00  0.00     0.162 HD
BRANCH  34  36
HETATM   36  C26 UNL     1      -7.679   4.089  13.574  1.00  0.00     0.162 C 
BRANCH  36  37
HETATM   37  C27 UNL     1      -6.525   3.523  12.801  1.00  0.00    -0.025 A 
HETATM   38  C28 UNL     1      -6.652   2.348  12.054  1.00  0.00     0.011 A 
HETATM   39  C29 UNL     1      -5.556   1.844  11.363  1.00  0.00     0.018 A 
HETATM   40  C30 UNL     1      -4.358   2.533  11.442  1.00  0.00     0.087 A 
HETATM   41  N2  UNL     1      -4.192   3.668  12.155  1.00  0.00    -0.375 N 
HETATM   42  C31 UNL     1      -5.275   4.135  12.817  1.00  0.00     0.096 A 
ATOM     43  H2  UNL     1      -3.293   4.149  12.192  1.00  0.00     0.164 HD
ENDBRANCH  36  37
ENDBRANCH  34  36
ENDBRANCH  31  32
ENDBRANCH  30  31
ENDBRANCH  28  30
ENDBRANCH  27  28
ENDBRANCH  26  27
ENDBRANCH  24  26
ENDBRANCH  21  24
TORSDOF 10
ENDMDL
MODEL 9
REMARK minimizedAffinity -7.391119
REMARK CNNscore 0.378926277
REMARK CNNaffinity 7.10113335
REMARK  10 active torsions:
REMARK  status: ('A' for Active; 'I' for Inactive)
REMARK    1  A    between atoms: C19_21  and  O3_22 
REMARK    2  A    between atoms: C19_21  and  C20_23 
REMARK    3  A    between atoms: C20_23  and  C21_25 
REMARK    4  A    between atoms: C21_25  and  O5_26 
REMARK    5  A    between atoms: O5_26  and  C22_27 
REMARK    6  A    between atoms: C22_27  and  C23_29 
REMARK    7  A    between atoms: C23_29  and  C24_30 
REMARK    8  A    between atoms: C24_30  and  C25_31 
REMARK       I    between atoms: C25_31  and  N1_33 
REMARK    9  A    between atoms: N1_33  and  C26_34 
REMARK   10  A    between atoms: C26_34  and  C27_35 
ROOT
HETATM    1  C1  UNL     1      -3.250  10.726  18.239  1.00  0.00     0.021 C 
HETATM    2  C2  UNL     1      -3.012  10.453  16.727  1.00  0.00    -0.009 C 
HETATM    3  C3  UNL     1      -2.088  11.572  16.169  1.00  0.00     0.022 C 
HETATM    4  C4  UNL     1      -2.717  12.966  16.195  1.00  0.00     0.084 C 
HETATM    5  C5  UNL     1      -4.101  12.982  15.603  1.00  0.00     0.149 C 
HETATM    6  O1  UNL     1      -4.634  14.019  15.214  1.00  0.00    -0.293 OA
HETATM    7  C6  UNL     1      -4.856  11.711  15.525  1.00  0.00     0.053 C 
HETATM    8  C7  UNL     1      -4.369  10.564  16.031  1.00  0.00    -0.067 C 
HETATM    9  C8  UNL     1      -5.130   9.282  15.850  1.00  0.00     0.035 C 
HETATM   10  C9  UNL     1      -4.324   8.420  14.891  1.00  0.00     0.010 C 
HETATM   11  C10 UNL     1      -2.932   8.067  15.446  1.00  0.00     0.003 C 
HETATM   12  C11 UNL     1      -2.425   8.987  16.601  1.00  0.00     0.072 C 
HETATM   13  C12 UNL     1      -0.914   8.841  16.773  1.00  0.00     0.133 C 
HETATM   14  O2  UNL     1      -0.226   9.654  17.387  1.00  0.00    -0.297 OA
HETATM   15  C13 UNL     1      -0.309   7.535  16.314  1.00  0.00     0.091 C 
HETATM   16  C14 UNL     1      -0.558   7.198  14.818  1.00  0.00     0.005 C 
HETATM   17  C15 UNL     1      -0.554   5.654  14.745  1.00  0.00     0.019 C 
HETATM   18  C16 UNL     1      -1.914   7.789  14.316  1.00  0.00     0.002 C 
HETATM   19  C17 UNL     1      -1.554   9.025  13.467  1.00  0.00     0.009 C 
HETATM   20  C18 UNL     1      -0.056   9.247  13.632  1.00  0.00     0.047 C 
HETATM   21  C19 UNL     1       0.502   7.840  13.855  1.00  0.00     0.128 C 
ENDROOT
BRANCH  21  22
HETATM   22  O3  UNL     1       1.780   7.932  14.469  1.00  0.00    -0.381 OA
HETATM   23  H25 UNL     1       2.044   7.049  14.785  1.00  0.00     0.211 HD
ENDBRANCH  21  22
BRANCH  21  24
HETATM   24  C20 UNL     1       0.653   7.180  12.450  1.00  0.00     0.185 C 
HETATM   25  O4  UNL     1       1.745   6.816  12.010  1.00  0.00    -0.292 OA
BRANCH  24  26
HETATM   26  C21 UNL     1      -0.641   6.956  11.669  1.00  0.00     0.260 C 
BRANCH  26  27
HETATM   27  O5  UNL     1      -1.272   5.749  12.101  1.00  0.00    -0.314 OA
BRANCH  27  28
HETATM   28  C22 UNL     1      -0.948   4.643  11.379  1.00  0.00     0.259 C 
HETATM   29  O6  UNL     1       0.024   4.546  10.645  1.00  0.00    -0.265 OA
BRANCH  28  30
HETATM   30  C23 UNL     1      -1.969   3.562  11.617  1.00  0.00     0.120 C 
BRANCH  30  31
HETATM   31  C24 UNL     1      -3.253   3.844  10.846  1.00  0.00     0.112 C 
BRANCH  31  32
HETATM   32  C25 UNL     1      -4.436   3.126  11.458  1.00  0.00     0.218 C 
HETATM   33  O7  UNL     1      -4.542   1.905  11.487  1.00  0.00    -0.274 OA
HETATM   34  N1  UNL     1      -5.374   3.986  11.980  1.00  0.00    -0.357 N 
HETATM   35  H32 UNL     1      -5.285   4.977  11.794  1.00  0.00     0.162 HD
BRANCH  34  36
HETATM   36  C26 UNL     1      -6.633   3.510  12.511  1.00  0.00     0.162 C 
BRANCH  36  37
HETATM   37  C27 UNL     1      -7.144   4.419  13.590  1.00  0.00    -0.025 A 
HETATM   38  C28 UNL     1      -7.287   5.793  13.381  1.00  0.00     0.011 A 
HETATM   39  C29 UNL     1      -7.748   6.607  14.409  1.00  0.00     0.018 A 
HETATM   40  C30 UNL     1      -8.054   6.017  15.623  1.00  0.00     0.087 A 
HETATM   41  N2  UNL     1      -7.927   4.695  15.868  1.00  0.00    -0.375 N 
HETATM   42  C31 UNL     1      -7.476   3.929  14.849  1.00  0.00     0.096 A 
ATOM     43  H2  UNL     1      -8.161   4.294  16.776  1.00  0.00     0.164 HD
ENDBRANCH  36  37
ENDBRANCH  34  36
ENDBRANCH  31  32
ENDBRANCH  30  31
ENDBRANCH  28  30
ENDBRANCH  27  28
ENDBRANCH  26  27
ENDBRANCH  24  26
ENDBRANCH  21  24
TORSDOF 10
ENDMDL
