MODEL 1
REMARK minimizedAffinity -9.77780628
REMARK  8 active torsions:
REMARK  status: ('A' for Active; 'I' for Inactive)
REMARK    1  A    between atoms: C4_4  and  C5_5 
REMARK    2  A    between atoms: C5_5  and  C6_6 
REMARK    3  A    between atoms: C6_6  and  C7_7 
REMARK    4  A    between atoms: C7_7  and  C9_9 
REMARK    5  A    between atoms: C21_21  and  C22_22 
REMARK    6  A    between atoms: C22_22  and  C23_23 
REMARK    7  A    between atoms: C23_23  and  C24_24 
REMARK    8  A    between atoms: C24_24  and  O1_25 
ROOT
HETATM    1  C9  UNL     1      -4.075  50.524 -24.500  1.00  0.00    -0.002 C 
HETATM    2  C10 UNL     1      -5.343  50.043 -23.747  1.00  0.00     0.006 C 
HETATM    3  C11 UNL     1      -5.088  50.280 -22.239  1.00  0.00     0.011 C 
HETATM    4  C12 UNL     1      -3.557  50.165 -22.102  1.00  0.00    -0.032 C 
HETATM    5  C13 UNL     1      -3.259  48.641 -22.137  1.00  0.00     0.016 C 
HETATM    6  C14 UNL     1      -2.910  50.807 -20.838  1.00  0.00     0.003 C 
HETATM    7  C15 UNL     1      -3.448  50.296 -19.490  1.00  0.00     0.010 C 
HETATM    8  C16 UNL     1      -2.917  51.166 -18.351  1.00  0.00     0.035 C 
HETATM    9  C17 UNL     1      -1.383  51.243 -18.322  1.00  0.00    -0.073 C 
HETATM   10  C18 UNL     1      -0.710  50.855 -17.204  1.00  0.00    -0.085 C 
HETATM   11  C19 UNL     1      -1.405  50.157 -16.046  1.00  0.00     0.043 C 
HETATM   12  C20 UNL     1       0.755  51.016 -16.905  1.00  0.00     0.043 C 
HETATM   13  C21 UNL     1      -0.872  51.827 -19.675  1.00  0.00     0.023 C 
HETATM   14  C25 UNL     1      -1.312  50.856 -20.874  1.00  0.00    -0.032 C 
HETATM   15  C26 UNL     1      -0.664  49.460 -20.652  1.00  0.00     0.016 C 
HETATM   16  C27 UNL     1      -0.828  51.393 -22.270  1.00  0.00     0.011 C 
HETATM   17  C28 UNL     1      -1.580  50.859 -23.520  1.00  0.00     0.011 C 
HETATM   18  C29 UNL     1      -3.100  50.988 -23.363  1.00  0.00    -0.032 C 
HETATM   19  C30 UNL     1      -3.392  52.541 -23.254  1.00  0.00     0.016 C 
ENDROOT
BRANCH   1  20
HETATM   20  C7  UNL     1      -3.556  49.703 -25.716  1.00  0.00    -0.014 C 
HETATM   21  C8  UNL     1      -4.261  48.337 -25.767  1.00  0.00     0.010 C 
BRANCH  20  22
HETATM   22  C6  UNL     1      -2.039  49.549 -25.955  1.00  0.00     0.008 C 
BRANCH  22  23
HETATM   23  C5  UNL     1      -1.354  50.586 -26.854  1.00  0.00     0.028 C 
BRANCH  23  24
HETATM   24  C4  UNL     1       0.082  50.785 -26.445  1.00  0.00    -0.025 C 
HETATM   25  C2  UNL     1       1.061  51.404 -27.132  1.00  0.00    -0.091 C 
HETATM   26  C1  UNL     1       2.461  51.472 -26.578  1.00  0.00     0.042 C 
HETATM   27  C3  UNL     1       0.893  52.080 -28.465  1.00  0.00     0.042 C 
ENDBRANCH  23  24
ENDBRANCH  22  23
ENDBRANCH  20  22
ENDBRANCH   1  20
BRANCH  13  28
HETATM   28  C22 UNL     1       0.537  52.476 -19.783  1.00  0.00     0.012 C 
BRANCH  28  29
HETATM   29  C23 UNL     1       0.692  53.882 -20.367  1.00  0.00     0.027 C 
BRANCH  29  30
HETATM   30  C24 UNL     1       1.800  53.924 -21.416  1.00  0.00     0.164 C 
BRANCH  30  31
HETATM   31  O1  UNL     1       1.840  55.205 -22.030  1.00  0.00    -0.401 OA
HETATM   32  H42 UNL     1       0.958  55.382 -22.398  1.00  0.00     0.209 HD
ENDBRANCH  30  31
ENDBRANCH  29  30
ENDBRANCH  28  29
ENDBRANCH  13  28
TORSDOF 8
ENDMDL
MODEL 2
REMARK minimizedAffinity -9.32464504
REMARK  8 active torsions:
REMARK  status: ('A' for Active; 'I' for Inactive)
REMARK    1  A    between atoms: C4_4  and  C5_5 
REMARK    2  A    between atoms: C5_5  and  C6_6 
REMARK    3  A    between atoms: C6_6  and  C7_7 
REMARK    4  A    between atoms: C7_7  and  C9_9 
REMARK    5  A    between atoms: C21_21  and  C22_22 
REMARK    6  A    between atoms: C22_22  and  C23_23 
REMARK    7  A    between atoms: C23_23  and  C24_24 
REMARK    8  A    between atoms: C24_24  and  O1_25 
ROOT
HETATM    1  C9  UNL     1      -3.686  50.515 -24.648  1.00  0.00    -0.002 C 
HETATM    2  C10 UNL     1      -4.953  49.944 -23.960  1.00  0.00     0.006 C 
HETATM    3  C11 UNL     1      -4.779  50.168 -22.438  1.00  0.00     0.011 C 
HETATM    4  C12 UNL     1      -3.251  50.142 -22.236  1.00  0.00    -0.032 C 
HETATM    5  C13 UNL     1      -2.859  48.640 -22.282  1.00  0.00     0.016 C 
HETATM    6  C14 UNL     1      -2.699  50.797 -20.934  1.00  0.00     0.003 C 
HETATM    7  C15 UNL     1      -3.262  50.230 -19.620  1.00  0.00     0.010 C 
HETATM    8  C16 UNL     1      -2.835  51.108 -18.445  1.00  0.00     0.035 C 
HETATM    9  C17 UNL     1      -1.310  51.276 -18.347  1.00  0.00    -0.073 C 
HETATM   10  C18 UNL     1      -0.664  50.909 -17.206  1.00  0.00    -0.085 C 
HETATM   11  C19 UNL     1      -1.364  50.148 -16.092  1.00  0.00     0.043 C 
HETATM   12  C20 UNL     1       0.775  51.151 -16.841  1.00  0.00     0.043 C 
HETATM   13  C21 UNL     1      -0.779  51.915 -19.666  1.00  0.00     0.023 C 
HETATM   14  C25 UNL     1      -1.106  50.943 -20.899  1.00  0.00    -0.032 C 
HETATM   15  C26 UNL     1      -0.385  49.584 -20.671  1.00  0.00     0.016 C 
HETATM   16  C27 UNL     1      -0.596  51.535 -22.263  1.00  0.00     0.011 C 
HETATM   17  C28 UNL     1      -1.260  50.980 -23.553  1.00  0.00     0.011 C 
HETATM   18  C29 UNL     1      -2.790  51.015 -23.462  1.00  0.00    -0.032 C 
HETATM   19  C30 UNL     1      -3.181  52.545 -23.340  1.00  0.00     0.016 C 
ENDROOT
BRANCH   1  20
HETATM   20  C7  UNL     1      -3.066  49.750 -25.853  1.00  0.00    -0.014 C 
HETATM   21  C8  UNL     1      -2.879  50.707 -27.043  1.00  0.00     0.010 C 
BRANCH  20  22
HETATM   22  C6  UNL     1      -3.676  48.410 -26.316  1.00  0.00     0.008 C 
BRANCH  22  23
HETATM   23  C5  UNL     1      -4.172  48.319 -27.764  1.00  0.00     0.028 C 
BRANCH  23  24
HETATM   24  C4  UNL     1      -5.609  47.869 -27.812  1.00  0.00    -0.025 C 
HETATM   25  C2  UNL     1      -6.285  47.363 -28.863  1.00  0.00    -0.091 C 
HETATM   26  C1  UNL     1      -7.741  47.002 -28.734  1.00  0.00     0.042 C 
HETATM   27  C3  UNL     1      -5.703  47.101 -30.224  1.00  0.00     0.042 C 
ENDBRANCH  23  24
ENDBRANCH  22  23
ENDBRANCH  20  22
ENDBRANCH   1  20
BRANCH  13  28
HETATM   28  C22 UNL     1       0.591  52.651 -19.701  1.00  0.00     0.012 C 
BRANCH  28  29
HETATM   29  C23 UNL     1       0.718  54.006 -20.399  1.00  0.00     0.027 C 
BRANCH  29  30
HETATM   30  C24 UNL     1       1.850  53.994 -21.425  1.00  0.00     0.164 C 
BRANCH  30  31
HETATM   31  O1  UNL     1       1.841  55.203 -22.172  1.00  0.00    -0.401 OA
HETATM   32  H42 UNL     1       0.960  55.293 -22.575  1.00  0.00     0.209 HD
ENDBRANCH  30  31
ENDBRANCH  29  30
ENDBRANCH  28  29
ENDBRANCH  13  28
TORSDOF 8
ENDMDL
MODEL 3
REMARK minimizedAffinity -8.44683361
REMARK  8 active torsions:
REMARK  status: ('A' for Active; 'I' for Inactive)
REMARK    1  A    between atoms: C4_4  and  C5_5 
REMARK    2  A    between atoms: C5_5  and  C6_6 
REMARK    3  A    between atoms: C6_6  and  C7_7 
REMARK    4  A    between atoms: C7_7  and  C9_9 
REMARK    5  A    between atoms: C21_21  and  C22_22 
REMARK    6  A    between atoms: C22_22  and  C23_23 
REMARK    7  A    between atoms: C23_23  and  C24_24 
REMARK    8  A    between atoms: C24_24  and  O1_25 
ROOT
HETATM    1  C9  UNL     1      -1.735  50.416 -23.041  1.00  0.00    -0.002 C 
HETATM    2  C10 UNL     1      -1.137  49.618 -21.853  1.00  0.00     0.006 C 
HETATM    3  C11 UNL     1      -2.091  48.429 -21.583  1.00  0.00     0.011 C 
HETATM    4  C12 UNL     1      -3.467  48.952 -22.041  1.00  0.00    -0.032 C 
HETATM    5  C13 UNL     1      -3.950  49.884 -20.895  1.00  0.00     0.016 C 
HETATM    6  C14 UNL     1      -4.559  47.886 -22.357  1.00  0.00     0.003 C 
HETATM    7  C15 UNL     1      -4.887  46.917 -21.208  1.00  0.00     0.010 C 
HETATM    8  C16 UNL     1      -5.779  45.785 -21.717  1.00  0.00     0.035 C 
HETATM    9  C17 UNL     1      -7.071  46.291 -22.376  1.00  0.00    -0.073 C 
HETATM   10  C18 UNL     1      -8.277  45.883 -21.896  1.00  0.00    -0.085 C 
HETATM   11  C19 UNL     1      -8.406  45.100 -20.600  1.00  0.00     0.043 C 
HETATM   12  C20 UNL     1      -9.637  46.114 -22.497  1.00  0.00     0.043 C 
HETATM   13  C21 UNL     1      -6.705  47.216 -23.578  1.00  0.00     0.023 C 
HETATM   14  C25 UNL     1      -5.876  48.481 -23.044  1.00  0.00    -0.032 C 
HETATM   15  C26 UNL     1      -6.763  49.278 -22.047  1.00  0.00     0.016 C 
HETATM   16  C27 UNL     1      -5.473  49.453 -24.212  1.00  0.00     0.011 C 
HETATM   17  C28 UNL     1      -4.283  50.413 -23.938  1.00  0.00     0.011 C 
HETATM   18  C29 UNL     1      -3.065  49.662 -23.386  1.00  0.00    -0.032 C 
HETATM   19  C30 UNL     1      -2.622  48.660 -24.530  1.00  0.00     0.016 C 
ENDROOT
BRANCH   1  20
HETATM   20  C7  UNL     1      -1.677  51.971 -23.018  1.00  0.00    -0.014 C 
HETATM   21  C8  UNL     1      -2.878  52.553 -23.782  1.00  0.00     0.010 C 
BRANCH  20  22
HETATM   22  C6  UNL     1      -0.373  52.703 -23.402  1.00  0.00     0.008 C 
BRANCH  22  23
HETATM   23  C5  UNL     1       0.660  51.925 -24.226  1.00  0.00     0.028 C 
BRANCH  23  24
HETATM   24  C4  UNL     1       0.276  51.900 -25.682  1.00  0.00    -0.025 C 
HETATM   25  C2  UNL     1       1.079  51.714 -26.748  1.00  0.00    -0.091 C 
HETATM   26  C1  UNL     1       0.520  51.762 -28.146  1.00  0.00     0.042 C 
HETATM   27  C3  UNL     1       2.556  51.440 -26.685  1.00  0.00     0.042 C 
ENDBRANCH  23  24
ENDBRANCH  22  23
ENDBRANCH  20  22
ENDBRANCH   1  20
BRANCH  13  28
HETATM   28  C22 UNL     1      -7.727  47.483 -24.720  1.00  0.00     0.012 C 
BRANCH  28  29
HETATM   29  C23 UNL     1      -8.743  48.620 -24.592  1.00  0.00     0.027 C 
BRANCH  29  30
HETATM   30  C24 UNL     1      -9.543  48.791 -25.881  1.00  0.00     0.164 C 
BRANCH  30  31
HETATM   31  O1  UNL     1      -9.669  50.171 -26.195  1.00  0.00    -0.401 OA
HETATM   32  H42 UNL     1     -10.078  50.610 -25.430  1.00  0.00     0.209 HD
ENDBRANCH  30  31
ENDBRANCH  29  30
ENDBRANCH  28  29
ENDBRANCH  13  28
TORSDOF 8
ENDMDL
MODEL 4
REMARK minimizedAffinity -8.30546951
REMARK  8 active torsions:
REMARK  status: ('A' for Active; 'I' for Inactive)
REMARK    1  A    between atoms: C4_4  and  C5_5 
REMARK    2  A    between atoms: C5_5  and  C6_6 
REMARK    3  A    between atoms: C6_6  and  C7_7 
REMARK    4  A    between atoms: C7_7  and  C9_9 
REMARK    5  A    between atoms: C21_21  and  C22_22 
REMARK    6  A    between atoms: C22_22  and  C23_23 
REMARK    7  A    between atoms: C23_23  and  C24_24 
REMARK    8  A    between atoms: C24_24  and  O1_25 
ROOT
HETATM    1  C9  UNL     1      -1.711  49.743 -18.938  1.00  0.00    -0.002 C 
HETATM    2  C10 UNL     1      -2.784  48.624 -18.984  1.00  0.00     0.006 C 
HETATM    3  C11 UNL     1      -2.994  48.263 -20.474  1.00  0.00     0.011 C 
HETATM    4  C12 UNL     1      -2.665  49.572 -21.219  1.00  0.00    -0.032 C 
HETATM    5  C13 UNL     1      -3.917  50.471 -21.034  1.00  0.00     0.016 C 
HETATM    6  C14 UNL     1      -2.311  49.454 -22.732  1.00  0.00     0.003 C 
HETATM    7  C15 UNL     1      -3.380  48.780 -23.609  1.00  0.00     0.010 C 
HETATM    8  C16 UNL     1      -2.818  48.508 -25.004  1.00  0.00     0.035 C 
HETATM    9  C17 UNL     1      -2.281  49.774 -25.690  1.00  0.00    -0.073 C 
HETATM   10  C18 UNL     1      -2.788  50.153 -26.896  1.00  0.00    -0.085 C 
HETATM   11  C19 UNL     1      -4.010  49.484 -27.503  1.00  0.00     0.043 C 
HETATM   12  C20 UNL     1      -2.287  51.240 -27.808  1.00  0.00     0.043 C 
HETATM   13  C21 UNL     1      -1.154  50.396 -24.810  1.00  0.00     0.023 C 
HETATM   14  C25 UNL     1      -1.757  50.807 -23.382  1.00  0.00    -0.032 C 
HETATM   15  C26 UNL     1      -2.872  51.869 -23.596  1.00  0.00     0.016 C 
HETATM   16  C27 UNL     1      -0.664  51.438 -22.445  1.00  0.00     0.011 C 
HETATM   17  C28 UNL     1      -0.960  51.417 -20.920  1.00  0.00     0.011 C 
HETATM   18  C29 UNL     1      -1.371  50.019 -20.443  1.00  0.00    -0.032 C 
HETATM   19  C30 UNL     1      -0.115  49.088 -20.702  1.00  0.00     0.016 C 
ENDROOT
BRANCH   1  20
HETATM   20  C7  UNL     1      -1.876  50.913 -17.925  1.00  0.00    -0.014 C 
HETATM   21  C8  UNL     1      -0.503  51.323 -17.367  1.00  0.00     0.010 C 
BRANCH  20  22
HETATM   22  C6  UNL     1      -2.923  50.816 -16.795  1.00  0.00     0.008 C 
BRANCH  22  23
HETATM   23  C5  UNL     1      -2.406  50.621 -15.364  1.00  0.00     0.028 C 
BRANCH  23  24
HETATM   24  C4  UNL     1      -3.209  51.439 -14.387  1.00  0.00    -0.025 C 
HETATM   25  C2  UNL     1      -2.770  52.083 -13.288  1.00  0.00    -0.091 C 
HETATM   26  C1  UNL     1      -3.734  52.825 -12.399  1.00  0.00     0.042 C 
HETATM   27  C3  UNL     1      -1.338  52.147 -12.833  1.00  0.00     0.042 C 
ENDBRANCH  23  24
ENDBRANCH  22  23
ENDBRANCH  20  22
ENDBRANCH   1  20
BRANCH  13  28
HETATM   28  C22 UNL     1      -0.100  51.360 -25.427  1.00  0.00     0.012 C 
BRANCH  28  29
HETATM   29  C23 UNL     1       0.924  50.835 -26.436  1.00  0.00     0.027 C 
BRANCH  29  30
HETATM   30  C24 UNL     1       1.844  51.954 -26.919  1.00  0.00     0.164 C 
BRANCH  30  31
HETATM   31  O1  UNL     1       3.146  51.440 -27.165  1.00  0.00    -0.401 OA
HETATM   32  H42 UNL     1       3.455  51.018 -26.346  1.00  0.00     0.209 HD
ENDBRANCH  30  31
ENDBRANCH  29  30
ENDBRANCH  28  29
ENDBRANCH  13  28
TORSDOF 8
ENDMDL
MODEL 5
REMARK minimizedAffinity -8.29329395
REMARK  8 active torsions:
REMARK  status: ('A' for Active; 'I' for Inactive)
REMARK    1  A    between atoms: C4_4  and  C5_5 
REMARK    2  A    between atoms: C5_5  and  C6_6 
REMARK    3  A    between atoms: C6_6  and  C7_7 
REMARK    4  A    between atoms: C7_7  and  C9_9 
REMARK    5  A    between atoms: C21_21  and  C22_22 
REMARK    6  A    between atoms: C22_22  and  C23_23 
REMARK    7  A    between atoms: C23_23  and  C24_24 
REMARK    8  A    between atoms: C24_24  and  O1_25 
ROOT
HETATM    1  C9  UNL     1      -2.211  50.206 -23.264  1.00  0.00    -0.002 C 
HETATM    2  C10 UNL     1      -1.538  49.429 -22.102  1.00  0.00     0.006 C 
HETATM    3  C11 UNL     1      -2.436  48.204 -21.800  1.00  0.00     0.011 C 
HETATM    4  C12 UNL     1      -3.847  48.676 -22.203  1.00  0.00    -0.032 C 
HETATM    5  C13 UNL     1      -4.320  49.586 -21.036  1.00  0.00     0.016 C 
HETATM    6  C14 UNL     1      -4.909  47.570 -22.480  1.00  0.00     0.003 C 
HETATM    7  C15 UNL     1      -5.156  46.587 -21.323  1.00  0.00     0.010 C 
HETATM    8  C16 UNL     1      -6.024  45.423 -21.801  1.00  0.00     0.035 C 
HETATM    9  C17 UNL     1      -7.358  45.882 -22.409  1.00  0.00    -0.073 C 
HETATM   10  C18 UNL     1      -8.529  45.427 -21.884  1.00  0.00    -0.085 C 
HETATM   11  C19 UNL     1      -8.578  44.637 -20.586  1.00  0.00     0.043 C 
HETATM   12  C20 UNL     1      -9.919  45.607 -22.431  1.00  0.00     0.043 C 
HETATM   13  C21 UNL     1      -7.074  46.822 -23.620  1.00  0.00     0.023 C 
HETATM   14  C25 UNL     1      -6.273  48.116 -23.114  1.00  0.00    -0.032 C 
HETATM   15  C26 UNL     1      -7.151  48.877 -22.080  1.00  0.00     0.016 C 
HETATM   16  C27 UNL     1      -5.953  49.105 -24.293  1.00  0.00     0.011 C 
HETATM   17  C28 UNL     1      -4.790  50.109 -24.062  1.00  0.00     0.011 C 
HETATM   18  C29 UNL     1      -3.525  49.403 -23.560  1.00  0.00    -0.032 C 
HETATM   19  C30 UNL     1      -3.088  48.420 -24.724  1.00  0.00     0.016 C 
ENDROOT
BRANCH   1  20
HETATM   20  C7  UNL     1      -2.211  51.762 -23.237  1.00  0.00    -0.014 C 
HETATM   21  C8  UNL     1      -3.653  52.289 -23.327  1.00  0.00     0.010 C 
BRANCH  20  22
HETATM   22  C6  UNL     1      -1.277  52.552 -24.178  1.00  0.00     0.008 C 
BRANCH  22  23
HETATM   23  C5  UNL     1       0.188  52.711 -23.753  1.00  0.00     0.028 C 
BRANCH  23  24
HETATM   24  C4  UNL     1       0.327  52.602 -22.257  1.00  0.00    -0.025 C 
HETATM   25  C2  UNL     1       1.007  53.416 -21.426  1.00  0.00    -0.091 C 
HETATM   26  C1  UNL     1       1.068  53.125 -19.949  1.00  0.00     0.042 C 
HETATM   27  C3  UNL     1       1.746  54.658 -21.840  1.00  0.00     0.042 C 
ENDBRANCH  23  24
ENDBRANCH  22  23
ENDBRANCH  20  22
ENDBRANCH   1  20
BRANCH  13  28
HETATM   28  C22 UNL     1      -8.148  47.052 -24.721  1.00  0.00     0.012 C 
BRANCH  28  29
HETATM   29  C23 UNL     1      -9.050  48.288 -24.669  1.00  0.00     0.027 C 
BRANCH  29  30
HETATM   30  C24 UNL     1      -9.314  48.836 -26.069  1.00  0.00     0.164 C 
BRANCH  30  31
HETATM   31  O1  UNL     1      -9.760  50.183 -25.987  1.00  0.00    -0.401 OA
HETATM   32  H42 UNL     1     -10.547  50.198 -25.416  1.00  0.00     0.209 HD
ENDBRANCH  30  31
ENDBRANCH  29  30
ENDBRANCH  28  29
ENDBRANCH  13  28
TORSDOF 8
ENDMDL
MODEL 6
REMARK minimizedAffinity -8.27836418
REMARK  8 active torsions:
REMARK  status: ('A' for Active; 'I' for Inactive)
REMARK    1  A    between atoms: C4_4  and  C5_5 
REMARK    2  A    between atoms: C5_5  and  C6_6 
REMARK    3  A    between atoms: C6_6  and  C7_7 
REMARK    4  A    between atoms: C7_7  and  C9_9 
REMARK    5  A    between atoms: C21_21  and  C22_22 
REMARK    6  A    between atoms: C22_22  and  C23_23 
REMARK    7  A    between atoms: C23_23  and  C24_24 
REMARK    8  A    between atoms: C24_24  and  O1_25 
ROOT
HETATM    1  C9  UNL     1      -0.317  50.277 -20.778  1.00  0.00    -0.002 C 
HETATM    2  C10 UNL     1      -0.415  50.464 -19.241  1.00  0.00     0.006 C 
HETATM    3  C11 UNL     1      -1.735  49.794 -18.789  1.00  0.00     0.011 C 
HETATM    4  C12 UNL     1      -2.651  49.917 -20.022  1.00  0.00    -0.032 C 
HETATM    5  C13 UNL     1      -3.142  51.390 -20.019  1.00  0.00     0.016 C 
HETATM    6  C14 UNL     1      -3.869  48.948 -20.097  1.00  0.00     0.003 C 
HETATM    7  C15 UNL     1      -4.836  49.011 -18.902  1.00  0.00     0.010 C 
HETATM    8  C16 UNL     1      -5.837  47.858 -18.978  1.00  0.00     0.035 C 
HETATM    9  C17 UNL     1      -6.619  47.830 -20.300  1.00  0.00    -0.073 C 
HETATM   10  C18 UNL     1      -7.979  47.888 -20.279  1.00  0.00    -0.085 C 
HETATM   11  C19 UNL     1      -8.755  48.180 -19.005  1.00  0.00     0.043 C 
HETATM   12  C20 UNL     1      -8.930  47.697 -21.429  1.00  0.00     0.043 C 
HETATM   13  C21 UNL     1      -5.616  47.699 -21.487  1.00  0.00     0.023 C 
HETATM   14  C25 UNL     1      -4.637  48.968 -21.501  1.00  0.00    -0.032 C 
HETATM   15  C26 UNL     1      -5.486  50.255 -21.700  1.00  0.00     0.016 C 
HETATM   16  C27 UNL     1      -3.596  48.893 -22.677  1.00  0.00     0.011 C 
HETATM   17  C28 UNL     1      -2.310  49.751 -22.523  1.00  0.00     0.011 C 
HETATM   18  C29 UNL     1      -1.639  49.528 -21.163  1.00  0.00    -0.032 C 
HETATM   19  C30 UNL     1      -1.206  48.004 -21.141  1.00  0.00     0.016 C 
ENDROOT
BRANCH   1  20
HETATM   20  C7  UNL     1       0.228  51.442 -21.652  1.00  0.00    -0.014 C 
HETATM   21  C8  UNL     1       0.183  52.760 -20.859  1.00  0.00     0.010 C 
BRANCH  20  22
HETATM   22  C6  UNL     1      -0.301  51.647 -23.088  1.00  0.00     0.008 C 
BRANCH  22  23
HETATM   23  C5  UNL     1       0.565  52.467 -24.052  1.00  0.00     0.028 C 
BRANCH  23  24
HETATM   24  C4  UNL     1       0.171  52.204 -25.482  1.00  0.00    -0.025 C 
HETATM   25  C2  UNL     1       0.950  51.763 -26.489  1.00  0.00    -0.091 C 
HETATM   26  C1  UNL     1       0.388  51.595 -27.876  1.00  0.00     0.042 C 
HETATM   27  C3  UNL     1       2.402  51.393 -26.364  1.00  0.00     0.042 C 
ENDBRANCH  23  24
ENDBRANCH  22  23
ENDBRANCH  20  22
ENDBRANCH   1  20
BRANCH  13  28
HETATM   28  C22 UNL     1      -6.083  47.161 -22.870  1.00  0.00     0.012 C 
BRANCH  28  29
HETATM   29  C23 UNL     1      -6.116  48.092 -24.084  1.00  0.00     0.027 C 
BRANCH  29  30
HETATM   30  C24 UNL     1      -7.542  48.272 -24.601  1.00  0.00     0.164 C 
BRANCH  30  31
HETATM   31  O1  UNL     1      -7.893  49.649 -24.589  1.00  0.00    -0.401 OA
HETATM   32  H42 UNL     1      -7.771  49.976 -23.681  1.00  0.00     0.209 HD
ENDBRANCH  30  31
ENDBRANCH  29  30
ENDBRANCH  28  29
ENDBRANCH  13  28
TORSDOF 8
ENDMDL
MODEL 7
REMARK minimizedAffinity -8.04392147
REMARK  8 active torsions:
REMARK  status: ('A' for Active; 'I' for Inactive)
REMARK    1  A    between atoms: C4_4  and  C5_5 
REMARK    2  A    between atoms: C5_5  and  C6_6 
REMARK    3  A    between atoms: C6_6  and  C7_7 
REMARK    4  A    between atoms: C7_7  and  C9_9 
REMARK    5  A    between atoms: C21_21  and  C22_22 
REMARK    6  A    between atoms: C22_22  and  C23_23 
REMARK    7  A    between atoms: C23_23  and  C24_24 
REMARK    8  A    between atoms: C24_24  and  O1_25 
ROOT
HETATM    1  C9  UNL     1      -5.347  47.972 -22.499  1.00  0.00    -0.002 C 
HETATM    2  C10 UNL     1      -5.687  47.796 -24.003  1.00  0.00     0.006 C 
HETATM    3  C11 UNL     1      -4.557  48.488 -24.803  1.00  0.00     0.011 C 
HETATM    4  C12 UNL     1      -4.066  49.602 -23.858  1.00  0.00    -0.032 C 
HETATM    5  C13 UNL     1      -5.130  50.727 -23.968  1.00  0.00     0.016 C 
HETATM    6  C14 UNL     1      -2.646  50.183 -24.130  1.00  0.00     0.003 C 
HETATM    7  C15 UNL     1      -2.427  50.760 -25.539  1.00  0.00     0.010 C 
HETATM    8  C16 UNL     1      -0.946  51.068 -25.754  1.00  0.00     0.035 C 
HETATM    9  C17 UNL     1      -0.371  52.017 -24.691  1.00  0.00    -0.073 C 
HETATM   10  C18 UNL     1       0.202  53.191 -25.075  1.00  0.00    -0.085 C 
HETATM   11  C19 UNL     1       0.120  53.699 -26.505  1.00  0.00     0.043 C 
HETATM   12  C20 UNL     1       0.973  54.164 -24.224  1.00  0.00     0.043 C 
HETATM   13  C21 UNL     1      -0.546  51.374 -23.281  1.00  0.00     0.023 C 
HETATM   14  C25 UNL     1      -2.108  51.160 -22.983  1.00  0.00    -0.032 C 
HETATM   15  C26 UNL     1      -2.815  52.545 -22.997  1.00  0.00     0.016 C 
HETATM   16  C27 UNL     1      -2.352  50.510 -21.573  1.00  0.00     0.011 C 
HETATM   17  C28 UNL     1      -3.718  49.801 -21.361  1.00  0.00     0.011 C 
HETATM   18  C29 UNL     1      -4.027  48.817 -22.495  1.00  0.00    -0.032 C 
HETATM   19  C30 UNL     1      -2.895  47.711 -22.426  1.00  0.00     0.016 C 
ENDROOT
BRANCH   1  20
HETATM   20  C7  UNL     1      -6.494  48.271 -21.491  1.00  0.00    -0.014 C 
HETATM   21  C8  UNL     1      -7.233  49.556 -21.901  1.00  0.00     0.010 C 
BRANCH  20  22
HETATM   22  C6  UNL     1      -6.212  48.260 -19.973  1.00  0.00     0.008 C 
BRANCH  22  23
HETATM   23  C5  UNL     1      -7.002  47.265 -19.114  1.00  0.00     0.028 C 
BRANCH  23  24
HETATM   24  C4  UNL     1      -8.477  47.357 -19.407  1.00  0.00    -0.025 C 
HETATM   25  C2  UNL     1      -9.363  48.254 -18.929  1.00  0.00    -0.091 C 
HETATM   26  C1  UNL     1     -10.819  48.166 -19.303  1.00  0.00     0.042 C 
HETATM   27  C3  UNL     1      -9.030  49.401 -18.016  1.00  0.00     0.042 C 
ENDBRANCH  23  24
ENDBRANCH  22  23
ENDBRANCH  20  22
ENDBRANCH   1  20
BRANCH  13  28
HETATM   28  C22 UNL     1       0.338  51.823 -22.083  1.00  0.00     0.012 C 
BRANCH  28  29
HETATM   29  C23 UNL     1      -0.264  52.668 -20.958  1.00  0.00     0.027 C 
BRANCH  29  30
HETATM   30  C24 UNL     1       0.746  53.686 -20.433  1.00  0.00     0.164 C 
BRANCH  30  31
HETATM   31  O1  UNL     1       0.219  54.348 -19.291  1.00  0.00    -0.401 OA
HETATM   32  H42 UNL     1      -0.628  54.749 -19.549  1.00  0.00     0.209 HD
ENDBRANCH  30  31
ENDBRANCH  29  30
ENDBRANCH  28  29
ENDBRANCH  13  28
TORSDOF 8
ENDMDL
MODEL 8
REMARK minimizedAffinity -8.03026676
REMARK  8 active torsions:
REMARK  status: ('A' for Active; 'I' for Inactive)
REMARK    1  A    between atoms: C4_4  and  C5_5 
REMARK    2  A    between atoms: C5_5  and  C6_6 
REMARK    3  A    between atoms: C6_6  and  C7_7 
REMARK    4  A    between atoms: C7_7  and  C9_9 
REMARK    5  A    between atoms: C21_21  and  C22_22 
REMARK    6  A    between atoms: C22_22  and  C23_23 
REMARK    7  A    between atoms: C23_23  and  C24_24 
REMARK    8  A    between atoms: C24_24  and  O1_25 
ROOT
HETATM    1  C9  UNL     1      -0.652  50.704 -19.781  1.00  0.00    -0.002 C 
HETATM    2  C10 UNL     1      -1.234  50.033 -18.509  1.00  0.00     0.006 C 
HETATM    3  C11 UNL     1      -2.391  49.116 -18.974  1.00  0.00     0.011 C 
HETATM    4  C12 UNL     1      -2.911  49.801 -20.253  1.00  0.00    -0.032 C 
HETATM    5  C13 UNL     1      -3.768  50.997 -19.755  1.00  0.00     0.016 C 
HETATM    6  C14 UNL     1      -3.742  48.923 -21.237  1.00  0.00     0.003 C 
HETATM    7  C15 UNL     1      -4.990  48.256 -20.633  1.00  0.00     0.010 C 
HETATM    8  C16 UNL     1      -5.570  47.242 -21.617  1.00  0.00     0.035 C 
HETATM    9  C17 UNL     1      -5.901  47.858 -22.985  1.00  0.00    -0.073 C 
HETATM   10  C18 UNL     1      -7.171  47.780 -23.470  1.00  0.00    -0.085 C 
HETATM   11  C19 UNL     1      -8.329  47.281 -22.621  1.00  0.00     0.043 C 
HETATM   12  C20 UNL     1      -7.661  48.153 -24.842  1.00  0.00     0.043 C 
HETATM   13  C21 UNL     1      -4.604  48.466 -23.602  1.00  0.00     0.023 C 
HETATM   14  C25 UNL     1      -4.050  49.624 -22.641  1.00  0.00    -0.032 C 
HETATM   15  C26 UNL     1      -5.125  50.742 -22.530  1.00  0.00     0.016 C 
HETATM   16  C27 UNL     1      -2.736  50.277 -23.208  1.00  0.00     0.011 C 
HETATM   17  C28 UNL     1      -1.836  51.026 -22.187  1.00  0.00     0.011 C 
HETATM   18  C29 UNL     1      -1.549  50.168 -20.949  1.00  0.00    -0.032 C 
HETATM   19  C30 UNL     1      -0.739  48.911 -21.473  1.00  0.00     0.016 C 
ENDROOT
BRANCH   1  20
HETATM   20  C7  UNL     1      -0.220  52.198 -19.722  1.00  0.00    -0.014 C 
HETATM   21  C8  UNL     1       0.929  52.453 -20.712  1.00  0.00     0.010 C 
BRANCH  20  22
HETATM   22  C6  UNL     1       0.067  52.868 -18.361  1.00  0.00     0.008 C 
BRANCH  22  23
HETATM   23  C5  UNL     1       0.754  52.019 -17.285  1.00  0.00     0.028 C 
BRANCH  23  24
HETATM   24  C4  UNL     1       2.212  52.380 -17.167  1.00  0.00    -0.025 C 
HETATM   25  C2  UNL     1       3.015  52.245 -16.094  1.00  0.00    -0.091 C 
HETATM   26  C1  UNL     1       4.450  52.701 -16.149  1.00  0.00     0.042 C 
HETATM   27  C3  UNL     1       2.609  51.648 -14.775  1.00  0.00     0.042 C 
ENDBRANCH  23  24
ENDBRANCH  22  23
ENDBRANCH  20  22
ENDBRANCH   1  20
BRANCH  13  28
HETATM   28  C22 UNL     1      -4.488  48.713 -25.133  1.00  0.00     0.012 C 
BRANCH  28  29
HETATM   29  C23 UNL     1      -3.174  48.420 -25.861  1.00  0.00     0.027 C 
BRANCH  29  30
HETATM   30  C24 UNL     1      -3.150  49.076 -27.239  1.00  0.00     0.164 C 
BRANCH  30  31
HETATM   31  O1  UNL     1      -3.787  48.233 -28.190  1.00  0.00    -0.401 OA
HETATM   32  H42 UNL     1      -3.335  47.373 -28.168  1.00  0.00     0.209 HD
ENDBRANCH  30  31
ENDBRANCH  29  30
ENDBRANCH  28  29
ENDBRANCH  13  28
TORSDOF 8
ENDMDL
MODEL 9
REMARK minimizedAffinity -7.91973829
REMARK  8 active torsions:
REMARK  status: ('A' for Active; 'I' for Inactive)
REMARK    1  A    between atoms: C4_4  and  C5_5 
REMARK    2  A    between atoms: C5_5  and  C6_6 
REMARK    3  A    between atoms: C6_6  and  C7_7 
REMARK    4  A    between atoms: C7_7  and  C9_9 
REMARK    5  A    between atoms: C21_21  and  C22_22 
REMARK    6  A    between atoms: C22_22  and  C23_23 
REMARK    7  A    between atoms: C23_23  and  C24_24 
REMARK    8  A    between atoms: C24_24  and  O1_25 
ROOT
HETATM    1  C9  UNL     1      -1.269  51.589 -22.791  1.00  0.00    -0.002 C 
HETATM    2  C10 UNL     1      -0.911  50.987 -24.175  1.00  0.00     0.006 C 
HETATM    3  C11 UNL     1      -2.170  50.241 -24.681  1.00  0.00     0.011 C 
HETATM    4  C12 UNL     1      -2.883  49.803 -23.386  1.00  0.00    -0.032 C 
HETATM    5  C13 UNL     1      -2.087  48.569 -22.881  1.00  0.00     0.016 C 
HETATM    6  C14 UNL     1      -4.397  49.453 -23.496  1.00  0.00     0.003 C 
HETATM    7  C15 UNL     1      -4.747  48.350 -24.510  1.00  0.00     0.010 C 
HETATM    8  C16 UNL     1      -6.261  48.273 -24.699  1.00  0.00     0.035 C 
HETATM    9  C17 UNL     1      -7.018  48.049 -23.381  1.00  0.00    -0.073 C 
HETATM   10  C18 UNL     1      -7.834  46.968 -23.248  1.00  0.00    -0.085 C 
HETATM   11  C19 UNL     1      -7.875  45.856 -24.284  1.00  0.00     0.043 C 
HETATM   12  C20 UNL     1      -8.789  46.663 -22.126  1.00  0.00     0.043 C 
HETATM   13  C21 UNL     1      -6.697  49.218 -22.399  1.00  0.00     0.023 C 
HETATM   14  C25 UNL     1      -5.123  49.234 -22.088  1.00  0.00    -0.032 C 
HETATM   15  C26 UNL     1      -4.731  47.889 -21.414  1.00  0.00     0.016 C 
HETATM   16  C27 UNL     1      -4.733  50.396 -21.103  1.00  0.00     0.011 C 
HETATM   17  C28 UNL     1      -3.245  50.841 -21.108  1.00  0.00     0.011 C 
HETATM   18  C29 UNL     1      -2.741  51.115 -22.529  1.00  0.00    -0.032 C 
HETATM   19  C30 UNL     1      -3.607  52.328 -23.068  1.00  0.00     0.016 C 
ENDROOT
BRANCH   1  20
HETATM   20  C7  UNL     1      -0.206  51.567 -21.655  1.00  0.00    -0.014 C 
HETATM   21  C8  UNL     1      -0.258  50.221 -20.912  1.00  0.00     0.010 C 
BRANCH  20  22
HETATM   22  C6  UNL     1      -0.112  52.742 -20.659  1.00  0.00     0.008 C 
BRANCH  22  23
HETATM   23  C5  UNL     1      -0.498  52.468 -19.201  1.00  0.00     0.028 C 
BRANCH  23  24
HETATM   24  C4  UNL     1       0.670  52.715 -18.282  1.00  0.00    -0.025 C 
HETATM   25  C2  UNL     1       1.095  51.950 -17.257  1.00  0.00    -0.091 C 
HETATM   26  C1  UNL     1       2.267  52.381 -16.415  1.00  0.00     0.042 C 
HETATM   27  C3  UNL     1       0.493  50.635 -16.848  1.00  0.00     0.042 C 
ENDBRANCH  23  24
ENDBRANCH  22  23
ENDBRANCH  20  22
ENDBRANCH   1  20
BRANCH  13  28
HETATM   28  C22 UNL     1      -7.647  49.549 -21.214  1.00  0.00     0.012 C 
BRANCH  28  29
HETATM   29  C23 UNL     1      -7.099  49.622 -19.787  1.00  0.00     0.027 C 
BRANCH  29  30
HETATM   30  C24 UNL     1      -7.647  48.485 -18.927  1.00  0.00     0.164 C 
BRANCH  30  31
HETATM   31  O1  UNL     1      -6.986  48.466 -17.669  1.00  0.00    -0.401 OA
HETATM   32  H42 UNL     1      -6.032  48.391 -17.840  1.00  0.00     0.209 HD
ENDBRANCH  30  31
ENDBRANCH  29  30
ENDBRANCH  28  29
ENDBRANCH  13  28
TORSDOF 8
ENDMDL
