MODEL 1
REMARK minimizedAffinity -9.43310261
REMARK  6 active torsions:
REMARK  status: ('A' for Active; 'I' for Inactive)
REMARK    1  A    between atoms: C2_2  and  C4_4 
REMARK    2  A    between atoms: C11_11  and  C12_12 
REMARK    3  A    between atoms: C12_12  and  O2_14 
REMARK    4  A    between atoms: C21_23  and  O3_24 
REMARK    5  A    between atoms: C22_25  and  C24_27 
REMARK    6  A    between atoms: C24_27  and  O4_28 
ROOT
HETATM    1  C4  UNL     1      -5.975  47.607 -27.125  1.00  0.00     0.018 C 
HETATM    2  C5  UNL     1      -7.367  47.513 -27.812  1.00  0.00     0.010 C 
HETATM    3  C6  UNL     1      -8.419  47.825 -26.735  1.00  0.00     0.010 C 
HETATM    4  C7  UNL     1      -7.690  47.577 -25.409  1.00  0.00    -0.039 C 
HETATM    5  C8  UNL     1      -7.689  46.049 -25.137  1.00  0.00     0.015 C 
HETATM    6  C9  UNL     1      -8.287  48.314 -24.205  1.00  0.00     0.011 C 
HETATM    7  C10 UNL     1      -7.344  48.260 -22.984  1.00  0.00     0.022 C 
HETATM    8  C11 UNL     1      -5.883  48.776 -23.266  1.00  0.00     0.057 C 
HETATM    9  C13 UNL     1      -5.333  48.016 -24.546  1.00  0.00     0.011 C 
HETATM   10  C14 UNL     1      -3.872  48.348 -24.869  1.00  0.00     0.007 C 
HETATM   11  C15 UNL     1      -2.944  48.178 -23.667  1.00  0.00     0.006 C 
HETATM   12  C16 UNL     1      -3.420  48.972 -22.432  1.00  0.00     0.003 C 
HETATM   13  C17 UNL     1      -2.340  49.084 -21.260  1.00  0.00    -0.035 C 
HETATM   14  C18 UNL     1      -1.889  47.693 -20.753  1.00  0.00     0.016 C 
HETATM   15  C19 UNL     1      -1.074  49.814 -21.810  1.00  0.00     0.012 C 
HETATM   16  C20 UNL     1      -0.082  50.251 -20.736  1.00  0.00     0.033 C 
HETATM   17  C21 UNL     1      -0.724  51.114 -19.659  1.00  0.00     0.128 C 
HETATM   18  C22 UNL     1      -1.982  50.472 -18.996  1.00  0.00     0.007 C 
HETATM   19  C23 UNL     1      -1.578  49.346 -18.019  1.00  0.00     0.020 C 
HETATM   20  C25 UNL     1      -2.961  49.997 -20.135  1.00  0.00     0.007 C 
HETATM   21  C26 UNL     1      -4.305  49.428 -19.640  1.00  0.00     0.007 C 
HETATM   22  C27 UNL     1      -5.328  49.377 -20.778  1.00  0.00     0.011 C 
HETATM   23  C28 UNL     1      -4.884  48.540 -22.012  1.00  0.00    -0.022 C 
HETATM   24  C29 UNL     1      -4.940  47.046 -21.579  1.00  0.00     0.017 C 
HETATM   25  C30 UNL     1      -6.308  48.198 -25.735  1.00  0.00     0.007 C 
ENDROOT
BRANCH   8  26
HETATM   26  C12 UNL     1      -5.977  50.300 -23.571  1.00  0.00     0.149 C 
HETATM   27  O1  UNL     1      -5.202  50.976 -24.226  1.00  0.00    -0.649 OA
BRANCH  26  28
HETATM   28  O2  UNL     1      -7.032  50.920 -23.006  1.00  0.00    -0.776 OA
HETATM   29  H18 UNL     1      -6.933  51.851 -23.295  1.00  0.00     0.167 HD
ENDBRANCH  26  28
ENDBRANCH   8  26
BRANCH   1  30
HETATM   30  C2  UNL     1      -4.988  48.319 -28.037  1.00  0.00    -0.089 C 
HETATM   31  C1  UNL     1      -3.928  49.031 -27.623  1.00  0.00     0.014 C 
HETATM   32  C3  UNL     1      -5.283  48.191 -29.511  1.00  0.00     0.043 C 
ENDBRANCH   1  30
BRANCH  18  33
HETATM   33  C24 UNL     1      -2.687  51.576 -18.140  1.00  0.00     0.176 C 
BRANCH  33  34
HETATM   34  O4  UNL     1      -2.904  51.141 -16.798  1.00  0.00    -0.400 OA
HETATM   35  H39 UNL     1      -3.403  51.849 -16.350  1.00  0.00     0.209 HD
ENDBRANCH  33  34
ENDBRANCH  18  33
BRANCH  17  36
HETATM   36  O3  UNL     1       0.287  51.419 -18.699  1.00  0.00    -0.395 OA
HETATM   37  H33 UNL     1      -0.177  51.858 -17.953  1.00  0.00     0.210 HD
ENDBRANCH  17  36
TORSDOF 6
ENDMDL
MODEL 2
REMARK minimizedAffinity -9.27340126
REMARK  6 active torsions:
REMARK  status: ('A' for Active; 'I' for Inactive)
REMARK    1  A    between atoms: C2_2  and  C4_4 
REMARK    2  A    between atoms: C11_11  and  C12_12 
REMARK    3  A    between atoms: C12_12  and  O2_14 
REMARK    4  A    between atoms: C21_23  and  O3_24 
REMARK    5  A    between atoms: C22_25  and  C24_27 
REMARK    6  A    between atoms: C24_27  and  O4_28 
ROOT
HETATM    1  C4  UNL     1      -7.396  46.999 -23.832  1.00  0.00     0.018 C 
HETATM    2  C5  UNL     1      -8.421  46.709 -22.701  1.00  0.00     0.010 C 
HETATM    3  C6  UNL     1      -7.993  47.545 -21.483  1.00  0.00     0.010 C 
HETATM    4  C7  UNL     1      -6.515  47.863 -21.743  1.00  0.00    -0.039 C 
HETATM    5  C8  UNL     1      -5.676  46.623 -21.338  1.00  0.00     0.015 C 
HETATM    6  C9  UNL     1      -5.991  49.103 -21.008  1.00  0.00     0.011 C 
HETATM    7  C10 UNL     1      -4.606  49.531 -21.538  1.00  0.00     0.022 C 
HETATM    8  C11 UNL     1      -4.548  49.759 -23.096  1.00  0.00     0.057 C 
HETATM    9  C13 UNL     1      -5.144  48.470 -23.803  1.00  0.00     0.011 C 
HETATM   10  C14 UNL     1      -5.047  48.515 -25.332  1.00  0.00     0.007 C 
HETATM   11  C15 UNL     1      -3.638  48.834 -25.830  1.00  0.00     0.006 C 
HETATM   12  C16 UNL     1      -3.068  50.129 -25.212  1.00  0.00     0.003 C 
HETATM   13  C17 UNL     1      -1.744  50.673 -25.920  1.00  0.00    -0.035 C 
HETATM   14  C18 UNL     1      -0.604  49.627 -25.901  1.00  0.00     0.016 C 
HETATM   15  C19 UNL     1      -2.066  50.986 -27.415  1.00  0.00     0.012 C 
HETATM   16  C20 UNL     1      -0.985  51.784 -28.139  1.00  0.00     0.033 C 
HETATM   17  C21 UNL     1      -0.634  53.082 -27.424  1.00  0.00     0.128 C 
HETATM   18  C22 UNL     1      -0.248  52.897 -25.924  1.00  0.00     0.007 C 
HETATM   19  C23 UNL     1       1.170  52.300 -25.788  1.00  0.00     0.020 C 
HETATM   20  C25 UNL     1      -1.365  52.035 -25.222  1.00  0.00     0.007 C 
HETATM   21  C26 UNL     1      -1.181  51.847 -23.704  1.00  0.00     0.007 C 
HETATM   22  C27 UNL     1      -2.480  51.366 -23.053  1.00  0.00     0.011 C 
HETATM   23  C28 UNL     1      -3.044  50.037 -23.631  1.00  0.00    -0.022 C 
HETATM   24  C29 UNL     1      -2.100  48.903 -23.135  1.00  0.00     0.017 C 
HETATM   25  C30 UNL     1      -6.563  48.172 -23.261  1.00  0.00     0.007 C 
ENDROOT
BRANCH   8  26
HETATM   26  C12 UNL     1      -5.446  50.988 -23.422  1.00  0.00     0.149 C 
HETATM   27  O1  UNL     1      -5.155  51.966 -24.091  1.00  0.00    -0.649 OA
BRANCH  26  28
HETATM   28  O2  UNL     1      -6.671  50.952 -22.859  1.00  0.00    -0.776 OA
HETATM   29  H18 UNL     1      -7.087  51.786 -23.162  1.00  0.00     0.167 HD
ENDBRANCH  26  28
ENDBRANCH   8  26
BRANCH   1  30
HETATM   30  C2  UNL     1      -8.114  47.155 -25.164  1.00  0.00    -0.089 C 
HETATM   31  C1  UNL     1      -8.069  46.271 -26.174  1.00  0.00     0.014 C 
HETATM   32  C3  UNL     1      -8.911  48.426 -25.308  1.00  0.00     0.043 C 
ENDBRANCH   1  30
BRANCH  18  33
HETATM   33  C24 UNL     1      -0.203  54.314 -25.264  1.00  0.00     0.176 C 
BRANCH  33  34
HETATM   34  O4  UNL     1       0.168  55.322 -26.206  1.00  0.00    -0.400 OA
HETATM   35  H39 UNL     1       0.241  56.157 -25.710  1.00  0.00     0.209 HD
ENDBRANCH  33  34
ENDBRANCH  18  33
BRANCH  17  36
HETATM   36  O3  UNL     1       0.410  53.709 -28.170  1.00  0.00    -0.395 OA
HETATM   37  H33 UNL     1       0.708  54.468 -27.622  1.00  0.00     0.210 HD
ENDBRANCH  17  36
TORSDOF 6
ENDMDL
MODEL 3
REMARK minimizedAffinity -9.2210865
REMARK  6 active torsions:
REMARK  status: ('A' for Active; 'I' for Inactive)
REMARK    1  A    between atoms: C2_2  and  C4_4 
REMARK    2  A    between atoms: C11_11  and  C12_12 
REMARK    3  A    between atoms: C12_12  and  O2_14 
REMARK    4  A    between atoms: C21_23  and  O3_24 
REMARK    5  A    between atoms: C22_25  and  C24_27 
REMARK    6  A    between atoms: C24_27  and  O4_28 
ROOT
HETATM    1  C4  UNL     1       0.263  52.495 -23.243  1.00  0.00     0.018 C 
HETATM    2  C5  UNL     1       0.729  53.530 -24.306  1.00  0.00     0.010 C 
HETATM    3  C6  UNL     1      -0.333  53.541 -25.416  1.00  0.00     0.010 C 
HETATM    4  C7  UNL     1      -1.070  52.207 -25.250  1.00  0.00    -0.039 C 
HETATM    5  C8  UNL     1      -0.214  51.096 -25.915  1.00  0.00     0.015 C 
HETATM    6  C9  UNL     1      -2.487  52.183 -25.835  1.00  0.00     0.011 C 
HETATM    7  C10 UNL     1      -3.268  50.933 -25.376  1.00  0.00     0.022 C 
HETATM    8  C11 UNL     1      -3.321  50.735 -23.814  1.00  0.00     0.057 C 
HETATM    9  C13 UNL     1      -1.837  50.815 -23.259  1.00  0.00     0.011 C 
HETATM   10  C14 UNL     1      -1.735  50.529 -21.757  1.00  0.00     0.007 C 
HETATM   11  C15 UNL     1      -2.422  49.227 -21.349  1.00  0.00     0.006 C 
HETATM   12  C16 UNL     1      -3.893  49.161 -21.814  1.00  0.00     0.003 C 
HETATM   13  C17 UNL     1      -4.743  47.979 -21.158  1.00  0.00    -0.035 C 
HETATM   14  C18 UNL     1      -4.120  46.591 -21.441  1.00  0.00     0.016 C 
HETATM   15  C19 UNL     1      -4.764  48.174 -19.609  1.00  0.00     0.012 C 
HETATM   16  C20 UNL     1      -5.773  47.295 -18.876  1.00  0.00     0.033 C 
HETATM   17  C21 UNL     1      -7.189  47.451 -19.416  1.00  0.00     0.128 C 
HETATM   18  C22 UNL     1      -7.309  47.234 -20.956  1.00  0.00     0.007 C 
HETATM   19  C23 UNL     1      -7.211  45.735 -21.313  1.00  0.00     0.020 C 
HETATM   20  C25 UNL     1      -6.225  48.125 -21.673  1.00  0.00     0.007 C 
HETATM   21  C26 UNL     1      -6.281  48.100 -23.213  1.00  0.00     0.007 C 
HETATM   22  C27 UNL     1      -5.493  49.271 -23.806  1.00  0.00     0.011 C 
HETATM   23  C28 UNL     1      -3.996  49.326 -23.386  1.00  0.00    -0.022 C 
HETATM   24  C29 UNL     1      -3.284  48.161 -24.134  1.00  0.00     0.017 C 
HETATM   25  C30 UNL     1      -1.170  52.138 -23.705  1.00  0.00     0.007 C 
ENDROOT
BRANCH   8  26
HETATM   26  C12 UNL     1      -4.157  51.908 -23.224  1.00  0.00     0.149 C 
HETATM   27  O1  UNL     1      -3.970  52.500 -22.174  1.00  0.00    -0.649 OA
BRANCH  26  28
HETATM   28  O2  UNL     1      -5.223  52.266 -23.968  1.00  0.00    -0.776 OA
HETATM   29  H18 UNL     1      -5.624  52.999 -23.456  1.00  0.00     0.167 HD
ENDBRANCH  26  28
ENDBRANCH   8  26
BRANCH   1  30
HETATM   30  C2  UNL     1       0.497  53.039 -21.843  1.00  0.00    -0.089 C 
HETATM   31  C1  UNL     1      -0.077  52.568 -20.724  1.00  0.00     0.014 C 
HETATM   32  C3  UNL     1       1.447  54.209 -21.770  1.00  0.00     0.043 C 
ENDBRANCH   1  30
BRANCH  18  33
HETATM   33  C24 UNL     1      -8.734  47.706 -21.394  1.00  0.00     0.176 C 
BRANCH  33  34
HETATM   34  O4  UNL     1      -9.500  48.172 -20.282  1.00  0.00    -0.400 OA
HETATM   35  H39 UNL     1     -10.389  48.382 -20.621  1.00  0.00     0.209 HD
ENDBRANCH  33  34
ENDBRANCH  18  33
BRANCH  17  36
HETATM   36  O3  UNL     1      -8.023  46.553 -18.684  1.00  0.00    -0.395 OA
HETATM   37  H33 UNL     1      -8.895  46.572 -19.136  1.00  0.00     0.210 HD
ENDBRANCH  17  36
TORSDOF 6
ENDMDL
MODEL 4
REMARK minimizedAffinity -9.01954174
REMARK  6 active torsions:
REMARK  status: ('A' for Active; 'I' for Inactive)
REMARK    1  A    between atoms: C2_2  and  C4_4 
REMARK    2  A    between atoms: C11_11  and  C12_12 
REMARK    3  A    between atoms: C12_12  and  O2_14 
REMARK    4  A    between atoms: C21_23  and  O3_24 
REMARK    5  A    between atoms: C22_25  and  C24_27 
REMARK    6  A    between atoms: C24_27  and  O4_28 
ROOT
HETATM    1  C4  UNL     1      -3.534  48.417 -17.162  1.00  0.00     0.018 C 
HETATM    2  C5  UNL     1      -4.108  47.136 -16.494  1.00  0.00     0.010 C 
HETATM    3  C6  UNL     1      -4.464  46.161 -17.627  1.00  0.00     0.010 C 
HETATM    4  C7  UNL     1      -4.587  47.052 -18.869  1.00  0.00    -0.039 C 
HETATM    5  C8  UNL     1      -5.985  47.724 -18.845  1.00  0.00     0.015 C 
HETATM    6  C9  UNL     1      -4.391  46.319 -20.202  1.00  0.00     0.011 C 
HETATM    7  C10 UNL     1      -4.232  47.311 -21.375  1.00  0.00     0.022 C 
HETATM    8  C11 UNL     1      -3.095  48.382 -21.171  1.00  0.00     0.057 C 
HETATM    9  C13 UNL     1      -3.319  49.074 -19.761  1.00  0.00     0.011 C 
HETATM   10  C14 UNL     1      -2.339  50.219 -19.484  1.00  0.00     0.007 C 
HETATM   11  C15 UNL     1      -2.285  51.245 -20.615  1.00  0.00     0.006 C 
HETATM   12  C16 UNL     1      -1.992  50.600 -21.987  1.00  0.00     0.003 C 
HETATM   13  C17 UNL     1      -1.618  51.640 -23.141  1.00  0.00    -0.035 C 
HETATM   14  C18 UNL     1      -2.739  52.684 -23.365  1.00  0.00     0.016 C 
HETATM   15  C19 UNL     1      -0.332  52.419 -22.719  1.00  0.00     0.012 C 
HETATM   16  C20 UNL     1       0.308  53.233 -23.840  1.00  0.00     0.033 C 
HETATM   17  C21 UNL     1       0.617  52.394 -25.073  1.00  0.00     0.128 C 
HETATM   18  C22 UNL     1      -0.606  51.597 -25.622  1.00  0.00     0.007 C 
HETATM   19  C23 UNL     1      -1.590  52.532 -26.359  1.00  0.00     0.020 C 
HETATM   20  C25 UNL     1      -1.264  50.804 -24.429  1.00  0.00     0.007 C 
HETATM   21  C26 UNL     1      -2.432  49.882 -24.829  1.00  0.00     0.007 C 
HETATM   22  C27 UNL     1      -2.733  48.871 -23.719  1.00  0.00     0.011 C 
HETATM   23  C28 UNL     1      -3.078  49.504 -22.341  1.00  0.00    -0.022 C 
HETATM   24  C29 UNL     1      -4.498  50.127 -22.482  1.00  0.00     0.017 C 
HETATM   25  C30 UNL     1      -3.384  48.003 -18.646  1.00  0.00     0.007 C 
ENDROOT
BRANCH   8  26
HETATM   26  C12 UNL     1      -1.736  47.624 -21.165  1.00  0.00     0.149 C 
HETATM   27  O1  UNL     1      -0.743  47.882 -20.504  1.00  0.00    -0.649 OA
BRANCH  26  28
HETATM   28  O2  UNL     1      -1.670  46.585 -22.021  1.00  0.00    -0.776 OA
HETATM   29  H18 UNL     1      -0.764  46.235 -21.887  1.00  0.00     0.167 HD
ENDBRANCH  26  28
ENDBRANCH   8  26
BRANCH   1  30
HETATM   30  C2  UNL     1      -2.326  48.917 -16.387  1.00  0.00    -0.089 C 
HETATM   31  C1  UNL     1      -1.045  48.692 -16.721  1.00  0.00     0.014 C 
HETATM   32  C3  UNL     1      -2.654  49.710 -15.146  1.00  0.00     0.043 C 
ENDBRANCH   1  30
BRANCH  18  33
HETATM   33  C24 UNL     1      -0.075  50.579 -26.684  1.00  0.00     0.176 C 
BRANCH  33  34
HETATM   34  O4  UNL     1       0.469  51.244 -27.824  1.00  0.00    -0.400 OA
HETATM   35  H39 UNL     1       0.714  50.551 -28.464  1.00  0.00     0.209 HD
ENDBRANCH  33  34
ENDBRANCH  18  33
BRANCH  17  36
HETATM   36  O3  UNL     1       1.167  53.270 -26.056  1.00  0.00    -0.395 OA
HETATM   37  H33 UNL     1       1.232  52.739 -26.879  1.00  0.00     0.210 HD
ENDBRANCH  17  36
TORSDOF 6
ENDMDL
MODEL 5
REMARK minimizedAffinity -8.74114895
REMARK  6 active torsions:
REMARK  status: ('A' for Active; 'I' for Inactive)
REMARK    1  A    between atoms: C2_2  and  C4_4 
REMARK    2  A    between atoms: C11_11  and  C12_12 
REMARK    3  A    between atoms: C12_12  and  O2_14 
REMARK    4  A    between atoms: C21_23  and  O3_24 
REMARK    5  A    between atoms: C22_25  and  C24_27 
REMARK    6  A    between atoms: C24_27  and  O4_28 
ROOT
HETATM    1  C4  UNL     1       0.201  52.803 -25.077  1.00  0.00     0.018 C 
HETATM    2  C5  UNL     1       0.306  53.520 -26.453  1.00  0.00     0.010 C 
HETATM    3  C6  UNL     1      -0.959  53.153 -27.246  1.00  0.00     0.010 C 
HETATM    4  C7  UNL     1      -1.476  51.879 -26.567  1.00  0.00    -0.039 C 
HETATM    5  C8  UNL     1      -0.649  50.679 -27.098  1.00  0.00     0.015 C 
HETATM    6  C9  UNL     1      -2.971  51.607 -26.775  1.00  0.00     0.011 C 
HETATM    7  C10 UNL     1      -3.479  50.493 -25.834  1.00  0.00     0.022 C 
HETATM    8  C11 UNL     1      -3.180  50.744 -24.308  1.00  0.00     0.057 C 
HETATM    9  C13 UNL     1      -1.634  51.066 -24.157  1.00  0.00     0.011 C 
HETATM   10  C14 UNL     1      -1.185  51.225 -22.701  1.00  0.00     0.007 C 
HETATM   11  C15 UNL     1      -1.608  50.053 -21.816  1.00  0.00     0.006 C 
HETATM   12  C16 UNL     1      -3.125  49.771 -21.889  1.00  0.00     0.003 C 
HETATM   13  C17 UNL     1      -3.667  48.775 -20.764  1.00  0.00    -0.035 C 
HETATM   14  C18 UNL     1      -2.953  47.404 -20.811  1.00  0.00     0.016 C 
HETATM   15  C19 UNL     1      -3.388  49.400 -19.361  1.00  0.00     0.012 C 
HETATM   16  C20 UNL     1      -4.106  48.706 -18.207  1.00  0.00     0.033 C 
HETATM   17  C21 UNL     1      -5.611  48.619 -18.420  1.00  0.00     0.128 C 
HETATM   18  C22 UNL     1      -6.024  47.967 -19.776  1.00  0.00     0.007 C 
HETATM   19  C23 UNL     1      -5.820  46.437 -19.740  1.00  0.00     0.020 C 
HETATM   20  C25 UNL     1      -5.231  48.681 -20.936  1.00  0.00     0.007 C 
HETATM   21  C26 UNL     1      -5.605  48.217 -22.358  1.00  0.00     0.007 C 
HETATM   22  C27 UNL     1      -5.107  49.217 -23.405  1.00  0.00     0.011 C 
HETATM   23  C28 UNL     1      -3.574  49.476 -23.378  1.00  0.00    -0.022 C 
HETATM   24  C29 UNL     1      -2.896  48.192 -23.939  1.00  0.00     0.017 C 
HETATM   25  C30 UNL     1      -1.242  52.246 -25.079  1.00  0.00     0.007 C 
ENDROOT
BRANCH   8  26
HETATM   26  C12 UNL     1      -4.011  51.984 -23.867  1.00  0.00     0.149 C 
HETATM   27  O1  UNL     1      -5.082  52.360 -24.316  1.00  0.00    -0.649 OA
BRANCH  26  28
HETATM   28  O2  UNL     1      -3.440  52.726 -22.897  1.00  0.00    -0.776 OA
HETATM   29  H18 UNL     1      -4.085  53.449 -22.751  1.00  0.00     0.167 HD
ENDBRANCH  26  28
ENDBRANCH   8  26
BRANCH   1  30
HETATM   30  C2  UNL     1       0.655  53.735 -23.965  1.00  0.00    -0.089 C 
HETATM   31  C1  UNL     1       0.987  53.351 -22.722  1.00  0.00     0.014 C 
HETATM   32  C3  UNL     1       0.702  55.195 -24.342  1.00  0.00     0.043 C 
ENDBRANCH   1  30
BRANCH  18  33
HETATM   33  C24 UNL     1      -7.556  48.210 -19.976  1.00  0.00     0.176 C 
BRANCH  33  34
HETATM   34  O4  UNL     1      -8.042  49.242 -19.117  1.00  0.00    -0.400 OA
HETATM   35  H39 UNL     1      -9.006  49.288 -19.249  1.00  0.00     0.209 HD
ENDBRANCH  33  34
ENDBRANCH  18  33
BRANCH  17  36
HETATM   36  O3  UNL     1      -6.159  47.917 -17.304  1.00  0.00    -0.395 OA
HETATM   37  H33 UNL     1      -7.101  47.756 -17.527  1.00  0.00     0.210 HD
ENDBRANCH  17  36
TORSDOF 6
ENDMDL
MODEL 6
REMARK minimizedAffinity -8.65733719
REMARK  6 active torsions:
REMARK  status: ('A' for Active; 'I' for Inactive)
REMARK    1  A    between atoms: C2_2  and  C4_4 
REMARK    2  A    between atoms: C11_11  and  C12_12 
REMARK    3  A    between atoms: C12_12  and  O2_14 
REMARK    4  A    between atoms: C21_23  and  O3_24 
REMARK    5  A    between atoms: C22_25  and  C24_27 
REMARK    6  A    between atoms: C24_27  and  O4_28 
ROOT
HETATM    1  C4  UNL     1       0.005  51.193 -21.127  1.00  0.00     0.018 C 
HETATM    2  C5  UNL     1      -0.734  50.780 -22.431  1.00  0.00     0.010 C 
HETATM    3  C6  UNL     1      -1.899  49.867 -22.015  1.00  0.00     0.010 C 
HETATM    4  C7  UNL     1      -1.508  49.366 -20.620  1.00  0.00    -0.039 C 
HETATM    5  C8  UNL     1      -0.498  48.201 -20.791  1.00  0.00     0.015 C 
HETATM    6  C9  UNL     1      -2.687  48.903 -19.755  1.00  0.00     0.011 C 
HETATM    7  C10 UNL     1      -2.263  48.697 -18.284  1.00  0.00     0.022 C 
HETATM    8  C11 UNL     1      -1.565  49.947 -17.627  1.00  0.00     0.057 C 
HETATM    9  C13 UNL     1      -0.388  50.411 -18.584  1.00  0.00     0.011 C 
HETATM   10  C14 UNL     1       0.447  51.559 -18.007  1.00  0.00     0.007 C 
HETATM   11  C15 UNL     1       0.946  51.280 -16.590  1.00  0.00     0.006 C 
HETATM   12  C16 UNL     1      -0.196  50.901 -15.623  1.00  0.00     0.003 C 
HETATM   13  C17 UNL     1       0.216  50.902 -14.079  1.00  0.00    -0.035 C 
HETATM   14  C18 UNL     1       1.389  49.935 -13.791  1.00  0.00     0.016 C 
HETATM   15  C19 UNL     1       0.687  52.338 -13.686  1.00  0.00     0.012 C 
HETATM   16  C20 UNL     1       0.833  52.565 -12.184  1.00  0.00     0.033 C 
HETATM   17  C21 UNL     1      -0.438  52.231 -11.414  1.00  0.00     0.128 C 
HETATM   18  C22 UNL     1      -0.989  50.798 -11.688  1.00  0.00     0.007 C 
HETATM   19  C23 UNL     1      -0.132  49.730 -10.972  1.00  0.00     0.020 C 
HETATM   20  C25 UNL     1      -1.084  50.587 -13.247  1.00  0.00     0.007 C 
HETATM   21  C26 UNL     1      -1.710  49.248 -13.683  1.00  0.00     0.007 C 
HETATM   22  C27 UNL     1      -2.132  49.297 -15.154  1.00  0.00     0.011 C 
HETATM   23  C28 UNL     1      -0.983  49.631 -16.148  1.00  0.00    -0.022 C 
HETATM   24  C29 UNL     1      -0.069  48.373 -16.208  1.00  0.00     0.017 C 
HETATM   25  C30 UNL     1      -0.929  50.668 -20.011  1.00  0.00     0.007 C 
ENDROOT
BRANCH   8  26
HETATM   26  C12 UNL     1      -2.630  51.079 -17.532  1.00  0.00     0.149 C 
HETATM   27  O1  UNL     1      -2.892  51.926 -18.370  1.00  0.00    -0.649 OA
BRANCH  26  28
HETATM   28  O2  UNL     1      -3.301  51.119 -16.363  1.00  0.00    -0.776 OA
HETATM   29  H18 UNL     1      -3.913  51.876 -16.477  1.00  0.00     0.167 HD
ENDBRANCH  26  28
ENDBRANCH   8  26
BRANCH   1  30
HETATM   30  C2  UNL     1       0.376  52.667 -21.178  1.00  0.00    -0.089 C 
HETATM   31  C1  UNL     1       0.301  53.519 -20.143  1.00  0.00     0.014 C 
HETATM   32  C3  UNL     1       0.842  53.155 -22.527  1.00  0.00     0.043 C 
ENDBRANCH   1  30
BRANCH  18  33
HETATM   33  C24 UNL     1      -2.422  50.711 -11.069  1.00  0.00     0.176 C 
BRANCH  33  34
HETATM   34  O4  UNL     1      -3.250  51.790 -11.504  1.00  0.00    -0.400 OA
HETATM   35  H39 UNL     1      -4.096  51.706 -11.028  1.00  0.00     0.209 HD
ENDBRANCH  33  34
ENDBRANCH  18  33
BRANCH  17  36
HETATM   36  O3  UNL     1      -0.163  52.441 -10.029  1.00  0.00    -0.395 OA
HETATM   37  H33 UNL     1      -0.945  52.094  -9.547  1.00  0.00     0.210 HD
ENDBRANCH  17  36
TORSDOF 6
ENDMDL
MODEL 7
REMARK minimizedAffinity -8.27916622
REMARK  6 active torsions:
REMARK  status: ('A' for Active; 'I' for Inactive)
REMARK    1  A    between atoms: C2_2  and  C4_4 
REMARK    2  A    between atoms: C11_11  and  C12_12 
REMARK    3  A    between atoms: C12_12  and  O2_14 
REMARK    4  A    between atoms: C21_23  and  O3_24 
REMARK    5  A    between atoms: C22_25  and  C24_27 
REMARK    6  A    between atoms: C24_27  and  O4_28 
ROOT
HETATM    1  C4  UNL     1      -7.199  46.920 -19.867  1.00  0.00     0.018 C 
HETATM    2  C5  UNL     1      -7.497  46.671 -18.362  1.00  0.00     0.010 C 
HETATM    3  C6  UNL     1      -6.321  47.265 -17.568  1.00  0.00     0.010 C 
HETATM    4  C7  UNL     1      -5.182  47.357 -18.591  1.00  0.00    -0.039 C 
HETATM    5  C8  UNL     1      -4.538  45.952 -18.725  1.00  0.00     0.015 C 
HETATM    6  C9  UNL     1      -4.100  48.389 -18.249  1.00  0.00     0.011 C 
HETATM    7  C10 UNL     1      -3.158  48.638 -19.446  1.00  0.00     0.022 C 
HETATM    8  C11 UNL     1      -3.893  49.044 -20.779  1.00  0.00     0.057 C 
HETATM    9  C13 UNL     1      -5.029  47.972 -21.058  1.00  0.00     0.011 C 
HETATM   10  C14 UNL     1      -5.755  48.188 -22.391  1.00  0.00     0.007 C 
HETATM   11  C15 UNL     1      -4.799  48.322 -23.575  1.00  0.00     0.006 C 
HETATM   12  C16 UNL     1      -3.730  49.414 -23.356  1.00  0.00     0.003 C 
HETATM   13  C17 UNL     1      -2.908  49.809 -24.667  1.00  0.00    -0.035 C 
HETATM   14  C18 UNL     1      -2.184  48.590 -25.286  1.00  0.00     0.016 C 
HETATM   15  C19 UNL     1      -3.904  50.355 -25.739  1.00  0.00     0.012 C 
HETATM   16  C20 UNL     1      -3.236  51.041 -26.928  1.00  0.00     0.033 C 
HETATM   17  C21 UNL     1      -2.296  52.162 -26.508  1.00  0.00     0.128 C 
HETATM   18  C22 UNL     1      -1.218  51.730 -25.465  1.00  0.00     0.007 C 
HETATM   19  C23 UNL     1      -0.109  50.888 -26.133  1.00  0.00     0.020 C 
HETATM   20  C25 UNL     1      -1.940  50.990 -24.276  1.00  0.00     0.007 C 
HETATM   21  C26 UNL     1      -1.019  50.587 -23.108  1.00  0.00     0.007 C 
HETATM   22  C27 UNL     1      -1.838  50.258 -21.857  1.00  0.00     0.011 C 
HETATM   23  C28 UNL     1      -2.887  49.125 -22.047  1.00  0.00    -0.022 C 
HETATM   24  C29 UNL     1      -2.087  47.795 -22.161  1.00  0.00     0.017 C 
HETATM   25  C30 UNL     1      -5.966  47.854 -19.832  1.00  0.00     0.007 C 
ENDROOT
BRANCH   8  26
HETATM   26  C12 UNL     1      -4.545  50.438 -20.547  1.00  0.00     0.149 C 
HETATM   27  O1  UNL     1      -4.070  51.391 -19.951  1.00  0.00    -0.649 OA
BRANCH  26  28
HETATM   28  O2  UNL     1      -5.790  50.565 -21.049  1.00  0.00    -0.776 OA
HETATM   29  H18 UNL     1      -6.039  51.484 -20.814  1.00  0.00     0.167 HD
ENDBRANCH  26  28
ENDBRANCH   8  26
BRANCH   1  30
HETATM   30  C2  UNL     1      -8.464  47.358 -20.586  1.00  0.00    -0.089 C 
HETATM   31  C1  UNL     1      -9.316  48.299 -20.148  1.00  0.00     0.014 C 
HETATM   32  C3  UNL     1      -8.740  46.633 -21.880  1.00  0.00     0.043 C 
ENDBRANCH   1  30
BRANCH  18  33
HETATM   33  C24 UNL     1      -0.532  53.027 -24.923  1.00  0.00     0.176 C 
BRANCH  33  34
HETATM   34  O4  UNL     1      -0.531  54.069 -25.898  1.00  0.00    -0.400 OA
HETATM   35  H39 UNL     1      -0.031  54.813 -25.515  1.00  0.00     0.209 HD
ENDBRANCH  33  34
ENDBRANCH  18  33
BRANCH  17  36
HETATM   36  O3  UNL     1      -1.706  52.690 -27.696  1.00  0.00    -0.395 OA
HETATM   37  H33 UNL     1      -1.010  53.313 -27.393  1.00  0.00     0.210 HD
ENDBRANCH  17  36
TORSDOF 6
ENDMDL
MODEL 8
REMARK minimizedAffinity -8.13099575
REMARK  6 active torsions:
REMARK  status: ('A' for Active; 'I' for Inactive)
REMARK    1  A    between atoms: C2_2  and  C4_4 
REMARK    2  A    between atoms: C11_11  and  C12_12 
REMARK    3  A    between atoms: C12_12  and  O2_14 
REMARK    4  A    between atoms: C21_23  and  O3_24 
REMARK    5  A    between atoms: C22_25  and  C24_27 
REMARK    6  A    between atoms: C24_27  and  O4_28 
ROOT
HETATM    1  C4  UNL     1      -0.791  52.189 -22.689  1.00  0.00     0.018 C 
HETATM    2  C5  UNL     1       0.616  52.615 -22.186  1.00  0.00     0.010 C 
HETATM    3  C6  UNL     1       0.952  51.719 -20.982  1.00  0.00     0.010 C 
HETATM    4  C7  UNL     1      -0.410  51.195 -20.509  1.00  0.00    -0.039 C 
HETATM    5  C8  UNL     1      -1.082  52.300 -19.652  1.00  0.00     0.015 C 
HETATM    6  C9  UNL     1      -0.346  49.889 -19.708  1.00  0.00     0.011 C 
HETATM    7  C10 UNL     1      -1.749  49.270 -19.524  1.00  0.00     0.022 C 
HETATM    8  C11 UNL     1      -2.543  49.046 -20.866  1.00  0.00     0.057 C 
HETATM    9  C13 UNL     1      -2.536  50.411 -21.674  1.00  0.00     0.011 C 
HETATM   10  C14 UNL     1      -3.371  50.362 -22.957  1.00  0.00     0.007 C 
HETATM   11  C15 UNL     1      -4.791  49.849 -22.725  1.00  0.00     0.006 C 
HETATM   12  C16 UNL     1      -4.819  48.482 -22.007  1.00  0.00     0.003 C 
HETATM   13  C17 UNL     1      -6.243  47.758 -22.016  1.00  0.00    -0.035 C 
HETATM   14  C18 UNL     1      -7.340  48.631 -21.363  1.00  0.00     0.016 C 
HETATM   15  C19 UNL     1      -6.668  47.503 -23.496  1.00  0.00     0.012 C 
HETATM   16  C20 UNL     1      -7.860  46.564 -23.657  1.00  0.00     0.033 C 
HETATM   17  C21 UNL     1      -7.651  45.225 -22.963  1.00  0.00     0.128 C 
HETATM   18  C22 UNL     1      -7.262  45.343 -21.457  1.00  0.00     0.007 C 
HETATM   19  C23 UNL     1      -8.487  45.731 -20.599  1.00  0.00     0.020 C 
HETATM   20  C25 UNL     1      -6.058  46.352 -21.329  1.00  0.00     0.007 C 
HETATM   21  C26 UNL     1      -5.488  46.503 -19.905  1.00  0.00     0.007 C 
HETATM   22  C27 UNL     1      -4.105  47.160 -19.938  1.00  0.00     0.011 C 
HETATM   23  C28 UNL     1      -4.068  48.560 -20.615  1.00  0.00    -0.022 C 
HETATM   24  C29 UNL     1      -4.772  49.544 -19.637  1.00  0.00     0.017 C 
HETATM   25  C30 UNL     1      -1.083  50.906 -21.875  1.00  0.00     0.007 C 
ENDROOT
BRANCH   8  26
HETATM   26  C12 UNL     1      -1.782  47.960 -21.682  1.00  0.00     0.149 C 
HETATM   27  O1  UNL     1      -0.784  47.342 -21.348  1.00  0.00    -0.649 OA
BRANCH  26  28
HETATM   28  O2  UNL     1      -2.293  47.718 -22.906  1.00  0.00    -0.776 OA
HETATM   29  H18 UNL     1      -1.702  47.026 -23.269  1.00  0.00     0.167 HD
ENDBRANCH  26  28
ENDBRANCH   8  26
BRANCH   1  30
HETATM   30  C2  UNL     1      -0.814  52.146 -24.209  1.00  0.00    -0.089 C 
HETATM   31  C1  UNL     1      -0.882  51.028 -24.950  1.00  0.00     0.014 C 
HETATM   32  C3  UNL     1      -0.735  53.494 -24.881  1.00  0.00     0.043 C 
ENDBRANCH   1  30
BRANCH  18  33
HETATM   33  C24 UNL     1      -6.803  43.930 -20.970  1.00  0.00     0.176 C 
BRANCH  33  34
HETATM   34  O4  UNL     1      -5.769  43.398 -21.799  1.00  0.00    -0.400 OA
HETATM   35  H39 UNL     1      -5.586  42.497 -21.476  1.00  0.00     0.209 HD
ENDBRANCH  33  34
ENDBRANCH  18  33
BRANCH  17  36
HETATM   36  O3  UNL     1      -8.842  44.460 -23.148  1.00  0.00    -0.395 OA
HETATM   37  H33 UNL     1      -8.736  43.663 -22.584  1.00  0.00     0.210 HD
ENDBRANCH  17  36
TORSDOF 6
ENDMDL
MODEL 9
REMARK minimizedAffinity -8.09792995
REMARK  6 active torsions:
REMARK  status: ('A' for Active; 'I' for Inactive)
REMARK    1  A    between atoms: C2_2  and  C4_4 
REMARK    2  A    between atoms: C11_11  and  C12_12 
REMARK    3  A    between atoms: C12_12  and  O2_14 
REMARK    4  A    between atoms: C21_23  and  O3_24 
REMARK    5  A    between atoms: C22_25  and  C24_27 
REMARK    6  A    between atoms: C24_27  and  O4_28 
ROOT
HETATM    1  C4  UNL     1      -8.064  46.696 -25.448  1.00  0.00     0.018 C 
HETATM    2  C5  UNL     1      -9.518  46.156 -25.350  1.00  0.00     0.010 C 
HETATM    3  C6  UNL     1      -9.917  46.210 -23.866  1.00  0.00     0.010 C 
HETATM    4  C7  UNL     1      -8.581  46.268 -23.116  1.00  0.00    -0.039 C 
HETATM    5  C8  UNL     1      -8.011  44.827 -23.034  1.00  0.00     0.015 C 
HETATM    6  C9  UNL     1      -8.665  46.869 -21.708  1.00  0.00     0.011 C 
HETATM    7  C10 UNL     1      -7.263  47.168 -21.136  1.00  0.00     0.022 C 
HETATM    8  C11 UNL     1      -6.362  48.072 -22.060  1.00  0.00     0.057 C 
HETATM    9  C13 UNL     1      -6.349  47.431 -23.511  1.00  0.00     0.011 C 
HETATM   10  C14 UNL     1      -5.417  48.156 -24.487  1.00  0.00     0.007 C 
HETATM   11  C15 UNL     1      -4.003  48.340 -23.936  1.00  0.00     0.006 C 
HETATM   12  C16 UNL     1      -3.989  49.033 -22.556  1.00  0.00     0.003 C 
HETATM   13  C17 UNL     1      -2.547  49.527 -22.078  1.00  0.00    -0.035 C 
HETATM   14  C18 UNL     1      -1.530  48.364 -22.007  1.00  0.00     0.016 C 
HETATM   15  C19 UNL     1      -2.002  50.562 -23.113  1.00  0.00     0.012 C 
HETATM   16  C20 UNL     1      -0.773  51.335 -22.643  1.00  0.00     0.033 C 
HETATM   17  C21 UNL     1      -0.994  52.036 -21.309  1.00  0.00     0.128 C 
HETATM   18  C22 UNL     1      -1.500  51.095 -20.173  1.00  0.00     0.007 C 
HETATM   19  C23 UNL     1      -0.358  50.198 -19.648  1.00  0.00     0.020 C 
HETATM   20  C25 UNL     1      -2.741  50.284 -20.710  1.00  0.00     0.007 C 
HETATM   21  C26 UNL     1      -3.423  49.377 -19.667  1.00  0.00     0.007 C 
HETATM   22  C27 UNL     1      -4.818  48.959 -20.139  1.00  0.00     0.011 C 
HETATM   23  C28 UNL     1      -4.847  48.216 -21.505  1.00  0.00    -0.022 C 
HETATM   24  C29 UNL     1      -4.250  46.801 -21.253  1.00  0.00     0.017 C 
HETATM   25  C30 UNL     1      -7.797  47.246 -24.026  1.00  0.00     0.007 C 
ENDROOT
BRANCH   8  26
HETATM   26  C12 UNL     1      -7.024  49.479 -22.123  1.00  0.00     0.149 C 
HETATM   27  O1  UNL     1      -7.494  50.123 -21.199  1.00  0.00    -0.649 OA
BRANCH  26  28
HETATM   28  O2  UNL     1      -7.099  50.008 -23.361  1.00  0.00    -0.776 OA
HETATM   29  H18 UNL     1      -7.535  50.874 -23.214  1.00  0.00     0.167 HD
ENDBRANCH  26  28
ENDBRANCH   8  26
BRANCH   1  30
HETATM   30  C2  UNL     1      -7.924  47.609 -26.655  1.00  0.00    -0.089 C 
HETATM   31  C1  UNL     1      -6.959  47.519 -27.585  1.00  0.00     0.014 C 
HETATM   32  C3  UNL     1      -8.970  48.691 -26.755  1.00  0.00     0.043 C 
ENDBRANCH   1  30
BRANCH  18  33
HETATM   33  C24 UNL     1      -1.952  51.992 -18.975  1.00  0.00     0.176 C 
BRANCH  33  34
HETATM   34  O4  UNL     1      -3.084  51.440 -18.301  1.00  0.00    -0.400 OA
HETATM   35  H39 UNL     1      -3.346  52.082 -17.617  1.00  0.00     0.209 HD
ENDBRANCH  33  34
ENDBRANCH  18  33
BRANCH  17  36
HETATM   36  O3  UNL     1       0.230  52.682 -20.960  1.00  0.00    -0.395 OA
HETATM   37  H33 UNL     1       0.106  53.010 -20.043  1.00  0.00     0.210 HD
ENDBRANCH  17  36
TORSDOF 6
ENDMDL
