MODEL 1
REMARK minimizedAffinity -9.14045048
REMARK  7 active torsions:
REMARK  status: ('A' for Active; 'I' for Inactive)
REMARK    1  A    between atoms: C2_2  and  C3_3 
REMARK    2  A    between atoms: C4_5  and  C5_6 
REMARK    3  A    between atoms: C5_6  and  C6_7 
REMARK    4  A    between atoms: C6_7  and  C7_8 
REMARK    5  A    between atoms: C7_8  and  C9_10 
REMARK    6  A    between atoms: C11_12  and  O2_13 
REMARK    7  A    between atoms: C30_33  and  O4_34 
ROOT
HETATM    1  C9  UNL     1       0.863   6.438  12.874  1.00  0.00     0.001 C 
HETATM    2  C10 UNL     1       1.241   7.203  14.175  1.00  0.00     0.038 C 
HETATM    3  C11 UNL     1      -0.054   7.397  14.990  1.00  0.00     0.132 C 
HETATM    4  C12 UNL     1      -1.079   6.421  14.355  1.00  0.00     0.016 C 
HETATM    5  C13 UNL     1      -0.829   4.988  14.926  1.00  0.00     0.023 C 
HETATM    6  C14 UNL     1      -2.583   6.688  14.534  1.00  0.00    -0.037 C 
HETATM    7  C15 UNL     1      -3.459   6.304  13.564  1.00  0.00    -0.065 C 
HETATM    8  C16 UNL     1      -2.974   5.615  12.278  1.00  0.00     0.036 C 
HETATM    9  C17 UNL     1      -1.455   5.523  12.039  1.00  0.00     0.015 C 
HETATM   10  C18 UNL     1      -0.690   6.591  12.828  1.00  0.00    -0.026 C 
HETATM   11  C19 UNL     1      -1.051   7.995  12.245  1.00  0.00     0.016 C 
HETATM   12  C20 UNL     1      -4.988   6.577  13.663  1.00  0.00    -0.015 C 
HETATM   13  C21 UNL     1      -5.301   7.729  12.673  1.00  0.00     0.020 C 
HETATM   14  C22 UNL     1      -5.793   5.313  13.248  1.00  0.00     0.021 C 
HETATM   15  C23 UNL     1      -7.228   5.237  13.768  1.00  0.00     0.080 C 
HETATM   16  C24 UNL     1      -7.759   6.561  14.266  1.00  0.00     0.135 C 
HETATM   17  O3  UNL     1      -8.855   6.974  13.885  1.00  0.00    -0.297 OA
HETATM   18  C25 UNL     1      -6.920   7.302  15.315  1.00  0.00     0.018 C 
HETATM   19  C26 UNL     1      -7.414   6.819  16.694  1.00  0.00     0.023 C 
HETATM   20  C27 UNL     1      -7.207   8.815  15.226  1.00  0.00     0.023 C 
HETATM   21  C28 UNL     1      -5.409   6.928  15.134  1.00  0.00     0.016 C 
HETATM   22  C29 UNL     1      -4.439   7.949  15.748  1.00  0.00     0.043 C 
HETATM   23  C30 UNL     1      -3.023   7.376  15.810  1.00  0.00     0.148 C 
ENDROOT
BRANCH   1  24
HETATM   24  C7  UNL     1       1.721   6.888  11.657  1.00  0.00    -0.013 C 
HETATM   25  C8  UNL     1       3.099   7.422  12.059  1.00  0.00     0.010 C 
BRANCH  24  26
HETATM   26  C6  UNL     1       0.988   7.897  10.728  1.00  0.00     0.008 C 
BRANCH  26  27
HETATM   27  C5  UNL     1       1.463   8.034   9.275  1.00  0.00     0.028 C 
BRANCH  27  28
HETATM   28  C4  UNL     1       2.151   6.828   8.710  1.00  0.00    -0.017 C 
HETATM   29  C2  UNL     1       2.242   6.490   7.411  1.00  0.00    -0.028 C 
HETATM   30  C1  UNL     1       1.632   7.216   6.254  1.00  0.00     0.051 C 
BRANCH  29  31
HETATM   31  C3  UNL     1       3.007   5.254   7.059  1.00  0.00     0.265 C 
HETATM   32  O1  UNL     1       3.482   4.486   7.887  1.00  0.00    -0.302 OA
ENDBRANCH  29  31
ENDBRANCH  27  28
ENDBRANCH  26  27
ENDBRANCH  24  26
ENDBRANCH   1  24
BRANCH   3  33
HETATM   33  O2  UNL     1       0.195   7.144  16.364  1.00  0.00    -0.394 OA
HETATM   34  H18 UNL     1       0.827   7.811  16.680  1.00  0.00     0.210 HD
ENDBRANCH   3  33
BRANCH  23  35
HETATM   35  O4  UNL     1      -2.990   6.451  16.894  1.00  0.00    -0.391 OA
HETATM   36  H46 UNL     1      -3.000   5.556  16.521  1.00  0.00     0.210 HD
ENDBRANCH  23  35
TORSDOF 7
ENDMDL
MODEL 2
REMARK minimizedAffinity -8.90547657
REMARK  7 active torsions:
REMARK  status: ('A' for Active; 'I' for Inactive)
REMARK    1  A    between atoms: C2_2  and  C3_3 
REMARK    2  A    between atoms: C4_5  and  C5_6 
REMARK    3  A    between atoms: C5_6  and  C6_7 
REMARK    4  A    between atoms: C6_7  and  C7_8 
REMARK    5  A    between atoms: C7_8  and  C9_10 
REMARK    6  A    between atoms: C11_12  and  O2_13 
REMARK    7  A    between atoms: C30_33  and  O4_34 
ROOT
HETATM    1  C9  UNL     1      -3.018   8.426  15.315  1.00  0.00     0.001 C 
HETATM    2  C10 UNL     1      -1.957   8.162  16.423  1.00  0.00     0.038 C 
HETATM    3  C11 UNL     1      -0.592   7.995  15.727  1.00  0.00     0.132 C 
HETATM    4  C12 UNL     1      -0.804   8.542  14.291  1.00  0.00     0.016 C 
HETATM    5  C13 UNL     1      -0.696  10.101  14.325  1.00  0.00     0.023 C 
HETATM    6  C14 UNL     1       0.136   8.081  13.163  1.00  0.00    -0.037 C 
HETATM    7  C15 UNL     1      -0.329   7.998  11.886  1.00  0.00    -0.065 C 
HETATM    8  C16 UNL     1      -1.786   8.347  11.543  1.00  0.00     0.036 C 
HETATM    9  C17 UNL     1      -2.753   8.629  12.709  1.00  0.00     0.015 C 
HETATM   10  C18 UNL     1      -2.266   7.996  14.017  1.00  0.00    -0.026 C 
HETATM   11  C19 UNL     1      -2.335   6.441  13.873  1.00  0.00     0.016 C 
HETATM   12  C20 UNL     1       0.556   7.503  10.704  1.00  0.00    -0.015 C 
HETATM   13  C21 UNL     1       0.071   6.072  10.353  1.00  0.00     0.020 C 
HETATM   14  C22 UNL     1       0.371   8.424   9.465  1.00  0.00     0.021 C 
HETATM   15  C23 UNL     1       1.506   8.399   8.442  1.00  0.00     0.080 C 
HETATM   16  C24 UNL     1       2.428   7.212   8.595  1.00  0.00     0.135 C 
HETATM   17  O3  UNL     1       2.717   6.519   7.619  1.00  0.00    -0.297 OA
HETATM   18  C25 UNL     1       3.043   6.976   9.982  1.00  0.00     0.018 C 
HETATM   19  C26 UNL     1       4.375   7.753  10.010  1.00  0.00     0.023 C 
HETATM   20  C27 UNL     1       3.379   5.480  10.146  1.00  0.00     0.023 C 
HETATM   21  C28 UNL     1       2.079   7.539  11.082  1.00  0.00     0.016 C 
HETATM   22  C29 UNL     1       2.308   6.934  12.475  1.00  0.00     0.043 C 
HETATM   23  C30 UNL     1       1.563   7.738  13.540  1.00  0.00     0.148 C 
ENDROOT
BRANCH   1  24
HETATM   24  C7  UNL     1      -4.396   7.791  15.657  1.00  0.00    -0.013 C 
HETATM   25  C8  UNL     1      -4.329   6.270  15.833  1.00  0.00     0.010 C 
BRANCH  24  26
HETATM   26  C6  UNL     1      -5.519   8.182  14.655  1.00  0.00     0.008 C 
BRANCH  26  27
HETATM   27  C5  UNL     1      -5.701   7.331  13.391  1.00  0.00     0.028 C 
BRANCH  27  28
HETATM   28  C4  UNL     1      -6.853   6.372  13.425  1.00  0.00    -0.017 C 
HETATM   29  C2  UNL     1      -6.811   5.056  13.151  1.00  0.00    -0.028 C 
HETATM   30  C1  UNL     1      -5.617   4.275  12.702  1.00  0.00     0.051 C 
BRANCH  29  31
HETATM   31  C3  UNL     1      -8.078   4.271  13.279  1.00  0.00     0.265 C 
HETATM   32  O1  UNL     1      -8.136   3.051  13.196  1.00  0.00    -0.302 OA
ENDBRANCH  29  31
ENDBRANCH  27  28
ENDBRANCH  26  27
ENDBRANCH  24  26
ENDBRANCH   1  24
BRANCH   3  33
HETATM   33  O2  UNL     1       0.412   8.685  16.455  1.00  0.00    -0.394 OA
HETATM   34  H18 UNL     1       0.490   8.265  17.327  1.00  0.00     0.210 HD
ENDBRANCH   3  33
BRANCH  23  35
HETATM   35  O4  UNL     1       2.305   8.935  13.761  1.00  0.00    -0.391 OA
HETATM   36  H46 UNL     1       1.832   9.662  13.327  1.00  0.00     0.210 HD
ENDBRANCH  23  35
TORSDOF 7
ENDMDL
MODEL 3
REMARK minimizedAffinity -8.87685013
REMARK  7 active torsions:
REMARK  status: ('A' for Active; 'I' for Inactive)
REMARK    1  A    between atoms: C2_2  and  C3_3 
REMARK    2  A    between atoms: C4_5  and  C5_6 
REMARK    3  A    between atoms: C5_6  and  C6_7 
REMARK    4  A    between atoms: C6_7  and  C7_8 
REMARK    5  A    between atoms: C7_8  and  C9_10 
REMARK    6  A    between atoms: C11_12  and  O2_13 
REMARK    7  A    between atoms: C30_33  and  O4_34 
ROOT
HETATM    1  C9  UNL     1      -2.068   6.402  13.548  1.00  0.00     0.001 C 
HETATM    2  C10 UNL     1      -2.206   5.814  12.114  1.00  0.00     0.038 C 
HETATM    3  C11 UNL     1      -0.809   5.851  11.462  1.00  0.00     0.132 C 
HETATM    4  C12 UNL     1       0.176   6.090  12.636  1.00  0.00     0.016 C 
HETATM    5  C13 UNL     1       0.448   4.727  13.349  1.00  0.00     0.023 C 
HETATM    6  C14 UNL     1       1.561   6.695  12.345  1.00  0.00    -0.037 C 
HETATM    7  C15 UNL     1       2.171   7.472  13.284  1.00  0.00    -0.065 C 
HETATM    8  C16 UNL     1       1.497   7.769  14.633  1.00  0.00     0.036 C 
HETATM    9  C17 UNL     1       0.041   7.306  14.830  1.00  0.00     0.015 C 
HETATM   10  C18 UNL     1      -0.680   7.114  13.491  1.00  0.00    -0.026 C 
HETATM   11  C19 UNL     1      -0.845   8.511  12.809  1.00  0.00     0.016 C 
HETATM   12  C20 UNL     1       3.552   8.146  13.042  1.00  0.00    -0.015 C 
HETATM   13  C21 UNL     1       3.279   9.655  12.815  1.00  0.00     0.020 C 
HETATM   14  C22 UNL     1       4.466   7.973  14.287  1.00  0.00     0.021 C 
HETATM   15  C23 UNL     1       5.968   8.105  14.035  1.00  0.00     0.080 C 
HETATM   16  C24 UNL     1       6.301   8.761  12.716  1.00  0.00     0.135 C 
HETATM   17  O3  UNL     1       7.106   9.692  12.670  1.00  0.00    -0.297 OA
HETATM   18  C25 UNL     1       5.666   8.160  11.454  1.00  0.00     0.018 C 
HETATM   19  C26 UNL     1       6.648   7.090  10.935  1.00  0.00     0.023 C 
HETATM   20  C27 UNL     1       5.554   9.249  10.368  1.00  0.00     0.023 C 
HETATM   21  C28 UNL     1       4.299   7.489  11.828  1.00  0.00     0.016 C 
HETATM   22  C29 UNL     1       3.349   7.313  10.634  1.00  0.00     0.043 C 
HETATM   23  C30 UNL     1       2.189   6.387  11.002  1.00  0.00     0.148 C 
ENDROOT
BRANCH   1  24
HETATM   24  C7  UNL     1      -3.330   7.202  13.979  1.00  0.00    -0.013 C 
HETATM   25  C8  UNL     1      -3.342   7.544  15.473  1.00  0.00     0.010 C 
BRANCH  24  26
HETATM   26  C6  UNL     1      -4.663   6.521  13.558  1.00  0.00     0.008 C 
BRANCH  26  27
HETATM   27  C5  UNL     1      -4.618   5.075  13.046  1.00  0.00     0.028 C 
BRANCH  27  28
HETATM   28  C4  UNL     1      -5.897   4.306  13.188  1.00  0.00    -0.017 C 
HETATM   29  C2  UNL     1      -6.239   3.186  12.525  1.00  0.00    -0.028 C 
HETATM   30  C1  UNL     1      -5.439   2.497  11.465  1.00  0.00     0.051 C 
BRANCH  29  31
HETATM   31  C3  UNL     1      -7.557   2.557  12.843  1.00  0.00     0.265 C 
HETATM   32  O1  UNL     1      -8.630   3.145  12.774  1.00  0.00    -0.302 OA
ENDBRANCH  29  31
ENDBRANCH  27  28
ENDBRANCH  26  27
ENDBRANCH  24  26
ENDBRANCH   1  24
BRANCH   3  33
HETATM   33  O2  UNL     1      -0.570   4.643  10.757  1.00  0.00    -0.394 OA
HETATM   34  H18 UNL     1      -1.215   4.588  10.033  1.00  0.00     0.210 HD
ENDBRANCH   3  33
BRANCH  23  35
HETATM   35  O4  UNL     1       2.697   5.055  11.001  1.00  0.00    -0.391 OA
HETATM   36  H46 UNL     1       2.803   4.776  11.924  1.00  0.00     0.210 HD
ENDBRANCH  23  35
TORSDOF 7
ENDMDL
MODEL 4
REMARK minimizedAffinity -8.87002373
REMARK  7 active torsions:
REMARK  status: ('A' for Active; 'I' for Inactive)
REMARK    1  A    between atoms: C2_2  and  C3_3 
REMARK    2  A    between atoms: C4_5  and  C5_6 
REMARK    3  A    between atoms: C5_6  and  C6_7 
REMARK    4  A    between atoms: C6_7  and  C7_8 
REMARK    5  A    between atoms: C7_8  and  C9_10 
REMARK    6  A    between atoms: C11_12  and  O2_13 
REMARK    7  A    between atoms: C30_33  and  O4_34 
ROOT
HETATM    1  C9  UNL     1      -5.757   6.932  14.799  1.00  0.00     0.001 C 
HETATM    2  C10 UNL     1      -5.537   8.287  15.533  1.00  0.00     0.038 C 
HETATM    3  C11 UNL     1      -4.150   8.818  15.116  1.00  0.00     0.132 C 
HETATM    4  C12 UNL     1      -3.757   7.981  13.870  1.00  0.00     0.016 C 
HETATM    5  C13 UNL     1      -4.465   8.585  12.615  1.00  0.00     0.023 C 
HETATM    6  C14 UNL     1      -2.272   7.847  13.492  1.00  0.00    -0.037 C 
HETATM    7  C15 UNL     1      -1.829   6.715  12.876  1.00  0.00    -0.065 C 
HETATM    8  C16 UNL     1      -2.786   5.554  12.558  1.00  0.00     0.036 C 
HETATM    9  C17 UNL     1      -4.223   5.633  13.107  1.00  0.00     0.015 C 
HETATM   10  C18 UNL     1      -4.318   6.568  14.318  1.00  0.00    -0.026 C 
HETATM   11  C19 UNL     1      -3.525   5.928  15.504  1.00  0.00     0.016 C 
HETATM   12  C20 UNL     1      -0.335   6.498  12.500  1.00  0.00    -0.015 C 
HETATM   13  C21 UNL     1       0.235   5.470  13.512  1.00  0.00     0.020 C 
HETATM   14  C22 UNL     1      -0.216   5.920  11.062  1.00  0.00     0.021 C 
HETATM   15  C23 UNL     1       1.129   6.132  10.368  1.00  0.00     0.080 C 
HETATM   16  C24 UNL     1       2.242   6.516  11.316  1.00  0.00     0.135 C 
HETATM   17  O3  UNL     1       3.319   5.919  11.284  1.00  0.00    -0.297 OA
HETATM   18  C25 UNL     1       1.994   7.720  12.236  1.00  0.00     0.018 C 
HETATM   19  C26 UNL     1       2.493   8.965  11.474  1.00  0.00     0.023 C 
HETATM   20  C27 UNL     1       2.858   7.580  13.506  1.00  0.00     0.023 C 
HETATM   21  C28 UNL     1       0.458   7.852  12.519  1.00  0.00     0.016 C 
HETATM   22  C29 UNL     1       0.129   8.658  13.785  1.00  0.00     0.043 C 
HETATM   23  C30 UNL     1      -1.358   9.008  13.828  1.00  0.00     0.148 C 
ENDROOT
BRANCH   1  24
HETATM   24  C7  UNL     1      -6.563   5.920  15.664  1.00  0.00    -0.013 C 
HETATM   25  C8  UNL     1      -7.285   4.858  14.828  1.00  0.00     0.010 C 
BRANCH  24  26
HETATM   26  C6  UNL     1      -7.546   6.605  16.655  1.00  0.00     0.008 C 
BRANCH  26  27
HETATM   27  C5  UNL     1      -8.536   7.642  16.107  1.00  0.00     0.028 C 
BRANCH  27  28
HETATM   28  C4  UNL     1      -9.724   7.076  15.388  1.00  0.00    -0.017 C 
HETATM   29  C2  UNL     1     -10.639   7.765  14.682  1.00  0.00    -0.028 C 
HETATM   30  C1  UNL     1     -10.698   9.249  14.506  1.00  0.00     0.051 C 
BRANCH  29  31
HETATM   31  C3  UNL     1     -11.733   6.997  14.012  1.00  0.00     0.265 C 
HETATM   32  O1  UNL     1     -12.348   7.398  13.032  1.00  0.00    -0.302 OA
ENDBRANCH  29  31
ENDBRANCH  27  28
ENDBRANCH  26  27
ENDBRANCH  24  26
ENDBRANCH   1  24
BRANCH   3  33
HETATM   33  O2  UNL     1      -4.221  10.212  14.863  1.00  0.00    -0.394 OA
HETATM   34  H18 UNL     1      -4.451  10.655  15.697  1.00  0.00     0.210 HD
ENDBRANCH   3  33
BRANCH  23  35
HETATM   35  O4  UNL     1      -1.568  10.071  12.902  1.00  0.00    -0.391 OA
HETATM   36  H46 UNL     1      -1.998   9.700  12.116  1.00  0.00     0.210 HD
ENDBRANCH  23  35
TORSDOF 7
ENDMDL
MODEL 5
REMARK minimizedAffinity -8.86924171
REMARK  7 active torsions:
REMARK  status: ('A' for Active; 'I' for Inactive)
REMARK    1  A    between atoms: C2_2  and  C3_3 
REMARK    2  A    between atoms: C4_5  and  C5_6 
REMARK    3  A    between atoms: C5_6  and  C6_7 
REMARK    4  A    between atoms: C6_7  and  C7_8 
REMARK    5  A    between atoms: C7_8  and  C9_10 
REMARK    6  A    between atoms: C11_12  and  O2_13 
REMARK    7  A    between atoms: C30_33  and  O4_34 
ROOT
HETATM    1  C9  UNL     1      -3.964   7.032  14.598  1.00  0.00     0.001 C 
HETATM    2  C10 UNL     1      -4.455   5.793  13.793  1.00  0.00     0.038 C 
HETATM    3  C11 UNL     1      -3.279   5.316  12.916  1.00  0.00     0.132 C 
HETATM    4  C12 UNL     1      -2.029   6.025  13.500  1.00  0.00     0.016 C 
HETATM    5  C13 UNL     1      -1.537   5.226  14.750  1.00  0.00     0.023 C 
HETATM    6  C14 UNL     1      -0.789   6.218  12.610  1.00  0.00    -0.037 C 
HETATM    7  C15 UNL     1       0.021   7.296  12.801  1.00  0.00    -0.065 C 
HETATM    8  C16 UNL     1      -0.285   8.340  13.889  1.00  0.00     0.036 C 
HETATM    9  C17 UNL     1      -1.623   8.225  14.643  1.00  0.00     0.015 C 
HETATM   10  C18 UNL     1      -2.663   7.437  13.837  1.00  0.00    -0.026 C 
HETATM   11  C19 UNL     1      -3.045   8.269  12.570  1.00  0.00     0.016 C 
HETATM   12  C20 UNL     1       1.269   7.574  11.914  1.00  0.00    -0.015 C 
HETATM   13  C21 UNL     1       0.897   8.753  10.978  1.00  0.00     0.020 C 
HETATM   14  C22 UNL     1       2.482   7.982  12.795  1.00  0.00     0.021 C 
HETATM   15  C23 UNL     1       3.860   7.785  12.165  1.00  0.00     0.080 C 
HETATM   16  C24 UNL     1       3.815   7.598  10.666  1.00  0.00     0.135 C 
HETATM   17  O3  UNL     1       4.551   8.262   9.935  1.00  0.00    -0.297 OA
HETATM   18  C25 UNL     1       2.891   6.498  10.125  1.00  0.00     0.018 C 
HETATM   19  C26 UNL     1       3.736   5.210  10.054  1.00  0.00     0.023 C 
HETATM   20  C27 UNL     1       2.464   6.850   8.685  1.00  0.00     0.023 C 
HETATM   21  C28 UNL     1       1.692   6.292  11.114  1.00  0.00     0.016 C 
HETATM   22  C29 UNL     1       0.468   5.622  10.472  1.00  0.00     0.043 C 
HETATM   23  C30 UNL     1      -0.525   5.174  11.544  1.00  0.00     0.148 C 
ENDROOT
BRANCH   1  24
HETATM   24  C7  UNL     1      -5.094   8.079  14.811  1.00  0.00    -0.013 C 
HETATM   25  C8  UNL     1      -4.601   9.366  15.482  1.00  0.00     0.010 C 
BRANCH  24  26
HETATM   26  C6  UNL     1      -6.331   7.506  15.560  1.00  0.00     0.008 C 
BRANCH  26  27
HETATM   27  C5  UNL     1      -7.525   7.014  14.732  1.00  0.00     0.028 C 
BRANCH  27  28
HETATM   28  C4  UNL     1      -7.466   5.576  14.313  1.00  0.00    -0.017 C 
HETATM   29  C2  UNL     1      -7.920   5.056  13.158  1.00  0.00    -0.028 C 
HETATM   30  C1  UNL     1      -8.628   5.791  12.065  1.00  0.00     0.051 C 
BRANCH  29  31
HETATM   31  C3  UNL     1      -7.730   3.591  12.926  1.00  0.00     0.265 C 
HETATM   32  O1  UNL     1      -8.651   2.800  12.765  1.00  0.00    -0.302 OA
ENDBRANCH  29  31
ENDBRANCH  27  28
ENDBRANCH  26  27
ENDBRANCH  24  26
ENDBRANCH   1  24
BRANCH   3  33
HETATM   33  O2  UNL     1      -3.195   3.901  12.945  1.00  0.00    -0.394 OA
HETATM   34  H18 UNL     1      -4.006   3.545  12.544  1.00  0.00     0.210 HD
ENDBRANCH   3  33
BRANCH  23  35
HETATM   35  O4  UNL     1       0.007   3.996  12.145  1.00  0.00    -0.391 OA
HETATM   36  H46 UNL     1       0.359   4.238  13.015  1.00  0.00     0.210 HD
ENDBRANCH  23  35
TORSDOF 7
ENDMDL
MODEL 6
REMARK minimizedAffinity -8.86144352
REMARK  7 active torsions:
REMARK  status: ('A' for Active; 'I' for Inactive)
REMARK    1  A    between atoms: C2_2  and  C3_3 
REMARK    2  A    between atoms: C4_5  and  C5_6 
REMARK    3  A    between atoms: C5_6  and  C6_7 
REMARK    4  A    between atoms: C6_7  and  C7_8 
REMARK    5  A    between atoms: C7_8  and  C9_10 
REMARK    6  A    between atoms: C11_12  and  O2_13 
REMARK    7  A    between atoms: C30_33  and  O4_34 
ROOT
HETATM    1  C9  UNL     1      -1.751   5.904  12.367  1.00  0.00     0.001 C 
HETATM    2  C10 UNL     1      -1.999   6.586  13.745  1.00  0.00     0.038 C 
HETATM    3  C11 UNL     1      -0.813   7.535  14.012  1.00  0.00     0.132 C 
HETATM    4  C12 UNL     1      -0.104   7.686  12.641  1.00  0.00     0.016 C 
HETATM    5  C13 UNL     1      -0.875   8.746  11.790  1.00  0.00     0.023 C 
HETATM    6  C14 UNL     1       1.375   8.112  12.602  1.00  0.00    -0.037 C 
HETATM    7  C15 UNL     1       2.178   7.675  11.592  1.00  0.00    -0.065 C 
HETATM    8  C16 UNL     1       1.641   6.751  10.488  1.00  0.00     0.036 C 
HETATM    9  C17 UNL     1       0.213   6.193  10.646  1.00  0.00     0.015 C 
HETATM   10  C18 UNL     1      -0.240   6.199  12.110  1.00  0.00    -0.026 C 
HETATM   11  C19 UNL     1       0.628   5.170  12.905  1.00  0.00     0.016 C 
HETATM   12  C20 UNL     1       3.690   8.035  11.512  1.00  0.00    -0.015 C 
HETATM   13  C21 UNL     1       4.475   6.756  11.904  1.00  0.00     0.020 C 
HETATM   14  C22 UNL     1       4.074   8.446  10.062  1.00  0.00     0.021 C 
HETATM   15  C23 UNL     1       5.336   9.298   9.924  1.00  0.00     0.080 C 
HETATM   16  C24 UNL     1       6.214   9.277  11.153  1.00  0.00     0.135 C 
HETATM   17  O3  UNL     1       7.421   9.051  11.050  1.00  0.00    -0.297 OA
HETATM   18  C25 UNL     1       5.554   9.633  12.492  1.00  0.00     0.018 C 
HETATM   19  C26 UNL     1       5.703  11.159  12.664  1.00  0.00     0.023 C 
HETATM   20  C27 UNL     1       6.333   8.962  13.641  1.00  0.00     0.023 C 
HETATM   21  C28 UNL     1       4.035   9.251  12.442  1.00  0.00     0.016 C 
HETATM   22  C29 UNL     1       3.394   9.076  13.827  1.00  0.00     0.043 C 
HETATM   23  C30 UNL     1       1.870   9.016  13.711  1.00  0.00     0.148 C 
ENDROOT
BRANCH   1  24
HETATM   24  C7  UNL     1      -2.269   4.438  12.335  1.00  0.00    -0.013 C 
HETATM   25  C8  UNL     1      -2.457   3.899  10.913  1.00  0.00     0.010 C 
BRANCH  24  26
HETATM   26  C6  UNL     1      -3.556   4.222  13.181  1.00  0.00     0.008 C 
BRANCH  26  27
HETATM   27  C5  UNL     1      -4.770   3.563  12.513  1.00  0.00     0.028 C 
BRANCH  27  28
HETATM   28  C4  UNL     1      -6.045   4.350  12.582  1.00  0.00    -0.017 C 
HETATM   29  C2  UNL     1      -7.284   3.858  12.757  1.00  0.00    -0.028 C 
HETATM   30  C1  UNL     1      -7.665   2.416  12.870  1.00  0.00     0.051 C 
BRANCH  29  31
HETATM   31  C3  UNL     1      -8.421   4.828  12.829  1.00  0.00     0.265 C 
HETATM   32  O1  UNL     1      -8.622   5.707  12.001  1.00  0.00    -0.302 OA
ENDBRANCH  29  31
ENDBRANCH  27  28
ENDBRANCH  26  27
ENDBRANCH  24  26
ENDBRANCH   1  24
BRANCH   3  33
HETATM   33  O2  UNL     1      -1.284   8.761  14.546  1.00  0.00    -0.394 OA
HETATM   34  H18 UNL     1      -1.692   8.574  15.408  1.00  0.00     0.210 HD
ENDBRANCH   3  33
BRANCH  23  35
HETATM   35  O4  UNL     1       1.412  10.347  13.489  1.00  0.00    -0.391 OA
HETATM   36  H46 UNL     1       1.168  10.426  12.554  1.00  0.00     0.210 HD
ENDBRANCH  23  35
TORSDOF 7
ENDMDL
MODEL 7
REMARK minimizedAffinity -8.61927128
REMARK  7 active torsions:
REMARK  status: ('A' for Active; 'I' for Inactive)
REMARK    1  A    between atoms: C2_2  and  C3_3 
REMARK    2  A    between atoms: C4_5  and  C5_6 
REMARK    3  A    between atoms: C5_6  and  C6_7 
REMARK    4  A    between atoms: C6_7  and  C7_8 
REMARK    5  A    between atoms: C7_8  and  C9_10 
REMARK    6  A    between atoms: C11_12  and  O2_13 
REMARK    7  A    between atoms: C30_33  and  O4_34 
ROOT
HETATM    1  C9  UNL     1      -2.621   5.990  12.936  1.00  0.00     0.001 C 
HETATM    2  C10 UNL     1      -3.193   5.335  14.227  1.00  0.00     0.038 C 
HETATM    3  C11 UNL     1      -3.192   6.412  15.332  1.00  0.00     0.132 C 
HETATM    4  C12 UNL     1      -2.993   7.755  14.583  1.00  0.00     0.016 C 
HETATM    5  C13 UNL     1      -4.370   8.220  14.008  1.00  0.00     0.023 C 
HETATM    6  C14 UNL     1      -2.427   8.966  15.346  1.00  0.00    -0.037 C 
HETATM    7  C15 UNL     1      -1.677   9.892  14.686  1.00  0.00    -0.065 C 
HETATM    8  C16 UNL     1      -1.371   9.749  13.187  1.00  0.00     0.036 C 
HETATM    9  C17 UNL     1      -1.792   8.443  12.486  1.00  0.00     0.015 C 
HETATM   10  C18 UNL     1      -1.951   7.290  13.483  1.00  0.00    -0.026 C 
HETATM   11  C19 UNL     1      -0.544   6.937  14.065  1.00  0.00     0.016 C 
HETATM   12  C20 UNL     1      -1.042  11.119  15.403  1.00  0.00    -0.015 C 
HETATM   13  C21 UNL     1       0.476  10.829  15.523  1.00  0.00     0.020 C 
HETATM   14  C22 UNL     1      -1.253  12.408  14.562  1.00  0.00     0.021 C 
HETATM   15  C23 UNL     1      -1.164  13.727  15.329  1.00  0.00     0.080 C 
HETATM   16  C24 UNL     1      -0.507  13.592  16.683  1.00  0.00     0.135 C 
HETATM   17  O3  UNL     1       0.400  14.357  17.013  1.00  0.00    -0.297 OA
HETATM   18  C25 UNL     1      -1.078  12.533  17.637  1.00  0.00     0.018 C 
HETATM   19  C26 UNL     1      -2.173  13.234  18.467  1.00  0.00     0.023 C 
HETATM   20  C27 UNL     1       0.023  12.078  18.616  1.00  0.00     0.023 C 
HETATM   21  C28 UNL     1      -1.711  11.367  16.802  1.00  0.00     0.016 C 
HETATM   22  C29 UNL     1      -1.848  10.050  17.581  1.00  0.00     0.043 C 
HETATM   23  C30 UNL     1      -2.742   9.068  16.824  1.00  0.00     0.148 C 
ENDROOT
BRANCH   1  24
HETATM   24  C7  UNL     1      -1.788   4.988  12.088  1.00  0.00    -0.013 C 
HETATM   25  C8  UNL     1      -0.635   5.656  11.332  1.00  0.00     0.010 C 
BRANCH  24  26
HETATM   26  C6  UNL     1      -2.654   4.128  11.125  1.00  0.00     0.008 C 
BRANCH  26  27
HETATM   27  C5  UNL     1      -3.474   2.971  11.713  1.00  0.00     0.028 C 
BRANCH  27  28
HETATM   28  C4  UNL     1      -4.884   3.313  12.093  1.00  0.00    -0.017 C 
HETATM   29  C2  UNL     1      -5.977   2.558  11.884  1.00  0.00    -0.028 C 
HETATM   30  C1  UNL     1      -6.032   1.240  11.181  1.00  0.00     0.051 C 
BRANCH  29  31
HETATM   31  C3  UNL     1      -7.291   3.077  12.376  1.00  0.00     0.265 C 
HETATM   32  O1  UNL     1      -8.069   2.425  13.062  1.00  0.00    -0.302 OA
ENDBRANCH  29  31
ENDBRANCH  27  28
ENDBRANCH  26  27
ENDBRANCH  24  26
ENDBRANCH   1  24
BRANCH   3  33
HETATM   33  O2  UNL     1      -4.400   6.348  16.072  1.00  0.00    -0.394 OA
HETATM   34  H18 UNL     1      -4.430   5.487  16.521  1.00  0.00     0.210 HD
ENDBRANCH   3  33
BRANCH  23  35
HETATM   35  O4  UNL     1      -4.088   9.501  17.002  1.00  0.00    -0.391 OA
HETATM   36  H46 UNL     1      -4.379   9.918  16.175  1.00  0.00     0.210 HD
ENDBRANCH  23  35
TORSDOF 7
ENDMDL
MODEL 8
REMARK minimizedAffinity -8.52223492
REMARK  7 active torsions:
REMARK  status: ('A' for Active; 'I' for Inactive)
REMARK    1  A    between atoms: C2_2  and  C3_3 
REMARK    2  A    between atoms: C4_5  and  C5_6 
REMARK    3  A    between atoms: C5_6  and  C6_7 
REMARK    4  A    between atoms: C6_7  and  C7_8 
REMARK    5  A    between atoms: C7_8  and  C9_10 
REMARK    6  A    between atoms: C11_12  and  O2_13 
REMARK    7  A    between atoms: C30_33  and  O4_34 
ROOT
HETATM    1  C9  UNL     1      -2.799   5.424  13.368  1.00  0.00     0.001 C 
HETATM    2  C10 UNL     1      -2.865   4.724  11.980  1.00  0.00     0.038 C 
HETATM    3  C11 UNL     1      -1.472   4.851  11.331  1.00  0.00     0.132 C 
HETATM    4  C12 UNL     1      -0.526   5.269  12.488  1.00  0.00     0.016 C 
HETATM    5  C13 UNL     1      -0.130   3.994  13.299  1.00  0.00     0.023 C 
HETATM    6  C14 UNL     1       0.795   5.985  12.159  1.00  0.00    -0.037 C 
HETATM    7  C15 UNL     1       1.317   6.883  13.040  1.00  0.00    -0.065 C 
HETATM    8  C16 UNL     1       0.604   7.208  14.363  1.00  0.00     0.036 C 
HETATM    9  C17 UNL     1      -0.802   6.620  14.588  1.00  0.00     0.015 C 
HETATM   10  C18 UNL     1      -1.487   6.263  13.264  1.00  0.00    -0.026 C 
HETATM   11  C19 UNL     1      -1.781   7.584  12.483  1.00  0.00     0.016 C 
HETATM   12  C20 UNL     1       2.628   7.670  12.754  1.00  0.00    -0.015 C 
HETATM   13  C21 UNL     1       2.211   9.125  12.418  1.00  0.00     0.020 C 
HETATM   14  C22 UNL     1       3.542   7.678  14.012  1.00  0.00     0.021 C 
HETATM   15  C23 UNL     1       5.026   7.939  13.755  1.00  0.00     0.080 C 
HETATM   16  C24 UNL     1       5.307   8.528  12.392  1.00  0.00     0.135 C 
HETATM   17  O3  UNL     1       6.018   9.528  12.282  1.00  0.00    -0.297 OA
HETATM   18  C25 UNL     1       4.746   7.778  11.176  1.00  0.00     0.018 C 
HETATM   19  C26 UNL     1       5.833   6.775  10.738  1.00  0.00     0.023 C 
HETATM   20  C27 UNL     1       4.540   8.770  10.013  1.00  0.00     0.023 C 
HETATM   21  C28 UNL     1       3.448   7.005  11.593  1.00  0.00     0.016 C 
HETATM   22  C29 UNL     1       2.531   6.651  10.412  1.00  0.00     0.043 C 
HETATM   23  C30 UNL     1       1.464   5.645  10.843  1.00  0.00     0.148 C 
ENDROOT
BRANCH   1  24
HETATM   24  C7  UNL     1      -4.137   6.125  13.737  1.00  0.00    -0.013 C 
HETATM   25  C8  UNL     1      -4.327   6.301  15.247  1.00  0.00     0.010 C 
BRANCH  24  26
HETATM   26  C6  UNL     1      -5.383   5.446  13.100  1.00  0.00     0.008 C 
BRANCH  26  27
HETATM   27  C5  UNL     1      -6.515   4.978  14.024  1.00  0.00     0.028 C 
BRANCH  27  28
HETATM   28  C4  UNL     1      -7.805   5.730  13.889  1.00  0.00    -0.017 C 
HETATM   29  C2  UNL     1      -8.403   6.476  14.835  1.00  0.00    -0.028 C 
HETATM   30  C1  UNL     1      -7.937   6.674  16.243  1.00  0.00     0.051 C 
BRANCH  29  31
HETATM   31  C3  UNL     1      -9.677   7.173  14.479  1.00  0.00     0.265 C 
HETATM   32  O1  UNL     1     -10.500   6.729  13.687  1.00  0.00    -0.302 OA
ENDBRANCH  29  31
ENDBRANCH  27  28
ENDBRANCH  26  27
ENDBRANCH  24  26
ENDBRANCH   1  24
BRANCH   3  33
HETATM   33  O2  UNL     1      -1.109   3.625  10.716  1.00  0.00    -0.394 OA
HETATM   34  H18 UNL     1      -1.738   3.455   9.996  1.00  0.00     0.210 HD
ENDBRANCH   3  33
BRANCH  23  35
HETATM   35  O4  UNL     1       2.100   4.373  10.939  1.00  0.00    -0.391 OA
HETATM   36  H46 UNL     1       2.223   4.172  11.880  1.00  0.00     0.210 HD
ENDBRANCH  23  35
TORSDOF 7
ENDMDL
MODEL 9
REMARK minimizedAffinity -8.50072289
REMARK  7 active torsions:
REMARK  status: ('A' for Active; 'I' for Inactive)
REMARK    1  A    between atoms: C2_2  and  C3_3 
REMARK    2  A    between atoms: C4_5  and  C5_6 
REMARK    3  A    between atoms: C5_6  and  C6_7 
REMARK    4  A    between atoms: C6_7  and  C7_8 
REMARK    5  A    between atoms: C7_8  and  C9_10 
REMARK    6  A    between atoms: C11_12  and  O2_13 
REMARK    7  A    between atoms: C30_33  and  O4_34 
ROOT
HETATM    1  C9  UNL     1       3.989   7.530  10.723  1.00  0.00     0.001 C 
HETATM    2  C10 UNL     1       4.148   5.987  10.590  1.00  0.00     0.038 C 
HETATM    3  C11 UNL     1       2.794   5.349  10.959  1.00  0.00     0.132 C 
HETATM    4  C12 UNL     1       1.775   6.518  10.921  1.00  0.00     0.016 C 
HETATM    5  C13 UNL     1       1.353   6.769   9.437  1.00  0.00     0.023 C 
HETATM    6  C14 UNL     1       0.463   6.398  11.716  1.00  0.00    -0.037 C 
HETATM    7  C15 UNL     1      -0.125   7.517  12.224  1.00  0.00    -0.065 C 
HETATM    8  C16 UNL     1       0.503   8.907  12.028  1.00  0.00     0.036 C 
HETATM    9  C17 UNL     1       1.903   8.982  11.390  1.00  0.00     0.015 C 
HETATM   10  C18 UNL     1       2.671   7.665  11.548  1.00  0.00    -0.026 C 
HETATM   11  C19 UNL     1       2.988   7.452  13.063  1.00  0.00     0.016 C 
HETATM   12  C20 UNL     1      -1.431   7.465  13.069  1.00  0.00    -0.015 C 
HETATM   13  C21 UNL     1      -1.019   7.722  14.542  1.00  0.00     0.020 C 
HETATM   14  C22 UNL     1      -2.417   8.577  12.613  1.00  0.00     0.021 C 
HETATM   15  C23 UNL     1      -3.888   8.345  12.959  1.00  0.00     0.080 C 
HETATM   16  C24 UNL     1      -4.097   7.286  14.016  1.00  0.00     0.135 C 
HETATM   17  O3  UNL     1      -4.818   7.513  14.989  1.00  0.00    -0.297 OA
HETATM   18  C25 UNL     1      -3.453   5.914  13.771  1.00  0.00     0.018 C 
HETATM   19  C26 UNL     1      -4.495   5.069  13.010  1.00  0.00     0.023 C 
HETATM   20  C27 UNL     1      -3.195   5.220  15.123  1.00  0.00     0.023 C 
HETATM   21  C28 UNL     1      -2.169   6.092  12.890  1.00  0.00     0.016 C 
HETATM   22  C29 UNL     1      -1.178   4.923  12.996  1.00  0.00     0.043 C 
HETATM   23  C30 UNL     1      -0.121   5.012  11.895  1.00  0.00     0.148 C 
ENDROOT
BRANCH   1  24
HETATM   24  C7  UNL     1       5.291   8.214  11.227  1.00  0.00    -0.013 C 
HETATM   25  C8  UNL     1       5.640   9.487  10.449  1.00  0.00     0.010 C 
BRANCH  24  26
HETATM   26  C6  UNL     1       6.510   7.250  11.284  1.00  0.00     0.008 C 
BRANCH  26  27
HETATM   27  C5  UNL     1       6.824   6.543  12.610  1.00  0.00     0.028 C 
BRANCH  27  28
HETATM   28  C4  UNL     1       6.753   7.411  13.831  1.00  0.00    -0.017 C 
HETATM   29  C2  UNL     1       7.784   8.015  14.448  1.00  0.00    -0.028 C 
HETATM   30  C1  UNL     1       9.230   7.910  14.081  1.00  0.00     0.051 C 
BRANCH  29  31
HETATM   31  C3  UNL     1       7.486   8.868  15.640  1.00  0.00     0.265 C 
HETATM   32  O1  UNL     1       7.168   8.423  16.736  1.00  0.00    -0.302 OA
ENDBRANCH  29  31
ENDBRANCH  27  28
ENDBRANCH  26  27
ENDBRANCH  24  26
ENDBRANCH   1  24
BRANCH   3  33
HETATM   33  O2  UNL     1       2.490   4.300  10.053  1.00  0.00    -0.394 OA
HETATM   34  H18 UNL     1       3.163   3.609  10.160  1.00  0.00     0.210 HD
ENDBRANCH   3  33
BRANCH  23  35
HETATM   35  O4  UNL     1      -0.739   4.589  10.683  1.00  0.00    -0.391 OA
HETATM   36  H46 UNL     1      -0.914   5.378  10.146  1.00  0.00     0.210 HD
ENDBRANCH  23  35
TORSDOF 7
ENDMDL
