MODEL 1
REMARK minimizedAffinity -8.65777206
REMARK CNNscore 0.549376905
REMARK CNNaffinity 6.97167444
REMARK  9 active torsions:
REMARK  status: ('A' for Active; 'I' for Inactive)
REMARK    1  A    between atoms: C3_3  and  O1_4 
REMARK    2  A    between atoms: N1_14  and  O2_16 
REMARK    3  A    between atoms: O2_16  and  C13_17 
REMARK    4  A    between atoms: C13_17  and  C14_18 
REMARK       I    between atoms: C14_18  and  N2_20 
REMARK    5  A    between atoms: N2_20  and  C15_21 
REMARK    6  A    between atoms: C15_21  and  C16_22 
REMARK    7  A    between atoms: C15_21  and  C18_26 
REMARK    8  A    between atoms: C16_22  and  C17_23 
REMARK    9  A    between atoms: C17_23  and  O5_25 
ROOT
HETATM    1  C1  UNL     1     -13.040   3.095  30.645  1.00  0.00     0.015 C 
HETATM    2  C2  UNL     1     -13.250   2.698  29.529  1.00  0.00    -0.078 C 
HETATM    3  C3  UNL     1     -13.534   2.209  28.171  1.00  0.00     0.128 C 
HETATM    4  C4  UNL     1     -12.261   1.933  27.361  1.00  0.00     0.052 C 
HETATM    5  C5  UNL     1     -12.635   2.184  25.891  1.00  0.00     0.010 C 
HETATM    6  C6  UNL     1     -14.114   2.611  25.882  1.00  0.00     0.002 C 
HETATM    7  C7  UNL     1     -14.543   3.537  24.724  1.00  0.00    -0.004 C 
HETATM    8  C8  UNL     1     -14.202   2.916  23.362  1.00  0.00     0.010 C 
HETATM    9  C9  UNL     1     -14.762   3.761  22.228  1.00  0.00     0.035 C 
HETATM   10  C10 UNL     1     -14.272   5.188  22.290  1.00  0.00    -0.069 C 
HETATM   11  C11 UNL     1     -13.806   5.773  21.173  1.00  0.00     0.030 C 
HETATM   12  C12 UNL     1     -13.435   7.210  21.126  1.00  0.00     0.032 C 
HETATM   13  N1  UNL     1     -13.089   7.707  19.972  1.00  0.00    -0.271 N 
ATOM     14  H1  UNL     1     -13.070   7.176  19.102  1.00  0.00     0.194 HD
HETATM   15  C25 UNL     1     -13.562   8.023  22.398  1.00  0.00     0.060 C 
HETATM   16  C26 UNL     1     -13.453   7.149  23.639  1.00  0.00     0.020 C 
HETATM   17  C27 UNL     1     -14.395   5.909  23.635  1.00  0.00    -0.016 C 
HETATM   18  C28 UNL     1     -15.860   6.376  23.781  1.00  0.00     0.020 C 
HETATM   19  C29 UNL     1     -13.955   4.965  24.827  1.00  0.00     0.002 C 
HETATM   20  C30 UNL     1     -14.258   5.556  26.220  1.00  0.00     0.007 C 
HETATM   21  C31 UNL     1     -13.773   4.653  27.355  1.00  0.00     0.014 C 
HETATM   22  C32 UNL     1     -14.341   3.212  27.290  1.00  0.00     0.003 C 
HETATM   23  C33 UNL     1     -15.839   3.220  27.653  1.00  0.00     0.020 C 
ENDROOT
BRANCH   3  24
HETATM   24  O1  UNL     1     -14.247   0.973  28.280  1.00  0.00    -0.377 OA
HETATM   25  H2  UNL     1     -13.775   0.431  28.934  1.00  0.00     0.211 HD
ENDBRANCH   3  24
BRANCH  13  26
HETATM   26  O2  UNL     1     -12.746   9.063  20.076  1.00  0.00    -0.271 OA
BRANCH  26  27
HETATM   27  C13 UNL     1     -11.395   9.239  19.676  1.00  0.00     0.303 C 
BRANCH  27  28
HETATM   28  C14 UNL     1     -11.281   9.809  18.262  1.00  0.00     0.244 C 
HETATM   29  O3  UNL     1     -11.542  10.970  17.963  1.00  0.00    -0.271 OA
HETATM   30  N2  UNL     1     -10.837   8.879  17.330  1.00  0.00    -0.354 N 
HETATM   31  H16 UNL     1     -10.999   7.907  17.572  1.00  0.00     0.162 HD
BRANCH  30  32
HETATM   32  C15 UNL     1     -10.801   9.201  15.905  1.00  0.00     0.098 C 
BRANCH  32  33
HETATM   33  C16 UNL     1     -12.200   9.256  15.269  1.00  0.00     0.135 C 
BRANCH  33  34
HETATM   34  C17 UNL     1     -12.416  10.290  14.202  1.00  0.00     0.141 C 
HETATM   35  O4  UNL     1     -13.464  10.486  13.607  1.00  0.00    -0.650 OA
BRANCH  34  36
HETATM   36  O5  UNL     1     -11.319  10.993  13.873  1.00  0.00    -0.776 OA
HETATM   37  H20 UNL     1     -11.617  11.534  13.110  1.00  0.00     0.167 HD
ENDBRANCH  34  36
ENDBRANCH  33  34
ENDBRANCH  32  33
BRANCH  32  38
HETATM   38  C18 UNL     1      -9.772   8.337  15.119  1.00  0.00     0.014 C 
HETATM   39  C19 UNL     1     -10.373   7.221  14.253  1.00  0.00     0.033 C 
HETATM   40  C20 UNL     1      -9.283   6.394  13.582  1.00  0.00     0.169 C 
HETATM   41  O6  UNL     1      -8.373   5.859  14.536  1.00  0.00    -0.381 OA
HETATM   42  C21 UNL     1      -7.705   6.828  15.355  1.00  0.00     0.054 C 
HETATM   43  C22 UNL     1      -6.911   6.022  16.393  1.00  0.00     0.045 C 
HETATM   44  C23 UNL     1      -6.708   7.652  14.525  1.00  0.00     0.045 C 
HETATM   45  C24 UNL     1      -8.736   7.714  16.079  1.00  0.00     0.044 C 
ENDBRANCH  32  38
ENDBRANCH  30  32
ENDBRANCH  27  28
ENDBRANCH  26  27
ENDBRANCH  13  26
TORSDOF 9
ENDMDL
MODEL 2
REMARK minimizedAffinity -8.52479362
REMARK CNNscore 0.396361202
REMARK CNNaffinity 7.11337471
REMARK  9 active torsions:
REMARK  status: ('A' for Active; 'I' for Inactive)
REMARK    1  A    between atoms: C3_3  and  O1_4 
REMARK    2  A    between atoms: N1_14  and  O2_16 
REMARK    3  A    between atoms: O2_16  and  C13_17 
REMARK    4  A    between atoms: C13_17  and  C14_18 
REMARK       I    between atoms: C14_18  and  N2_20 
REMARK    5  A    between atoms: N2_20  and  C15_21 
REMARK    6  A    between atoms: C15_21  and  C16_22 
REMARK    7  A    between atoms: C15_21  and  C18_26 
REMARK    8  A    between atoms: C16_22  and  C17_23 
REMARK    9  A    between atoms: C17_23  and  O5_25 
ROOT
HETATM    1  C1  UNL     1      -7.528   3.625  14.302  1.00  0.00     0.015 C 
HETATM    2  C2  UNL     1      -7.293   4.800  14.203  1.00  0.00    -0.078 C 
HETATM    3  C3  UNL     1      -7.021   6.242  14.106  1.00  0.00     0.128 C 
HETATM    4  C4  UNL     1      -6.370   6.635  12.773  1.00  0.00     0.052 C 
HETATM    5  C5  UNL     1      -5.498   7.863  13.076  1.00  0.00     0.010 C 
HETATM    6  C6  UNL     1      -5.652   8.150  14.581  1.00  0.00     0.002 C 
HETATM    7  C7  UNL     1      -4.449   8.830  15.267  1.00  0.00    -0.004 C 
HETATM    8  C8  UNL     1      -4.070  10.136  14.555  1.00  0.00     0.010 C 
HETATM    9  C9  UNL     1      -2.985  10.875  15.323  1.00  0.00     0.035 C 
HETATM   10  C10 UNL     1      -1.759  10.020  15.536  1.00  0.00    -0.069 C 
HETATM   11  C11 UNL     1      -0.544  10.535  15.278  1.00  0.00     0.030 C 
HETATM   12  C12 UNL     1       0.709   9.804  15.589  1.00  0.00     0.032 C 
HETATM   13  N1  UNL     1       1.837  10.428  15.394  1.00  0.00    -0.271 N 
ATOM     14  H1  UNL     1       1.910  11.387  15.055  1.00  0.00     0.194 HD
HETATM   15  C25 UNL     1       0.598   8.418  16.189  1.00  0.00     0.060 C 
HETATM   16  C26 UNL     1      -0.716   7.747  15.819  1.00  0.00     0.020 C 
HETATM   17  C27 UNL     1      -1.980   8.613  16.098  1.00  0.00    -0.016 C 
HETATM   18  C28 UNL     1      -2.184   8.748  17.623  1.00  0.00     0.020 C 
HETATM   19  C29 UNL     1      -3.212   7.909  15.397  1.00  0.00     0.002 C 
HETATM   20  C30 UNL     1      -3.618   6.579  16.066  1.00  0.00     0.007 C 
HETATM   21  C31 UNL     1      -4.773   5.889  15.338  1.00  0.00     0.014 C 
HETATM   22  C32 UNL     1      -6.035   6.778  15.188  1.00  0.00     0.003 C 
HETATM   23  C33 UNL     1      -6.721   6.951  16.557  1.00  0.00     0.020 C 
ENDROOT
BRANCH   3  24
HETATM   24  O1  UNL     1      -8.268   6.940  14.194  1.00  0.00    -0.377 OA
HETATM   25  H2  UNL     1      -8.886   6.491  13.593  1.00  0.00     0.211 HD
ENDBRANCH   3  24
BRANCH  13  26
HETATM   26  O2  UNL     1       2.938   9.617  15.709  1.00  0.00    -0.271 OA
BRANCH  26  27
HETATM   27  C13 UNL     1       2.827   8.383  15.014  1.00  0.00     0.303 C 
BRANCH  27  28
HETATM   28  C14 UNL     1       3.508   8.429  13.646  1.00  0.00     0.244 C 
HETATM   29  O3  UNL     1       3.908   9.456  13.108  1.00  0.00    -0.271 OA
HETATM   30  N2  UNL     1       3.646   7.176  13.062  1.00  0.00    -0.354 N 
HETATM   31  H16 UNL     1       2.990   6.471  13.380  1.00  0.00     0.162 HD
BRANCH  30  32
HETATM   32  C15 UNL     1       4.145   7.035  11.695  1.00  0.00     0.098 C 
BRANCH  32  33
HETATM   33  C16 UNL     1       5.600   7.509  11.538  1.00  0.00     0.135 C 
BRANCH  33  34
HETATM   34  C17 UNL     1       6.634   6.447  11.301  1.00  0.00     0.141 C 
HETATM   35  O4  UNL     1       7.825   6.550  11.548  1.00  0.00    -0.650 OA
BRANCH  34  36
HETATM   36  O5  UNL     1       6.167   5.331  10.716  1.00  0.00    -0.776 OA
HETATM   37  H20 UNL     1       6.979   4.805  10.550  1.00  0.00     0.167 HD
ENDBRANCH  34  36
ENDBRANCH  33  34
ENDBRANCH  32  33
BRANCH  32  38
HETATM   38  C18 UNL     1       3.164   7.612  10.634  1.00  0.00     0.014 C 
HETATM   39  C19 UNL     1       1.685   7.626  11.043  1.00  0.00     0.033 C 
HETATM   40  C20 UNL     1       0.804   8.143   9.912  1.00  0.00     0.169 C 
HETATM   41  O6  UNL     1       0.991   7.391   8.719  1.00  0.00    -0.381 OA
HETATM   42  C21 UNL     1       2.333   7.369   8.214  1.00  0.00     0.054 C 
HETATM   43  C22 UNL     1       2.320   6.384   7.035  1.00  0.00     0.045 C 
HETATM   44  C23 UNL     1       2.739   8.750   7.679  1.00  0.00     0.045 C 
HETATM   45  C24 UNL     1       3.300   6.853   9.296  1.00  0.00     0.044 C 
ENDBRANCH  32  38
ENDBRANCH  30  32
ENDBRANCH  27  28
ENDBRANCH  26  27
ENDBRANCH  13  26
TORSDOF 9
ENDMDL
MODEL 3
REMARK minimizedAffinity -7.9521699
REMARK CNNscore 0.341450483
REMARK CNNaffinity 6.63786507
REMARK  9 active torsions:
REMARK  status: ('A' for Active; 'I' for Inactive)
REMARK    1  A    between atoms: C3_3  and  O1_4 
REMARK    2  A    between atoms: N1_14  and  O2_16 
REMARK    3  A    between atoms: O2_16  and  C13_17 
REMARK    4  A    between atoms: C13_17  and  C14_18 
REMARK       I    between atoms: C14_18  and  N2_20 
REMARK    5  A    between atoms: N2_20  and  C15_21 
REMARK    6  A    between atoms: C15_21  and  C16_22 
REMARK    7  A    between atoms: C15_21  and  C18_26 
REMARK    8  A    between atoms: C16_22  and  C17_23 
REMARK    9  A    between atoms: C17_23  and  O5_25 
ROOT
HETATM    1  C1  UNL     1     -13.099   3.122  30.664  1.00  0.00     0.015 C 
HETATM    2  C2  UNL     1     -13.299   2.719  29.548  1.00  0.00    -0.078 C 
HETATM    3  C3  UNL     1     -13.573   2.223  28.191  1.00  0.00     0.128 C 
HETATM    4  C4  UNL     1     -12.293   1.964  27.385  1.00  0.00     0.052 C 
HETATM    5  C5  UNL     1     -12.666   2.206  25.913  1.00  0.00     0.010 C 
HETATM    6  C6  UNL     1     -14.151   2.612  25.898  1.00  0.00     0.002 C 
HETATM    7  C7  UNL     1     -14.590   3.529  24.737  1.00  0.00    -0.004 C 
HETATM    8  C8  UNL     1     -14.237   2.910  23.378  1.00  0.00     0.010 C 
HETATM    9  C9  UNL     1     -14.805   3.744  22.240  1.00  0.00     0.035 C 
HETATM   10  C10 UNL     1     -14.337   5.178  22.300  1.00  0.00    -0.069 C 
HETATM   11  C11 UNL     1     -13.876   5.767  21.183  1.00  0.00     0.030 C 
HETATM   12  C12 UNL     1     -13.526   7.209  21.134  1.00  0.00     0.032 C 
HETATM   13  N1  UNL     1     -13.184   7.708  19.981  1.00  0.00    -0.271 N 
ATOM     14  H1  UNL     1     -13.155   7.176  19.111  1.00  0.00     0.194 HD
HETATM   15  C25 UNL     1     -13.669   8.023  22.404  1.00  0.00     0.060 C 
HETATM   16  C26 UNL     1     -13.551   7.154  23.647  1.00  0.00     0.020 C 
HETATM   17  C27 UNL     1     -14.474   5.900  23.644  1.00  0.00    -0.016 C 
HETATM   18  C28 UNL     1     -15.947   6.346  23.784  1.00  0.00     0.020 C 
HETATM   19  C29 UNL     1     -14.024   4.965  24.839  1.00  0.00     0.002 C 
HETATM   20  C30 UNL     1     -14.340   5.555  26.229  1.00  0.00     0.007 C 
HETATM   21  C31 UNL     1     -13.845   4.662  27.368  1.00  0.00     0.014 C 
HETATM   22  C32 UNL     1     -14.391   3.212  27.305  1.00  0.00     0.003 C 
HETATM   23  C33 UNL     1     -15.890   3.199  27.663  1.00  0.00     0.020 C 
ENDROOT
BRANCH   3  24
HETATM   24  O1  UNL     1     -14.268   0.977  28.300  1.00  0.00    -0.377 OA
HETATM   25  H2  UNL     1     -13.789   0.444  28.957  1.00  0.00     0.211 HD
ENDBRANCH   3  24
BRANCH  13  26
HETATM   26  O2  UNL     1     -12.861   9.070  20.082  1.00  0.00    -0.271 OA
BRANCH  26  27
HETATM   27  C13 UNL     1     -11.659   9.323  19.369  1.00  0.00     0.303 C 
BRANCH  27  28
HETATM   28  C14 UNL     1     -11.912   9.580  17.883  1.00  0.00     0.244 C 
HETATM   29  O3  UNL     1     -12.788  10.322  17.451  1.00  0.00    -0.271 OA
HETATM   30  N2  UNL     1     -11.037   8.892  17.052  1.00  0.00    -0.354 N 
HETATM   31  H16 UNL     1     -10.618   8.059  17.452  1.00  0.00     0.162 HD
BRANCH  30  32
HETATM   32  C15 UNL     1     -11.214   8.902  15.602  1.00  0.00     0.098 C 
BRANCH  32  33
HETATM   33  C16 UNL     1     -11.038  10.301  14.987  1.00  0.00     0.135 C 
BRANCH  33  34
HETATM   34  C17 UNL     1      -9.721  10.981  15.224  1.00  0.00     0.141 C 
HETATM   35  O4  UNL     1      -9.564  12.179  15.400  1.00  0.00    -0.650 OA
BRANCH  34  36
HETATM   36  O5  UNL     1      -8.652  10.167  15.173  1.00  0.00    -0.776 OA
HETATM   37  H20 UNL     1      -7.893  10.785  15.246  1.00  0.00     0.167 HD
ENDBRANCH  34  36
ENDBRANCH  33  34
ENDBRANCH  32  33
BRANCH  32  38
HETATM   38  C18 UNL     1     -12.506   8.159  15.148  1.00  0.00     0.014 C 
HETATM   39  C19 UNL     1     -12.283   6.786  14.502  1.00  0.00     0.033 C 
HETATM   40  C20 UNL     1     -13.599   6.176  14.032  1.00  0.00     0.169 C 
HETATM   41  O6  UNL     1     -14.289   7.047  13.143  1.00  0.00    -0.381 OA
HETATM   42  C21 UNL     1     -14.604   8.340  13.676  1.00  0.00     0.054 C 
HETATM   43  C22 UNL     1     -15.193   9.142  12.506  1.00  0.00     0.045 C 
HETATM   44  C23 UNL     1     -15.677   8.234  14.771  1.00  0.00     0.045 C 
HETATM   45  C24 UNL     1     -13.325   9.036  14.176  1.00  0.00     0.044 C 
ENDBRANCH  32  38
ENDBRANCH  30  32
ENDBRANCH  27  28
ENDBRANCH  26  27
ENDBRANCH  13  26
TORSDOF 9
ENDMDL
MODEL 4
REMARK minimizedAffinity -8.95004654
REMARK CNNscore 0.269881397
REMARK CNNaffinity 7.12930298
REMARK  9 active torsions:
REMARK  status: ('A' for Active; 'I' for Inactive)
REMARK    1  A    between atoms: C3_3  and  O1_4 
REMARK    2  A    between atoms: N1_14  and  O2_16 
REMARK    3  A    between atoms: O2_16  and  C13_17 
REMARK    4  A    between atoms: C13_17  and  C14_18 
REMARK       I    between atoms: C14_18  and  N2_20 
REMARK    5  A    between atoms: N2_20  and  C15_21 
REMARK    6  A    between atoms: C15_21  and  C16_22 
REMARK    7  A    between atoms: C15_21  and  C18_26 
REMARK    8  A    between atoms: C16_22  and  C17_23 
REMARK    9  A    between atoms: C17_23  and  O5_25 
ROOT
HETATM    1  C1  UNL     1     -10.427   7.386  14.301  1.00  0.00     0.015 C 
HETATM    2  C2  UNL     1      -9.414   6.755  14.446  1.00  0.00    -0.078 C 
HETATM    3  C3  UNL     1      -8.174   5.978  14.594  1.00  0.00     0.128 C 
HETATM    4  C4  UNL     1      -7.828   5.686  16.060  1.00  0.00     0.052 C 
HETATM    5  C5  UNL     1      -6.295   5.597  16.121  1.00  0.00     0.010 C 
HETATM    6  C6  UNL     1      -5.783   5.852  14.691  1.00  0.00     0.002 C 
HETATM    7  C7  UNL     1      -4.377   6.477  14.577  1.00  0.00    -0.004 C 
HETATM    8  C8  UNL     1      -3.335   5.638  15.330  1.00  0.00     0.010 C 
HETATM    9  C9  UNL     1      -1.932   6.175  15.088  1.00  0.00     0.035 C 
HETATM   10  C10 UNL     1      -1.809   7.630  15.471  1.00  0.00    -0.069 C 
HETATM   11  C11 UNL     1      -0.763   8.028  16.216  1.00  0.00     0.030 C 
HETATM   12  C12 UNL     1      -0.503   9.459  16.517  1.00  0.00     0.032 C 
HETATM   13  N1  UNL     1       0.590   9.751  17.162  1.00  0.00    -0.271 N 
ATOM     14  H1  UNL     1       1.282   9.062  17.460  1.00  0.00     0.194 HD
HETATM   15  C25 UNL     1      -1.478  10.489  15.986  1.00  0.00     0.060 C 
HETATM   16  C26 UNL     1      -2.862   9.897  15.768  1.00  0.00     0.020 C 
HETATM   17  C27 UNL     1      -2.874   8.586  14.927  1.00  0.00    -0.016 C 
HETATM   18  C28 UNL     1      -2.503   8.912  13.463  1.00  0.00     0.020 C 
HETATM   19  C29 UNL     1      -4.319   7.952  15.042  1.00  0.00     0.002 C 
HETATM   20  C30 UNL     1      -5.407   8.772  14.318  1.00  0.00     0.007 C 
HETATM   21  C31 UNL     1      -6.803   8.171  14.491  1.00  0.00     0.014 C 
HETATM   22  C32 UNL     1      -6.905   6.692  14.035  1.00  0.00     0.003 C 
HETATM   23  C33 UNL     1      -6.830   6.610  12.497  1.00  0.00     0.020 C 
ENDROOT
BRANCH   3  24
HETATM   24  O1  UNL     1      -8.353   4.718  13.938  1.00  0.00    -0.377 OA
HETATM   25  H2  UNL     1      -9.215   4.372  14.223  1.00  0.00     0.211 HD
ENDBRANCH   3  24
BRANCH  13  26
HETATM   26  O2  UNL     1       0.700  11.130  17.397  1.00  0.00    -0.271 OA
BRANCH  26  27
HETATM   27  C13 UNL     1       0.740  11.368  18.796  1.00  0.00     0.303 C 
BRANCH  27  28
HETATM   28  C14 UNL     1       2.025  10.838  19.435  1.00  0.00     0.244 C 
HETATM   29  O3  UNL     1       2.692   9.915  18.978  1.00  0.00    -0.271 OA
HETATM   30  N2  UNL     1       2.380  11.516  20.594  1.00  0.00    -0.354 N 
HETATM   31  H16 UNL     1       1.620  11.981  21.078  1.00  0.00     0.162 HD
BRANCH  30  32
HETATM   32  C15 UNL     1       3.498  11.060  21.418  1.00  0.00     0.098 C 
BRANCH  32  33
HETATM   33  C16 UNL     1       3.134  10.944  22.908  1.00  0.00     0.135 C 
BRANCH  33  34
HETATM   34  C17 UNL     1       2.984   9.556  23.460  1.00  0.00     0.141 C 
HETATM   35  O4  UNL     1       3.161   8.523  22.835  1.00  0.00    -0.650 OA
BRANCH  34  36
HETATM   36  O5  UNL     1       2.566   9.503  24.736  1.00  0.00    -0.776 OA
HETATM   37  H20 UNL     1       2.430   8.543  24.891  1.00  0.00     0.167 HD
ENDBRANCH  34  36
ENDBRANCH  33  34
ENDBRANCH  32  33
BRANCH  32  38
HETATM   38  C18 UNL     1       4.812  11.846  21.137  1.00  0.00     0.014 C 
HETATM   39  C19 UNL     1       5.597  11.395  19.898  1.00  0.00     0.033 C 
HETATM   40  C20 UNL     1       6.897  12.178  19.752  1.00  0.00     0.169 C 
HETATM   41  O6  UNL     1       7.700  12.078  20.923  1.00  0.00    -0.381 OA
HETATM   42  C21 UNL     1       7.079  12.538  22.131  1.00  0.00     0.054 C 
HETATM   43  C22 UNL     1       8.058  12.190  23.262  1.00  0.00     0.045 C 
HETATM   44  C23 UNL     1       6.898  14.063  22.108  1.00  0.00     0.045 C 
HETATM   45  C24 UNL     1       5.750  11.794  22.363  1.00  0.00     0.044 C 
ENDBRANCH  32  38
ENDBRANCH  30  32
ENDBRANCH  27  28
ENDBRANCH  26  27
ENDBRANCH  13  26
TORSDOF 9
ENDMDL
MODEL 5
REMARK minimizedAffinity -7.75473881
REMARK CNNscore 0.256436855
REMARK CNNaffinity 6.60851145
REMARK  9 active torsions:
REMARK  status: ('A' for Active; 'I' for Inactive)
REMARK    1  A    between atoms: C3_3  and  O1_4 
REMARK    2  A    between atoms: N1_14  and  O2_16 
REMARK    3  A    between atoms: O2_16  and  C13_17 
REMARK    4  A    between atoms: C13_17  and  C14_18 
REMARK       I    between atoms: C14_18  and  N2_20 
REMARK    5  A    between atoms: N2_20  and  C15_21 
REMARK    6  A    between atoms: C15_21  and  C16_22 
REMARK    7  A    between atoms: C15_21  and  C18_26 
REMARK    8  A    between atoms: C16_22  and  C17_23 
REMARK    9  A    between atoms: C17_23  and  O5_25 
ROOT
HETATM    1  C1  UNL     1     -13.079   2.969  30.691  1.00  0.00     0.015 C 
HETATM    2  C2  UNL     1     -13.274   2.585  29.568  1.00  0.00    -0.078 C 
HETATM    3  C3  UNL     1     -13.541   2.112  28.201  1.00  0.00     0.128 C 
HETATM    4  C4  UNL     1     -12.258   1.893  27.388  1.00  0.00     0.052 C 
HETATM    5  C5  UNL     1     -12.639   2.157  25.922  1.00  0.00     0.010 C 
HETATM    6  C6  UNL     1     -14.131   2.535  25.918  1.00  0.00     0.002 C 
HETATM    7  C7  UNL     1     -14.590   3.466  24.776  1.00  0.00    -0.004 C 
HETATM    8  C8  UNL     1     -14.227   2.881  23.404  1.00  0.00     0.010 C 
HETATM    9  C9  UNL     1     -14.814   3.727  22.284  1.00  0.00     0.035 C 
HETATM   10  C10 UNL     1     -14.373   5.169  22.372  1.00  0.00    -0.069 C 
HETATM   11  C11 UNL     1     -13.926   5.788  21.267  1.00  0.00     0.030 C 
HETATM   12  C12 UNL     1     -13.603   7.237  21.246  1.00  0.00     0.032 C 
HETATM   13  N1  UNL     1     -13.272   7.766  20.102  1.00  0.00    -0.271 N 
ATOM     14  H1  UNL     1     -13.235   7.251  19.222  1.00  0.00     0.194 HD
HETATM   15  C25 UNL     1     -13.758   8.023  22.532  1.00  0.00     0.060 C 
HETATM   16  C26 UNL     1     -13.621   7.131  23.757  1.00  0.00     0.020 C 
HETATM   17  C27 UNL     1     -14.521   5.860  23.730  1.00  0.00    -0.016 C 
HETATM   18  C28 UNL     1     -16.001   6.276  23.882  1.00  0.00     0.020 C 
HETATM   19  C29 UNL     1     -14.051   4.911  24.905  1.00  0.00     0.002 C 
HETATM   20  C30 UNL     1     -14.375   5.467  26.308  1.00  0.00     0.007 C 
HETATM   21  C31 UNL     1     -13.861   4.561  27.428  1.00  0.00     0.014 C 
HETATM   22  C32 UNL     1     -14.380   3.102  27.337  1.00  0.00     0.003 C 
HETATM   23  C33 UNL     1     -15.878   3.054  27.697  1.00  0.00     0.020 C 
ENDROOT
BRANCH   3  24
HETATM   24  O1  UNL     1     -14.212   0.850  28.286  1.00  0.00    -0.377 OA
HETATM   25  H2  UNL     1     -13.722   0.313  28.932  1.00  0.00     0.211 HD
ENDBRANCH   3  24
BRANCH  13  26
HETATM   26  O2  UNL     1     -12.975   9.131  20.230  1.00  0.00    -0.271 OA
BRANCH  26  27
HETATM   27  C13 UNL     1     -11.731   9.403  19.601  1.00  0.00     0.303 C 
BRANCH  27  28
HETATM   28  C14 UNL     1     -11.908  10.031  18.219  1.00  0.00     0.244 C 
HETATM   29  O3  UNL     1     -12.362  11.154  18.024  1.00  0.00    -0.271 OA
HETATM   30  N2  UNL     1     -11.488   9.204  17.184  1.00  0.00    -0.354 N 
HETATM   31  H16 UNL     1     -11.482   8.212  17.393  1.00  0.00     0.162 HD
BRANCH  30  32
HETATM   32  C15 UNL     1     -11.710   9.577  15.788  1.00  0.00     0.098 C 
BRANCH  32  33
HETATM   33  C16 UNL     1     -10.703   8.921  14.827  1.00  0.00     0.135 C 
BRANCH  33  34
HETATM   34  C17 UNL     1     -11.146   7.662  14.141  1.00  0.00     0.141 C 
HETATM   35  O4  UNL     1     -11.614   7.596  13.015  1.00  0.00    -0.650 OA
BRANCH  34  36
HETATM   36  O5  UNL     1     -11.050   6.551  14.891  1.00  0.00    -0.776 OA
HETATM   37  H20 UNL     1     -11.468   5.862  14.331  1.00  0.00     0.167 HD
ENDBRANCH  34  36
ENDBRANCH  33  34
ENDBRANCH  32  33
BRANCH  32  38
HETATM   38  C18 UNL     1     -11.877  11.112  15.594  1.00  0.00     0.014 C 
HETATM   39  C19 UNL     1     -13.013  11.537  14.654  1.00  0.00     0.033 C 
HETATM   40  C20 UNL     1     -13.047  13.051  14.478  1.00  0.00     0.169 C 
HETATM   41  O6  UNL     1     -11.796  13.551  14.018  1.00  0.00    -0.381 OA
HETATM   42  C21 UNL     1     -10.675  13.263  14.863  1.00  0.00     0.054 C 
HETATM   43  C22 UNL     1      -9.437  13.754  14.097  1.00  0.00     0.045 C 
HETATM   44  C23 UNL     1     -10.765  14.050  16.179  1.00  0.00     0.045 C 
HETATM   45  C24 UNL     1     -10.559  11.745  15.095  1.00  0.00     0.044 C 
ENDBRANCH  32  38
ENDBRANCH  30  32
ENDBRANCH  27  28
ENDBRANCH  26  27
ENDBRANCH  13  26
TORSDOF 9
ENDMDL
MODEL 6
REMARK minimizedAffinity -8.6334486
REMARK CNNscore 0.244158119
REMARK CNNaffinity 6.0796113
REMARK  9 active torsions:
REMARK  status: ('A' for Active; 'I' for Inactive)
REMARK    1  A    between atoms: C3_3  and  O1_4 
REMARK    2  A    between atoms: N1_14  and  O2_16 
REMARK    3  A    between atoms: O2_16  and  C13_17 
REMARK    4  A    between atoms: C13_17  and  C14_18 
REMARK       I    between atoms: C14_18  and  N2_20 
REMARK    5  A    between atoms: N2_20  and  C15_21 
REMARK    6  A    between atoms: C15_21  and  C16_22 
REMARK    7  A    between atoms: C15_21  and  C18_26 
REMARK    8  A    between atoms: C16_22  and  C17_23 
REMARK    9  A    between atoms: C17_23  and  O5_25 
ROOT
HETATM    1  C1  UNL     1      -4.868 -11.939   5.881  1.00  0.00     0.015 C 
HETATM    2  C2  UNL     1      -4.530 -11.970   4.727  1.00  0.00    -0.078 C 
HETATM    3  C3  UNL     1      -4.129 -12.034   3.313  1.00  0.00     0.128 C 
HETATM    4  C4  UNL     1      -3.247 -10.851   2.893  1.00  0.00     0.052 C 
HETATM    5  C5  UNL     1      -3.535 -10.622   1.400  1.00  0.00     0.010 C 
HETATM    6  C6  UNL     1      -4.586 -11.670   0.990  1.00  0.00     0.002 C 
HETATM    7  C7  UNL     1      -5.520 -11.272  -0.172  1.00  0.00    -0.004 C 
HETATM    8  C8  UNL     1      -4.716 -10.869  -1.416  1.00  0.00     0.010 C 
HETATM    9  C9  UNL     1      -5.640 -10.625  -2.600  1.00  0.00     0.035 C 
HETATM   10  C10 UNL     1      -6.689  -9.583  -2.294  1.00  0.00    -0.069 C 
HETATM   11  C11 UNL     1      -6.917  -8.599  -3.181  1.00  0.00     0.030 C 
HETATM   12  C12 UNL     1      -8.021  -7.620  -3.013  1.00  0.00     0.032 C 
HETATM   13  N1  UNL     1      -8.222  -6.766  -3.976  1.00  0.00    -0.271 N 
ATOM     14  H1  UNL     1      -7.680  -6.737  -4.839  1.00  0.00     0.194 HD
HETATM   15  C25 UNL     1      -8.891  -7.730  -1.778  1.00  0.00     0.060 C 
HETATM   16  C26 UNL     1      -8.154  -8.397  -0.627  1.00  0.00     0.020 C 
HETATM   17  C27 UNL     1      -7.481  -9.752  -0.995  1.00  0.00    -0.016 C 
HETATM   18  C28 UNL     1      -8.572 -10.816  -1.250  1.00  0.00     0.020 C 
HETATM   19  C29 UNL     1      -6.528 -10.159   0.202  1.00  0.00     0.002 C 
HETATM   20  C30 UNL     1      -7.290 -10.553   1.484  1.00  0.00     0.007 C 
HETATM   21  C31 UNL     1      -6.349 -10.886   2.643  1.00  0.00     0.014 C 
HETATM   22  C32 UNL     1      -5.322 -12.000   2.310  1.00  0.00     0.003 C 
HETATM   23  C33 UNL     1      -6.037 -13.363   2.220  1.00  0.00     0.020 C 
ENDROOT
BRANCH   3  24
HETATM   24  O1  UNL     1      -3.363 -13.228   3.119  1.00  0.00    -0.377 OA
HETATM   25  H2  UNL     1      -2.714 -13.267   3.842  1.00  0.00     0.211 HD
ENDBRANCH   3  24
BRANCH  13  26
HETATM   26  O2  UNL     1      -9.278  -5.891  -3.678  1.00  0.00    -0.271 OA
BRANCH  26  27
HETATM   27  C13 UNL     1     -10.114  -5.757  -4.818  1.00  0.00     0.303 C 
BRANCH  27  28
HETATM   28  C14 UNL     1     -10.084  -4.341  -5.393  1.00  0.00     0.244 C 
HETATM   29  O3  UNL     1      -9.780  -4.072  -6.550  1.00  0.00    -0.271 OA
HETATM   30  N2  UNL     1     -10.452  -3.368  -4.471  1.00  0.00    -0.354 N 
HETATM   31  H16 UNL     1     -10.327  -3.621  -3.496  1.00  0.00     0.162 HD
BRANCH  30  32
HETATM   32  C15 UNL     1     -10.347  -1.947  -4.796  1.00  0.00     0.098 C 
BRANCH  32  33
HETATM   33  C16 UNL     1     -11.686  -1.337  -5.248  1.00  0.00     0.135 C 
BRANCH  33  34
HETATM   34  C17 UNL     1     -12.651  -2.260  -5.932  1.00  0.00     0.141 C 
HETATM   35  O4  UNL     1     -12.848  -2.314  -7.136  1.00  0.00    -0.650 OA
BRANCH  34  36
HETATM   36  O5  UNL     1     -13.374  -3.031  -5.102  1.00  0.00    -0.776 OA
HETATM   37  H20 UNL     1     -14.006  -3.482  -5.702  1.00  0.00     0.167 HD
ENDBRANCH  34  36
ENDBRANCH  33  34
ENDBRANCH  32  33
BRANCH  32  38
HETATM   38  C18 UNL     1      -9.147  -1.631  -5.736  1.00  0.00     0.014 C 
HETATM   39  C19 UNL     1      -7.768  -1.622  -5.063  1.00  0.00     0.033 C 
HETATM   40  C20 UNL     1      -6.674  -1.236  -6.051  1.00  0.00     0.169 C 
HETATM   41  O6  UNL     1      -6.945   0.019  -6.664  1.00  0.00    -0.381 OA
HETATM   42  C21 UNL     1      -8.186   0.096  -7.378  1.00  0.00     0.054 C 
HETATM   43  C22 UNL     1      -8.331   1.563  -7.810  1.00  0.00     0.045 C 
HETATM   44  C23 UNL     1      -8.143  -0.773  -8.645  1.00  0.00     0.045 C 
HETATM   45  C24 UNL     1      -9.357  -0.279  -6.451  1.00  0.00     0.044 C 
ENDBRANCH  32  38
ENDBRANCH  30  32
ENDBRANCH  27  28
ENDBRANCH  26  27
ENDBRANCH  13  26
TORSDOF 9
ENDMDL
MODEL 7
REMARK minimizedAffinity -7.80724239
REMARK CNNscore 0.238933772
REMARK CNNaffinity 6.85597754
REMARK  9 active torsions:
REMARK  status: ('A' for Active; 'I' for Inactive)
REMARK    1  A    between atoms: C3_3  and  O1_4 
REMARK    2  A    between atoms: N1_14  and  O2_16 
REMARK    3  A    between atoms: O2_16  and  C13_17 
REMARK    4  A    between atoms: C13_17  and  C14_18 
REMARK       I    between atoms: C14_18  and  N2_20 
REMARK    5  A    between atoms: N2_20  and  C15_21 
REMARK    6  A    between atoms: C15_21  and  C16_22 
REMARK    7  A    between atoms: C15_21  and  C18_26 
REMARK    8  A    between atoms: C16_22  and  C17_23 
REMARK    9  A    between atoms: C17_23  and  O5_25 
ROOT
HETATM    1  C1  UNL     1       0.372   7.968  15.724  1.00  0.00     0.015 C 
HETATM    2  C2  UNL     1      -0.248   7.233  15.004  1.00  0.00    -0.078 C 
HETATM    3  C3  UNL     1      -1.002   6.310  14.141  1.00  0.00     0.128 C 
HETATM    4  C4  UNL     1      -1.386   6.938  12.794  1.00  0.00     0.052 C 
HETATM    5  C5  UNL     1      -2.700   6.259  12.373  1.00  0.00     0.010 C 
HETATM    6  C6  UNL     1      -3.055   5.260  13.490  1.00  0.00     0.002 C 
HETATM    7  C7  UNL     1      -4.558   4.964  13.679  1.00  0.00    -0.004 C 
HETATM    8  C8  UNL     1      -5.198   4.484  12.370  1.00  0.00     0.010 C 
HETATM    9  C9  UNL     1      -6.638   4.052  12.599  1.00  0.00     0.035 C 
HETATM   10  C10 UNL     1      -7.469   5.152  13.215  1.00  0.00    -0.069 C 
HETATM   11  C11 UNL     1      -8.677   5.433  12.698  1.00  0.00     0.030 C 
HETATM   12  C12 UNL     1      -9.604   6.405  13.331  1.00  0.00     0.032 C 
HETATM   13  N1  UNL     1     -10.791   6.534  12.810  1.00  0.00    -0.271 N 
ATOM     14  H1  UNL     1     -11.126   6.002  12.007  1.00  0.00     0.194 HD
HETATM   15  C25 UNL     1      -9.143   7.120  14.584  1.00  0.00     0.060 C 
HETATM   16  C26 UNL     1      -7.627   7.209  14.657  1.00  0.00     0.020 C 
HETATM   17  C27 UNL     1      -6.893   5.851  14.450  1.00  0.00    -0.016 C 
HETATM   18  C28 UNL     1      -7.153   4.935  15.667  1.00  0.00     0.020 C 
HETATM   19  C29 UNL     1      -5.352   6.158  14.261  1.00  0.00     0.002 C 
HETATM   20  C30 UNL     1      -4.667   6.665  15.548  1.00  0.00     0.007 C 
HETATM   21  C31 UNL     1      -3.193   7.010  15.327  1.00  0.00     0.014 C 
HETATM   22  C32 UNL     1      -2.360   5.838  14.746  1.00  0.00     0.003 C 
HETATM   23  C33 UNL     1      -2.164   4.750  15.820  1.00  0.00     0.020 C 
ENDROOT
BRANCH   3  24
HETATM   24  O1  UNL     1      -0.173   5.177  13.862  1.00  0.00    -0.377 OA
HETATM   25  H2  UNL     1       0.700   5.522  13.610  1.00  0.00     0.211 HD
ENDBRANCH   3  24
BRANCH  13  26
HETATM   26  O2  UNL     1     -11.553   7.496  13.491  1.00  0.00    -0.271 OA
BRANCH  26  27
HETATM   27  C13 UNL     1     -12.446   6.845  14.383  1.00  0.00     0.303 C 
BRANCH  27  28
HETATM   28  C14 UNL     1     -13.834   6.653  13.771  1.00  0.00     0.244 C 
HETATM   29  O3  UNL     1     -14.199   7.160  12.716  1.00  0.00    -0.271 OA
HETATM   30  N2  UNL     1     -14.655   5.826  14.528  1.00  0.00    -0.354 N 
HETATM   31  H16 UNL     1     -14.422   5.761  15.513  1.00  0.00     0.162 HD
BRANCH  30  32
HETATM   32  C15 UNL     1     -16.061   5.640  14.176  1.00  0.00     0.098 C 
BRANCH  32  33
HETATM   33  C16 UNL     1     -17.002   6.576  14.954  1.00  0.00     0.135 C 
BRANCH  33  34
HETATM   34  C17 UNL     1     -16.576   6.962  16.340  1.00  0.00     0.141 C 
HETATM   35  O4  UNL     1     -15.590   7.624  16.619  1.00  0.00    -0.650 OA
BRANCH  34  36
HETATM   36  O5  UNL     1     -17.347   6.465  17.323  1.00  0.00    -0.776 OA
HETATM   37  H20 UNL     1     -16.872   6.728  18.140  1.00  0.00     0.167 HD
ENDBRANCH  34  36
ENDBRANCH  33  34
ENDBRANCH  32  33
BRANCH  32  38
HETATM   38  C18 UNL     1     -16.492   4.143  14.187  1.00  0.00     0.014 C 
HETATM   39  C19 UNL     1     -17.810   3.842  14.913  1.00  0.00     0.033 C 
HETATM   40  C20 UNL     1     -18.104   2.347  14.926  1.00  0.00     0.169 C 
HETATM   41  O6  UNL     1     -17.031   1.609  15.500  1.00  0.00    -0.381 OA
HETATM   42  C21 UNL     1     -15.762   1.770  14.851  1.00  0.00     0.054 C 
HETATM   43  C22 UNL     1     -14.747   1.020  15.726  1.00  0.00     0.045 C 
HETATM   44  C23 UNL     1     -15.771   1.117  13.461  1.00  0.00     0.045 C 
HETATM   45  C24 UNL     1     -15.380   3.261  14.794  1.00  0.00     0.044 C 
ENDBRANCH  32  38
ENDBRANCH  30  32
ENDBRANCH  27  28
ENDBRANCH  26  27
ENDBRANCH  13  26
TORSDOF 9
ENDMDL
MODEL 8
REMARK minimizedAffinity -8.86043644
REMARK CNNscore 0.231393173
REMARK CNNaffinity 6.76095581
REMARK  9 active torsions:
REMARK  status: ('A' for Active; 'I' for Inactive)
REMARK    1  A    between atoms: C3_3  and  O1_4 
REMARK    2  A    between atoms: N1_14  and  O2_16 
REMARK    3  A    between atoms: O2_16  and  C13_17 
REMARK    4  A    between atoms: C13_17  and  C14_18 
REMARK       I    between atoms: C14_18  and  N2_20 
REMARK    5  A    between atoms: N2_20  and  C15_21 
REMARK    6  A    between atoms: C15_21  and  C16_22 
REMARK    7  A    between atoms: C15_21  and  C18_26 
REMARK    8  A    between atoms: C16_22  and  C17_23 
REMARK    9  A    between atoms: C17_23  and  O5_25 
ROOT
HETATM    1  C1  UNL     1       3.015   9.210  11.995  1.00  0.00     0.015 C 
HETATM    2  C2  UNL     1       2.383   8.198  11.845  1.00  0.00    -0.078 C 
HETATM    3  C3  UNL     1       1.623   6.948  11.687  1.00  0.00     0.128 C 
HETATM    4  C4  UNL     1       0.815   6.907  10.383  1.00  0.00     0.052 C 
HETATM    5  C5  UNL     1      -0.415   6.033  10.677  1.00  0.00     0.010 C 
HETATM    6  C6  UNL     1      -0.300   5.595  12.149  1.00  0.00     0.002 C 
HETATM    7  C7  UNL     1      -1.631   5.318  12.878  1.00  0.00    -0.004 C 
HETATM    8  C8  UNL     1      -2.472   4.280  12.122  1.00  0.00     0.010 C 
HETATM    9  C9  UNL     1      -3.710   3.902  12.921  1.00  0.00     0.035 C 
HETATM   10  C10 UNL     1      -4.552   5.106  13.267  1.00  0.00    -0.069 C 
HETATM   11  C11 UNL     1      -5.880   5.060  13.066  1.00  0.00     0.030 C 
HETATM   12  C12 UNL     1      -6.786   6.151  13.505  1.00  0.00     0.032 C 
HETATM   13  N1  UNL     1      -8.067   5.968  13.355  1.00  0.00    -0.271 N 
ATOM     14  H1  UNL     1      -8.484   5.122  12.969  1.00  0.00     0.194 HD
HETATM   15  C25 UNL     1      -6.173   7.364  14.173  1.00  0.00     0.060 C 
HETATM   16  C26 UNL     1      -4.726   7.570  13.750  1.00  0.00     0.020 C 
HETATM   17  C27 UNL     1      -3.830   6.304  13.890  1.00  0.00    -0.016 C 
HETATM   18  C28 UNL     1      -3.615   5.990  15.388  1.00  0.00     0.020 C 
HETATM   19  C29 UNL     1      -2.464   6.595  13.146  1.00  0.00     0.002 C 
HETATM   20  C30 UNL     1      -1.591   7.649  13.858  1.00  0.00     0.007 C 
HETATM   21  C31 UNL     1      -0.303   7.955  13.091  1.00  0.00     0.014 C 
HETATM   22  C32 UNL     1       0.563   6.701  12.803  1.00  0.00     0.003 C 
HETATM   23  C33 UNL     1       1.209   6.198  14.109  1.00  0.00     0.020 C 
ENDROOT
BRANCH   3  24
HETATM   24  O1  UNL     1       2.552   5.860  11.647  1.00  0.00    -0.377 OA
HETATM   25  H2  UNL     1       3.259   6.115  11.032  1.00  0.00     0.211 HD
ENDBRANCH   3  24
BRANCH  13  26
HETATM   26  O2  UNL     1      -8.803   7.081  13.792  1.00  0.00    -0.271 OA
BRANCH  26  27
HETATM   27  C13 UNL     1      -9.892   6.642  14.591  1.00  0.00     0.303 C 
BRANCH  27  28
HETATM   28  C14 UNL     1     -11.241   6.899  13.919  1.00  0.00     0.244 C 
HETATM   29  O3  UNL     1     -11.396   7.614  12.934  1.00  0.00    -0.271 OA
HETATM   30  N2  UNL     1     -12.293   6.228  14.529  1.00  0.00    -0.354 N 
HETATM   31  H16 UNL     1     -12.147   5.979  15.502  1.00  0.00     0.162 HD
BRANCH  30  32
HETATM   32  C15 UNL     1     -13.674   6.462  14.115  1.00  0.00     0.098 C 
BRANCH  32  33
HETATM   33  C16 UNL     1     -13.813   7.634  13.128  1.00  0.00     0.135 C 
BRANCH  33  34
HETATM   34  C17 UNL     1     -15.128   7.768  12.419  1.00  0.00     0.141 C 
HETATM   35  O4  UNL     1     -15.997   8.584  12.684  1.00  0.00    -0.650 OA
BRANCH  34  36
HETATM   36  O5  UNL     1     -15.341   6.854  11.456  1.00  0.00    -0.776 OA
HETATM   37  H20 UNL     1     -16.267   7.027  11.180  1.00  0.00     0.167 HD
ENDBRANCH  34  36
ENDBRANCH  33  34
ENDBRANCH  32  33
BRANCH  32  38
HETATM   38  C18 UNL     1     -14.663   6.514  15.316  1.00  0.00     0.014 C 
HETATM   39  C19 UNL     1     -16.064   5.951  15.041  1.00  0.00     0.033 C 
HETATM   40  C20 UNL     1     -16.972   6.112  16.255  1.00  0.00     0.169 C 
HETATM   41  O6  UNL     1     -17.046   7.469  16.674  1.00  0.00    -0.381 OA
HETATM   42  C21 UNL     1     -15.792   8.072  17.019  1.00  0.00     0.054 C 
HETATM   43  C22 UNL     1     -16.099   9.554  17.282  1.00  0.00     0.045 C 
HETATM   44  C23 UNL     1     -15.230   7.464  18.313  1.00  0.00     0.045 C 
HETATM   45  C24 UNL     1     -14.806   7.959  15.842  1.00  0.00     0.044 C 
ENDBRANCH  32  38
ENDBRANCH  30  32
ENDBRANCH  27  28
ENDBRANCH  26  27
ENDBRANCH  13  26
TORSDOF 9
ENDMDL
MODEL 9
REMARK minimizedAffinity -8.76197624
REMARK CNNscore 0.228246748
REMARK CNNaffinity 5.88921547
REMARK  9 active torsions:
REMARK  status: ('A' for Active; 'I' for Inactive)
REMARK    1  A    between atoms: C3_3  and  O1_4 
REMARK    2  A    between atoms: N1_14  and  O2_16 
REMARK    3  A    between atoms: O2_16  and  C13_17 
REMARK    4  A    between atoms: C13_17  and  C14_18 
REMARK       I    between atoms: C14_18  and  N2_20 
REMARK    5  A    between atoms: N2_20  and  C15_21 
REMARK    6  A    between atoms: C15_21  and  C16_22 
REMARK    7  A    between atoms: C15_21  and  C18_26 
REMARK    8  A    between atoms: C16_22  and  C17_23 
REMARK    9  A    between atoms: C17_23  and  O5_25 
ROOT
HETATM    1  C1  UNL     1       2.102   7.388   6.869  1.00  0.00     0.015 C 
HETATM    2  C2  UNL     1       1.951   7.268   8.056  1.00  0.00    -0.078 C 
HETATM    3  C3  UNL     1       1.776   7.093   9.506  1.00  0.00     0.128 C 
HETATM    4  C4  UNL     1       1.023   8.260  10.158  1.00  0.00     0.052 C 
HETATM    5  C5  UNL     1       1.553   8.352  11.598  1.00  0.00     0.010 C 
HETATM    6  C6  UNL     1       2.611   7.243  11.747  1.00  0.00     0.002 C 
HETATM    7  C7  UNL     1       3.734   7.512  12.771  1.00  0.00    -0.004 C 
HETATM    8  C8  UNL     1       3.155   7.828  14.157  1.00  0.00     0.010 C 
HETATM    9  C9  UNL     1       4.264   7.944  15.191  1.00  0.00     0.035 C 
HETATM   10  C10 UNL     1       5.295   8.978  14.805  1.00  0.00    -0.069 C 
HETATM   11  C11 UNL     1       5.701   9.875  15.719  1.00  0.00     0.030 C 
HETATM   12  C12 UNL     1       6.804  10.833  15.455  1.00  0.00     0.032 C 
HETATM   13  N1  UNL     1       7.192  11.595  16.438  1.00  0.00    -0.271 N 
ATOM     14  H1  UNL     1       6.795  11.565  17.377  1.00  0.00     0.194 HD
HETATM   15  C25 UNL     1       7.462  10.805  14.091  1.00  0.00     0.060 C 
HETATM   16  C26 UNL     1       6.525  10.261  13.023  1.00  0.00     0.020 C 
HETATM   17  C27 UNL     1       5.862   8.899  13.385  1.00  0.00    -0.016 C 
HETATM   18  C28 UNL     1       6.935   7.787  13.374  1.00  0.00     0.020 C 
HETATM   19  C29 UNL     1       4.716   8.624  12.330  1.00  0.00     0.002 C 
HETATM   20  C30 UNL     1       5.247   8.321  10.914  1.00  0.00     0.007 C 
HETATM   21  C31 UNL     1       4.121   8.115   9.899  1.00  0.00     0.014 C 
HETATM   22  C32 UNL     1       3.114   7.007  10.302  1.00  0.00     0.003 C 
HETATM   23  C33 UNL     1       3.776   5.621  10.166  1.00  0.00     0.020 C 
ENDROOT
BRANCH   3  24
HETATM   24  O1  UNL     1       1.002   5.910   9.725  1.00  0.00    -0.377 OA
HETATM   25  H2  UNL     1       0.245   5.951   9.116  1.00  0.00     0.211 HD
ENDBRANCH   3  24
BRANCH  13  26
HETATM   26  O2  UNL     1       8.223  12.461  16.045  1.00  0.00    -0.271 OA
BRANCH  26  27
HETATM   27  C13 UNL     1       8.406  13.457  17.041  1.00  0.00     0.303 C 
BRANCH  27  28
HETATM   28  C14 UNL     1       8.457  12.863  18.449  1.00  0.00     0.244 C 
HETATM   29  O3  UNL     1       8.971  11.783  18.723  1.00  0.00    -0.271 OA
HETATM   30  N2  UNL     1       7.868  13.677  19.408  1.00  0.00    -0.354 N 
HETATM   31  H16 UNL     1       7.176  14.331  19.060  1.00  0.00     0.162 HD
BRANCH  30  32
HETATM   32  C15 UNL     1       7.697  13.213  20.784  1.00  0.00     0.098 C 
BRANCH  32  33
HETATM   33  C16 UNL     1       8.989  12.634  21.385  1.00  0.00     0.135 C 
BRANCH  33  34
HETATM   34  C17 UNL     1       8.962  12.303  22.849  1.00  0.00     0.141 C 
HETATM   35  O4  UNL     1       8.813  11.186  23.320  1.00  0.00    -0.650 OA
BRANCH  34  36
HETATM   36  O5  UNL     1       9.060  13.365  23.666  1.00  0.00    -0.776 OA
HETATM   37  H20 UNL     1       8.925  12.979  24.558  1.00  0.00     0.167 HD
ENDBRANCH  34  36
ENDBRANCH  33  34
ENDBRANCH  32  33
BRANCH  32  38
HETATM   38  C18 UNL     1       6.443  12.307  20.962  1.00  0.00     0.014 C 
HETATM   39  C19 UNL     1       5.579  12.124  19.707  1.00  0.00     0.033 C 
HETATM   40  C20 UNL     1       4.345  11.281  20.004  1.00  0.00     0.169 C 
HETATM   41  O6  UNL     1       3.579  11.835  21.068  1.00  0.00    -0.381 OA
HETATM   42  C21 UNL     1       4.279  11.987  22.310  1.00  0.00     0.054 C 
HETATM   43  C22 UNL     1       3.316  12.735  23.244  1.00  0.00     0.045 C 
HETATM   44  C23 UNL     1       4.586  10.618  22.938  1.00  0.00     0.045 C 
HETATM   45  C24 UNL     1       5.549  12.834  22.105  1.00  0.00     0.044 C 
ENDBRANCH  32  38
ENDBRANCH  30  32
ENDBRANCH  27  28
ENDBRANCH  26  27
ENDBRANCH  13  26
TORSDOF 9
ENDMDL
