MODEL 1
REMARK minimizedAffinity -8.91389656
REMARK CNNscore 0.461152345
REMARK CNNaffinity 7.03810835
REMARK  15 active torsions:
REMARK  status: ('A' for Active; 'I' for Inactive)
REMARK    1  A    between atoms: C19_20  and  O2_21 
REMARK    2  A    between atoms: C19_20  and  C20_22 
REMARK    3  A    between atoms: C20_22  and  C21_24 
REMARK    4  A    between atoms: C21_24  and  O4_25 
REMARK    5  A    between atoms: O4_25  and  C22_26 
REMARK    6  A    between atoms: C22_26  and  C23_28 
REMARK    7  A    between atoms: C23_28  and  C24_29 
REMARK    8  A    between atoms: C24_29  and  C25_30 
REMARK       I    between atoms: C25_30  and  N1_32 
REMARK    9  A    between atoms: N1_32  and  C26_33 
REMARK   10  A    between atoms: C26_33  and  C27_34 
REMARK       I    between atoms: C27_34  and  N2_36 
REMARK   11  A    between atoms: N2_36  and  C28_37 
REMARK   12  A    between atoms: C28_37  and  C29_38 
REMARK   13  A    between atoms: C28_37  and  C38_48 
REMARK   14  A    between atoms: C29_38  and  C30_39 
REMARK   15  A    between atoms: C38_48  and  O9_50 
ROOT
HETATM    1  C22 UNL     1      -3.694   3.132  11.304  1.00  0.00     0.259 C 
HETATM    2  O5  UNL     1      -3.848   3.637  10.197  1.00  0.00    -0.265 OA
ENDROOT
BRANCH   1   3
HETATM    3  O4  UNL     1      -2.650   3.376  12.143  1.00  0.00    -0.314 OA
BRANCH   3   4
HETATM    4  C21 UNL     1      -2.300   4.751  12.332  1.00  0.00     0.260 C 
BRANCH   4   5
HETATM    5  C20 UNL     1      -1.073   5.103  11.486  1.00  0.00     0.185 C 
HETATM    6  O3  UNL     1      -1.095   5.038  10.252  1.00  0.00    -0.292 OA
BRANCH   5   7
HETATM    7  C19 UNL     1       0.190   5.574  12.257  1.00  0.00     0.128 C 
HETATM    8  C14 UNL     1       0.511   7.108  12.106  1.00  0.00    -0.002 C 
HETATM    9  C13 UNL     1       1.029   7.763  13.420  1.00  0.00     0.013 C 
HETATM   10  C15 UNL     1      -0.720   7.947  11.686  1.00  0.00     0.019 C 
HETATM   11  C16 UNL     1       1.581   7.195  10.961  1.00  0.00     0.002 C 
HETATM   12  C12 UNL     1       2.466   7.425  13.814  1.00  0.00     0.007 C 
HETATM   13  C11 UNL     1       3.480   7.506  12.652  1.00  0.00     0.002 C 
HETATM   14  C2  UNL     1       4.813   8.268  12.978  1.00  0.00    -0.016 C 
HETATM   15  C10 UNL     1       2.808   8.050  11.366  1.00  0.00    -0.004 C 
HETATM   16  C1  UNL     1       4.560   9.784  13.166  1.00  0.00     0.020 C 
HETATM   17  C3  UNL     1       5.479   7.689  14.257  1.00  0.00     0.022 C 
HETATM   18  C7  UNL     1       5.781   8.057  11.808  1.00  0.00    -0.068 C 
HETATM   19  C4  UNL     1       6.869   8.261  14.526  1.00  0.00     0.084 C 
HETATM   20  C5  UNL     1       7.748   8.226  13.300  1.00  0.00     0.149 C 
HETATM   21  O1  UNL     1       8.969   8.332  13.375  1.00  0.00    -0.293 OA
HETATM   22  C6  UNL     1       7.117   8.061  11.968  1.00  0.00     0.053 C 
HETATM   23  C8  UNL     1       5.202   7.724  10.453  1.00  0.00     0.035 C 
HETATM   24  C9  UNL     1       3.804   8.285  10.211  1.00  0.00     0.010 C 
HETATM   25  C17 UNL     1       1.919   5.749  10.569  1.00  0.00     0.009 C 
HETATM   26  C18 UNL     1       1.442   4.874  11.715  1.00  0.00     0.047 C 
BRANCH   7  27
HETATM   27  O2  UNL     1       0.030   5.202  13.626  1.00  0.00    -0.381 OA
HETATM   28  H27 UNL     1       0.251   4.255  13.720  1.00  0.00     0.211 HD
ENDBRANCH   7  27
ENDBRANCH   5   7
ENDBRANCH   4   5
ENDBRANCH   3   4
ENDBRANCH   1   3
BRANCH   1  29
HETATM   29  C23 UNL     1      -4.618   2.124  11.933  1.00  0.00     0.120 C 
BRANCH  29  30
HETATM   30  C24 UNL     1      -6.043   2.297  11.421  1.00  0.00     0.112 C 
BRANCH  30  31
HETATM   31  C25 UNL     1      -6.966   2.785  12.514  1.00  0.00     0.218 C 
HETATM   32  O6  UNL     1      -8.039   2.263  12.790  1.00  0.00    -0.274 OA
HETATM   33  N1  UNL     1      -6.506   3.911  13.153  1.00  0.00    -0.352 N 
HETATM   34  H34 UNL     1      -5.702   4.408  12.780  1.00  0.00     0.162 HD
BRANCH  33  35
HETATM   35  C26 UNL     1      -7.232   4.528  14.253  1.00  0.00     0.225 C 
BRANCH  35  36
HETATM   36  C27 UNL     1      -7.945   5.827  13.860  1.00  0.00     0.236 C 
HETATM   37  O7  UNL     1      -7.353   6.739  13.288  1.00  0.00    -0.272 OA
HETATM   38  N2  UNL     1      -9.247   5.934  14.287  1.00  0.00    -0.345 N 
HETATM   39  H37 UNL     1      -9.539   5.308  15.040  1.00  0.00     0.163 HD
BRANCH  38  40
HETATM   40  C28 UNL     1     -10.008   7.190  14.166  1.00  0.00     0.186 C 
BRANCH  40  41
HETATM   41  C29 UNL     1     -11.441   6.929  13.676  1.00  0.00     0.077 C 
BRANCH  41  42
HETATM   42  C30 UNL     1     -12.084   8.128  13.047  1.00  0.00    -0.028 A 
HETATM   43  C31 UNL     1     -11.516   8.968  12.110  1.00  0.00     0.096 A 
HETATM   44  N3  UNL     1     -12.435   9.924  11.771  1.00  0.00    -0.365 N 
HETATM   45  C32 UNL     1     -13.597   9.738  12.480  1.00  0.00     0.042 A 
HETATM   46  H42 UNL     1     -12.289  10.654  11.088  1.00  0.00     0.165 HD
HETATM   47  C33 UNL     1     -14.798  10.458  12.450  1.00  0.00     0.030 A 
HETATM   48  C37 UNL     1     -13.405   8.623  13.299  1.00  0.00    -0.002 A 
HETATM   49  C34 UNL     1     -15.829  10.033  13.292  1.00  0.00     0.002 A 
HETATM   50  C35 UNL     1     -15.665   8.931  14.129  1.00  0.00     0.001 A 
HETATM   51  C36 UNL     1     -14.461   8.218  14.140  1.00  0.00     0.014 A 
ENDBRANCH  41  42
ENDBRANCH  40  41
BRANCH  40  52
HETATM   52  C38 UNL     1     -10.032   7.904  15.527  1.00  0.00     0.163 C 
HETATM   53  O8  UNL     1     -10.569   8.962  15.807  1.00  0.00    -0.648 OA
BRANCH  52  54
HETATM   54  O9  UNL     1      -9.335   7.244  16.483  1.00  0.00    -0.775 OA
HETATM   55  H47 UNL     1      -9.373   7.843  17.262  1.00  0.00     0.167 HD
ENDBRANCH  52  54
ENDBRANCH  40  52
ENDBRANCH  38  40
ENDBRANCH  35  36
ENDBRANCH  33  35
ENDBRANCH  30  31
ENDBRANCH  29  30
ENDBRANCH   1  29
TORSDOF 15
ENDMDL
MODEL 2
REMARK minimizedAffinity -9.84898853
REMARK CNNscore 0.354209751
REMARK CNNaffinity 6.99248886
REMARK  15 active torsions:
REMARK  status: ('A' for Active; 'I' for Inactive)
REMARK    1  A    between atoms: C19_20  and  O2_21 
REMARK    2  A    between atoms: C19_20  and  C20_22 
REMARK    3  A    between atoms: C20_22  and  C21_24 
REMARK    4  A    between atoms: C21_24  and  O4_25 
REMARK    5  A    between atoms: O4_25  and  C22_26 
REMARK    6  A    between atoms: C22_26  and  C23_28 
REMARK    7  A    between atoms: C23_28  and  C24_29 
REMARK    8  A    between atoms: C24_29  and  C25_30 
REMARK       I    between atoms: C25_30  and  N1_32 
REMARK    9  A    between atoms: N1_32  and  C26_33 
REMARK   10  A    between atoms: C26_33  and  C27_34 
REMARK       I    between atoms: C27_34  and  N2_36 
REMARK   11  A    between atoms: N2_36  and  C28_37 
REMARK   12  A    between atoms: C28_37  and  C29_38 
REMARK   13  A    between atoms: C28_37  and  C38_48 
REMARK   14  A    between atoms: C29_38  and  C30_39 
REMARK   15  A    between atoms: C38_48  and  O9_50 
ROOT
HETATM    1  C22 UNL     1       3.906   7.631   9.387  1.00  0.00     0.259 C 
HETATM    2  O5  UNL     1       4.223   8.815   9.377  1.00  0.00    -0.265 OA
ENDROOT
BRANCH   1   3
HETATM    3  O4  UNL     1       4.607   6.632   9.990  1.00  0.00    -0.314 OA
BRANCH   3   4
HETATM    4  C21 UNL     1       4.723   6.713  11.415  1.00  0.00     0.260 C 
BRANCH   4   5
HETATM    5  C20 UNL     1       6.069   7.335  11.799  1.00  0.00     0.185 C 
HETATM    6  O3  UNL     1       7.024   7.351  11.014  1.00  0.00    -0.292 OA
BRANCH   5   7
HETATM    7  C19 UNL     1       6.162   7.970  13.213  1.00  0.00     0.128 C 
HETATM    8  C14 UNL     1       6.413   9.524  13.213  1.00  0.00    -0.002 C 
HETATM    9  C13 UNL     1       5.623  10.276  14.324  1.00  0.00     0.013 C 
HETATM   10  C15 UNL     1       6.002  10.205  11.885  1.00  0.00     0.019 C 
HETATM   11  C16 UNL     1       7.962   9.693  13.395  1.00  0.00     0.002 C 
HETATM   12  C12 UNL     1       6.156  10.115  15.747  1.00  0.00     0.007 C 
HETATM   13  C11 UNL     1       7.686  10.272  15.875  1.00  0.00     0.002 C 
HETATM   14  C2  UNL     1       8.170  11.189  17.053  1.00  0.00    -0.016 C 
HETATM   15  C10 UNL     1       8.317  10.693  14.524  1.00  0.00    -0.004 C 
HETATM   16  C1  UNL     1       7.811  12.672  16.792  1.00  0.00     0.020 C 
HETATM   17  C3  UNL     1       7.545  10.731  18.399  1.00  0.00     0.022 C 
HETATM   18  C7  UNL     1       9.693  11.050  17.172  1.00  0.00    -0.068 C 
HETATM   19  C4  UNL     1       8.115  11.464  19.612  1.00  0.00     0.084 C 
HETATM   20  C5  UNL     1       9.624  11.488  19.607  1.00  0.00     0.149 C 
HETATM   21  O1  UNL     1      10.272  11.733  20.620  1.00  0.00    -0.293 OA
HETATM   22  C6  UNL     1      10.342  11.209  18.340  1.00  0.00     0.053 C 
HETATM   23  C8  UNL     1      10.467  10.609  15.952  1.00  0.00     0.035 C 
HETATM   24  C9  UNL     1       9.826  11.001  14.624  1.00  0.00     0.010 C 
HETATM   25  C17 UNL     1       8.534   8.282  13.598  1.00  0.00     0.009 C 
HETATM   26  C18 UNL     1       7.360   7.397  13.980  1.00  0.00     0.047 C 
BRANCH   7  27
HETATM   27  O2  UNL     1       4.973   7.628  13.924  1.00  0.00    -0.381 OA
HETATM   28  H27 UNL     1       5.063   6.715  14.261  1.00  0.00     0.211 HD
ENDBRANCH   7  27
ENDBRANCH   5   7
ENDBRANCH   4   5
ENDBRANCH   3   4
ENDBRANCH   1   3
BRANCH   1  29
HETATM   29  C23 UNL     1       2.693   7.053   8.708  1.00  0.00     0.120 C 
BRANCH  29  30
HETATM   30  C24 UNL     1       1.454   7.889   9.003  1.00  0.00     0.112 C 
BRANCH  30  31
HETATM   31  C25 UNL     1       1.038   7.768  10.452  1.00  0.00     0.218 C 
HETATM   32  O6  UNL     1       0.443   8.641  11.071  1.00  0.00    -0.274 OA
HETATM   33  N1  UNL     1       1.431   6.587  11.033  1.00  0.00    -0.352 N 
HETATM   34  H34 UNL     1       2.068   5.969  10.538  1.00  0.00     0.162 HD
BRANCH  33  35
HETATM   35  C26 UNL     1       1.110   6.260  12.414  1.00  0.00     0.225 C 
BRANCH  35  36
HETATM   36  C27 UNL     1      -0.198   5.475  12.567  1.00  0.00     0.236 C 
HETATM   37  O7  UNL     1      -0.904   5.587  13.566  1.00  0.00    -0.272 OA
HETATM   38  N2  UNL     1      -0.460   4.571  11.565  1.00  0.00    -0.345 N 
HETATM   39  H37 UNL     1       0.329   4.291  10.978  1.00  0.00     0.163 HD
BRANCH  38  40
HETATM   40  C28 UNL     1      -1.567   3.602  11.658  1.00  0.00     0.186 C 
BRANCH  40  41
HETATM   41  C29 UNL     1      -2.837   4.141  10.981  1.00  0.00     0.077 C 
BRANCH  41  42
HETATM   42  C30 UNL     1      -4.007   4.251  11.912  1.00  0.00    -0.028 A 
HETATM   43  C31 UNL     1      -4.242   5.264  12.819  1.00  0.00     0.096 A 
HETATM   44  N3  UNL     1      -5.426   5.009  13.458  1.00  0.00    -0.365 N 
HETATM   45  C32 UNL     1      -5.970   3.835  12.996  1.00  0.00     0.042 A 
HETATM   46  H42 UNL     1      -5.848   5.602  14.158  1.00  0.00     0.165 HD
HETATM   47  C33 UNL     1      -7.165   3.194  13.347  1.00  0.00     0.030 A 
HETATM   48  C37 UNL     1      -5.096   3.328  12.031  1.00  0.00    -0.002 A 
HETATM   49  C34 UNL     1      -7.470   1.993  12.701  1.00  0.00     0.002 A 
HETATM   50  C35 UNL     1      -6.614   1.456  11.741  1.00  0.00     0.001 A 
HETATM   51  C36 UNL     1      -5.428   2.114  11.397  1.00  0.00     0.014 A 
ENDBRANCH  41  42
ENDBRANCH  40  41
BRANCH  40  52
HETATM   52  C38 UNL     1      -1.138   2.277  11.007  1.00  0.00     0.163 C 
HETATM   53  O8  UNL     1      -0.283   1.498  11.390  1.00  0.00    -0.648 OA
BRANCH  52  54
HETATM   54  O9  UNL     1      -1.807   2.011   9.859  1.00  0.00    -0.775 OA
HETATM   55  H47 UNL     1      -1.382   1.190   9.521  1.00  0.00     0.167 HD
ENDBRANCH  52  54
ENDBRANCH  40  52
ENDBRANCH  38  40
ENDBRANCH  35  36
ENDBRANCH  33  35
ENDBRANCH  30  31
ENDBRANCH  29  30
ENDBRANCH   1  29
TORSDOF 15
ENDMDL
MODEL 3
REMARK minimizedAffinity -9.95594406
REMARK CNNscore 0.29568696
REMARK CNNaffinity 6.55309296
REMARK  15 active torsions:
REMARK  status: ('A' for Active; 'I' for Inactive)
REMARK    1  A    between atoms: C19_20  and  O2_21 
REMARK    2  A    between atoms: C19_20  and  C20_22 
REMARK    3  A    between atoms: C20_22  and  C21_24 
REMARK    4  A    between atoms: C21_24  and  O4_25 
REMARK    5  A    between atoms: O4_25  and  C22_26 
REMARK    6  A    between atoms: C22_26  and  C23_28 
REMARK    7  A    between atoms: C23_28  and  C24_29 
REMARK    8  A    between atoms: C24_29  and  C25_30 
REMARK       I    between atoms: C25_30  and  N1_32 
REMARK    9  A    between atoms: N1_32  and  C26_33 
REMARK   10  A    between atoms: C26_33  and  C27_34 
REMARK       I    between atoms: C27_34  and  N2_36 
REMARK   11  A    between atoms: N2_36  and  C28_37 
REMARK   12  A    between atoms: C28_37  and  C29_38 
REMARK   13  A    between atoms: C28_37  and  C38_48 
REMARK   14  A    between atoms: C29_38  and  C30_39 
REMARK   15  A    between atoms: C38_48  and  O9_50 
ROOT
HETATM    1  C22 UNL     1       6.375   6.902  10.997  1.00  0.00     0.259 C 
HETATM    2  O5  UNL     1       7.022   5.918  10.657  1.00  0.00    -0.265 OA
ENDROOT
BRANCH   1   3
HETATM    3  O4  UNL     1       6.853   7.950  11.722  1.00  0.00    -0.314 OA
BRANCH   3   4
HETATM    4  C21 UNL     1       7.604   7.616  12.894  1.00  0.00     0.260 C 
BRANCH   4   5
HETATM    5  C20 UNL     1       6.742   7.809  14.145  1.00  0.00     0.185 C 
HETATM    6  O3  UNL     1       5.551   7.479  14.169  1.00  0.00    -0.292 OA
BRANCH   5   7
HETATM    7  C19 UNL     1       7.448   8.412  15.389  1.00  0.00     0.128 C 
HETATM    8  C14 UNL     1       7.463   9.986  15.430  1.00  0.00    -0.002 C 
HETATM    9  C13 UNL     1       7.247  10.568  16.858  1.00  0.00     0.013 C 
HETATM   10  C15 UNL     1       6.358  10.626  14.554  1.00  0.00     0.019 C 
HETATM   11  C16 UNL     1       8.858  10.402  14.845  1.00  0.00     0.002 C 
HETATM   12  C12 UNL     1       8.436  10.458  17.810  1.00  0.00     0.007 C 
HETATM   13  C11 UNL     1       9.790  10.861  17.186  1.00  0.00     0.002 C 
HETATM   14  C2  UNL     1      10.676  11.813  18.065  1.00  0.00    -0.016 C 
HETATM   15  C10 UNL     1       9.598  11.416  15.753  1.00  0.00    -0.004 C 
HETATM   16  C1  UNL     1      10.046  13.224  18.172  1.00  0.00     0.020 C 
HETATM   17  C3  UNL     1      10.874  11.223  19.488  1.00  0.00     0.022 C 
HETATM   18  C7  UNL     1      12.057  11.923  17.406  1.00  0.00    -0.068 C 
HETATM   19  C4  UNL     1      11.875  12.007  20.334  1.00  0.00     0.084 C 
HETATM   20  C5  UNL     1      13.161  12.278  19.592  1.00  0.00     0.149 C 
HETATM   21  O1  UNL     1      14.191  12.599  20.177  1.00  0.00    -0.293 OA
HETATM   22  C6  UNL     1      13.177  12.155  18.114  1.00  0.00     0.053 C 
HETATM   23  C8  UNL     1      12.165  11.648  15.924  1.00  0.00     0.035 C 
HETATM   24  C9  UNL     1      10.900  11.964  15.132  1.00  0.00     0.010 C 
HETATM   25  C17 UNL     1       9.631   9.099  14.591  1.00  0.00     0.009 C 
HETATM   26  C18 UNL     1       8.931   8.024  15.404  1.00  0.00     0.047 C 
BRANCH   7  27
HETATM   27  O2  UNL     1       6.831   7.860  16.552  1.00  0.00    -0.381 OA
HETATM   28  H27 UNL     1       7.195   6.966  16.703  1.00  0.00     0.211 HD
ENDBRANCH   7  27
ENDBRANCH   5   7
ENDBRANCH   4   5
ENDBRANCH   3   4
ENDBRANCH   1   3
BRANCH   1  29
HETATM   29  C23 UNL     1       4.916   7.124  10.698  1.00  0.00     0.120 C 
BRANCH  29  30
HETATM   30  C24 UNL     1       4.259   5.840  10.206  1.00  0.00     0.112 C 
BRANCH  30  31
HETATM   31  C25 UNL     1       2.757   5.987  10.116  1.00  0.00     0.218 C 
HETATM   32  O6  UNL     1       2.099   5.712   9.120  1.00  0.00    -0.274 OA
HETATM   33  N1  UNL     1       2.193   6.506  11.256  1.00  0.00    -0.352 N 
HETATM   34  H34 UNL     1       2.789   6.880  11.988  1.00  0.00     0.162 HD
BRANCH  33  35
HETATM   35  C26 UNL     1       0.757   6.705  11.386  1.00  0.00     0.225 C 
BRANCH  35  36
HETATM   36  C27 UNL     1       0.026   5.498  11.985  1.00  0.00     0.236 C 
HETATM   37  O7  UNL     1       0.317   5.053  13.093  1.00  0.00    -0.272 OA
HETATM   38  N2  UNL     1      -0.890   4.896  11.155  1.00  0.00    -0.345 N 
HETATM   39  H37 UNL     1      -0.814   5.101  10.157  1.00  0.00     0.163 HD
BRANCH  38  40
HETATM   40  C28 UNL     1      -1.532   3.614  11.500  1.00  0.00     0.186 C 
BRANCH  40  41
HETATM   41  C29 UNL     1      -2.998   3.583  11.039  1.00  0.00     0.077 C 
BRANCH  41  42
HETATM   42  C30 UNL     1      -3.949   4.165  12.040  1.00  0.00    -0.028 A 
HETATM   43  C31 UNL     1      -3.734   5.279  12.827  1.00  0.00     0.096 A 
HETATM   44  N3  UNL     1      -4.852   5.496  13.586  1.00  0.00    -0.365 N 
HETATM   45  C32 UNL     1      -5.799   4.535  13.323  1.00  0.00     0.042 A 
HETATM   46  H42 UNL     1      -4.973   6.259  14.237  1.00  0.00     0.165 HD
HETATM   47  C33 UNL     1      -7.086   4.368  13.848  1.00  0.00     0.030 A 
HETATM   48  C37 UNL     1      -5.257   3.677  12.363  1.00  0.00    -0.002 A 
HETATM   49  C34 UNL     1      -7.838   3.285  13.387  1.00  0.00     0.002 A 
HETATM   50  C35 UNL     1      -7.322   2.405  12.437  1.00  0.00     0.001 A 
HETATM   51  C36 UNL     1      -6.037   2.591  11.917  1.00  0.00     0.014 A 
ENDBRANCH  41  42
ENDBRANCH  40  41
BRANCH  40  52
HETATM   52  C38 UNL     1      -0.746   2.462  10.854  1.00  0.00     0.163 C 
HETATM   53  O8  UNL     1      -1.158   1.623  10.071  1.00  0.00    -0.648 OA
BRANCH  52  54
HETATM   54  O9  UNL     1       0.545   2.408  11.261  1.00  0.00    -0.775 OA
HETATM   55  H47 UNL     1       0.894   1.593  10.835  1.00  0.00     0.167 HD
ENDBRANCH  52  54
ENDBRANCH  40  52
ENDBRANCH  38  40
ENDBRANCH  35  36
ENDBRANCH  33  35
ENDBRANCH  30  31
ENDBRANCH  29  30
ENDBRANCH   1  29
TORSDOF 15
ENDMDL
MODEL 4
REMARK minimizedAffinity -9.1064558
REMARK CNNscore 0.292288184
REMARK CNNaffinity 6.27070236
REMARK  15 active torsions:
REMARK  status: ('A' for Active; 'I' for Inactive)
REMARK    1  A    between atoms: C19_20  and  O2_21 
REMARK    2  A    between atoms: C19_20  and  C20_22 
REMARK    3  A    between atoms: C20_22  and  C21_24 
REMARK    4  A    between atoms: C21_24  and  O4_25 
REMARK    5  A    between atoms: O4_25  and  C22_26 
REMARK    6  A    between atoms: C22_26  and  C23_28 
REMARK    7  A    between atoms: C23_28  and  C24_29 
REMARK    8  A    between atoms: C24_29  and  C25_30 
REMARK       I    between atoms: C25_30  and  N1_32 
REMARK    9  A    between atoms: N1_32  and  C26_33 
REMARK   10  A    between atoms: C26_33  and  C27_34 
REMARK       I    between atoms: C27_34  and  N2_36 
REMARK   11  A    between atoms: N2_36  and  C28_37 
REMARK   12  A    between atoms: C28_37  and  C29_38 
REMARK   13  A    between atoms: C28_37  and  C38_48 
REMARK   14  A    between atoms: C29_38  and  C30_39 
REMARK   15  A    between atoms: C38_48  and  O9_50 
ROOT
HETATM    1  C22 UNL     1       0.563  10.446  17.933  1.00  0.00     0.259 C 
HETATM    2  O5  UNL     1       0.608  10.054  16.772  1.00  0.00    -0.265 OA
ENDROOT
BRANCH   1   3
HETATM    3  O4  UNL     1       1.433  10.095  18.919  1.00  0.00    -0.314 OA
BRANCH   3   4
HETATM    4  C21 UNL     1       1.246  10.739  20.184  1.00  0.00     0.260 C 
BRANCH   4   5
HETATM    5  C20 UNL     1       2.189  10.132  21.228  1.00  0.00     0.185 C 
HETATM    6  O3  UNL     1       2.158   8.930  21.510  1.00  0.00    -0.292 OA
BRANCH   5   7
HETATM    7  C19 UNL     1       3.206  11.101  21.890  1.00  0.00     0.128 C 
HETATM    8  C14 UNL     1       3.032  12.610  21.478  1.00  0.00    -0.002 C 
HETATM    9  C13 UNL     1       3.262  13.602  22.656  1.00  0.00     0.013 C 
HETATM   10  C15 UNL     1       1.617  12.933  20.940  1.00  0.00     0.019 C 
HETATM   11  C16 UNL     1       4.064  12.844  20.320  1.00  0.00     0.002 C 
HETATM   12  C12 UNL     1       4.715  13.809  23.081  1.00  0.00     0.007 C 
HETATM   13  C11 UNL     1       5.697  14.017  21.907  1.00  0.00     0.002 C 
HETATM   14  C2  UNL     1       6.707  15.206  22.081  1.00  0.00    -0.016 C 
HETATM   15  C10 UNL     1       4.941  14.099  20.557  1.00  0.00    -0.004 C 
HETATM   16  C1  UNL     1       5.980  16.572  22.015  1.00  0.00     0.020 C 
HETATM   17  C3  UNL     1       7.469  15.088  23.430  1.00  0.00     0.022 C 
HETATM   18  C7  UNL     1       7.739  15.126  20.950  1.00  0.00    -0.068 C 
HETATM   19  C4  UNL     1       8.596  16.109  23.579  1.00  0.00     0.084 C 
HETATM   20  C5  UNL     1       9.490  16.154  22.365  1.00  0.00     0.149 C 
HETATM   21  O1  UNL     1      10.610  16.655  22.403  1.00  0.00    -0.293 OA
HETATM   22  C6  UNL     1       8.997  15.581  21.089  1.00  0.00     0.053 C 
HETATM   23  C8  UNL     1       7.350  14.408  19.678  1.00  0.00     0.035 C 
HETATM   24  C9  UNL     1       5.857  14.446  19.365  1.00  0.00     0.010 C 
HETATM   25  C17 UNL     1       4.859  11.537  20.172  1.00  0.00     0.009 C 
HETATM   26  C18 UNL     1       4.636  10.757  21.456  1.00  0.00     0.047 C 
BRANCH   7  27
HETATM   27  O2  UNL     1       3.116  10.927  23.304  1.00  0.00    -0.381 OA
HETATM   28  H27 UNL     1       3.622  10.128  23.553  1.00  0.00     0.211 HD
ENDBRANCH   7  27
ENDBRANCH   5   7
ENDBRANCH   4   5
ENDBRANCH   3   4
ENDBRANCH   1   3
BRANCH   1  29
HETATM   29  C23 UNL     1      -0.484  11.371  18.495  1.00  0.00     0.120 C 
BRANCH  29  30
HETATM   30  C24 UNL     1      -1.833  10.668  18.597  1.00  0.00     0.112 C 
BRANCH  30  31
HETATM   31  C25 UNL     1      -2.685  10.929  17.375  1.00  0.00     0.218 C 
HETATM   32  O6  UNL     1      -2.565  11.910  16.651  1.00  0.00    -0.274 OA
HETATM   33  N1  UNL     1      -3.651   9.974  17.172  1.00  0.00    -0.352 N 
HETATM   34  H34 UNL     1      -3.828   9.276  17.888  1.00  0.00     0.162 HD
BRANCH  33  35
HETATM   35  C26 UNL     1      -4.562  10.024  16.038  1.00  0.00     0.225 C 
BRANCH  35  36
HETATM   36  C27 UNL     1      -4.413   8.834  15.083  1.00  0.00     0.236 C 
HETATM   37  O7  UNL     1      -4.654   8.938  13.882  1.00  0.00    -0.272 OA
HETATM   38  N2  UNL     1      -4.099   7.637  15.681  1.00  0.00    -0.345 N 
HETATM   39  H37 UNL     1      -4.264   7.567  16.687  1.00  0.00     0.163 HD
BRANCH  38  40
HETATM   40  C28 UNL     1      -4.113   6.365  14.937  1.00  0.00     0.186 C 
BRANCH  40  41
HETATM   41  C29 UNL     1      -5.131   6.404  13.787  1.00  0.00     0.077 C 
BRANCH  41  42
HETATM   42  C30 UNL     1      -6.083   5.247  13.795  1.00  0.00    -0.028 A 
HETATM   43  C31 UNL     1      -7.196   5.105  14.599  1.00  0.00     0.096 A 
HETATM   44  N3  UNL     1      -7.813   3.924  14.283  1.00  0.00    -0.365 N 
HETATM   45  C32 UNL     1      -7.116   3.276  13.291  1.00  0.00     0.042 A 
HETATM   46  H42 UNL     1      -8.664   3.581  14.705  1.00  0.00     0.165 HD
HETATM   47  C33 UNL     1      -7.379   2.058  12.651  1.00  0.00     0.030 A 
HETATM   48  C37 UNL     1      -6.017   4.077  12.970  1.00  0.00    -0.002 A 
HETATM   49  C34 UNL     1      -6.485   1.641  11.662  1.00  0.00     0.002 A 
HETATM   50  C35 UNL     1      -5.374   2.412  11.326  1.00  0.00     0.001 A 
HETATM   51  C36 UNL     1      -5.131   3.630  11.970  1.00  0.00     0.014 A 
ENDBRANCH  41  42
ENDBRANCH  40  41
BRANCH  40  52
HETATM   52  C38 UNL     1      -2.704   6.080  14.392  1.00  0.00     0.163 C 
HETATM   53  O8  UNL     1      -1.729   6.811  14.421  1.00  0.00    -0.648 OA
BRANCH  52  54
HETATM   54  O9  UNL     1      -2.603   4.867  13.797  1.00  0.00    -0.775 OA
HETATM   55  H47 UNL     1      -1.688   4.856  13.435  1.00  0.00     0.167 HD
ENDBRANCH  52  54
ENDBRANCH  40  52
ENDBRANCH  38  40
ENDBRANCH  35  36
ENDBRANCH  33  35
ENDBRANCH  30  31
ENDBRANCH  29  30
ENDBRANCH   1  29
TORSDOF 15
ENDMDL
MODEL 5
REMARK minimizedAffinity -9.46309948
REMARK CNNscore 0.273158669
REMARK CNNaffinity 6.86253738
REMARK  15 active torsions:
REMARK  status: ('A' for Active; 'I' for Inactive)
REMARK    1  A    between atoms: C19_20  and  O2_21 
REMARK    2  A    between atoms: C19_20  and  C20_22 
REMARK    3  A    between atoms: C20_22  and  C21_24 
REMARK    4  A    between atoms: C21_24  and  O4_25 
REMARK    5  A    between atoms: O4_25  and  C22_26 
REMARK    6  A    between atoms: C22_26  and  C23_28 
REMARK    7  A    between atoms: C23_28  and  C24_29 
REMARK    8  A    between atoms: C24_29  and  C25_30 
REMARK       I    between atoms: C25_30  and  N1_32 
REMARK    9  A    between atoms: N1_32  and  C26_33 
REMARK   10  A    between atoms: C26_33  and  C27_34 
REMARK       I    between atoms: C27_34  and  N2_36 
REMARK   11  A    between atoms: N2_36  and  C28_37 
REMARK   12  A    between atoms: C28_37  and  C29_38 
REMARK   13  A    between atoms: C28_37  and  C38_48 
REMARK   14  A    between atoms: C29_38  and  C30_39 
REMARK   15  A    between atoms: C38_48  and  O9_50 
ROOT
HETATM    1  C22 UNL     1       4.329   7.253  11.846  1.00  0.00     0.259 C 
HETATM    2  O5  UNL     1       3.517   7.760  12.613  1.00  0.00    -0.265 OA
ENDROOT
BRANCH   1   3
HETATM    3  O4  UNL     1       5.669   7.158  12.066  1.00  0.00    -0.314 OA
BRANCH   3   4
HETATM    4  C21 UNL     1       6.098   7.316  13.423  1.00  0.00     0.260 C 
BRANCH   4   5
HETATM    5  C20 UNL     1       7.577   7.712  13.465  1.00  0.00     0.185 C 
HETATM    6  O3  UNL     1       8.312   7.581  12.480  1.00  0.00    -0.292 OA
BRANCH   5   7
HETATM    7  C19 UNL     1       8.096   8.316  14.798  1.00  0.00     0.128 C 
HETATM    8  C14 UNL     1       8.076   9.889  14.852  1.00  0.00    -0.002 C 
HETATM    9  C13 UNL     1       7.658  10.453  16.241  1.00  0.00     0.013 C 
HETATM   10  C15 UNL     1       7.090  10.519  13.839  1.00  0.00     0.019 C 
HETATM   11  C16 UNL     1       9.530  10.335  14.465  1.00  0.00     0.002 C 
HETATM   12  C12 UNL     1       8.708  10.355  17.346  1.00  0.00     0.007 C 
HETATM   13  C11 UNL     1      10.127  10.786  16.915  1.00  0.00     0.002 C 
HETATM   14  C2  UNL     1      10.868  11.745  17.913  1.00  0.00    -0.016 C 
HETATM   15  C10 UNL     1      10.122  11.352  15.473  1.00  0.00    -0.004 C 
HETATM   16  C1  UNL     1      10.204  13.144  17.943  1.00  0.00     0.020 C 
HETATM   17  C3  UNL     1      10.882  11.144  19.345  1.00  0.00     0.022 C 
HETATM   18  C7  UNL     1      12.323  11.885  17.449  1.00  0.00    -0.068 C 
HETATM   19  C4  UNL     1      11.744  11.937  20.326  1.00  0.00     0.084 C 
HETATM   20  C5  UNL     1      13.113  12.237  19.767  1.00  0.00     0.149 C 
HETATM   21  O1  UNL     1      14.049  12.570  20.489  1.00  0.00    -0.293 OA
HETATM   22  C6  UNL     1      13.332  12.129  18.305  1.00  0.00     0.053 C 
HETATM   23  C8  UNL     1      12.637  11.626  15.994  1.00  0.00     0.035 C 
HETATM   24  C9  UNL     1      11.486  11.929  15.039  1.00  0.00     0.010 C 
HETATM   25  C17 UNL     1      10.354   9.047  14.310  1.00  0.00     0.009 C 
HETATM   26  C18 UNL     1       9.570   7.953  15.012  1.00  0.00     0.047 C 
BRANCH   7  27
HETATM   27  O2  UNL     1       7.337   7.742  15.862  1.00  0.00    -0.381 OA
HETATM   28  H27 UNL     1       7.693   6.853  16.054  1.00  0.00     0.211 HD
ENDBRANCH   7  27
ENDBRANCH   5   7
ENDBRANCH   4   5
ENDBRANCH   3   4
ENDBRANCH   1   3
BRANCH   1  29
HETATM   29  C23 UNL     1       3.999   6.665  10.500  1.00  0.00     0.120 C 
BRANCH  29  30
HETATM   30  C24 UNL     1       3.547   7.748   9.528  1.00  0.00     0.112 C 
BRANCH  30  31
HETATM   31  C25 UNL     1       2.039   7.844   9.471  1.00  0.00     0.218 C 
HETATM   32  O6  UNL     1       1.414   8.265   8.506  1.00  0.00    -0.274 OA
HETATM   33  N1  UNL     1       1.425   7.448  10.634  1.00  0.00    -0.352 N 
HETATM   34  H34 UNL     1       1.983   7.271  11.464  1.00  0.00     0.162 HD
BRANCH  33  35
HETATM   35  C26 UNL     1      -0.024   7.439  10.779  1.00  0.00     0.225 C 
BRANCH  35  36
HETATM   36  C27 UNL     1      -0.507   6.676  12.018  1.00  0.00     0.236 C 
HETATM   37  O7  UNL     1       0.181   5.807  12.548  1.00  0.00    -0.272 OA
HETATM   38  N2  UNL     1      -1.792   6.958  12.416  1.00  0.00    -0.345 N 
HETATM   39  H37 UNL     1      -2.400   7.410  11.730  1.00  0.00     0.163 HD
BRANCH  38  40
HETATM   40  C28 UNL     1      -2.475   6.174  13.461  1.00  0.00     0.186 C 
BRANCH  40  41
HETATM   41  C29 UNL     1      -2.459   4.672  13.132  1.00  0.00     0.077 C 
BRANCH  41  42
HETATM   42  C30 UNL     1      -3.787   4.147  12.679  1.00  0.00    -0.028 A 
HETATM   43  C31 UNL     1      -4.003   3.061  11.854  1.00  0.00     0.096 A 
HETATM   44  N3  UNL     1      -5.353   2.894  11.701  1.00  0.00    -0.365 N 
HETATM   45  C32 UNL     1      -6.033   3.861  12.402  1.00  0.00     0.042 A 
HETATM   46  H42 UNL     1      -5.791   2.158  11.164  1.00  0.00     0.165 HD
HETATM   47  C33 UNL     1      -7.410   4.072  12.545  1.00  0.00     0.030 A 
HETATM   48  C37 UNL     1      -5.077   4.671  13.018  1.00  0.00    -0.002 A 
HETATM   49  C34 UNL     1      -7.822   5.151  13.332  1.00  0.00     0.002 A 
HETATM   50  C35 UNL     1      -6.892   5.983  13.952  1.00  0.00     0.001 A 
HETATM   51  C36 UNL     1      -5.520   5.753  13.805  1.00  0.00     0.014 A 
ENDBRANCH  41  42
ENDBRANCH  40  41
BRANCH  40  52
HETATM   52  C38 UNL     1      -1.795   6.429  14.815  1.00  0.00     0.163 C 
HETATM   53  O8  UNL     1      -1.894   7.413  15.528  1.00  0.00    -0.648 OA
BRANCH  52  54
HETATM   54  O9  UNL     1      -0.978   5.418  15.196  1.00  0.00    -0.775 OA
HETATM   55  H47 UNL     1      -0.560   5.748  16.023  1.00  0.00     0.167 HD
ENDBRANCH  52  54
ENDBRANCH  40  52
ENDBRANCH  38  40
ENDBRANCH  35  36
ENDBRANCH  33  35
ENDBRANCH  30  31
ENDBRANCH  29  30
ENDBRANCH   1  29
TORSDOF 15
ENDMDL
MODEL 6
REMARK minimizedAffinity -8.97507572
REMARK CNNscore 0.252279222
REMARK CNNaffinity 7.16487122
REMARK  15 active torsions:
REMARK  status: ('A' for Active; 'I' for Inactive)
REMARK    1  A    between atoms: C19_20  and  O2_21 
REMARK    2  A    between atoms: C19_20  and  C20_22 
REMARK    3  A    between atoms: C20_22  and  C21_24 
REMARK    4  A    between atoms: C21_24  and  O4_25 
REMARK    5  A    between atoms: O4_25  and  C22_26 
REMARK    6  A    between atoms: C22_26  and  C23_28 
REMARK    7  A    between atoms: C23_28  and  C24_29 
REMARK    8  A    between atoms: C24_29  and  C25_30 
REMARK       I    between atoms: C25_30  and  N1_32 
REMARK    9  A    between atoms: N1_32  and  C26_33 
REMARK   10  A    between atoms: C26_33  and  C27_34 
REMARK       I    between atoms: C27_34  and  N2_36 
REMARK   11  A    between atoms: N2_36  and  C28_37 
REMARK   12  A    between atoms: C28_37  and  C29_38 
REMARK   13  A    between atoms: C28_37  and  C38_48 
REMARK   14  A    between atoms: C29_38  and  C30_39 
REMARK   15  A    between atoms: C38_48  and  O9_50 
ROOT
HETATM    1  C22 UNL     1      -3.682   3.562  11.317  1.00  0.00     0.259 C 
HETATM    2  O5  UNL     1      -3.957   3.649  10.125  1.00  0.00    -0.265 OA
ENDROOT
BRANCH   1   3
HETATM    3  O4  UNL     1      -2.501   3.935  11.884  1.00  0.00    -0.314 OA
BRANCH   3   4
HETATM    4  C21 UNL     1      -1.348   3.877  11.037  1.00  0.00     0.260 C 
BRANCH   4   5
HETATM    5  C20 UNL     1      -0.437   5.077  11.305  1.00  0.00     0.185 C 
HETATM    6  O3  UNL     1       0.591   5.272  10.646  1.00  0.00    -0.292 OA
BRANCH   5   7
HETATM    7  C19 UNL     1      -0.887   6.054  12.425  1.00  0.00     0.128 C 
HETATM    8  C14 UNL     1      -0.452   7.550  12.199  1.00  0.00    -0.002 C 
HETATM    9  C13 UNL     1      -1.538   8.579  12.629  1.00  0.00     0.013 C 
HETATM   10  C15 UNL     1      -0.143   7.874  10.717  1.00  0.00     0.019 C 
HETATM   11  C16 UNL     1       0.868   7.727  13.028  1.00  0.00     0.002 C 
HETATM   12  C12 UNL     1      -1.710   8.780  14.134  1.00  0.00     0.007 C 
HETATM   13  C11 UNL     1      -0.384   8.932  14.910  1.00  0.00     0.002 C 
HETATM   14  C2  UNL     1      -0.345  10.111  15.945  1.00  0.00    -0.016 C 
HETATM   15  C10 UNL     1       0.825   8.977  13.943  1.00  0.00    -0.004 C 
HETATM   16  C1  UNL     1      -0.348  11.484  15.229  1.00  0.00     0.020 C 
HETATM   17  C3  UNL     1      -1.553  10.029  16.919  1.00  0.00     0.022 C 
HETATM   18  C7  UNL     1       0.937   9.975  16.776  1.00  0.00    -0.068 C 
HETATM   19  C4  UNL     1      -1.477  11.038  18.063  1.00  0.00     0.084 C 
HETATM   20  C5  UNL     1      -0.131  11.027  18.745  1.00  0.00     0.149 C 
HETATM   21  O1  UNL     1       0.034  11.513  19.860  1.00  0.00    -0.293 OA
HETATM   22  C6  UNL     1       1.024  10.417  18.044  1.00  0.00     0.053 C 
HETATM   23  C8  UNL     1       2.099   9.218  16.177  1.00  0.00     0.035 C 
HETATM   24  C9  UNL     1       2.164   9.268  14.653  1.00  0.00     0.010 C 
HETATM   25  C17 UNL     1       1.095   6.404  13.776  1.00  0.00     0.009 C 
HETATM   26  C18 UNL     1      -0.236   5.673  13.761  1.00  0.00     0.047 C 
BRANCH   7  27
HETATM   27  O2  UNL     1      -2.302   5.932  12.568  1.00  0.00    -0.381 OA
HETATM   28  H27 UNL     1      -2.493   5.135  13.101  1.00  0.00     0.211 HD
ENDBRANCH   7  27
ENDBRANCH   5   7
ENDBRANCH   4   5
ENDBRANCH   3   4
ENDBRANCH   1   3
BRANCH   1  29
HETATM   29  C23 UNL     1      -4.590   2.998  12.377  1.00  0.00     0.120 C 
BRANCH  29  30
HETATM   30  C24 UNL     1      -6.022   2.893  11.868  1.00  0.00     0.112 C 
BRANCH  30  31
HETATM   31  C25 UNL     1      -7.013   3.370  12.905  1.00  0.00     0.218 C 
HETATM   32  O6  UNL     1      -8.151   2.932  13.021  1.00  0.00    -0.274 OA
HETATM   33  N1  UNL     1      -6.529   4.387  13.692  1.00  0.00    -0.352 N 
HETATM   34  H34 UNL     1      -5.651   4.836  13.452  1.00  0.00     0.162 HD
BRANCH  33  35
HETATM   35  C26 UNL     1      -7.315   4.972  14.769  1.00  0.00     0.225 C 
BRANCH  35  36
HETATM   36  C27 UNL     1      -8.151   6.179  14.327  1.00  0.00     0.236 C 
HETATM   37  O7  UNL     1      -7.644   7.136  13.747  1.00  0.00    -0.272 OA
HETATM   38  N2  UNL     1      -9.468   6.155  14.720  1.00  0.00    -0.345 N 
HETATM   39  H37 UNL     1      -9.712   5.518  15.480  1.00  0.00     0.163 HD
BRANCH  38  40
HETATM   40  C28 UNL     1     -10.355   7.320  14.549  1.00  0.00     0.186 C 
BRANCH  40  41
HETATM   41  C29 UNL     1     -11.830   6.928  14.726  1.00  0.00     0.077 C 
BRANCH  41  42
HETATM   42  C30 UNL     1     -12.752   7.635  13.779  1.00  0.00    -0.028 A 
HETATM   43  C31 UNL     1     -12.462   8.762  13.037  1.00  0.00     0.096 A 
HETATM   44  N3  UNL     1     -13.557   9.078  12.280  1.00  0.00    -0.365 N 
HETATM   45  C32 UNL     1     -14.574   8.185  12.521  1.00  0.00     0.042 A 
HETATM   46  H42 UNL     1     -13.611   9.848  11.628  1.00  0.00     0.165 HD
HETATM   47  C33 UNL     1     -15.859   8.110  11.969  1.00  0.00     0.030 A 
HETATM   48  C37 UNL     1     -14.103   7.272  13.467  1.00  0.00    -0.002 A 
HETATM   49  C34 UNL     1     -16.692   7.077  12.407  1.00  0.00     0.002 A 
HETATM   50  C35 UNL     1     -16.255   6.155  13.357  1.00  0.00     0.001 A 
HETATM   51  C36 UNL     1     -14.965   6.241  13.892  1.00  0.00     0.014 A 
ENDBRANCH  41  42
ENDBRANCH  40  41
BRANCH  40  52
HETATM   52  C38 UNL     1      -9.967   8.407  15.564  1.00  0.00     0.163 C 
HETATM   53  O8  UNL     1      -9.582   9.540  15.335  1.00  0.00    -0.648 OA
BRANCH  52  54
HETATM   54  O9  UNL     1     -10.059   7.988  16.849  1.00  0.00    -0.775 OA
HETATM   55  H47 UNL     1      -9.713   8.746  17.372  1.00  0.00     0.167 HD
ENDBRANCH  52  54
ENDBRANCH  40  52
ENDBRANCH  38  40
ENDBRANCH  35  36
ENDBRANCH  33  35
ENDBRANCH  30  31
ENDBRANCH  29  30
ENDBRANCH   1  29
TORSDOF 15
ENDMDL
MODEL 7
REMARK minimizedAffinity -8.70811081
REMARK CNNscore 0.249991417
REMARK CNNaffinity 6.74896288
REMARK  15 active torsions:
REMARK  status: ('A' for Active; 'I' for Inactive)
REMARK    1  A    between atoms: C19_20  and  O2_21 
REMARK    2  A    between atoms: C19_20  and  C20_22 
REMARK    3  A    between atoms: C20_22  and  C21_24 
REMARK    4  A    between atoms: C21_24  and  O4_25 
REMARK    5  A    between atoms: O4_25  and  C22_26 
REMARK    6  A    between atoms: C22_26  and  C23_28 
REMARK    7  A    between atoms: C23_28  and  C24_29 
REMARK    8  A    between atoms: C24_29  and  C25_30 
REMARK       I    between atoms: C25_30  and  N1_32 
REMARK    9  A    between atoms: N1_32  and  C26_33 
REMARK   10  A    between atoms: C26_33  and  C27_34 
REMARK       I    between atoms: C27_34  and  N2_36 
REMARK   11  A    between atoms: N2_36  and  C28_37 
REMARK   12  A    between atoms: C28_37  and  C29_38 
REMARK   13  A    between atoms: C28_37  and  C38_48 
REMARK   14  A    between atoms: C29_38  and  C30_39 
REMARK   15  A    between atoms: C38_48  and  O9_50 
ROOT
HETATM    1  C22 UNL     1       4.150   7.042  10.140  1.00  0.00     0.259 C 
HETATM    2  O5  UNL     1       3.942   8.250  10.161  1.00  0.00    -0.265 OA
ENDROOT
BRANCH   1   3
HETATM    3  O4  UNL     1       5.187   6.409  10.756  1.00  0.00    -0.314 OA
BRANCH   3   4
HETATM    4  C21 UNL     1       5.345   6.670  12.155  1.00  0.00     0.260 C 
BRANCH   4   5
HETATM    5  C20 UNL     1       6.712   7.306  12.421  1.00  0.00     0.185 C 
HETATM    6  O3  UNL     1       7.588   7.349  11.550  1.00  0.00    -0.292 OA
BRANCH   5   7
HETATM    7  C19 UNL     1       6.930   7.919  13.830  1.00  0.00     0.128 C 
HETATM    8  C14 UNL     1       6.817   9.488  13.883  1.00  0.00    -0.002 C 
HETATM    9  C13 UNL     1       6.107  10.013  15.165  1.00  0.00     0.013 C 
HETATM   10  C15 UNL     1       6.014  10.078  12.698  1.00  0.00     0.019 C 
HETATM   11  C16 UNL     1       8.292  10.013  13.787  1.00  0.00     0.002 C 
HETATM   12  C12 UNL     1       6.927   9.956  16.453  1.00  0.00     0.007 C 
HETATM   13  C11 UNL     1       8.377  10.465  16.307  1.00  0.00     0.002 C 
HETATM   14  C2  UNL     1       8.859  11.448  17.432  1.00  0.00    -0.016 C 
HETATM   15  C10 UNL     1       8.622  11.047  14.892  1.00  0.00    -0.004 C 
HETATM   16  C1  UNL     1       8.128  12.810  17.335  1.00  0.00     0.020 C 
HETATM   17  C3  UNL     1       8.625  10.832  18.839  1.00  0.00     0.022 C 
HETATM   18  C7  UNL     1      10.366  11.668  17.261  1.00  0.00    -0.068 C 
HETATM   19  C4  UNL     1       9.238  11.656  19.970  1.00  0.00     0.084 C 
HETATM   20  C5  UNL     1      10.671  12.033  19.689  1.00  0.00     0.149 C 
HETATM   21  O1  UNL     1      11.430  12.405  20.580  1.00  0.00    -0.293 OA
HETATM   22  C6  UNL     1      11.176  11.954  18.297  1.00  0.00     0.053 C 
HETATM   23  C8  UNL     1      10.970  11.444  15.893  1.00  0.00     0.035 C 
HETATM   24  C9  UNL     1      10.012  11.698  14.733  1.00  0.00     0.010 C 
HETATM   25  C17 UNL     1       9.198   8.772  13.793  1.00  0.00     0.009 C 
HETATM   26  C18 UNL     1       8.352   7.630  14.327  1.00  0.00     0.047 C 
BRANCH   7  27
HETATM   27  O2  UNL     1       6.010   7.294  14.725  1.00  0.00    -0.381 OA
HETATM   28  H27 UNL     1       6.368   6.422  14.982  1.00  0.00     0.211 HD
ENDBRANCH   7  27
ENDBRANCH   5   7
ENDBRANCH   4   5
ENDBRANCH   3   4
ENDBRANCH   1   3
BRANCH   1  29
HETATM   29  C23 UNL     1       3.312   6.030   9.405  1.00  0.00     0.120 C 
BRANCH  29  30
HETATM   30  C24 UNL     1       2.279   5.401  10.332  1.00  0.00     0.112 C 
BRANCH  30  31
HETATM   31  C25 UNL     1       1.260   6.417  10.794  1.00  0.00     0.218 C 
HETATM   32  O6  UNL     1       0.685   7.200  10.048  1.00  0.00    -0.274 OA
HETATM   33  N1  UNL     1       1.064   6.412  12.153  1.00  0.00    -0.352 N 
HETATM   34  H34 UNL     1       1.683   5.871  12.750  1.00  0.00     0.162 HD
BRANCH  33  35
HETATM   35  C26 UNL     1       0.106   7.297  12.800  1.00  0.00     0.225 C 
BRANCH  35  36
HETATM   36  C27 UNL     1      -1.345   6.818  12.677  1.00  0.00     0.236 C 
HETATM   37  O7  UNL     1      -2.276   7.610  12.549  1.00  0.00    -0.272 OA
HETATM   38  N2  UNL     1      -1.532   5.465  12.827  1.00  0.00    -0.345 N 
HETATM   39  H37 UNL     1      -0.776   4.941  13.273  1.00  0.00     0.163 HD
BRANCH  38  40
HETATM   40  C28 UNL     1      -2.876   4.869  12.932  1.00  0.00     0.186 C 
BRANCH  40  41
HETATM   41  C29 UNL     1      -3.972   5.940  12.810  1.00  0.00     0.077 C 
BRANCH  41  42
HETATM   42  C30 UNL     1      -4.794   6.095  14.054  1.00  0.00    -0.028 A 
HETATM   43  C31 UNL     1      -4.318   6.212  15.344  1.00  0.00     0.096 A 
HETATM   44  N3  UNL     1      -5.385   6.361  16.189  1.00  0.00    -0.365 N 
HETATM   45  C32 UNL     1      -6.560   6.331  15.477  1.00  0.00     0.042 A 
HETATM   46  H42 UNL     1      -5.321   6.488  17.189  1.00  0.00     0.165 HD
HETATM   47  C33 UNL     1      -7.884   6.457  15.916  1.00  0.00     0.030 A 
HETATM   48  C37 UNL     1      -6.223   6.154  14.133  1.00  0.00    -0.002 A 
HETATM   49  C34 UNL     1      -8.894   6.388  14.954  1.00  0.00     0.002 A 
HETATM   50  C35 UNL     1      -8.592   6.202  13.606  1.00  0.00     0.001 A 
HETATM   51  C36 UNL     1      -7.263   6.086  13.184  1.00  0.00     0.014 A 
ENDBRANCH  41  42
ENDBRANCH  40  41
BRANCH  40  52
HETATM   52  C38 UNL     1      -3.047   3.805  11.836  1.00  0.00     0.163 C 
HETATM   53  O8  UNL     1      -2.973   3.956  10.629  1.00  0.00    -0.648 OA
BRANCH  52  54
HETATM   54  O9  UNL     1      -3.342   2.579  12.331  1.00  0.00    -0.775 OA
HETATM   55  H47 UNL     1      -3.497   2.030  11.529  1.00  0.00     0.167 HD
ENDBRANCH  52  54
ENDBRANCH  40  52
ENDBRANCH  38  40
ENDBRANCH  35  36
ENDBRANCH  33  35
ENDBRANCH  30  31
ENDBRANCH  29  30
ENDBRANCH   1  29
TORSDOF 15
ENDMDL
MODEL 8
REMARK minimizedAffinity -9.83023739
REMARK CNNscore 0.244675785
REMARK CNNaffinity 7.20796728
REMARK  15 active torsions:
REMARK  status: ('A' for Active; 'I' for Inactive)
REMARK    1  A    between atoms: C19_20  and  O2_21 
REMARK    2  A    between atoms: C19_20  and  C20_22 
REMARK    3  A    between atoms: C20_22  and  C21_24 
REMARK    4  A    between atoms: C21_24  and  O4_25 
REMARK    5  A    between atoms: O4_25  and  C22_26 
REMARK    6  A    between atoms: C22_26  and  C23_28 
REMARK    7  A    between atoms: C23_28  and  C24_29 
REMARK    8  A    between atoms: C24_29  and  C25_30 
REMARK       I    between atoms: C25_30  and  N1_32 
REMARK    9  A    between atoms: N1_32  and  C26_33 
REMARK   10  A    between atoms: C26_33  and  C27_34 
REMARK       I    between atoms: C27_34  and  N2_36 
REMARK   11  A    between atoms: N2_36  and  C28_37 
REMARK   12  A    between atoms: C28_37  and  C29_38 
REMARK   13  A    between atoms: C28_37  and  C38_48 
REMARK   14  A    between atoms: C29_38  and  C30_39 
REMARK   15  A    between atoms: C38_48  and  O9_50 
ROOT
HETATM    1  C22 UNL     1      -3.451   3.216  11.285  1.00  0.00     0.259 C 
HETATM    2  O5  UNL     1      -2.579   2.374  11.105  1.00  0.00    -0.265 OA
ENDROOT
BRANCH   1   3
HETATM    3  O4  UNL     1      -3.291   4.382  11.970  1.00  0.00    -0.314 OA
BRANCH   3   4
HETATM    4  C21 UNL     1      -3.060   4.261  13.378  1.00  0.00     0.260 C 
BRANCH   4   5
HETATM    5  C20 UNL     1      -2.805   5.641  13.991  1.00  0.00     0.185 C 
HETATM    6  O3  UNL     1      -3.729   6.344  14.414  1.00  0.00    -0.292 OA
BRANCH   5   7
HETATM    7  C19 UNL     1      -1.324   6.098  14.080  1.00  0.00     0.128 C 
HETATM    8  C14 UNL     1      -0.931   7.234  13.063  1.00  0.00    -0.002 C 
HETATM    9  C13 UNL     1       0.039   8.292  13.665  1.00  0.00     0.013 C 
HETATM   10  C15 UNL     1      -2.150   8.039  12.552  1.00  0.00     0.019 C 
HETATM   11  C16 UNL     1      -0.285   6.491  11.842  1.00  0.00     0.002 C 
HETATM   12  C12 UNL     1       1.490   7.845  13.840  1.00  0.00     0.007 C 
HETATM   13  C11 UNL     1       2.078   7.103  12.620  1.00  0.00     0.002 C 
HETATM   14  C2  UNL     1       3.508   7.572  12.175  1.00  0.00    -0.016 C 
HETATM   15  C10 UNL     1       1.079   7.103  11.435  1.00  0.00    -0.004 C 
HETATM   16  C1  UNL     1       3.468   8.999  11.576  1.00  0.00     0.020 C 
HETATM   17  C3  UNL     1       4.495   7.540  13.375  1.00  0.00     0.022 C 
HETATM   18  C7  UNL     1       4.025   6.592  11.116  1.00  0.00    -0.068 C 
HETATM   19  C4  UNL     1       5.944   7.808  12.972  1.00  0.00     0.084 C 
HETATM   20  C5  UNL     1       6.374   6.970  11.794  1.00  0.00     0.149 C 
HETATM   21  O1  UNL     1       7.558   6.795  11.520  1.00  0.00    -0.293 OA
HETATM   22  C6  UNL     1       5.335   6.343  10.941  1.00  0.00     0.053 C 
HETATM   23  C8  UNL     1       3.011   5.799  10.323  1.00  0.00     0.035 C 
HETATM   24  C9  UNL     1       1.667   6.497  10.143  1.00  0.00     0.010 C 
HETATM   25  C17 UNL     1      -0.223   5.003  12.219  1.00  0.00     0.009 C 
HETATM   26  C18 UNL     1      -0.383   4.940  13.728  1.00  0.00     0.047 C 
BRANCH   7  27
HETATM   27  O2  UNL     1      -1.067   6.487  15.429  1.00  0.00    -0.381 OA
HETATM   28  H27 UNL     1      -0.914   5.681  15.961  1.00  0.00     0.211 HD
ENDBRANCH   7  27
ENDBRANCH   5   7
ENDBRANCH   4   5
ENDBRANCH   3   4
ENDBRANCH   1   3
BRANCH   1  29
HETATM   29  C23 UNL     1      -4.874   3.107  10.807  1.00  0.00     0.120 C 
BRANCH  29  30
HETATM   30  C24 UNL     1      -5.590   1.946  11.487  1.00  0.00     0.112 C 
BRANCH  30  31
HETATM   31  C25 UNL     1      -6.799   2.420  12.261  1.00  0.00     0.218 C 
HETATM   32  O6  UNL     1      -7.743   1.703  12.567  1.00  0.00    -0.274 OA
HETATM   33  N1  UNL     1      -6.762   3.761  12.559  1.00  0.00    -0.352 N 
HETATM   34  H34 UNL     1      -6.050   4.351  12.140  1.00  0.00     0.162 HD
BRANCH  33  35
HETATM   35  C26 UNL     1      -7.818   4.413  13.320  1.00  0.00     0.225 C 
BRANCH  35  36
HETATM   36  C27 UNL     1      -7.558   5.903  13.569  1.00  0.00     0.236 C 
HETATM   37  O7  UNL     1      -6.611   6.488  13.048  1.00  0.00    -0.272 OA
HETATM   38  N2  UNL     1      -8.387   6.498  14.490  1.00  0.00    -0.345 N 
HETATM   39  H37 UNL     1      -8.896   5.876  15.122  1.00  0.00     0.163 HD
BRANCH  38  40
HETATM   40  C28 UNL     1      -8.148   7.864  14.989  1.00  0.00     0.186 C 
BRANCH  40  41
HETATM   41  C29 UNL     1      -9.364   8.395  15.763  1.00  0.00     0.077 C 
BRANCH  41  42
HETATM   42  C30 UNL     1     -10.441   8.947  14.877  1.00  0.00    -0.028 A 
HETATM   43  C31 UNL     1     -10.532  10.239  14.402  1.00  0.00     0.096 A 
HETATM   44  N3  UNL     1     -11.642  10.333  13.608  1.00  0.00    -0.365 N 
HETATM   45  C32 UNL     1     -12.295   9.125  13.562  1.00  0.00     0.042 A 
HETATM   46  H42 UNL     1     -11.936  11.164  13.114  1.00  0.00     0.165 HD
HETATM   47  C33 UNL     1     -13.456   8.751  12.872  1.00  0.00     0.030 A 
HETATM   48  C37 UNL     1     -11.571   8.235  14.359  1.00  0.00    -0.002 A 
HETATM   49  C34 UNL     1     -13.895   7.433  13.011  1.00  0.00     0.002 A 
HETATM   50  C35 UNL     1     -13.201   6.524  13.806  1.00  0.00     0.001 A 
HETATM   51  C36 UNL     1     -12.038   6.911  14.482  1.00  0.00     0.014 A 
ENDBRANCH  41  42
ENDBRANCH  40  41
BRANCH  40  52
HETATM   52  C38 UNL     1      -6.902   7.867  15.888  1.00  0.00     0.163 C 
HETATM   53  O8  UNL     1      -5.872   8.501  15.737  1.00  0.00    -0.648 OA
BRANCH  52  54
HETATM   54  O9  UNL     1      -7.008   7.023  16.943  1.00  0.00    -0.775 OA
HETATM   55  H47 UNL     1      -6.127   7.071  17.376  1.00  0.00     0.167 HD
ENDBRANCH  52  54
ENDBRANCH  40  52
ENDBRANCH  38  40
ENDBRANCH  35  36
ENDBRANCH  33  35
ENDBRANCH  30  31
ENDBRANCH  29  30
ENDBRANCH   1  29
TORSDOF 15
ENDMDL
MODEL 9
REMARK minimizedAffinity -10.0209007
REMARK CNNscore 0.22716549
REMARK CNNaffinity 6.2652564
REMARK  15 active torsions:
REMARK  status: ('A' for Active; 'I' for Inactive)
REMARK    1  A    between atoms: C19_20  and  O2_21 
REMARK    2  A    between atoms: C19_20  and  C20_22 
REMARK    3  A    between atoms: C20_22  and  C21_24 
REMARK    4  A    between atoms: C21_24  and  O4_25 
REMARK    5  A    between atoms: O4_25  and  C22_26 
REMARK    6  A    between atoms: C22_26  and  C23_28 
REMARK    7  A    between atoms: C23_28  and  C24_29 
REMARK    8  A    between atoms: C24_29  and  C25_30 
REMARK       I    between atoms: C25_30  and  N1_32 
REMARK    9  A    between atoms: N1_32  and  C26_33 
REMARK   10  A    between atoms: C26_33  and  C27_34 
REMARK       I    between atoms: C27_34  and  N2_36 
REMARK   11  A    between atoms: N2_36  and  C28_37 
REMARK   12  A    between atoms: C28_37  and  C29_38 
REMARK   13  A    between atoms: C28_37  and  C38_48 
REMARK   14  A    between atoms: C29_38  and  C30_39 
REMARK   15  A    between atoms: C38_48  and  O9_50 
ROOT
HETATM    1  C22 UNL     1       5.881   6.143  11.047  1.00  0.00     0.259 C 
HETATM    2  O5  UNL     1       6.212   5.249  10.276  1.00  0.00    -0.265 OA
ENDROOT
BRANCH   1   3
HETATM    3  O4  UNL     1       6.411   6.356  12.283  1.00  0.00    -0.314 OA
BRANCH   3   4
HETATM    4  C21 UNL     1       6.295   7.686  12.800  1.00  0.00     0.260 C 
BRANCH   4   5
HETATM    5  C20 UNL     1       7.534   8.040  13.626  1.00  0.00     0.185 C 
HETATM    6  O3  UNL     1       8.672   7.741  13.250  1.00  0.00    -0.292 OA
BRANCH   5   7
HETATM    7  C19 UNL     1       7.288   8.820  14.947  1.00  0.00     0.128 C 
HETATM    8  C14 UNL     1       7.741  10.327  14.907  1.00  0.00    -0.002 C 
HETATM    9  C13 UNL     1       6.767  11.283  15.657  1.00  0.00     0.013 C 
HETATM   10  C15 UNL     1       7.844  10.891  13.469  1.00  0.00     0.019 C 
HETATM   11  C16 UNL     1       9.172  10.346  15.548  1.00  0.00     0.002 C 
HETATM   12  C12 UNL     1       6.823  11.230  17.183  1.00  0.00     0.007 C 
HETATM   13  C11 UNL     1       8.252  11.233  17.768  1.00  0.00     0.002 C 
HETATM   14  C2  UNL     1       8.484  12.221  18.965  1.00  0.00    -0.016 C 
HETATM   15  C10 UNL     1       9.309  11.425  16.651  1.00  0.00    -0.004 C 
HETATM   16  C1  UNL     1       8.429  13.695  18.493  1.00  0.00     0.020 C 
HETATM   17  C3  UNL     1       7.427  11.992  20.080  1.00  0.00     0.022 C 
HETATM   18  C7  UNL     1       9.867  11.932  19.562  1.00  0.00    -0.068 C 
HETATM   19  C4  UNL     1       7.706  12.793  21.351  1.00  0.00     0.084 C 
HETATM   20  C5  UNL     1       9.135  12.651  21.813  1.00  0.00     0.149 C 
HETATM   21  O1  UNL     1       9.478  12.940  22.956  1.00  0.00    -0.293 OA
HETATM   22  C6  UNL     1      10.153  12.152  20.858  1.00  0.00     0.053 C 
HETATM   23  C8  UNL     1      10.901  11.271  18.680  1.00  0.00     0.035 C 
HETATM   24  C9  UNL     1      10.746  11.575  17.193  1.00  0.00     0.010 C 
HETATM   25  C17 UNL     1       9.456   8.913  16.026  1.00  0.00     0.009 C 
HETATM   26  C18 UNL     1       8.110   8.212  16.089  1.00  0.00     0.047 C 
BRANCH   7  27
HETATM   27  O2  UNL     1       5.905   8.693  15.277  1.00  0.00    -0.381 OA
HETATM   28  H27 UNL     1       5.762   7.821  15.694  1.00  0.00     0.211 HD
ENDBRANCH   7  27
ENDBRANCH   5   7
ENDBRANCH   4   5
ENDBRANCH   3   4
ENDBRANCH   1   3
BRANCH   1  29
HETATM   29  C23 UNL     1       4.803   7.160  10.782  1.00  0.00     0.120 C 
BRANCH  29  30
HETATM   30  C24 UNL     1       3.716   6.581   9.885  1.00  0.00     0.112 C 
BRANCH  30  31
HETATM   31  C25 UNL     1       2.713   5.777  10.681  1.00  0.00     0.218 C 
HETATM   32  O6  UNL     1       2.426   4.611  10.444  1.00  0.00    -0.274 OA
HETATM   33  N1  UNL     1       2.112   6.498  11.683  1.00  0.00    -0.352 N 
HETATM   34  H34 UNL     1       2.251   7.503  11.735  1.00  0.00     0.162 HD
BRANCH  33  35
HETATM   35  C26 UNL     1       1.134   5.905  12.583  1.00  0.00     0.225 C 
BRANCH  35  36
HETATM   36  C27 UNL     1      -0.009   5.188  11.855  1.00  0.00     0.236 C 
HETATM   37  O7  UNL     1      -0.668   5.749  10.981  1.00  0.00    -0.272 OA
HETATM   38  N2  UNL     1      -0.306   3.930  12.322  1.00  0.00    -0.345 N 
HETATM   39  H37 UNL     1       0.039   3.690  13.253  1.00  0.00     0.163 HD
BRANCH  38  40
HETATM   40  C28 UNL     1      -1.495   3.189  11.867  1.00  0.00     0.186 C 
BRANCH  40  41
HETATM   41  C29 UNL     1      -2.524   4.129  11.218  1.00  0.00     0.077 C 
BRANCH  41  42
HETATM   42  C30 UNL     1      -3.750   4.339  12.053  1.00  0.00    -0.028 A 
HETATM   43  C31 UNL     1      -3.987   5.391  12.915  1.00  0.00     0.096 A 
HETATM   44  N3  UNL     1      -5.229   5.229  13.467  1.00  0.00    -0.365 N 
HETATM   45  C32 UNL     1      -5.811   4.078  12.994  1.00  0.00     0.042 A 
HETATM   46  H42 UNL     1      -5.664   5.868  14.118  1.00  0.00     0.165 HD
HETATM   47  C33 UNL     1      -7.068   3.523  13.269  1.00  0.00     0.030 A 
HETATM   48  C37 UNL     1      -4.902   3.490  12.112  1.00  0.00    -0.002 A 
HETATM   49  C34 UNL     1      -7.399   2.325  12.632  1.00  0.00     0.002 A 
HETATM   50  C35 UNL     1      -6.511   1.708  11.754  1.00  0.00     0.001 A 
HETATM   51  C36 UNL     1      -5.263   2.280  11.484  1.00  0.00     0.014 A 
ENDBRANCH  41  42
ENDBRANCH  40  41
BRANCH  40  52
HETATM   52  C38 UNL     1      -1.066   2.101  10.870  1.00  0.00     0.163 C 
HETATM   53  O8  UNL     1      -0.171   1.283  10.995  1.00  0.00    -0.648 OA
BRANCH  52  54
HETATM   54  O9  UNL     1      -1.785   2.120   9.722  1.00  0.00    -0.775 OA
HETATM   55  H47 UNL     1      -1.357   1.435   9.161  1.00  0.00     0.167 HD
ENDBRANCH  52  54
ENDBRANCH  40  52
ENDBRANCH  38  40
ENDBRANCH  35  36
ENDBRANCH  33  35
ENDBRANCH  30  31
ENDBRANCH  29  30
ENDBRANCH   1  29
TORSDOF 15
ENDMDL
