MODEL 1
REMARK minimizedAffinity -7.47200298
REMARK CNNscore 0.561752558
REMARK CNNaffinity 6.61061049
REMARK  16 active torsions:
REMARK  status: ('A' for Active; 'I' for Inactive)
REMARK    1  A    between atoms: C2_2  and  C4_4 
REMARK    2  A    between atoms: C4_4  and  C6_6 
REMARK    3  A    between atoms: C7_7  and  C8_8 
REMARK    4  A    between atoms: C8_8  and  C10_10 
REMARK    5  A    between atoms: C15_15  and  O1_16 
REMARK    6  A    between atoms: C19_21  and  O3_22 
REMARK    7  A    between atoms: O3_22  and  C20_23 
REMARK    8  A    between atoms: C20_23  and  C21_24 
REMARK    9  A    between atoms: C21_24  and  N1_25 
REMARK   10  A    between atoms: C21_24  and  C22_26 
REMARK   11  A    between atoms: C22_26  and  O4_27 
REMARK   12  A    between atoms: C22_26  and  C23_32 
REMARK   13  A    between atoms: O4_27  and  S1_28 
REMARK   14  A    between atoms: S1_28  and  O7_31 
REMARK   15  A    between atoms: C33_42  and  C34_43 
REMARK   16  A    between atoms: C34_43  and  O9_45 
ROOT
HETATM    1  C10 UNL     1      -5.808  46.140 -30.548  1.00  0.00     0.016 C 
HETATM    2  C11 UNL     1      -5.232  47.303 -29.718  1.00  0.00     0.011 C 
HETATM    3  C12 UNL     1      -6.312  47.609 -28.691  1.00  0.00     0.036 C 
HETATM    4  C13 UNL     1      -7.597  47.189 -29.351  1.00  0.00    -0.055 C 
HETATM    5  C14 UNL     1      -8.834  47.297 -28.819  1.00  0.00    -0.040 C 
HETATM    6  C15 UNL     1      -9.073  47.850 -27.436  1.00  0.00     0.179 C 
HETATM    7  C16 UNL     1     -10.148  47.172 -26.649  1.00  0.00     0.191 A 
HETATM    8  O2  UNL     1     -10.290  45.755 -26.867  1.00  0.00    -0.365 OA
HETATM    9  C17 UNL     1     -11.347  46.598 -27.353  1.00  0.00     0.100 A 
HETATM   10  C18 UNL     1     -12.626  46.449 -26.576  1.00  0.00     0.073 C 
HETATM   11  C19 UNL     1     -13.503  45.330 -27.145  1.00  0.00     0.124 C 
HETATM   12  C26 UNL     1     -13.730  45.542 -28.647  1.00  0.00     0.033 C 
HETATM   13  C27 UNL     1     -12.397  45.618 -29.396  1.00  0.00     0.015 C 
HETATM   14  C28 UNL     1     -11.439  46.734 -28.874  1.00  0.00    -0.002 C 
HETATM   15  C29 UNL     1     -12.076  48.113 -29.213  1.00  0.00     0.019 C 
HETATM   16  C30 UNL     1     -10.013  46.690 -29.591  1.00  0.00     0.029 C 
HETATM   17  C31 UNL     1      -9.580  45.285 -30.079  1.00  0.00     0.011 C 
HETATM   18  C32 UNL     1      -8.201  45.210 -30.774  1.00  0.00     0.026 C 
HETATM   19  C33 UNL     1      -7.324  46.485 -30.675  1.00  0.00     0.073 C 
ENDROOT
BRANCH  11  20
HETATM   20  O3  UNL     1     -14.785  45.353 -26.503  1.00  0.00    -0.384 OA
BRANCH  20  21
HETATM   21  C20 UNL     1     -15.328  44.033 -26.294  1.00  0.00     0.206 C 
BRANCH  21  22
HETATM   22  C21 UNL     1     -16.038  44.016 -24.920  1.00  0.00     0.272 C 
BRANCH  22  23
HETATM   23  N1  UNL     1     -15.071  43.558 -23.889  1.00  0.00     0.087 N 
HETATM   24  H32 UNL     1     -14.676  42.681 -24.240  1.00  0.00     0.313 HD
HETATM   25  H33 UNL     1     -14.263  44.193 -23.882  1.00  0.00     0.313 HD
ENDBRANCH  22  23
BRANCH  22  26
HETATM   26  C22 UNL     1     -16.668  45.372 -24.486  1.00  0.00     0.182 C 
BRANCH  26  27
HETATM   27  O4  UNL     1     -18.052  45.229 -24.148  1.00  0.00    -0.256 OA
BRANCH  27  28
HETATM   28  S1  UNL     1     -19.142  46.042 -25.039  1.00  0.00     0.240 S 
HETATM   29  O5  UNL     1     -19.030  47.451 -24.727  1.00  0.00    -0.579 OA
HETATM   30  O6  UNL     1     -19.094  45.539 -26.394  1.00  0.00    -0.579 OA
BRANCH  28  31
HETATM   31  O7  UNL     1     -20.535  45.573 -24.383  1.00  0.00    -0.274 OA
HETATM   32  H35 UNL     1     -20.748  46.200 -23.665  1.00  0.00     0.234 HD
ENDBRANCH  28  31
ENDBRANCH  27  28
ENDBRANCH  26  27
BRANCH  26  33
HETATM   33  C23 UNL     1     -15.929  46.063 -23.305  1.00  0.00     0.010 C 
HETATM   34  C24 UNL     1     -15.358  47.415 -23.756  1.00  0.00     0.012 C 
HETATM   35  C25 UNL     1     -16.782  46.283 -22.055  1.00  0.00     0.012 C 
ENDBRANCH  26  33
ENDBRANCH  22  26
ENDBRANCH  21  22
ENDBRANCH  20  21
ENDBRANCH  11  20
BRANCH   6  36
HETATM   36  O1  UNL     1      -9.405  49.229 -27.581  1.00  0.00    -0.388 OA
HETATM   37  H24 UNL     1      -9.256  49.643 -26.716  1.00  0.00     0.210 HD
ENDBRANCH   6  36
BRANCH  19  38
HETATM   38  C34 UNL     1      -7.650  47.438 -31.843  1.00  0.00     0.153 C 
HETATM   39  O8  UNL     1      -7.460  48.644 -31.870  1.00  0.00    -0.649 OA
BRANCH  38  40
HETATM   40  O9  UNL     1      -8.154  46.838 -32.944  1.00  0.00    -0.776 OA
HETATM   41  H55 UNL     1      -8.220  47.575 -33.586  1.00  0.00     0.167 HD
ENDBRANCH  38  40
ENDBRANCH  19  38
BRANCH   1  42
HETATM   42  C8  UNL     1      -4.983  45.887 -31.842  1.00  0.00     0.009 C 
HETATM   43  C9  UNL     1      -5.097  47.014 -32.873  1.00  0.00     0.014 C 
BRANCH  42  44
HETATM   44  C7  UNL     1      -5.330  44.567 -32.520  1.00  0.00    -0.026 C 
HETATM   45  C6  UNL     1      -4.517  43.500 -32.608  1.00  0.00    -0.026 C 
BRANCH  45  46
HETATM   46  C4  UNL     1      -4.864  42.209 -33.320  1.00  0.00     0.007 C 
HETATM   47  C5  UNL     1      -3.988  42.078 -34.573  1.00  0.00     0.014 C 
BRANCH  46  48
HETATM   48  C2  UNL     1      -6.391  42.120 -33.600  1.00  0.00    -0.015 C 
HETATM   49  C1  UNL     1      -7.164  43.414 -33.318  1.00  0.00     0.010 C 
HETATM   50  C3  UNL     1      -6.682  41.658 -35.032  1.00  0.00     0.010 C 
ENDBRANCH  46  48
ENDBRANCH  45  46
ENDBRANCH  42  44
ENDBRANCH   1  42
TORSDOF 16
ENDMDL
MODEL 2
REMARK minimizedAffinity -7.38158131
REMARK CNNscore 0.425346106
REMARK CNNaffinity 6.35547113
REMARK  16 active torsions:
REMARK  status: ('A' for Active; 'I' for Inactive)
REMARK    1  A    between atoms: C2_2  and  C4_4 
REMARK    2  A    between atoms: C4_4  and  C6_6 
REMARK    3  A    between atoms: C7_7  and  C8_8 
REMARK    4  A    between atoms: C8_8  and  C10_10 
REMARK    5  A    between atoms: C15_15  and  O1_16 
REMARK    6  A    between atoms: C19_21  and  O3_22 
REMARK    7  A    between atoms: O3_22  and  C20_23 
REMARK    8  A    between atoms: C20_23  and  C21_24 
REMARK    9  A    between atoms: C21_24  and  N1_25 
REMARK   10  A    between atoms: C21_24  and  C22_26 
REMARK   11  A    between atoms: C22_26  and  O4_27 
REMARK   12  A    between atoms: C22_26  and  C23_32 
REMARK   13  A    between atoms: O4_27  and  S1_28 
REMARK   14  A    between atoms: S1_28  and  O7_31 
REMARK   15  A    between atoms: C33_42  and  C34_43 
REMARK   16  A    between atoms: C34_43  and  O9_45 
ROOT
HETATM    1  C10 UNL     1     -18.011  43.972 -23.590  1.00  0.00     0.016 C 
HETATM    2  C11 UNL     1     -18.451  42.818 -24.511  1.00  0.00     0.011 C 
HETATM    3  C12 UNL     1     -17.283  42.629 -25.468  1.00  0.00     0.036 C 
HETATM    4  C13 UNL     1     -16.631  43.983 -25.546  1.00  0.00    -0.055 C 
HETATM    5  C14 UNL     1     -15.557  44.303 -26.301  1.00  0.00    -0.040 C 
HETATM    6  C15 UNL     1     -14.848  43.292 -27.167  1.00  0.00     0.179 C 
HETATM    7  C16 UNL     1     -13.360  43.418 -27.217  1.00  0.00     0.191 A 
HETATM    8  O2  UNL     1     -12.724  43.863 -26.003  1.00  0.00    -0.365 OA
HETATM    9  C17 UNL     1     -12.716  44.774 -27.113  1.00  0.00     0.100 A 
HETATM   10  C18 UNL     1     -11.350  44.963 -27.713  1.00  0.00     0.073 C 
HETATM   11  C19 UNL     1     -10.581  46.090 -27.018  1.00  0.00     0.124 C 
HETATM   12  C26 UNL     1     -11.417  47.375 -27.003  1.00  0.00     0.033 C 
HETATM   13  C27 UNL     1     -12.768  47.142 -26.321  1.00  0.00     0.015 C 
HETATM   14  C28 UNL     1     -13.616  46.003 -26.968  1.00  0.00    -0.002 C 
HETATM   15  C29 UNL     1     -14.050  46.473 -28.387  1.00  0.00     0.019 C 
HETATM   16  C30 UNL     1     -14.952  45.704 -26.147  1.00  0.00     0.029 C 
HETATM   17  C31 UNL     1     -14.859  46.010 -24.631  1.00  0.00     0.011 C 
HETATM   18  C32 UNL     1     -16.137  45.726 -23.807  1.00  0.00     0.026 C 
HETATM   19  C33 UNL     1     -17.256  44.946 -24.545  1.00  0.00     0.073 C 
ENDROOT
BRANCH  11  20
HETATM   20  O3  UNL     1      -9.374  46.363 -27.741  1.00  0.00    -0.384 OA
BRANCH  20  21
HETATM   21  C20 UNL     1      -9.152  47.774 -27.944  1.00  0.00     0.206 C 
BRANCH  21  22
HETATM   22  C21 UNL     1      -8.824  48.001 -29.437  1.00  0.00     0.272 C 
BRANCH  22  23
HETATM   23  N1  UNL     1      -8.795  49.462 -29.703  1.00  0.00     0.087 N 
HETATM   24  H32 UNL     1      -9.677  49.834 -29.340  1.00  0.00     0.313 HD
HETATM   25  H33 UNL     1      -8.089  49.899 -29.097  1.00  0.00     0.313 HD
ENDBRANCH  22  23
BRANCH  22  26
HETATM   26  C22 UNL     1      -7.497  47.350 -29.929  1.00  0.00     0.182 C 
BRANCH  26  27
HETATM   27  O4  UNL     1      -7.588  46.929 -31.293  1.00  0.00    -0.256 OA
BRANCH  27  28
HETATM   28  S1  UNL     1      -7.481  45.337 -31.608  1.00  0.00     0.240 S 
HETATM   29  O5  UNL     1      -6.254  44.836 -31.025  1.00  0.00    -0.579 OA
HETATM   30  O6  UNL     1      -8.768  44.731 -31.354  1.00  0.00    -0.579 OA
BRANCH  28  31
HETATM   31  O7  UNL     1      -7.229  45.322 -33.198  1.00  0.00    -0.274 OA
HETATM   32  H35 UNL     1      -6.264  45.352 -33.344  1.00  0.00     0.234 HD
ENDBRANCH  28  31
ENDBRANCH  27  28
ENDBRANCH  26  27
BRANCH  26  33
HETATM   33  C23 UNL     1      -6.247  48.260 -29.763  1.00  0.00     0.010 C 
HETATM   34  C24 UNL     1      -5.348  47.726 -28.639  1.00  0.00     0.012 C 
HETATM   35  C25 UNL     1      -5.404  48.429 -31.027  1.00  0.00     0.012 C 
ENDBRANCH  26  33
ENDBRANCH  22  26
ENDBRANCH  21  22
ENDBRANCH  20  21
ENDBRANCH  11  20
BRANCH   6  36
HETATM   36  O1  UNL     1     -15.368  43.424 -28.488  1.00  0.00    -0.388 OA
HETATM   37  H24 UNL     1     -15.152  42.601 -28.956  1.00  0.00     0.210 HD
ENDBRANCH   6  36
BRANCH  19  38
HETATM   38  C34 UNL     1     -18.181  45.933 -25.288  1.00  0.00     0.153 C 
HETATM   39  O8  UNL     1     -18.438  47.079 -24.952  1.00  0.00    -0.649 OA
BRANCH  38  40
HETATM   40  O9  UNL     1     -18.704  45.464 -26.442  1.00  0.00    -0.776 OA
HETATM   41  H55 UNL     1     -19.185  46.240 -26.797  1.00  0.00     0.167 HD
ENDBRANCH  38  40
ENDBRANCH  19  38
BRANCH   1  42
HETATM   42  C8  UNL     1     -19.195  44.517 -22.740  1.00  0.00     0.009 C 
HETATM   43  C9  UNL     1     -20.358  45.053 -23.580  1.00  0.00     0.014 C 
BRANCH  42  44
HETATM   44  C7  UNL     1     -18.769  45.595 -21.750  1.00  0.00    -0.026 C 
HETATM   45  C6  UNL     1     -18.575  45.409 -20.433  1.00  0.00    -0.026 C 
BRANCH  45  46
HETATM   46  C4  UNL     1     -18.189  46.501 -19.457  1.00  0.00     0.007 C 
HETATM   47  C5  UNL     1     -19.115  47.706 -19.663  1.00  0.00     0.014 C 
BRANCH  46  48
HETATM   48  C2  UNL     1     -16.675  46.837 -19.566  1.00  0.00    -0.015 C 
HETATM   49  C1  UNL     1     -16.228  48.036 -18.721  1.00  0.00     0.010 C 
HETATM   50  C3  UNL     1     -15.797  45.626 -19.232  1.00  0.00     0.010 C 
ENDBRANCH  46  48
ENDBRANCH  45  46
ENDBRANCH  42  44
ENDBRANCH   1  42
TORSDOF 16
ENDMDL
MODEL 3
REMARK minimizedAffinity -7.95837021
REMARK CNNscore 0.401189923
REMARK CNNaffinity 6.50839472
REMARK  16 active torsions:
REMARK  status: ('A' for Active; 'I' for Inactive)
REMARK    1  A    between atoms: C2_2  and  C4_4 
REMARK    2  A    between atoms: C4_4  and  C6_6 
REMARK    3  A    between atoms: C7_7  and  C8_8 
REMARK    4  A    between atoms: C8_8  and  C10_10 
REMARK    5  A    between atoms: C15_15  and  O1_16 
REMARK    6  A    between atoms: C19_21  and  O3_22 
REMARK    7  A    between atoms: O3_22  and  C20_23 
REMARK    8  A    between atoms: C20_23  and  C21_24 
REMARK    9  A    between atoms: C21_24  and  N1_25 
REMARK   10  A    between atoms: C21_24  and  C22_26 
REMARK   11  A    between atoms: C22_26  and  O4_27 
REMARK   12  A    between atoms: C22_26  and  C23_32 
REMARK   13  A    between atoms: O4_27  and  S1_28 
REMARK   14  A    between atoms: S1_28  and  O7_31 
REMARK   15  A    between atoms: C33_42  and  C34_43 
REMARK   16  A    between atoms: C34_43  and  O9_45 
ROOT
HETATM    1  C10 UNL     1      -7.636  47.318 -27.591  1.00  0.00     0.016 C 
HETATM    2  C11 UNL     1      -6.142  47.332 -27.967  1.00  0.00     0.011 C 
HETATM    3  C12 UNL     1      -6.125  47.116 -29.473  1.00  0.00     0.036 C 
HETATM    4  C13 UNL     1      -7.379  46.335 -29.760  1.00  0.00    -0.055 C 
HETATM    5  C14 UNL     1      -7.777  45.892 -30.973  1.00  0.00    -0.040 C 
HETATM    6  C15 UNL     1      -6.989  46.163 -32.229  1.00  0.00     0.179 C 
HETATM    7  C16 UNL     1      -7.803  46.451 -33.450  1.00  0.00     0.191 A 
HETATM    8  O2  UNL     1      -9.034  47.167 -33.231  1.00  0.00    -0.365 OA
HETATM    9  C17 UNL     1      -9.143  45.792 -33.633  1.00  0.00     0.100 A 
HETATM   10  C18 UNL     1      -9.670  45.625 -35.031  1.00  0.00     0.073 C 
HETATM   11  C19 UNL     1     -11.201  45.563 -35.052  1.00  0.00     0.124 C 
HETATM   12  C26 UNL     1     -11.703  44.485 -34.084  1.00  0.00     0.033 C 
HETATM   13  C27 UNL     1     -11.192  44.743 -32.663  1.00  0.00     0.015 C 
HETATM   14  C28 UNL     1      -9.638  44.825 -32.555  1.00  0.00    -0.002 C 
HETATM   15  C29 UNL     1      -9.059  43.411 -32.851  1.00  0.00     0.019 C 
HETATM   16  C30 UNL     1      -9.156  45.228 -31.088  1.00  0.00     0.029 C 
HETATM   17  C31 UNL     1     -10.162  46.098 -30.294  1.00  0.00     0.011 C 
HETATM   18  C32 UNL     1      -9.721  46.508 -28.869  1.00  0.00     0.026 C 
HETATM   19  C33 UNL     1      -8.242  46.213 -28.509  1.00  0.00     0.073 C 
ENDROOT
BRANCH  11  20
HETATM   20  O3  UNL     1     -11.648  45.210 -36.368  1.00  0.00    -0.384 OA
BRANCH  20  21
HETATM   21  C20 UNL     1     -12.199  46.331 -37.089  1.00  0.00     0.206 C 
BRANCH  21  22
HETATM   22  C21 UNL     1     -11.740  46.228 -38.562  1.00  0.00     0.272 C 
BRANCH  22  23
HETATM   23  N1  UNL     1     -12.817  45.579 -39.353  1.00  0.00     0.087 N 
HETATM   24  H32 UNL     1     -13.051  44.713 -38.858  1.00  0.00     0.313 HD
HETATM   25  H33 UNL     1     -13.677  46.136 -39.269  1.00  0.00     0.313 HD
ENDBRANCH  22  23
BRANCH  22  26
HETATM   26  C22 UNL     1     -11.342  47.579 -39.226  1.00  0.00     0.182 C 
BRANCH  26  27
HETATM   27  O4  UNL     1     -12.086  48.675 -38.685  1.00  0.00    -0.256 OA
BRANCH  27  28
HETATM   28  S1  UNL     1     -13.308  49.279 -39.572  1.00  0.00     0.240 S 
HETATM   29  O5  UNL     1     -14.306  48.244 -39.742  1.00  0.00    -0.579 OA
HETATM   30  O6  UNL     1     -13.631  50.596 -39.073  1.00  0.00    -0.579 OA
BRANCH  28  31
HETATM   31  O7  UNL     1     -12.625  49.448 -41.020  1.00  0.00    -0.274 OA
HETATM   32  H35 UNL     1     -12.764  48.615 -41.510  1.00  0.00     0.234 HD
ENDBRANCH  28  31
ENDBRANCH  27  28
ENDBRANCH  26  27
BRANCH  26  33
HETATM   33  C23 UNL     1      -9.824  47.905 -39.135  1.00  0.00     0.010 C 
HETATM   34  C24 UNL     1      -9.562  48.896 -37.992  1.00  0.00     0.012 C 
HETATM   35  C25 UNL     1      -8.917  46.689 -38.947  1.00  0.00     0.012 C 
ENDBRANCH  26  33
ENDBRANCH  22  26
ENDBRANCH  21  22
ENDBRANCH  20  21
ENDBRANCH  11  20
BRANCH   6  36
HETATM   36  O1  UNL     1      -6.175  45.018 -32.476  1.00  0.00    -0.388 OA
HETATM   37  H24 UNL     1      -5.468  45.304 -33.077  1.00  0.00     0.210 HD
ENDBRANCH   6  36
BRANCH  19  38
HETATM   38  C34 UNL     1      -8.117  44.786 -27.934  1.00  0.00     0.153 C 
HETATM   39  O8  UNL     1      -7.154  44.044 -28.042  1.00  0.00    -0.649 OA
BRANCH  38  40
HETATM   40  O9  UNL     1      -9.178  44.369 -27.209  1.00  0.00    -0.776 OA
HETATM   41  H55 UNL     1      -8.886  43.497 -26.872  1.00  0.00     0.167 HD
ENDBRANCH  38  40
ENDBRANCH  19  38
BRANCH   1  42
HETATM   42  C8  UNL     1      -7.846  47.218 -26.053  1.00  0.00     0.009 C 
HETATM   43  C9  UNL     1      -9.100  47.943 -25.556  1.00  0.00     0.014 C 
BRANCH  42  44
HETATM   44  C7  UNL     1      -6.646  47.714 -25.256  1.00  0.00    -0.026 C 
HETATM   45  C6  UNL     1      -5.511  48.205 -25.782  1.00  0.00    -0.026 C 
BRANCH  45  46
HETATM   46  C4  UNL     1      -4.312  48.658 -24.975  1.00  0.00     0.007 C 
HETATM   47  C5  UNL     1      -4.674  49.946 -24.223  1.00  0.00     0.014 C 
BRANCH  46  48
HETATM   48  C2  UNL     1      -3.049  48.781 -25.873  1.00  0.00    -0.015 C 
HETATM   49  C1  UNL     1      -3.347  48.969 -27.366  1.00  0.00     0.010 C 
HETATM   50  C3  UNL     1      -2.118  49.901 -25.397  1.00  0.00     0.010 C 
ENDBRANCH  46  48
ENDBRANCH  45  46
ENDBRANCH  42  44
ENDBRANCH   1  42
TORSDOF 16
ENDMDL
MODEL 4
REMARK minimizedAffinity -8.19754601
REMARK CNNscore 0.376857877
REMARK CNNaffinity 6.13185549
REMARK  16 active torsions:
REMARK  status: ('A' for Active; 'I' for Inactive)
REMARK    1  A    between atoms: C2_2  and  C4_4 
REMARK    2  A    between atoms: C4_4  and  C6_6 
REMARK    3  A    between atoms: C7_7  and  C8_8 
REMARK    4  A    between atoms: C8_8  and  C10_10 
REMARK    5  A    between atoms: C15_15  and  O1_16 
REMARK    6  A    between atoms: C19_21  and  O3_22 
REMARK    7  A    between atoms: O3_22  and  C20_23 
REMARK    8  A    between atoms: C20_23  and  C21_24 
REMARK    9  A    between atoms: C21_24  and  N1_25 
REMARK   10  A    between atoms: C21_24  and  C22_26 
REMARK   11  A    between atoms: C22_26  and  O4_27 
REMARK   12  A    between atoms: C22_26  and  C23_32 
REMARK   13  A    between atoms: O4_27  and  S1_28 
REMARK   14  A    between atoms: S1_28  and  O7_31 
REMARK   15  A    between atoms: C33_42  and  C34_43 
REMARK   16  A    between atoms: C34_43  and  O9_45 
ROOT
HETATM    1  C10 UNL     1      -7.164  48.420 -29.701  1.00  0.00     0.016 C 
HETATM    2  C11 UNL     1      -7.912  48.692 -31.021  1.00  0.00     0.011 C 
HETATM    3  C12 UNL     1      -9.384  48.566 -30.658  1.00  0.00     0.036 C 
HETATM    4  C13 UNL     1      -9.409  47.613 -29.493  1.00  0.00    -0.055 C 
HETATM    5  C14 UNL     1     -10.514  47.181 -28.846  1.00  0.00    -0.040 C 
HETATM    6  C15 UNL     1     -11.900  47.643 -29.218  1.00  0.00     0.179 C 
HETATM    7  C16 UNL     1     -12.833  47.866 -28.072  1.00  0.00     0.191 A 
HETATM    8  O2  UNL     1     -12.235  48.364 -26.860  1.00  0.00    -0.365 OA
HETATM    9  C17 UNL     1     -12.725  47.013 -26.837  1.00  0.00     0.100 A 
HETATM   10  C18 UNL     1     -13.947  46.843 -25.979  1.00  0.00     0.073 C 
HETATM   11  C19 UNL     1     -13.576  46.539 -24.524  1.00  0.00     0.124 C 
HETATM   12  C26 UNL     1     -12.619  45.343 -24.457  1.00  0.00     0.033 C 
HETATM   13  C27 UNL     1     -11.362  45.599 -25.294  1.00  0.00     0.015 C 
HETATM   14  C28 UNL     1     -11.654  45.921 -26.793  1.00  0.00    -0.002 C 
HETATM   15  C29 UNL     1     -12.225  44.636 -27.459  1.00  0.00     0.019 C 
HETATM   16  C30 UNL     1     -10.330  46.313 -27.594  1.00  0.00     0.029 C 
HETATM   17  C31 UNL     1      -9.222  46.966 -26.730  1.00  0.00     0.011 C 
HETATM   18  C32 UNL     1      -7.929  47.361 -27.480  1.00  0.00     0.026 C 
HETATM   19  C33 UNL     1      -7.996  47.285 -29.027  1.00  0.00     0.073 C 
ENDROOT
BRANCH  11  20
HETATM   20  O3  UNL     1     -14.758  46.194 -23.790  1.00  0.00    -0.384 OA
BRANCH  20  21
HETATM   21  C20 UNL     1     -14.624  46.429 -22.373  1.00  0.00     0.206 C 
BRANCH  21  22
HETATM   22  C21 UNL     1     -15.993  46.899 -21.831  1.00  0.00     0.272 C 
BRANCH  22  23
HETATM   23  N1  UNL     1     -17.067  46.318 -22.677  1.00  0.00     0.087 N 
HETATM   24  H32 UNL     1     -16.824  46.551 -23.644  1.00  0.00     0.313 HD
HETATM   25  H33 UNL     1     -16.991  45.293 -22.657  1.00  0.00     0.313 HD
ENDBRANCH  22  23
BRANCH  22  26
HETATM   26  C22 UNL     1     -16.262  46.562 -20.335  1.00  0.00     0.182 C 
BRANCH  26  27
HETATM   27  O4  UNL     1     -15.785  47.594 -19.465  1.00  0.00    -0.256 OA
BRANCH  27  28
HETATM   28  S1  UNL     1     -14.543  47.245 -18.476  1.00  0.00     0.240 S 
HETATM   29  O5  UNL     1     -14.732  47.959 -17.232  1.00  0.00    -0.579 OA
HETATM   30  O6  UNL     1     -14.302  45.821 -18.527  1.00  0.00    -0.579 OA
BRANCH  28  31
HETATM   31  O7  UNL     1     -13.312  47.984 -19.204  1.00  0.00    -0.274 OA
HETATM   32  H35 UNL     1     -13.260  48.891 -18.846  1.00  0.00     0.234 HD
ENDBRANCH  28  31
ENDBRANCH  27  28
ENDBRANCH  26  27
BRANCH  26  33
HETATM   33  C23 UNL     1     -17.755  46.276 -20.009  1.00  0.00     0.010 C 
HETATM   34  C24 UNL     1     -17.875  45.032 -19.118  1.00  0.00     0.012 C 
HETATM   35  C25 UNL     1     -18.499  47.433 -19.340  1.00  0.00     0.012 C 
ENDBRANCH  26  33
ENDBRANCH  22  26
ENDBRANCH  21  22
ENDBRANCH  20  21
ENDBRANCH  11  20
BRANCH   6  36
HETATM   36  O1  UNL     1     -12.459  46.659 -30.085  1.00  0.00    -0.388 OA
HETATM   37  H24 UNL     1     -13.193  47.086 -30.556  1.00  0.00     0.210 HD
ENDBRANCH   6  36
BRANCH  19  38
HETATM   38  C34 UNL     1      -7.613  45.867 -29.501  1.00  0.00     0.153 C 
HETATM   39  O8  UNL     1      -6.916  45.066 -28.898  1.00  0.00    -0.649 OA
BRANCH  38  40
HETATM   40  O9  UNL     1      -8.157  45.495 -30.680  1.00  0.00    -0.776 OA
HETATM   41  H55 UNL     1      -7.870  44.562 -30.771  1.00  0.00     0.167 HD
ENDBRANCH  38  40
ENDBRANCH  19  38
BRANCH   1  42
HETATM   42  C8  UNL     1      -5.641  48.202 -29.933  1.00  0.00     0.009 C 
HETATM   43  C9  UNL     1      -5.326  47.102 -30.950  1.00  0.00     0.014 C 
BRANCH  42  44
HETATM   44  C7  UNL     1      -4.880  47.909 -28.645  1.00  0.00    -0.026 C 
HETATM   45  C6  UNL     1      -4.195  48.813 -27.923  1.00  0.00    -0.026 C 
BRANCH  45  46
HETATM   46  C4  UNL     1      -3.412  48.497 -26.666  1.00  0.00     0.007 C 
HETATM   47  C5  UNL     1      -4.386  48.375 -25.488  1.00  0.00     0.014 C 
BRANCH  46  48
HETATM   48  C2  UNL     1      -2.273  49.531 -26.445  1.00  0.00    -0.015 C 
HETATM   49  C1  UNL     1      -2.306  50.728 -27.403  1.00  0.00     0.010 C 
HETATM   50  C3  UNL     1      -2.239  50.041 -25.000  1.00  0.00     0.010 C 
ENDBRANCH  46  48
ENDBRANCH  45  46
ENDBRANCH  42  44
ENDBRANCH   1  42
TORSDOF 16
ENDMDL
MODEL 5
REMARK minimizedAffinity -8.08070946
REMARK CNNscore 0.331481427
REMARK CNNaffinity 6.15016174
REMARK  16 active torsions:
REMARK  status: ('A' for Active; 'I' for Inactive)
REMARK    1  A    between atoms: C2_2  and  C4_4 
REMARK    2  A    between atoms: C4_4  and  C6_6 
REMARK    3  A    between atoms: C7_7  and  C8_8 
REMARK    4  A    between atoms: C8_8  and  C10_10 
REMARK    5  A    between atoms: C15_15  and  O1_16 
REMARK    6  A    between atoms: C19_21  and  O3_22 
REMARK    7  A    between atoms: O3_22  and  C20_23 
REMARK    8  A    between atoms: C20_23  and  C21_24 
REMARK    9  A    between atoms: C21_24  and  N1_25 
REMARK   10  A    between atoms: C21_24  and  C22_26 
REMARK   11  A    between atoms: C22_26  and  O4_27 
REMARK   12  A    between atoms: C22_26  and  C23_32 
REMARK   13  A    between atoms: O4_27  and  S1_28 
REMARK   14  A    between atoms: S1_28  and  O7_31 
REMARK   15  A    between atoms: C33_42  and  C34_43 
REMARK   16  A    between atoms: C34_43  and  O9_45 
ROOT
HETATM    1  C10 UNL     1      -7.372  48.338 -29.703  1.00  0.00     0.016 C 
HETATM    2  C11 UNL     1      -8.252  48.600 -30.940  1.00  0.00     0.011 C 
HETATM    3  C12 UNL     1      -9.679  48.464 -30.429  1.00  0.00     0.036 C 
HETATM    4  C13 UNL     1      -9.577  47.515 -29.265  1.00  0.00    -0.055 C 
HETATM    5  C14 UNL     1     -10.607  47.077 -28.507  1.00  0.00    -0.040 C 
HETATM    6  C15 UNL     1     -12.027  47.527 -28.737  1.00  0.00     0.179 C 
HETATM    7  C16 UNL     1     -12.840  47.747 -27.502  1.00  0.00     0.191 A 
HETATM    8  O2  UNL     1     -12.125  48.255 -26.359  1.00  0.00    -0.365 OA
HETATM    9  C17 UNL     1     -12.600  46.901 -26.282  1.00  0.00     0.100 A 
HETATM   10  C18 UNL     1     -13.727  46.725 -25.303  1.00  0.00     0.073 C 
HETATM   11  C19 UNL     1     -13.207  46.430 -23.893  1.00  0.00     0.124 C 
HETATM   12  C26 UNL     1     -12.238  45.242 -23.920  1.00  0.00     0.033 C 
HETATM   13  C27 UNL     1     -11.075  45.504 -24.881  1.00  0.00     0.015 C 
HETATM   14  C28 UNL     1     -11.521  45.818 -26.343  1.00  0.00    -0.002 C 
HETATM   15  C29 UNL     1     -12.147  44.525 -26.944  1.00  0.00     0.019 C 
HETATM   16  C30 UNL     1     -10.289  46.216 -27.277  1.00  0.00     0.029 C 
HETATM   17  C31 UNL     1      -9.104  46.881 -26.533  1.00  0.00     0.011 C 
HETATM   18  C32 UNL     1      -7.897  47.283 -27.412  1.00  0.00     0.026 C 
HETATM   19  C33 UNL     1      -8.121  47.200 -28.944  1.00  0.00     0.073 C 
ENDROOT
BRANCH  11  20
HETATM   20  O3  UNL     1     -14.305  46.079 -23.041  1.00  0.00    -0.384 OA
BRANCH  20  21
HETATM   21  C20 UNL     1     -15.317  47.105 -22.982  1.00  0.00     0.206 C 
BRANCH  21  22
HETATM   22  C21 UNL     1     -16.676  46.426 -22.699  1.00  0.00     0.272 C 
BRANCH  22  23
HETATM   23  N1  UNL     1     -16.649  45.051 -23.261  1.00  0.00     0.087 N 
HETATM   24  H32 UNL     1     -16.351  45.147 -24.236  1.00  0.00     0.313 HD
HETATM   25  H33 UNL     1     -15.876  44.528 -22.830  1.00  0.00     0.313 HD
ENDBRANCH  22  23
BRANCH  22  26
HETATM   26  C22 UNL     1     -17.089  46.373 -21.199  1.00  0.00     0.182 C 
BRANCH  26  27
HETATM   27  O4  UNL     1     -17.640  45.100 -20.845  1.00  0.00    -0.256 OA
BRANCH  27  28
HETATM   28  S1  UNL     1     -19.235  45.018 -20.541  1.00  0.00     0.240 S 
HETATM   29  O5  UNL     1     -19.598  46.132 -19.692  1.00  0.00    -0.579 OA
HETATM   30  O6  UNL     1     -19.923  44.725 -21.778  1.00  0.00    -0.579 OA
BRANCH  28  31
HETATM   31  O7  UNL     1     -19.333  43.717 -19.597  1.00  0.00    -0.274 OA
HETATM   32  H35 UNL     1     -19.237  44.017 -18.672  1.00  0.00     0.234 HD
ENDBRANCH  28  31
ENDBRANCH  27  28
ENDBRANCH  26  27
BRANCH  26  33
HETATM   33  C23 UNL     1     -15.937  46.717 -20.213  1.00  0.00     0.010 C 
HETATM   34  C24 UNL     1     -16.475  47.541 -19.035  1.00  0.00     0.012 C 
HETATM   35  C25 UNL     1     -15.182  45.507 -19.662  1.00  0.00     0.012 C 
ENDBRANCH  26  33
ENDBRANCH  22  26
ENDBRANCH  21  22
ENDBRANCH  20  21
ENDBRANCH  11  20
BRANCH   6  36
HETATM   36  O1  UNL     1     -12.663  46.535 -29.539  1.00  0.00    -0.388 OA
HETATM   37  H24 UNL     1     -13.445  46.955 -29.934  1.00  0.00     0.210 HD
ENDBRANCH   6  36
BRANCH  19  38
HETATM   38  C34 UNL     1      -7.777  45.783 -29.449  1.00  0.00     0.153 C 
HETATM   39  O8  UNL     1      -7.007  44.994 -28.925  1.00  0.00    -0.649 OA
BRANCH  38  40
HETATM   40  O9  UNL     1      -8.446  45.396 -30.557  1.00  0.00    -0.776 OA
HETATM   41  H55 UNL     1      -8.160  44.466 -30.674  1.00  0.00     0.167 HD
ENDBRANCH  38  40
ENDBRANCH  19  38
BRANCH   1  42
HETATM   42  C8  UNL     1      -5.879  48.131 -30.088  1.00  0.00     0.009 C 
HETATM   43  C9  UNL     1      -5.657  47.009 -31.106  1.00  0.00     0.014 C 
BRANCH  42  44
HETATM   44  C7  UNL     1      -4.983  47.880 -28.881  1.00  0.00    -0.026 C 
HETATM   45  C6  UNL     1      -4.462  48.831 -28.087  1.00  0.00    -0.026 C 
BRANCH  45  46
HETATM   46  C4  UNL     1      -3.542  48.565 -26.914  1.00  0.00     0.007 C 
HETATM   47  C5  UNL     1      -4.389  48.320 -25.659  1.00  0.00     0.014 C 
BRANCH  46  48
HETATM   48  C2  UNL     1      -2.492  49.702 -26.760  1.00  0.00    -0.015 C 
HETATM   49  C1  UNL     1      -2.865  51.011 -27.465  1.00  0.00     0.010 C 
HETATM   50  C3  UNL     1      -2.177  49.991 -25.288  1.00  0.00     0.010 C 
ENDBRANCH  46  48
ENDBRANCH  45  46
ENDBRANCH  42  44
ENDBRANCH   1  42
TORSDOF 16
ENDMDL
MODEL 6
REMARK minimizedAffinity -7.30598545
REMARK CNNscore 0.215870053
REMARK CNNaffinity 6.70071793
REMARK  16 active torsions:
REMARK  status: ('A' for Active; 'I' for Inactive)
REMARK    1  A    between atoms: C2_2  and  C4_4 
REMARK    2  A    between atoms: C4_4  and  C6_6 
REMARK    3  A    between atoms: C7_7  and  C8_8 
REMARK    4  A    between atoms: C8_8  and  C10_10 
REMARK    5  A    between atoms: C15_15  and  O1_16 
REMARK    6  A    between atoms: C19_21  and  O3_22 
REMARK    7  A    between atoms: O3_22  and  C20_23 
REMARK    8  A    between atoms: C20_23  and  C21_24 
REMARK    9  A    between atoms: C21_24  and  N1_25 
REMARK   10  A    between atoms: C21_24  and  C22_26 
REMARK   11  A    between atoms: C22_26  and  O4_27 
REMARK   12  A    between atoms: C22_26  and  C23_32 
REMARK   13  A    between atoms: O4_27  and  S1_28 
REMARK   14  A    between atoms: S1_28  and  O7_31 
REMARK   15  A    between atoms: C33_42  and  C34_43 
REMARK   16  A    between atoms: C34_43  and  O9_45 
ROOT
HETATM    1  C10 UNL     1      -2.284  52.427 -11.784  1.00  0.00     0.016 C 
HETATM    2  C11 UNL     1      -0.844  52.728 -11.323  1.00  0.00     0.011 C 
HETATM    3  C12 UNL     1      -0.015  52.662 -12.597  1.00  0.00     0.036 C 
HETATM    4  C13 UNL     1      -0.765  51.712 -13.492  1.00  0.00    -0.055 C 
HETATM    5  C14 UNL     1      -0.389  51.326 -14.731  1.00  0.00    -0.040 C 
HETATM    6  C15 UNL     1       0.863  51.844 -15.392  1.00  0.00     0.179 C 
HETATM    7  C16 UNL     1       0.754  52.106 -16.860  1.00  0.00     0.191 A 
HETATM    8  O2  UNL     1      -0.525  52.581 -17.322  1.00  0.00    -0.365 OA
HETATM    9  C17 UNL     1      -0.145  51.252 -17.712  1.00  0.00     0.100 A 
HETATM   10  C18 UNL     1       0.165  51.132 -19.178  1.00  0.00     0.073 C 
HETATM   11  C19 UNL     1      -1.091  50.816 -19.996  1.00  0.00     0.124 C 
HETATM   12  C26 UNL     1      -1.801  49.582 -19.426  1.00  0.00     0.033 C 
HETATM   13  C27 UNL     1      -2.153  49.786 -17.949  1.00  0.00     0.015 C 
HETATM   14  C28 UNL     1      -0.925  50.117 -17.045  1.00  0.00    -0.002 C 
HETATM   15  C29 UNL     1      -0.016  48.855 -16.986  1.00  0.00     0.019 C 
HETATM   16  C30 UNL     1      -1.354  50.454 -15.545  1.00  0.00     0.029 C 
HETATM   17  C31 UNL     1      -2.771  51.063 -15.400  1.00  0.00     0.011 C 
HETATM   18  C32 UNL     1      -3.214  51.404 -13.958  1.00  0.00     0.026 C 
HETATM   19  C33 UNL     1      -2.106  51.329 -12.876  1.00  0.00     0.073 C 
ENDROOT
BRANCH  11  20
HETATM   20  O3  UNL     1      -0.720  50.520 -21.348  1.00  0.00    -0.384 OA
BRANCH  20  21
HETATM   21  C20 UNL     1      -1.223  51.490 -22.290  1.00  0.00     0.206 C 
BRANCH  21  22
HETATM   22  C21 UNL     1      -2.589  50.989 -22.814  1.00  0.00     0.272 C 
BRANCH  22  23
HETATM   23  N1  UNL     1      -3.626  52.002 -22.486  1.00  0.00     0.087 N 
HETATM   24  H32 UNL     1      -3.532  52.190 -21.484  1.00  0.00     0.313 HD
HETATM   25  H33 UNL     1      -3.368  52.898 -22.918  1.00  0.00     0.313 HD
ENDBRANCH  22  23
BRANCH  22  26
HETATM   26  C22 UNL     1      -2.634  50.664 -24.336  1.00  0.00     0.182 C 
BRANCH  26  27
HETATM   27  O4  UNL     1      -1.521  51.233 -25.033  1.00  0.00    -0.256 OA
BRANCH  27  28
HETATM   28  S1  UNL     1      -1.828  52.158 -26.334  1.00  0.00     0.240 S 
HETATM   29  O5  UNL     1      -1.382  51.452 -27.516  1.00  0.00    -0.579 OA
HETATM   30  O6  UNL     1      -3.162  52.699 -26.208  1.00  0.00    -0.579 OA
BRANCH  28  31
HETATM   31  O7  UNL     1      -0.782  53.368 -26.145  1.00  0.00    -0.274 OA
HETATM   32  H35 UNL     1       0.046  53.115 -26.599  1.00  0.00     0.234 HD
ENDBRANCH  28  31
ENDBRANCH  27  28
ENDBRANCH  26  27
BRANCH  26  33
HETATM   33  C23 UNL     1      -2.707  49.145 -24.656  1.00  0.00     0.010 C 
HETATM   34  C24 UNL     1      -3.091  48.355 -23.397  1.00  0.00     0.012 C 
HETATM   35  C25 UNL     1      -3.672  48.772 -25.783  1.00  0.00     0.012 C 
ENDBRANCH  26  33
ENDBRANCH  22  26
ENDBRANCH  21  22
ENDBRANCH  20  21
ENDBRANCH  11  20
BRANCH   6  36
HETATM   36  O1  UNL     1       1.891  50.881 -15.169  1.00  0.00    -0.388 OA
HETATM   37  H24 UNL     1       2.736  51.337 -15.314  1.00  0.00     0.210 HD
ENDBRANCH   6  36
BRANCH  19  38
HETATM   38  C34 UNL     1      -2.021  49.895 -12.310  1.00  0.00     0.153 C 
HETATM   39  O8  UNL     1      -2.751  48.959 -12.596  1.00  0.00    -0.649 OA
BRANCH  38  40
HETATM   40  O9  UNL     1      -1.000  49.682 -11.451  1.00  0.00    -0.776 OA
HETATM   41  H55 UNL     1      -1.064  48.722 -11.267  1.00  0.00     0.167 HD
ENDBRANCH  38  40
ENDBRANCH  19  38
BRANCH   1  42
HETATM   42  C8  UNL     1      -3.231  52.148 -10.582  1.00  0.00     0.009 C 
HETATM   43  C9  UNL     1      -2.503  51.644  -9.332  1.00  0.00     0.014 C 
BRANCH  42  44
HETATM   44  C7  UNL     1      -4.351  51.172 -10.921  1.00  0.00    -0.026 C 
HETATM   45  C6  UNL     1      -4.877  50.267 -10.078  1.00  0.00    -0.026 C 
BRANCH  45  46
HETATM   46  C4  UNL     1      -5.964  49.279 -10.445  1.00  0.00     0.007 C 
HETATM   47  C5  UNL     1      -7.317  49.826  -9.973  1.00  0.00     0.014 C 
BRANCH  46  48
HETATM   48  C2  UNL     1      -5.631  47.858  -9.906  1.00  0.00    -0.015 C 
HETATM   49  C1  UNL     1      -4.366  47.233 -10.505  1.00  0.00     0.010 C 
HETATM   50  C3  UNL     1      -5.531  47.837  -8.377  1.00  0.00     0.010 C 
ENDBRANCH  46  48
ENDBRANCH  45  46
ENDBRANCH  42  44
ENDBRANCH   1  42
TORSDOF 16
ENDMDL
MODEL 7
REMARK minimizedAffinity -8.40845108
REMARK CNNscore 0.202011585
REMARK CNNaffinity 6.45879126
REMARK  16 active torsions:
REMARK  status: ('A' for Active; 'I' for Inactive)
REMARK    1  A    between atoms: C2_2  and  C4_4 
REMARK    2  A    between atoms: C4_4  and  C6_6 
REMARK    3  A    between atoms: C7_7  and  C8_8 
REMARK    4  A    between atoms: C8_8  and  C10_10 
REMARK    5  A    between atoms: C15_15  and  O1_16 
REMARK    6  A    between atoms: C19_21  and  O3_22 
REMARK    7  A    between atoms: O3_22  and  C20_23 
REMARK    8  A    between atoms: C20_23  and  C21_24 
REMARK    9  A    between atoms: C21_24  and  N1_25 
REMARK   10  A    between atoms: C21_24  and  C22_26 
REMARK   11  A    between atoms: C22_26  and  O4_27 
REMARK   12  A    between atoms: C22_26  and  C23_32 
REMARK   13  A    between atoms: O4_27  and  S1_28 
REMARK   14  A    between atoms: S1_28  and  O7_31 
REMARK   15  A    between atoms: C33_42  and  C34_43 
REMARK   16  A    between atoms: C34_43  and  O9_45 
ROOT
HETATM    1  C10 UNL     1      -1.150  50.287 -21.091  1.00  0.00     0.016 C 
HETATM    2  C11 UNL     1      -0.427  48.928 -21.158  1.00  0.00     0.011 C 
HETATM    3  C12 UNL     1      -1.547  47.898 -21.139  1.00  0.00     0.036 C 
HETATM    4  C13 UNL     1      -2.671  48.572 -20.398  1.00  0.00    -0.055 C 
HETATM    5  C14 UNL     1      -3.873  48.025 -20.114  1.00  0.00    -0.040 C 
HETATM    6  C15 UNL     1      -4.248  46.630 -20.548  1.00  0.00     0.179 C 
HETATM    7  C16 UNL     1      -5.665  46.452 -20.989  1.00  0.00     0.191 A 
HETATM    8  O2  UNL     1      -6.260  47.576 -21.667  1.00  0.00    -0.365 OA
HETATM    9  C17 UNL     1      -6.758  47.269 -20.355  1.00  0.00     0.100 A 
HETATM   10  C18 UNL     1      -8.158  46.720 -20.369  1.00  0.00     0.073 C 
HETATM   11  C19 UNL     1      -9.202  47.838 -20.306  1.00  0.00     0.124 C 
HETATM   12  C26 UNL     1      -8.926  48.758 -19.110  1.00  0.00     0.033 C 
HETATM   13  C27 UNL     1      -7.512  49.342 -19.184  1.00  0.00     0.015 C 
HETATM   14  C28 UNL     1      -6.385  48.265 -19.256  1.00  0.00    -0.002 C 
HETATM   15  C29 UNL     1      -6.350  47.513 -17.893  1.00  0.00     0.019 C 
HETATM   16  C30 UNL     1      -4.942  48.915 -19.466  1.00  0.00     0.029 C 
HETATM   17  C31 UNL     1      -4.947  50.266 -20.223  1.00  0.00     0.011 C 
HETATM   18  C32 UNL     1      -3.563  50.919 -20.446  1.00  0.00     0.026 C 
HETATM   19  C33 UNL     1      -2.337  50.031 -20.112  1.00  0.00     0.073 C 
ENDROOT
BRANCH  11  20
HETATM   20  O3  UNL     1     -10.505  47.268 -20.125  1.00  0.00    -0.384 OA
BRANCH  20  21
HETATM   21  C20 UNL     1     -11.321  48.021 -19.204  1.00  0.00     0.206 C 
BRANCH  21  22
HETATM   22  C21 UNL     1     -12.757  48.082 -19.771  1.00  0.00     0.272 C 
BRANCH  22  23
HETATM   23  N1  UNL     1     -12.802  47.312 -21.041  1.00  0.00     0.087 N 
HETATM   24  H32 UNL     1     -12.038  47.673 -21.620  1.00  0.00     0.313 HD
HETATM   25  H33 UNL     1     -12.517  46.342 -20.855  1.00  0.00     0.313 HD
ENDBRANCH  22  23
BRANCH  22  26
HETATM   26  C22 UNL     1     -13.870  47.574 -18.808  1.00  0.00     0.182 C 
BRANCH  26  27
HETATM   27  O4  UNL     1     -13.466  47.661 -17.438  1.00  0.00    -0.256 OA
BRANCH  27  28
HETATM   28  S1  UNL     1     -13.482  46.299 -16.551  1.00  0.00     0.240 S 
HETATM   29  O5  UNL     1     -14.307  46.522 -15.382  1.00  0.00    -0.579 OA
HETATM   30  O6  UNL     1     -13.679  45.175 -17.438  1.00  0.00    -0.579 OA
BRANCH  28  31
HETATM   31  O7  UNL     1     -11.972  46.237 -15.996  1.00  0.00    -0.274 OA
HETATM   32  H35 UNL     1     -11.951  46.716 -15.145  1.00  0.00     0.234 HD
ENDBRANCH  28  31
ENDBRANCH  27  28
ENDBRANCH  26  27
BRANCH  26  33
HETATM   33  C23 UNL     1     -15.235  48.299 -18.980  1.00  0.00     0.010 C 
HETATM   34  C24 UNL     1     -16.387  47.289 -18.900  1.00  0.00     0.012 C 
HETATM   35  C25 UNL     1     -15.495  49.422 -17.975  1.00  0.00     0.012 C 
ENDBRANCH  26  33
ENDBRANCH  22  26
ENDBRANCH  21  22
ENDBRANCH  20  21
ENDBRANCH  11  20
BRANCH   6  36
HETATM   36  O1  UNL     1      -3.993  45.759 -19.448  1.00  0.00    -0.388 OA
HETATM   37  H24 UNL     1      -3.938  44.861 -19.811  1.00  0.00     0.210 HD
ENDBRANCH   6  36
BRANCH  19  38
HETATM   38  C34 UNL     1      -1.963  50.192 -18.623  1.00  0.00     0.153 C 
HETATM   39  O8  UNL     1      -2.477  50.961 -17.826  1.00  0.00    -0.649 OA
BRANCH  38  40
HETATM   40  O9  UNL     1      -0.999  49.353 -18.184  1.00  0.00    -0.776 OA
HETATM   41  H55 UNL     1      -0.958  49.547 -17.225  1.00  0.00     0.167 HD
ENDBRANCH  38  40
ENDBRANCH  19  38
BRANCH   1  42
HETATM   42  C8  UNL     1      -0.165  51.453 -20.792  1.00  0.00     0.009 C 
HETATM   43  C9  UNL     1      -0.821  52.645 -20.089  1.00  0.00     0.014 C 
BRANCH  42  44
HETATM   44  C7  UNL     1       0.557  51.956 -22.036  1.00  0.00    -0.026 C 
HETATM   45  C6  UNL     1       0.038  51.991 -23.276  1.00  0.00    -0.026 C 
BRANCH  45  46
HETATM   46  C4  UNL     1       0.783  52.458 -24.508  1.00  0.00     0.007 C 
HETATM   47  C5  UNL     1       0.095  53.711 -25.064  1.00  0.00     0.014 C 
BRANCH  46  48
HETATM   48  C2  UNL     1       0.932  51.305 -25.540  1.00  0.00    -0.015 C 
HETATM   49  C1  UNL     1      -0.289  51.101 -26.446  1.00  0.00     0.010 C 
HETATM   50  C3  UNL     1       2.183  51.474 -26.408  1.00  0.00     0.010 C 
ENDBRANCH  46  48
ENDBRANCH  45  46
ENDBRANCH  42  44
ENDBRANCH   1  42
TORSDOF 16
ENDMDL
MODEL 8
REMARK minimizedAffinity -7.64821148
REMARK CNNscore 0.198016912
REMARK CNNaffinity 5.35144186
REMARK  16 active torsions:
REMARK  status: ('A' for Active; 'I' for Inactive)
REMARK    1  A    between atoms: C2_2  and  C4_4 
REMARK    2  A    between atoms: C4_4  and  C6_6 
REMARK    3  A    between atoms: C7_7  and  C8_8 
REMARK    4  A    between atoms: C8_8  and  C10_10 
REMARK    5  A    between atoms: C15_15  and  O1_16 
REMARK    6  A    between atoms: C19_21  and  O3_22 
REMARK    7  A    between atoms: O3_22  and  C20_23 
REMARK    8  A    between atoms: C20_23  and  C21_24 
REMARK    9  A    between atoms: C21_24  and  N1_25 
REMARK   10  A    between atoms: C21_24  and  C22_26 
REMARK   11  A    between atoms: C22_26  and  O4_27 
REMARK   12  A    between atoms: C22_26  and  C23_32 
REMARK   13  A    between atoms: O4_27  and  S1_28 
REMARK   14  A    between atoms: S1_28  and  O7_31 
REMARK   15  A    between atoms: C33_42  and  C34_43 
REMARK   16  A    between atoms: C34_43  and  O9_45 
ROOT
HETATM    1  C10 UNL     1     -16.983  46.246 -24.645  1.00  0.00     0.016 C 
HETATM    2  C11 UNL     1     -16.243  46.885 -23.454  1.00  0.00     0.011 C 
HETATM    3  C12 UNL     1     -14.899  47.312 -24.025  1.00  0.00     0.036 C 
HETATM    4  C13 UNL     1     -14.647  46.359 -25.162  1.00  0.00    -0.055 C 
HETATM    5  C14 UNL     1     -13.553  46.341 -25.954  1.00  0.00    -0.040 C 
HETATM    6  C15 UNL     1     -12.426  47.331 -25.797  1.00  0.00     0.179 C 
HETATM    7  C16 UNL     1     -11.809  47.810 -27.071  1.00  0.00     0.191 A 
HETATM    8  O2  UNL     1     -12.703  47.945 -28.193  1.00  0.00    -0.365 OA
HETATM    9  C17 UNL     1     -11.728  46.892 -28.260  1.00  0.00     0.100 A 
HETATM   10  C18 UNL     1     -10.656  47.145 -29.284  1.00  0.00     0.073 C 
HETATM   11  C19 UNL     1     -11.058  46.613 -30.663  1.00  0.00     0.124 C 
HETATM   12  C26 UNL     1     -11.466  45.138 -30.566  1.00  0.00     0.033 C 
HETATM   13  C27 UNL     1     -12.606  44.949 -29.561  1.00  0.00     0.015 C 
HETATM   14  C28 UNL     1     -12.278  45.471 -28.127  1.00  0.00    -0.002 C 
HETATM   15  C29 UNL     1     -11.167  44.561 -27.526  1.00  0.00     0.019 C 
HETATM   16  C30 UNL     1     -13.536  45.378 -27.149  1.00  0.00     0.029 C 
HETATM   17  C31 UNL     1     -14.911  45.484 -27.855  1.00  0.00     0.011 C 
HETATM   18  C32 UNL     1     -16.150  45.402 -26.932  1.00  0.00     0.026 C 
HETATM   19  C33 UNL     1     -15.864  45.475 -25.410  1.00  0.00     0.073 C 
ENDROOT
BRANCH  11  20
HETATM   20  O3  UNL     1      -9.938  46.698 -31.554  1.00  0.00    -0.384 OA
BRANCH  20  21
HETATM   21  C20 UNL     1      -8.771  47.273 -30.931  1.00  0.00     0.206 C 
BRANCH  21  22
HETATM   22  C21 UNL     1      -7.605  46.268 -31.072  1.00  0.00     0.272 C 
BRANCH  22  23
HETATM   23  N1  UNL     1      -7.932  45.307 -32.156  1.00  0.00     0.087 N 
HETATM   24  H32 UNL     1      -8.863  44.939 -31.940  1.00  0.00     0.313 HD
HETATM   25  H33 UNL     1      -8.082  45.827 -33.031  1.00  0.00     0.313 HD
ENDBRANCH  22  23
BRANCH  22  26
HETATM   26  C22 UNL     1      -6.211  46.907 -31.337  1.00  0.00     0.182 C 
BRANCH  26  27
HETATM   27  O4  UNL     1      -5.376  46.859 -30.175  1.00  0.00    -0.256 OA
BRANCH  27  28
HETATM   28  S1  UNL     1      -4.965  48.266 -29.472  1.00  0.00     0.240 S 
HETATM   29  O5  UNL     1      -3.999  47.993 -28.429  1.00  0.00    -0.579 OA
HETATM   30  O6  UNL     1      -4.734  49.246 -30.509  1.00  0.00    -0.579 OA
BRANCH  28  31
HETATM   31  O7  UNL     1      -6.319  48.668 -28.700  1.00  0.00    -0.274 OA
HETATM   32  H35 UNL     1      -6.273  48.280 -27.805  1.00  0.00     0.234 HD
ENDBRANCH  28  31
ENDBRANCH  27  28
ENDBRANCH  26  27
BRANCH  26  33
HETATM   33  C23 UNL     1      -5.445  46.279 -32.535  1.00  0.00     0.010 C 
HETATM   34  C24 UNL     1      -4.956  47.380 -33.488  1.00  0.00     0.012 C 
HETATM   35  C25 UNL     1      -4.254  45.401 -32.148  1.00  0.00     0.012 C 
ENDBRANCH  26  33
ENDBRANCH  22  26
ENDBRANCH  21  22
ENDBRANCH  20  21
ENDBRANCH  11  20
BRANCH   6  36
HETATM   36  O1  UNL     1     -11.420  46.708 -25.001  1.00  0.00    -0.388 OA
HETATM   37  H24 UNL     1     -10.862  47.420 -24.651  1.00  0.00     0.210 HD
ENDBRANCH   6  36
BRANCH  19  38
HETATM   38  C34 UNL     1     -15.594  44.059 -24.859  1.00  0.00     0.153 C 
HETATM   39  O8  UNL     1     -14.643  43.718 -24.172  1.00  0.00    -0.649 OA
BRANCH  38  40
HETATM   40  O9  UNL     1     -16.546  43.145 -25.146  1.00  0.00    -0.776 OA
HETATM   41  H55 UNL     1     -16.244  42.351 -24.658  1.00  0.00     0.167 HD
ENDBRANCH  38  40
ENDBRANCH  19  38
BRANCH   1  42
HETATM   42  C8  UNL     1     -18.254  45.473 -24.190  1.00  0.00     0.009 C 
HETATM   43  C9  UNL     1     -19.498  45.793 -25.025  1.00  0.00     0.014 C 
BRANCH  42  44
HETATM   44  C7  UNL     1     -18.585  45.687 -22.718  1.00  0.00    -0.026 C 
HETATM   45  C6  UNL     1     -17.690  45.950 -21.750  1.00  0.00    -0.026 C 
BRANCH  45  46
HETATM   46  C4  UNL     1     -18.033  46.121 -20.285  1.00  0.00     0.007 C 
HETATM   47  C5  UNL     1     -18.944  47.345 -20.124  1.00  0.00     0.014 C 
BRANCH  46  48
HETATM   48  C2  UNL     1     -16.746  46.168 -19.413  1.00  0.00    -0.015 C 
HETATM   49  C1  UNL     1     -15.489  45.627 -20.106  1.00  0.00     0.010 C 
HETATM   50  C3  UNL     1     -16.465  47.580 -18.887  1.00  0.00     0.010 C 
ENDBRANCH  46  48
ENDBRANCH  45  46
ENDBRANCH  42  44
ENDBRANCH   1  42
TORSDOF 16
ENDMDL
MODEL 9
REMARK minimizedAffinity -8.24966621
REMARK CNNscore 0.18637003
REMARK CNNaffinity 6.60269356
REMARK  16 active torsions:
REMARK  status: ('A' for Active; 'I' for Inactive)
REMARK    1  A    between atoms: C2_2  and  C4_4 
REMARK    2  A    between atoms: C4_4  and  C6_6 
REMARK    3  A    between atoms: C7_7  and  C8_8 
REMARK    4  A    between atoms: C8_8  and  C10_10 
REMARK    5  A    between atoms: C15_15  and  O1_16 
REMARK    6  A    between atoms: C19_21  and  O3_22 
REMARK    7  A    between atoms: O3_22  and  C20_23 
REMARK    8  A    between atoms: C20_23  and  C21_24 
REMARK    9  A    between atoms: C21_24  and  N1_25 
REMARK   10  A    between atoms: C21_24  and  C22_26 
REMARK   11  A    between atoms: C22_26  and  O4_27 
REMARK   12  A    between atoms: C22_26  and  C23_32 
REMARK   13  A    between atoms: O4_27  and  S1_28 
REMARK   14  A    between atoms: S1_28  and  O7_31 
REMARK   15  A    between atoms: C33_42  and  C34_43 
REMARK   16  A    between atoms: C34_43  and  O9_45 
ROOT
HETATM    1  C10 UNL     1      -3.141  50.709 -20.882  1.00  0.00     0.016 C 
HETATM    2  C11 UNL     1      -4.219  49.689 -20.466  1.00  0.00     0.011 C 
HETATM    3  C12 UNL     1      -4.032  49.529 -18.964  1.00  0.00     0.036 C 
HETATM    4  C13 UNL     1      -2.578  49.831 -18.726  1.00  0.00    -0.055 C 
HETATM    5  C14 UNL     1      -1.944  49.791 -17.533  1.00  0.00    -0.040 C 
HETATM    6  C15 UNL     1      -2.659  49.449 -16.251  1.00  0.00     0.179 C 
HETATM    7  C16 UNL     1      -2.230  50.225 -15.048  1.00  0.00     0.191 A 
HETATM    8  O2  UNL     1      -1.841  51.592 -15.285  1.00  0.00    -0.365 OA
HETATM    9  C17 UNL     1      -0.800  50.674 -14.914  1.00  0.00     0.100 A 
HETATM   10  C18 UNL     1      -0.258  50.924 -13.534  1.00  0.00     0.073 C 
HETATM   11  C19 UNL     1       0.891  51.936 -13.555  1.00  0.00     0.124 C 
HETATM   12  C26 UNL     1       1.967  51.499 -14.557  1.00  0.00     0.033 C 
HETATM   13  C27 UNL     1       1.373  51.326 -15.958  1.00  0.00     0.015 C 
HETATM   14  C28 UNL     1       0.189  50.311 -16.022  1.00  0.00    -0.002 C 
HETATM   15  C29 UNL     1       0.757  48.890 -15.738  1.00  0.00     0.019 C 
HETATM   16  C30 UNL     1      -0.486  50.263 -17.468  1.00  0.00     0.029 C 
HETATM   17  C31 UNL     1      -0.384  51.583 -18.272  1.00  0.00     0.011 C 
HETATM   18  C32 UNL     1      -1.033  51.569 -19.676  1.00  0.00     0.026 C 
HETATM   19  C33 UNL     1      -1.910  50.333 -20.002  1.00  0.00     0.073 C 
ENDROOT
BRANCH  11  20
HETATM   20  O3  UNL     1       1.502  51.995 -12.259  1.00  0.00    -0.384 OA
BRANCH  20  21
HETATM   21  C20 UNL     1       0.942  53.031 -11.426  1.00  0.00     0.206 C 
BRANCH  21  22
HETATM   22  C21 UNL     1       2.101  53.722 -10.671  1.00  0.00     0.272 C 
BRANCH  22  23
HETATM   23  N1  UNL     1       3.268  53.828 -11.584  1.00  0.00     0.087 N 
HETATM   24  H32 UNL     1       3.426  52.887 -11.954  1.00  0.00     0.313 HD
HETATM   25  H33 UNL     1       2.994  54.365 -12.416  1.00  0.00     0.313 HD
ENDBRANCH  22  23
BRANCH  22  26
HETATM   26  C22 UNL     1       1.764  55.123 -10.082  1.00  0.00     0.182 C 
BRANCH  26  27
HETATM   27  O4  UNL     1       1.244  55.028  -8.752  1.00  0.00    -0.256 OA
BRANCH  27  28
HETATM   28  S1  UNL     1      -0.359  55.203  -8.546  1.00  0.00     0.240 S 
HETATM   29  O5  UNL     1      -0.963  55.456  -9.837  1.00  0.00    -0.579 OA
HETATM   30  O6  UNL     1      -0.825  54.161  -7.660  1.00  0.00    -0.579 OA
BRANCH  28  31
HETATM   31  O7  UNL     1      -0.449  56.604  -7.757  1.00  0.00    -0.274 OA
HETATM   32  H35 UNL     1      -0.520  57.313  -8.424  1.00  0.00     0.234 HD
ENDBRANCH  28  31
ENDBRANCH  27  28
ENDBRANCH  26  27
BRANCH  26  33
HETATM   33  C23 UNL     1       2.960  56.116 -10.087  1.00  0.00     0.010 C 
HETATM   34  C24 UNL     1       3.858  55.871  -8.867  1.00  0.00     0.012 C 
HETATM   35  C25 UNL     1       3.824  56.073 -11.349  1.00  0.00     0.012 C 
ENDBRANCH  26  33
ENDBRANCH  22  26
ENDBRANCH  21  22
ENDBRANCH  20  21
ENDBRANCH  11  20
BRANCH   6  36
HETATM   36  O1  UNL     1      -2.451  48.060 -16.004  1.00  0.00    -0.388 OA
HETATM   37  H24 UNL     1      -3.139  47.782 -15.379  1.00  0.00     0.210 HD
ENDBRANCH   6  36
BRANCH  19  38
HETATM   38  C34 UNL     1      -1.035  49.211 -20.601  1.00  0.00     0.153 C 
HETATM   39  O8  UNL     1      -1.355  48.041 -20.743  1.00  0.00    -0.649 OA
BRANCH  38  40
HETATM   40  O9  UNL     1       0.179  49.609 -21.040  1.00  0.00    -0.776 OA
HETATM   41  H55 UNL     1       0.544  48.796 -21.446  1.00  0.00     0.167 HD
ENDBRANCH  38  40
ENDBRANCH  19  38
BRANCH   1  42
HETATM   42  C8  UNL     1      -2.971  50.774 -22.427  1.00  0.00     0.009 C 
HETATM   43  C9  UNL     1      -3.040  49.405 -23.110  1.00  0.00     0.014 C 
BRANCH  42  44
HETATM   44  C7  UNL     1      -1.684  51.469 -22.854  1.00  0.00    -0.026 C 
HETATM   45  C6  UNL     1      -0.935  51.134 -23.919  1.00  0.00    -0.026 C 
BRANCH  45  46
HETATM   46  C4  UNL     1       0.362  51.812 -24.307  1.00  0.00     0.007 C 
HETATM   47  C5  UNL     1       0.454  53.165 -23.589  1.00  0.00     0.014 C 
BRANCH  46  48
HETATM   48  C2  UNL     1       0.503  51.903 -25.853  1.00  0.00    -0.015 C 
HETATM   49  C1  UNL     1       0.175  53.281 -26.441  1.00  0.00     0.010 C 
HETATM   50  C3  UNL     1       1.895  51.470 -26.325  1.00  0.00     0.010 C 
ENDBRANCH  46  48
ENDBRANCH  45  46
ENDBRANCH  42  44
ENDBRANCH   1  42
TORSDOF 16
ENDMDL
