MODEL 1
REMARK minimizedAffinity -9.67335129
REMARK  3 active torsions:
REMARK  status: ('A' for Active; 'I' for Inactive)
REMARK    1  A    between atoms: C2_2  and  O1_3 
REMARK    2  A    between atoms: O1_3  and  C3_4 
REMARK    3  A    between atoms: C3_4  and  C4_6 
ROOT
HETATM    1  C4  UNL     1      -7.609  46.850 -22.828  1.00  0.00     0.045 C 
HETATM    2  C5  UNL     1      -9.046  47.266 -22.466  1.00  0.00     0.026 C 
HETATM    3  C6  UNL     1      -6.918  46.141 -21.635  1.00  0.00     0.020 C 
HETATM    4  C7  UNL     1      -6.077  47.094 -20.785  1.00  0.00     0.011 C 
HETATM    5  C8  UNL     1      -4.911  47.741 -21.588  1.00  0.00    -0.036 C 
HETATM    6  C9  UNL     1      -3.675  46.807 -21.509  1.00  0.00     0.016 C 
HETATM    7  C10 UNL     1      -4.548  49.085 -20.910  1.00  0.00     0.011 C 
HETATM    8  C11 UNL     1      -3.634  50.001 -21.743  1.00  0.00     0.015 C 
HETATM    9  C12 UNL     1      -4.158  50.312 -23.181  1.00  0.00    -0.013 C 
HETATM   10  C13 UNL     1      -5.494  51.099 -23.066  1.00  0.00     0.021 C 
HETATM   11  C14 UNL     1      -4.416  48.937 -23.803  1.00  0.00    -0.070 C 
HETATM   12  C15 UNL     1      -3.735  48.504 -24.874  1.00  0.00    -0.022 C 
HETATM   13  C16 UNL     1      -2.597  49.212 -25.512  1.00  0.00     0.033 C 
HETATM   14  C17 UNL     1      -1.949  50.354 -24.667  1.00  0.00     0.007 C 
HETATM   15  C18 UNL     1      -0.856  51.133 -25.559  1.00  0.00    -0.034 C 
HETATM   16  C19 UNL     1      -0.004  50.020 -26.271  1.00  0.00     0.016 C 
HETATM   17  C20 UNL     1       0.174  51.919 -24.689  1.00  0.00     0.017 C 
HETATM   18  C21 UNL     1       0.370  53.416 -24.927  1.00  0.00     0.080 C 
HETATM   19  C22 UNL     1       0.001  53.994 -26.274  1.00  0.00     0.135 C 
HETATM   20  O3  UNL     1       0.205  55.191 -26.494  1.00  0.00    -0.297 OA
HETATM   21  C23 UNL     1      -0.592  53.078 -27.338  1.00  0.00     0.017 C 
HETATM   22  C24 UNL     1       0.592  52.454 -28.097  1.00  0.00     0.023 C 
HETATM   23  C25 UNL     1      -1.374  53.925 -28.371  1.00  0.00     0.023 C 
HETATM   24  C26 UNL     1      -1.550  52.044 -26.633  1.00  0.00     0.009 C 
HETATM   25  C27 UNL     1      -2.811  52.773 -26.092  1.00  0.00     0.007 C 
HETATM   26  C28 UNL     1      -3.770  51.962 -25.218  1.00  0.00     0.011 C 
HETATM   27  C29 UNL     1      -3.089  51.231 -24.030  1.00  0.00    -0.028 C 
HETATM   28  C30 UNL     1      -2.525  52.309 -23.070  1.00  0.00     0.016 C 
HETATM   29  C31 UNL     1      -5.311  47.925 -23.084  1.00  0.00     0.024 C 
HETATM   30  C32 UNL     1      -6.825  48.126 -23.258  1.00  0.00     0.029 C 
ENDROOT
BRANCH   1  31
HETATM   31  C3  UNL     1      -7.693  45.862 -24.002  1.00  0.00     0.267 C 
HETATM   32  O2  UNL     1      -7.888  44.658 -23.903  1.00  0.00    -0.264 OA
BRANCH  31  33
HETATM   33  O1  UNL     1      -7.529  46.518 -25.187  1.00  0.00    -0.321 OA
BRANCH  33  34
HETATM   34  C2  UNL     1      -8.670  46.480 -26.051  1.00  0.00     0.174 C 
HETATM   35  C1  UNL     1      -8.185  46.242 -27.468  1.00  0.00     0.034 C 
ENDBRANCH  33  34
ENDBRANCH  31  33
ENDBRANCH   1  31
TORSDOF 3
ENDMDL
MODEL 2
REMARK minimizedAffinity -8.96275139
REMARK  3 active torsions:
REMARK  status: ('A' for Active; 'I' for Inactive)
REMARK    1  A    between atoms: C2_2  and  O1_3 
REMARK    2  A    between atoms: O1_3  and  C3_4 
REMARK    3  A    between atoms: C3_4  and  C4_6 
ROOT
HETATM    1  C4  UNL     1      -0.217  52.033 -24.243  1.00  0.00     0.045 C 
HETATM    2  C5  UNL     1       0.764  51.489 -25.297  1.00  0.00     0.026 C 
HETATM    3  C6  UNL     1       0.543  52.619 -23.025  1.00  0.00     0.020 C 
HETATM    4  C7  UNL     1       0.698  51.614 -21.883  1.00  0.00     0.011 C 
HETATM    5  C8  UNL     1      -0.669  51.146 -21.307  1.00  0.00    -0.036 C 
HETATM    6  C9  UNL     1      -1.101  52.133 -20.190  1.00  0.00     0.016 C 
HETATM    7  C10 UNL     1      -0.471  49.749 -20.670  1.00  0.00     0.011 C 
HETATM    8  C11 UNL     1      -1.774  49.005 -20.330  1.00  0.00     0.015 C 
HETATM    9  C12 UNL     1      -2.770  48.854 -21.523  1.00  0.00    -0.013 C 
HETATM   10  C13 UNL     1      -2.102  47.982 -22.623  1.00  0.00     0.021 C 
HETATM   11  C14 UNL     1      -2.970  50.281 -22.040  1.00  0.00    -0.070 C 
HETATM   12  C15 UNL     1      -4.165  50.889 -21.999  1.00  0.00    -0.022 C 
HETATM   13  C16 UNL     1      -5.388  50.338 -21.363  1.00  0.00     0.033 C 
HETATM   14  C17 UNL     1      -5.164  49.136 -20.392  1.00  0.00     0.007 C 
HETATM   15  C18 UNL     1      -6.589  48.545 -19.926  1.00  0.00    -0.034 C 
HETATM   16  C19 UNL     1      -7.471  49.789 -19.542  1.00  0.00     0.016 C 
HETATM   17  C20 UNL     1      -6.489  47.714 -18.609  1.00  0.00     0.017 C 
HETATM   18  C21 UNL     1      -7.003  46.274 -18.589  1.00  0.00     0.080 C 
HETATM   19  C22 UNL     1      -8.039  45.857 -19.607  1.00  0.00     0.135 C 
HETATM   20  O3  UNL     1      -8.500  44.712 -19.566  1.00  0.00    -0.297 OA
HETATM   21  C23 UNL     1      -8.509  46.867 -20.646  1.00  0.00     0.017 C 
HETATM   22  C24 UNL     1      -9.669  47.653 -20.010  1.00  0.00     0.023 C 
HETATM   23  C25 UNL     1      -9.106  46.118 -21.863  1.00  0.00     0.023 C 
HETATM   24  C26 UNL     1      -7.275  47.743 -21.089  1.00  0.00     0.009 C 
HETATM   25  C27 UNL     1      -6.276  46.876 -21.905  1.00  0.00     0.007 C 
HETATM   26  C28 UNL     1      -4.930  47.509 -22.265  1.00  0.00     0.011 C 
HETATM   27  C29 UNL     1      -4.166  48.118 -21.058  1.00  0.00    -0.028 C 
HETATM   28  C30 UNL     1      -3.793  46.958 -20.100  1.00  0.00     0.016 C 
HETATM   29  C31 UNL     1      -1.761  51.136 -22.421  1.00  0.00     0.024 C 
HETATM   30  C32 UNL     1      -1.163  50.872 -23.813  1.00  0.00     0.029 C 
ENDROOT
BRANCH   1  31
HETATM   31  C3  UNL     1      -1.029  53.158 -24.901  1.00  0.00     0.267 C 
HETATM   32  O2  UNL     1      -0.571  54.215 -25.314  1.00  0.00    -0.264 OA
BRANCH  31  33
HETATM   33  O1  UNL     1      -2.348  52.814 -24.973  1.00  0.00    -0.321 OA
BRANCH  33  34
HETATM   34  C2  UNL     1      -2.714  52.107 -26.164  1.00  0.00     0.174 C 
HETATM   35  C1  UNL     1      -2.016  52.763 -27.339  1.00  0.00     0.034 C 
ENDBRANCH  33  34
ENDBRANCH  31  33
ENDBRANCH   1  31
TORSDOF 3
ENDMDL
MODEL 3
REMARK minimizedAffinity -8.79348469
REMARK  3 active torsions:
REMARK  status: ('A' for Active; 'I' for Inactive)
REMARK    1  A    between atoms: C2_2  and  O1_3 
REMARK    2  A    between atoms: O1_3  and  C3_4 
REMARK    3  A    between atoms: C3_4  and  C4_6 
ROOT
HETATM    1  C4  UNL     1      -2.187  50.638 -26.261  1.00  0.00     0.045 C 
HETATM    2  C5  UNL     1      -0.701  50.735 -26.651  1.00  0.00     0.026 C 
HETATM    3  C6  UNL     1      -2.784  52.043 -25.994  1.00  0.00     0.020 C 
HETATM    4  C7  UNL     1      -2.761  52.425 -24.513  1.00  0.00     0.011 C 
HETATM    5  C8  UNL     1      -3.608  51.462 -23.633  1.00  0.00    -0.036 C 
HETATM    6  C9  UNL     1      -5.071  51.979 -23.597  1.00  0.00     0.016 C 
HETATM    7  C10 UNL     1      -3.043  51.504 -22.192  1.00  0.00     0.011 C 
HETATM    8  C11 UNL     1      -3.557  50.389 -21.265  1.00  0.00     0.015 C 
HETATM    9  C12 UNL     1      -3.363  48.941 -21.816  1.00  0.00    -0.013 C 
HETATM   10  C13 UNL     1      -1.840  48.659 -21.954  1.00  0.00     0.021 C 
HETATM   11  C14 UNL     1      -4.015  48.966 -23.201  1.00  0.00    -0.070 C 
HETATM   12  C15 UNL     1      -5.084  48.211 -23.496  1.00  0.00    -0.022 C 
HETATM   13  C16 UNL     1      -5.833  47.369 -22.530  1.00  0.00     0.033 C 
HETATM   14  C17 UNL     1      -5.557  47.659 -21.021  1.00  0.00     0.007 C 
HETATM   15  C18 UNL     1      -6.303  46.556 -20.113  1.00  0.00    -0.034 C 
HETATM   16  C19 UNL     1      -7.757  46.424 -20.697  1.00  0.00     0.016 C 
HETATM   17  C20 UNL     1      -6.512  47.035 -18.643  1.00  0.00     0.017 C 
HETATM   18  C21 UNL     1      -5.983  46.181 -17.492  1.00  0.00     0.080 C 
HETATM   19  C22 UNL     1      -5.757  44.704 -17.725  1.00  0.00     0.135 C 
HETATM   20  O3  UNL     1      -5.380  43.995 -16.788  1.00  0.00    -0.297 OA
HETATM   21  C23 UNL     1      -6.023  44.121 -19.107  1.00  0.00     0.017 C 
HETATM   22  C24 UNL     1      -7.515  43.746 -19.151  1.00  0.00     0.023 C 
HETATM   23  C25 UNL     1      -5.237  42.797 -19.270  1.00  0.00     0.023 C 
HETATM   24  C26 UNL     1      -5.568  45.170 -20.191  1.00  0.00     0.009 C 
HETATM   25  C27 UNL     1      -4.019  45.300 -20.186  1.00  0.00     0.007 C 
HETATM   26  C28 UNL     1      -3.405  46.405 -21.047  1.00  0.00     0.011 C 
HETATM   27  C29 UNL     1      -4.007  47.815 -20.804  1.00  0.00    -0.028 C 
HETATM   28  C30 UNL     1      -3.662  48.234 -19.351  1.00  0.00     0.016 C 
HETATM   29  C31 UNL     1      -3.597  50.020 -24.228  1.00  0.00     0.024 C 
HETATM   30  C32 UNL     1      -2.302  49.725 -25.004  1.00  0.00     0.029 C 
ENDROOT
BRANCH   1  31
HETATM   31  C3  UNL     1      -2.936  50.004 -27.443  1.00  0.00     0.267 C 
HETATM   32  O2  UNL     1      -3.247  50.580 -28.477  1.00  0.00    -0.264 OA
BRANCH  31  33
HETATM   33  O1  UNL     1      -3.205  48.691 -27.186  1.00  0.00    -0.321 OA
BRANCH  33  34
HETATM   34  C2  UNL     1      -4.596  48.350 -27.222  1.00  0.00     0.174 C 
HETATM   35  C1  UNL     1      -4.939  47.905 -28.631  1.00  0.00     0.034 C 
ENDBRANCH  33  34
ENDBRANCH  31  33
ENDBRANCH   1  31
TORSDOF 3
ENDMDL
MODEL 4
REMARK minimizedAffinity -8.59299564
REMARK  3 active torsions:
REMARK  status: ('A' for Active; 'I' for Inactive)
REMARK    1  A    between atoms: C2_2  and  O1_3 
REMARK    2  A    between atoms: O1_3  and  C3_4 
REMARK    3  A    between atoms: C3_4  and  C4_6 
ROOT
HETATM    1  C4  UNL     1      -0.875  52.049 -25.332  1.00  0.00     0.045 C 
HETATM    2  C5  UNL     1      -0.346  53.488 -25.194  1.00  0.00     0.026 C 
HETATM    3  C6  UNL     1      -2.000  51.970 -26.396  1.00  0.00     0.020 C 
HETATM    4  C7  UNL     1      -3.399  52.077 -25.790  1.00  0.00     0.011 C 
HETATM    5  C8  UNL     1      -3.712  50.918 -24.800  1.00  0.00    -0.036 C 
HETATM    6  C9  UNL     1      -4.303  49.727 -25.599  1.00  0.00     0.016 C 
HETATM    7  C10 UNL     1      -4.787  51.414 -23.802  1.00  0.00     0.011 C 
HETATM    8  C11 UNL     1      -4.989  50.513 -22.571  1.00  0.00     0.015 C 
HETATM    9  C12 UNL     1      -3.687  50.208 -21.765  1.00  0.00    -0.013 C 
HETATM   10  C13 UNL     1      -3.137  51.540 -21.183  1.00  0.00     0.021 C 
HETATM   11  C14 UNL     1      -2.711  49.652 -22.805  1.00  0.00    -0.070 C 
HETATM   12  C15 UNL     1      -2.241  48.398 -22.739  1.00  0.00    -0.022 C 
HETATM   13  C16 UNL     1      -2.673  47.370 -21.758  1.00  0.00     0.033 C 
HETATM   14  C17 UNL     1      -3.997  47.679 -20.990  1.00  0.00     0.007 C 
HETATM   15  C18 UNL     1      -4.233  46.566 -19.849  1.00  0.00    -0.034 C 
HETATM   16  C19 UNL     1      -3.957  45.178 -20.533  1.00  0.00     0.016 C 
HETATM   17  C20 UNL     1      -5.723  46.488 -19.391  1.00  0.00     0.017 C 
HETATM   18  C21 UNL     1      -6.061  46.648 -17.909  1.00  0.00     0.080 C 
HETATM   19  C22 UNL     1      -4.993  46.352 -16.881  1.00  0.00     0.135 C 
HETATM   20  O3  UNL     1      -5.271  46.428 -15.681  1.00  0.00    -0.297 OA
HETATM   21  C23 UNL     1      -3.602  45.946 -17.352  1.00  0.00     0.017 C 
HETATM   22  C24 UNL     1      -3.627  44.419 -17.545  1.00  0.00     0.023 C 
HETATM   23  C25 UNL     1      -2.574  46.225 -16.229  1.00  0.00     0.023 C 
HETATM   24  C26 UNL     1      -3.247  46.774 -18.645  1.00  0.00     0.009 C 
HETATM   25  C27 UNL     1      -3.041  48.270 -18.276  1.00  0.00     0.007 C 
HETATM   26  C28 UNL     1      -2.868  49.259 -19.430  1.00  0.00     0.011 C 
HETATM   27  C29 UNL     1      -3.976  49.179 -20.514  1.00  0.00    -0.028 C 
HETATM   28  C30 UNL     1      -5.315  49.599 -19.855  1.00  0.00     0.016 C 
HETATM   29  C31 UNL     1      -2.412  50.446 -24.079  1.00  0.00     0.024 C 
HETATM   30  C32 UNL     1      -1.385  51.581 -23.936  1.00  0.00     0.029 C 
ENDROOT
BRANCH   1  31
HETATM   31  C3  UNL     1       0.295  51.165 -25.790  1.00  0.00     0.267 C 
HETATM   32  O2  UNL     1       0.190  50.057 -26.298  1.00  0.00    -0.264 OA
BRANCH  31  33
HETATM   33  O1  UNL     1       1.484  51.794 -25.559  1.00  0.00    -0.321 OA
BRANCH  33  34
HETATM   34  C2  UNL     1       2.561  51.356 -26.395  1.00  0.00     0.174 C 
HETATM   35  C1  UNL     1       2.326  51.894 -27.794  1.00  0.00     0.034 C 
ENDBRANCH  33  34
ENDBRANCH  31  33
ENDBRANCH   1  31
TORSDOF 3
ENDMDL
MODEL 5
REMARK minimizedAffinity -8.42493057
REMARK  3 active torsions:
REMARK  status: ('A' for Active; 'I' for Inactive)
REMARK    1  A    between atoms: C2_2  and  O1_3 
REMARK    2  A    between atoms: O1_3  and  C3_4 
REMARK    3  A    between atoms: C3_4  and  C4_6 
ROOT
HETATM    1  C4  UNL     1     -11.370  46.451 -25.919  1.00  0.00     0.045 C 
HETATM    2  C5  UNL     1     -12.721  46.885 -25.323  1.00  0.00     0.026 C 
HETATM    3  C6  UNL     1     -11.144  44.929 -25.735  1.00  0.00     0.020 C 
HETATM    4  C7  UNL     1     -10.328  44.596 -24.486  1.00  0.00     0.011 C 
HETATM    5  C8  UNL     1      -8.896  45.204 -24.528  1.00  0.00    -0.036 C 
HETATM    6  C9  UNL     1      -7.950  44.202 -25.240  1.00  0.00     0.016 C 
HETATM    7  C10 UNL     1      -8.406  45.382 -23.070  1.00  0.00     0.011 C 
HETATM    8  C11 UNL     1      -7.146  46.252 -22.915  1.00  0.00     0.015 C 
HETATM    9  C12 UNL     1      -7.246  47.668 -23.566  1.00  0.00    -0.013 C 
HETATM   10  C13 UNL     1      -8.363  48.472 -22.843  1.00  0.00     0.021 C 
HETATM   11  C14 UNL     1      -7.656  47.397 -25.016  1.00  0.00    -0.070 C 
HETATM   12  C15 UNL     1      -6.864  47.718 -26.049  1.00  0.00    -0.022 C 
HETATM   13  C16 UNL     1      -5.482  48.250 -25.939  1.00  0.00     0.033 C 
HETATM   14  C17 UNL     1      -4.805  48.093 -24.541  1.00  0.00     0.007 C 
HETATM   15  C18 UNL     1      -3.392  48.869 -24.534  1.00  0.00    -0.034 C 
HETATM   16  C19 UNL     1      -2.671  48.468 -25.873  1.00  0.00     0.016 C 
HETATM   17  C20 UNL     1      -2.439  48.363 -23.408  1.00  0.00     0.017 C 
HETATM   18  C21 UNL     1      -1.865  49.363 -22.405  1.00  0.00     0.080 C 
HETATM   19  C22 UNL     1      -1.779  50.820 -22.797  1.00  0.00     0.135 C 
HETATM   20  O3  UNL     1      -1.269  51.628 -22.015  1.00  0.00    -0.297 OA
HETATM   21  C23 UNL     1      -2.303  51.255 -24.159  1.00  0.00     0.017 C 
HETATM   22  C24 UNL     1      -1.148  51.073 -25.159  1.00  0.00     0.023 C 
HETATM   23  C25 UNL     1      -2.621  52.770 -24.132  1.00  0.00     0.023 C 
HETATM   24  C26 UNL     1      -3.602  50.425 -24.486  1.00  0.00     0.009 C 
HETATM   25  C27 UNL     1      -4.758  50.855 -23.540  1.00  0.00     0.007 C 
HETATM   26  C28 UNL     1      -6.047  50.031 -23.587  1.00  0.00     0.011 C 
HETATM   27  C29 UNL     1      -5.835  48.502 -23.424  1.00  0.00    -0.028 C 
HETATM   28  C30 UNL     1      -5.278  48.250 -21.999  1.00  0.00     0.016 C 
HETATM   29  C31 UNL     1      -8.893  46.549 -25.318  1.00  0.00     0.024 C 
HETATM   30  C32 UNL     1     -10.244  47.277 -25.226  1.00  0.00     0.029 C 
ENDROOT
BRANCH   1  31
HETATM   31  C3  UNL     1     -11.403  46.763 -27.422  1.00  0.00     0.267 C 
HETATM   32  O2  UNL     1     -10.435  46.750 -28.171  1.00  0.00    -0.264 OA
BRANCH  31  33
HETATM   33  O1  UNL     1     -12.676  47.052 -27.820  1.00  0.00    -0.321 OA
BRANCH  33  34
HETATM   34  C2  UNL     1     -13.150  46.264 -28.918  1.00  0.00     0.174 C 
HETATM   35  C1  UNL     1     -14.474  45.640 -28.518  1.00  0.00     0.034 C 
ENDBRANCH  33  34
ENDBRANCH  31  33
ENDBRANCH   1  31
TORSDOF 3
ENDMDL
MODEL 6
REMARK minimizedAffinity -8.37741756
REMARK  3 active torsions:
REMARK  status: ('A' for Active; 'I' for Inactive)
REMARK    1  A    between atoms: C2_2  and  O1_3 
REMARK    2  A    between atoms: O1_3  and  C3_4 
REMARK    3  A    between atoms: C3_4  and  C4_6 
ROOT
HETATM    1  C4  UNL     1      -4.784  43.776 -18.768  1.00  0.00     0.045 C 
HETATM    2  C5  UNL     1      -5.747  42.651 -19.186  1.00  0.00     0.026 C 
HETATM    3  C6  UNL     1      -5.268  44.469 -17.469  1.00  0.00     0.020 C 
HETATM    4  C7  UNL     1      -6.096  45.725 -17.739  1.00  0.00     0.011 C 
HETATM    5  C8  UNL     1      -5.290  46.822 -18.493  1.00  0.00    -0.036 C 
HETATM    6  C9  UNL     1      -4.554  47.704 -17.450  1.00  0.00     0.016 C 
HETATM    7  C10 UNL     1      -6.295  47.716 -19.260  1.00  0.00     0.011 C 
HETATM    8  C11 UNL     1      -5.659  48.654 -20.301  1.00  0.00     0.015 C 
HETATM    9  C12 UNL     1      -4.748  47.942 -21.351  1.00  0.00    -0.013 C 
HETATM   10  C13 UNL     1      -5.621  46.967 -22.190  1.00  0.00     0.021 C 
HETATM   11  C14 UNL     1      -3.742  47.149 -20.512  1.00  0.00    -0.070 C 
HETATM   12  C15 UNL     1      -2.427  47.411 -20.546  1.00  0.00    -0.022 C 
HETATM   13  C16 UNL     1      -1.794  48.537 -21.278  1.00  0.00     0.033 C 
HETATM   14  C17 UNL     1      -2.762  49.671 -21.744  1.00  0.00     0.007 C 
HETATM   15  C18 UNL     1      -1.959  50.721 -22.667  1.00  0.00    -0.034 C 
HETATM   16  C19 UNL     1      -0.610  51.016 -21.916  1.00  0.00     0.016 C 
HETATM   17  C20 UNL     1      -2.672  52.106 -22.753  1.00  0.00     0.017 C 
HETATM   18  C21 UNL     1      -3.021  52.687 -24.123  1.00  0.00     0.080 C 
HETATM   19  C22 UNL     1      -2.244  52.220 -25.332  1.00  0.00     0.135 C 
HETATM   20  O3  UNL     1      -2.482  52.721 -26.434  1.00  0.00    -0.297 OA
HETATM   21  C23 UNL     1      -1.167  51.157 -25.157  1.00  0.00     0.017 C 
HETATM   22  C24 UNL     1       0.133  51.896 -24.795  1.00  0.00     0.023 C 
HETATM   23  C25 UNL     1      -0.905  50.457 -26.514  1.00  0.00     0.023 C 
HETATM   24  C26 UNL     1      -1.660  50.113 -24.084  1.00  0.00     0.009 C 
HETATM   25  C27 UNL     1      -2.845  49.285 -24.655  1.00  0.00     0.007 C 
HETATM   26  C28 UNL     1      -3.573  48.346 -23.692  1.00  0.00     0.011 C 
HETATM   27  C29 UNL     1      -4.047  49.021 -22.376  1.00  0.00    -0.028 C 
HETATM   28  C30 UNL     1      -5.114  50.083 -22.746  1.00  0.00     0.016 C 
HETATM   29  C31 UNL     1      -4.235  46.174 -19.441  1.00  0.00     0.024 C 
HETATM   30  C32 UNL     1      -4.682  44.792 -19.945  1.00  0.00     0.029 C 
ENDROOT
BRANCH   1  31
HETATM   31  C3  UNL     1      -3.412  43.139 -18.501  1.00  0.00     0.267 C 
HETATM   32  O2  UNL     1      -2.981  42.131 -19.045  1.00  0.00    -0.264 OA
BRANCH  31  33
HETATM   33  O1  UNL     1      -2.725  43.863 -17.571  1.00  0.00    -0.321 OA
BRANCH  33  34
HETATM   34  C2  UNL     1      -1.996  43.074 -16.623  1.00  0.00     0.174 C 
HETATM   35  C1  UNL     1      -1.847  43.882 -15.348  1.00  0.00     0.034 C 
ENDBRANCH  33  34
ENDBRANCH  31  33
ENDBRANCH   1  31
TORSDOF 3
ENDMDL
MODEL 7
REMARK minimizedAffinity -8.35358047
REMARK  3 active torsions:
REMARK  status: ('A' for Active; 'I' for Inactive)
REMARK    1  A    between atoms: C2_2  and  O1_3 
REMARK    2  A    between atoms: O1_3  and  C3_4 
REMARK    3  A    between atoms: C3_4  and  C4_6 
ROOT
HETATM    1  C4  UNL     1     -11.169  46.831 -27.755  1.00  0.00     0.045 C 
HETATM    2  C5  UNL     1     -12.596  47.249 -27.358  1.00  0.00     0.026 C 
HETATM    3  C6  UNL     1     -11.004  45.291 -27.699  1.00  0.00     0.020 C 
HETATM    4  C7  UNL     1     -10.424  44.804 -26.371  1.00  0.00     0.011 C 
HETATM    5  C8  UNL     1      -8.997  45.363 -26.100  1.00  0.00    -0.036 C 
HETATM    6  C9  UNL     1      -7.958  44.406 -26.742  1.00  0.00     0.016 C 
HETATM    7  C10 UNL     1      -8.766  45.373 -24.569  1.00  0.00     0.011 C 
HETATM    8  C11 UNL     1      -7.539  46.178 -24.107  1.00  0.00     0.015 C 
HETATM    9  C12 UNL     1      -7.501  47.656 -24.610  1.00  0.00    -0.013 C 
HETATM   10  C13 UNL     1      -8.714  48.420 -24.008  1.00  0.00     0.021 C 
HETATM   11  C14 UNL     1      -7.655  47.549 -26.130  1.00  0.00    -0.070 C 
HETATM   12  C15 UNL     1      -6.689  47.948 -26.970  1.00  0.00    -0.022 C 
HETATM   13  C16 UNL     1      -5.339  48.417 -26.568  1.00  0.00     0.033 C 
HETATM   14  C17 UNL     1      -4.920  48.094 -25.098  1.00  0.00     0.007 C 
HETATM   15  C18 UNL     1      -3.518  48.816 -24.765  1.00  0.00    -0.034 C 
HETATM   16  C19 UNL     1      -2.580  48.530 -25.995  1.00  0.00     0.016 C 
HETATM   17  C20 UNL     1      -2.785  48.164 -23.552  1.00  0.00     0.017 C 
HETATM   18  C21 UNL     1      -2.379  49.035 -22.364  1.00  0.00     0.080 C 
HETATM   19  C22 UNL     1      -2.202  50.521 -22.577  1.00  0.00     0.135 C 
HETATM   20  O3  UNL     1      -1.824  51.225 -21.636  1.00  0.00    -0.297 OA
HETATM   21  C23 UNL     1      -2.473  51.111 -23.955  1.00  0.00     0.017 C 
HETATM   22  C24 UNL     1      -1.163  50.993 -24.754  1.00  0.00     0.023 C 
HETATM   23  C25 UNL     1      -2.765  52.626 -23.820  1.00  0.00     0.023 C 
HETATM   24  C26 UNL     1      -3.708  50.364 -24.587  1.00  0.00     0.009 C 
HETATM   25  C27 UNL     1      -5.005  50.735 -23.814  1.00  0.00     0.007 C 
HETATM   26  C28 UNL     1      -6.278  49.966 -24.170  1.00  0.00     0.011 C 
HETATM   27  C29 UNL     1      -6.123  48.421 -24.138  1.00  0.00    -0.028 C 
HETATM   28  C30 UNL     1      -5.828  48.005 -22.674  1.00  0.00     0.016 C 
HETATM   29  C31 UNL     1      -8.834  46.781 -26.730  1.00  0.00     0.024 C 
HETATM   30  C32 UNL     1     -10.168  47.542 -26.794  1.00  0.00     0.029 C 
ENDROOT
BRANCH   1  31
HETATM   31  C3  UNL     1     -10.933  47.297 -29.199  1.00  0.00     0.267 C 
HETATM   32  O2  UNL     1     -11.639  47.018 -30.158  1.00  0.00    -0.264 OA
BRANCH  31  33
HETATM   33  O1  UNL     1      -9.820  48.083 -29.269  1.00  0.00    -0.321 OA
BRANCH  33  34
HETATM   34  C2  UNL     1      -9.159  48.068 -30.540  1.00  0.00     0.174 C 
HETATM   35  C1  UNL     1      -8.706  49.480 -30.858  1.00  0.00     0.034 C 
ENDBRANCH  33  34
ENDBRANCH  31  33
ENDBRANCH   1  31
TORSDOF 3
ENDMDL
MODEL 8
REMARK minimizedAffinity -8.31385612
REMARK  3 active torsions:
REMARK  status: ('A' for Active; 'I' for Inactive)
REMARK    1  A    between atoms: C2_2  and  O1_3 
REMARK    2  A    between atoms: O1_3  and  C3_4 
REMARK    3  A    between atoms: C3_4  and  C4_6 
ROOT
HETATM    1  C4  UNL     1      -6.717  45.773 -21.489  1.00  0.00     0.045 C 
HETATM    2  C5  UNL     1      -7.756  44.923 -22.240  1.00  0.00     0.026 C 
HETATM    3  C6  UNL     1      -7.389  46.621 -20.379  1.00  0.00     0.020 C 
HETATM    4  C7  UNL     1      -7.731  48.039 -20.840  1.00  0.00     0.011 C 
HETATM    5  C8  UNL     1      -6.470  48.854 -21.250  1.00  0.00    -0.036 C 
HETATM    6  C9  UNL     1      -5.900  49.555 -19.989  1.00  0.00     0.016 C 
HETATM    7  C10 UNL     1      -6.910  49.947 -22.255  1.00  0.00     0.011 C 
HETATM    8  C11 UNL     1      -5.756  50.642 -22.998  1.00  0.00     0.015 C 
HETATM    9  C12 UNL     1      -4.778  49.674 -23.736  1.00  0.00    -0.013 C 
HETATM   10  C13 UNL     1      -5.563  48.927 -24.852  1.00  0.00     0.021 C 
HETATM   11  C14 UNL     1      -4.333  48.681 -22.659  1.00  0.00    -0.070 C 
HETATM   12  C15 UNL     1      -3.055  48.587 -22.264  1.00  0.00    -0.022 C 
HETATM   13  C16 UNL     1      -1.952  49.478 -22.706  1.00  0.00     0.033 C 
HETATM   14  C17 UNL     1      -2.391  50.805 -23.403  1.00  0.00     0.007 C 
HETATM   15  C18 UNL     1      -1.093  51.569 -23.976  1.00  0.00    -0.034 C 
HETATM   16  C19 UNL     1      -0.023  51.532 -22.824  1.00  0.00     0.016 C 
HETATM   17  C20 UNL     1      -1.354  53.088 -24.220  1.00  0.00     0.017 C 
HETATM   18  C21 UNL     1      -1.087  53.683 -25.603  1.00  0.00     0.080 C 
HETATM   19  C22 UNL     1      -0.117  52.979 -26.524  1.00  0.00     0.135 C 
HETATM   20  O3  UNL     1       0.145  53.479 -27.621  1.00  0.00    -0.297 OA
HETATM   21  C23 UNL     1       0.532  51.679 -26.066  1.00  0.00     0.017 C 
HETATM   22  C24 UNL     1       1.796  52.067 -25.278  1.00  0.00     0.023 C 
HETATM   23  C25 UNL     1       1.017  50.880 -27.300  1.00  0.00     0.023 C 
HETATM   24  C26 UNL     1      -0.530  50.847 -25.252  1.00  0.00     0.009 C 
HETATM   25  C27 UNL     1      -1.646  50.334 -26.205  1.00  0.00     0.007 C 
HETATM   26  C28 UNL     1      -2.860  49.659 -25.565  1.00  0.00     0.011 C 
HETATM   27  C29 UNL     1      -3.533  50.488 -24.438  1.00  0.00    -0.028 C 
HETATM   28  C30 UNL     1      -4.111  51.777 -25.078  1.00  0.00     0.016 C 
HETATM   29  C31 UNL     1      -5.377  47.914 -21.844  1.00  0.00     0.024 C 
HETATM   30  C32 UNL     1      -5.985  46.678 -22.526  1.00  0.00     0.029 C 
ENDROOT
BRANCH   1  31
HETATM   31  C3  UNL     1      -5.717  44.811 -20.831  1.00  0.00     0.267 C 
HETATM   32  O2  UNL     1      -5.987  43.705 -20.381  1.00  0.00    -0.264 OA
BRANCH  31  33
HETATM   33  O1  UNL     1      -4.466  45.357 -20.824  1.00  0.00    -0.321 OA
BRANCH  33  34
HETATM   34  C2  UNL     1      -3.775  45.245 -19.574  1.00  0.00     0.174 C 
HETATM   35  C1  UNL     1      -3.551  46.642 -19.028  1.00  0.00     0.034 C 
ENDBRANCH  33  34
ENDBRANCH  31  33
ENDBRANCH   1  31
TORSDOF 3
ENDMDL
MODEL 9
REMARK minimizedAffinity -8.24026966
REMARK  3 active torsions:
REMARK  status: ('A' for Active; 'I' for Inactive)
REMARK    1  A    between atoms: C2_2  and  O1_3 
REMARK    2  A    between atoms: O1_3  and  C3_4 
REMARK    3  A    between atoms: C3_4  and  C4_6 
ROOT
HETATM    1  C4  UNL     1      -8.320  47.453 -25.379  1.00  0.00     0.045 C 
HETATM    2  C5  UNL     1      -9.450  48.180 -26.130  1.00  0.00     0.026 C 
HETATM    3  C6  UNL     1      -8.890  46.531 -24.272  1.00  0.00     0.020 C 
HETATM    4  C7  UNL     1      -8.924  47.203 -22.899  1.00  0.00     0.011 C 
HETATM    5  C8  UNL     1      -7.507  47.598 -22.391  1.00  0.00    -0.036 C 
HETATM    6  C9  UNL     1      -6.898  46.392 -21.629  1.00  0.00     0.016 C 
HETATM    7  C10 UNL     1      -7.662  48.773 -21.395  1.00  0.00     0.011 C 
HETATM    8  C11 UNL     1      -6.349  49.491 -21.035  1.00  0.00     0.015 C 
HETATM    9  C12 UNL     1      -5.527  50.002 -22.260  1.00  0.00    -0.013 C 
HETATM   10  C13 UNL     1      -6.364  51.079 -23.008  1.00  0.00     0.021 C 
HETATM   11  C14 UNL     1      -5.353  48.768 -23.149  1.00  0.00    -0.070 C 
HETATM   12  C15 UNL     1      -4.145  48.248 -23.412  1.00  0.00    -0.022 C 
HETATM   13  C16 UNL     1      -2.866  48.699 -22.808  1.00  0.00     0.033 C 
HETATM   14  C17 UNL     1      -2.996  49.601 -21.540  1.00  0.00     0.007 C 
HETATM   15  C18 UNL     1      -1.541  50.147 -21.114  1.00  0.00    -0.034 C 
HETATM   16  C19 UNL     1      -0.577  48.906 -21.174  1.00  0.00     0.016 C 
HETATM   17  C20 UNL     1      -1.490  50.610 -19.625  1.00  0.00     0.017 C 
HETATM   18  C21 UNL     1      -1.024  52.028 -19.295  1.00  0.00     0.080 C 
HETATM   19  C22 UNL     1      -0.147  52.755 -20.289  1.00  0.00     0.135 C 
HETATM   20  O3  UNL     1       0.278  53.880 -20.009  1.00  0.00    -0.297 OA
HETATM   21  C23 UNL     1       0.211  52.073 -21.603  1.00  0.00     0.017 C 
HETATM   22  C24 UNL     1       1.470  51.229 -21.337  1.00  0.00     0.023 C 
HETATM   23  C25 UNL     1       0.616  53.142 -22.647  1.00  0.00     0.023 C 
HETATM   24  C26 UNL     1      -1.042  51.259 -22.104  1.00  0.00     0.009 C 
HETATM   25  C27 UNL     1      -2.169  52.236 -22.540  1.00  0.00     0.007 C 
HETATM   26  C28 UNL     1      -3.530  51.629 -22.886  1.00  0.00     0.011 C 
HETATM   27  C29 UNL     1      -4.106  50.686 -21.794  1.00  0.00    -0.028 C 
HETATM   28  C30 UNL     1      -4.384  51.540 -20.530  1.00  0.00     0.016 C 
HETATM   29  C31 UNL     1      -6.575  47.960 -23.589  1.00  0.00     0.024 C 
HETATM   30  C32 UNL     1      -7.362  48.528 -24.782  1.00  0.00     0.029 C 
ENDROOT
BRANCH   1  31
HETATM   31  C3  UNL     1      -7.568  46.586 -26.400  1.00  0.00     0.267 C 
HETATM   32  O2  UNL     1      -7.864  45.440 -26.711  1.00  0.00    -0.264 OA
BRANCH  31  33
HETATM   33  O1  UNL     1      -6.515  47.276 -26.927  1.00  0.00    -0.321 OA
BRANCH  33  34
HETATM   34  C2  UNL     1      -6.473  47.295 -28.358  1.00  0.00     0.174 C 
HETATM   35  C1  UNL     1      -5.201  48.002 -28.786  1.00  0.00     0.034 C 
ENDBRANCH  33  34
ENDBRANCH  31  33
ENDBRANCH   1  31
TORSDOF 3
ENDMDL
