MODEL 1
REMARK minimizedAffinity -9.04856396
REMARK  4 active torsions:
REMARK  status: ('A' for Active; 'I' for Inactive)
REMARK    1  A    between atoms: C2_2  and  C3_3 
REMARK    2  A    between atoms: C2_2  and  C9_9 
REMARK    3  A    between atoms: C3_3  and  C4_4 
REMARK    4  A    between atoms: C4_4  and  C5_5 
ROOT
HETATM    1  C9  UNL     1      -3.456   7.415  14.838  1.00  0.00     0.018 C 
HETATM    2  C10 UNL     1      -3.422   5.881  15.144  1.00  0.00     0.010 C 
HETATM    3  C11 UNL     1      -2.494   5.229  14.107  1.00  0.00     0.011 C 
HETATM    4  C12 UNL     1      -1.520   6.345  13.708  1.00  0.00    -0.032 C 
HETATM    5  C13 UNL     1      -0.535   6.537  14.915  1.00  0.00     0.016 C 
HETATM    6  C14 UNL     1      -2.525   7.531  13.593  1.00  0.00     0.002 C 
HETATM    7  C15 UNL     1      -1.752   8.828  13.362  1.00  0.00     0.006 C 
HETATM    8  C16 UNL     1      -0.933   8.736  12.065  1.00  0.00     0.006 C 
HETATM    9  C17 UNL     1       0.009   7.503  11.986  1.00  0.00     0.003 C 
HETATM   10  C18 UNL     1       0.965   7.484  10.698  1.00  0.00    -0.035 C 
HETATM   11  C19 UNL     1       0.220   8.041   9.462  1.00  0.00     0.016 C 
HETATM   12  C20 UNL     1       2.147   8.449  11.032  1.00  0.00     0.017 C 
HETATM   13  C21 UNL     1       3.292   8.437  10.040  1.00  0.00     0.080 C 
HETATM   14  C22 UNL     1       3.831   7.036   9.891  1.00  0.00     0.135 C 
HETATM   15  O1  UNL     1       5.042   6.822   9.993  1.00  0.00    -0.297 OA
HETATM   16  C23 UNL     1       2.834   5.940   9.511  1.00  0.00     0.017 C 
HETATM   17  C24 UNL     1       3.533   4.564   9.634  1.00  0.00     0.023 C 
HETATM   18  C25 UNL     1       2.514   6.103   8.007  1.00  0.00     0.023 C 
HETATM   19  C26 UNL     1       1.529   6.026  10.409  1.00  0.00     0.009 C 
HETATM   20  C27 UNL     1       1.656   5.278  11.754  1.00  0.00     0.007 C 
HETATM   21  C28 UNL     1       0.302   5.003  12.422  1.00  0.00     0.011 C 
HETATM   22  C29 UNL     1      -0.737   6.156  12.322  1.00  0.00    -0.032 C 
HETATM   23  C30 UNL     1      -1.727   5.786  11.179  1.00  0.00     0.016 C 
ENDROOT
BRANCH   1  24
HETATM   24  C2  UNL     1      -4.861   8.031  14.720  1.00  0.00    -0.084 C 
HETATM   25  C1  UNL     1      -5.250   9.152  15.360  1.00  0.00     0.014 C 
BRANCH  24  26
HETATM   26  C3  UNL     1      -5.867   7.383  13.782  1.00  0.00     0.037 C 
BRANCH  26  27
HETATM   27  C4  UNL     1      -5.336   6.095  13.146  1.00  0.00     0.031 C 
BRANCH  27  28
HETATM   28  C5  UNL     1      -6.376   5.004  13.159  1.00  0.00    -0.024 C 
HETATM   29  C6  UNL     1      -6.267   3.751  12.679  1.00  0.00    -0.091 C 
HETATM   30  C7  UNL     1      -5.056   3.194  11.982  1.00  0.00     0.042 C 
HETATM   31  C8  UNL     1      -7.412   2.781  12.799  1.00  0.00     0.042 C 
ENDBRANCH  27  28
ENDBRANCH  26  27
ENDBRANCH  24  26
ENDBRANCH   1  24
TORSDOF 4
ENDMDL
MODEL 2
REMARK minimizedAffinity -8.97204971
REMARK  4 active torsions:
REMARK  status: ('A' for Active; 'I' for Inactive)
REMARK    1  A    between atoms: C2_2  and  C3_3 
REMARK    2  A    between atoms: C2_2  and  C9_9 
REMARK    3  A    between atoms: C3_3  and  C4_4 
REMARK    4  A    between atoms: C4_4  and  C5_5 
ROOT
HETATM    1  C9  UNL     1       1.088   6.226  11.529  1.00  0.00     0.018 C 
HETATM    2  C10 UNL     1       1.078   4.663  11.464  1.00  0.00     0.010 C 
HETATM    3  C11 UNL     1      -0.151   4.180  12.249  1.00  0.00     0.011 C 
HETATM    4  C12 UNL     1      -1.148   5.342  12.155  1.00  0.00    -0.032 C 
HETATM    5  C13 UNL     1      -1.708   5.337  10.688  1.00  0.00     0.016 C 
HETATM    6  C14 UNL     1      -0.173   6.534  12.392  1.00  0.00     0.002 C 
HETATM    7  C15 UNL     1      -0.920   7.849  12.175  1.00  0.00     0.006 C 
HETATM    8  C16 UNL     1      -2.099   7.960  13.153  1.00  0.00     0.006 C 
HETATM    9  C17 UNL     1      -3.075   6.753  13.123  1.00  0.00     0.003 C 
HETATM   10  C18 UNL     1      -4.379   6.934  14.040  1.00  0.00    -0.035 C 
HETATM   11  C19 UNL     1      -4.023   7.682  15.347  1.00  0.00     0.016 C 
HETATM   12  C20 UNL     1      -5.358   7.831  13.215  1.00  0.00     0.017 C 
HETATM   13  C21 UNL     1      -6.750   7.971  13.795  1.00  0.00     0.080 C 
HETATM   14  C22 UNL     1      -7.372   6.610  13.980  1.00  0.00     0.135 C 
HETATM   15  O1  UNL     1      -8.502   6.378  13.543  1.00  0.00    -0.297 OA
HETATM   16  C23 UNL     1      -6.589   5.591  14.811  1.00  0.00     0.017 C 
HETATM   17  C24 UNL     1      -7.280   4.210  14.689  1.00  0.00     0.023 C 
HETATM   18  C25 UNL     1      -6.737   5.991  16.298  1.00  0.00     0.023 C 
HETATM   19  C26 UNL     1      -5.070   5.538  14.358  1.00  0.00     0.009 C 
HETATM   20  C27 UNL     1      -4.815   4.586  13.170  1.00  0.00     0.007 C 
HETATM   21  C28 UNL     1      -3.336   4.213  13.002  1.00  0.00     0.011 C 
HETATM   22  C29 UNL     1      -2.325   5.372  13.243  1.00  0.00    -0.032 C 
HETATM   23  C30 UNL     1      -1.750   5.190  14.678  1.00  0.00     0.016 C 
ENDROOT
BRANCH   1  24
HETATM   24  C2  UNL     1       2.415   6.858  11.981  1.00  0.00    -0.084 C 
HETATM   25  C1  UNL     1       2.633   7.358  13.214  1.00  0.00     0.014 C 
BRANCH  24  26
HETATM   26  C3  UNL     1       3.585   6.877  11.009  1.00  0.00     0.037 C 
BRANCH  26  27
HETATM   27  C4  UNL     1       3.500   8.032  10.006  1.00  0.00     0.031 C 
BRANCH  27  28
HETATM   28  C5  UNL     1       3.141   7.540   8.628  1.00  0.00    -0.024 C 
HETATM   29  C6  UNL     1       1.962   7.660   7.988  1.00  0.00    -0.091 C 
HETATM   30  C7  UNL     1       0.728   8.300   8.561  1.00  0.00     0.042 C 
HETATM   31  C8  UNL     1       1.789   7.121   6.593  1.00  0.00     0.042 C 
ENDBRANCH  27  28
ENDBRANCH  26  27
ENDBRANCH  24  26
ENDBRANCH   1  24
TORSDOF 4
ENDMDL
MODEL 3
REMARK minimizedAffinity -8.85140228
REMARK  4 active torsions:
REMARK  status: ('A' for Active; 'I' for Inactive)
REMARK    1  A    between atoms: C2_2  and  C3_3 
REMARK    2  A    between atoms: C2_2  and  C9_9 
REMARK    3  A    between atoms: C3_3  and  C4_4 
REMARK    4  A    between atoms: C4_4  and  C5_5 
ROOT
HETATM    1  C9  UNL     1      -6.507   6.563  13.987  1.00  0.00     0.018 C 
HETATM    2  C10 UNL     1      -6.722   7.915  14.745  1.00  0.00     0.010 C 
HETATM    3  C11 UNL     1      -5.336   8.436  15.154  1.00  0.00     0.011 C 
HETATM    4  C12 UNL     1      -4.380   7.839  14.113  1.00  0.00    -0.032 C 
HETATM    5  C13 UNL     1      -4.616   8.631  12.778  1.00  0.00     0.016 C 
HETATM    6  C14 UNL     1      -4.958   6.394  14.035  1.00  0.00     0.002 C 
HETATM    7  C15 UNL     1      -4.259   5.630  12.911  1.00  0.00     0.006 C 
HETATM    8  C16 UNL     1      -2.748   5.554  13.179  1.00  0.00     0.006 C 
HETATM    9  C17 UNL     1      -2.069   6.929  13.426  1.00  0.00     0.003 C 
HETATM   10  C18 UNL     1      -0.472   6.861  13.564  1.00  0.00    -0.035 C 
HETATM   11  C19 UNL     1      -0.047   5.577  14.316  1.00  0.00     0.016 C 
HETATM   12  C20 UNL     1       0.078   6.777  12.104  1.00  0.00     0.017 C 
HETATM   13  C21 UNL     1       1.581   6.910  11.970  1.00  0.00     0.080 C 
HETATM   14  C22 UNL     1       2.042   8.205  12.593  1.00  0.00     0.135 C 
HETATM   15  O1  UNL     1       2.774   8.971  11.963  1.00  0.00    -0.297 OA
HETATM   16  C23 UNL     1       1.649   8.458  14.050  1.00  0.00     0.017 C 
HETATM   17  C24 UNL     1       2.016   9.917  14.420  1.00  0.00     0.023 C 
HETATM   18  C25 UNL     1       2.555   7.572  14.937  1.00  0.00     0.023 C 
HETATM   19  C26 UNL     1       0.109   8.155  14.282  1.00  0.00     0.009 C 
HETATM   20  C27 UNL     1      -0.810   9.350  13.951  1.00  0.00     0.007 C 
HETATM   21  C28 UNL     1      -2.214   9.216  14.555  1.00  0.00     0.011 C 
HETATM   22  C29 UNL     1      -2.827   7.786  14.509  1.00  0.00    -0.032 C 
HETATM   23  C30 UNL     1      -2.642   7.161  15.922  1.00  0.00     0.016 C 
ENDROOT
BRANCH   1  24
HETATM   24  C2  UNL     1      -7.354   5.383  14.494  1.00  0.00    -0.084 C 
HETATM   25  C1  UNL     1      -7.468   5.037  15.792  1.00  0.00     0.014 C 
BRANCH  24  26
HETATM   26  C3  UNL     1      -8.165   4.580  13.489  1.00  0.00     0.037 C 
BRANCH  26  27
HETATM   27  C4  UNL     1      -7.463   3.287  13.062  1.00  0.00     0.031 C 
BRANCH  27  28
HETATM   28  C5  UNL     1      -6.407   3.551  12.021  1.00  0.00    -0.024 C 
HETATM   29  C6  UNL     1      -5.774   2.656  11.239  1.00  0.00    -0.091 C 
HETATM   30  C7  UNL     1      -5.983   1.168  11.283  1.00  0.00     0.042 C 
HETATM   31  C8  UNL     1      -4.752   3.108  10.230  1.00  0.00     0.042 C 
ENDBRANCH  27  28
ENDBRANCH  26  27
ENDBRANCH  24  26
ENDBRANCH   1  24
TORSDOF 4
ENDMDL
MODEL 4
REMARK minimizedAffinity -8.65406322
REMARK  4 active torsions:
REMARK  status: ('A' for Active; 'I' for Inactive)
REMARK    1  A    between atoms: C2_2  and  C3_3 
REMARK    2  A    between atoms: C2_2  and  C9_9 
REMARK    3  A    between atoms: C3_3  and  C4_4 
REMARK    4  A    between atoms: C4_4  and  C5_5 
ROOT
HETATM    1  C9  UNL     1      -1.222   4.649  12.230  1.00  0.00     0.018 C 
HETATM    2  C10 UNL     1      -0.324   5.462  11.240  1.00  0.00     0.010 C 
HETATM    3  C11 UNL     1      -0.544   6.952  11.540  1.00  0.00     0.011 C 
HETATM    4  C12 UNL     1      -0.953   6.989  13.019  1.00  0.00    -0.032 C 
HETATM    5  C13 UNL     1       0.346   6.704  13.853  1.00  0.00     0.016 C 
HETATM    6  C14 UNL     1      -1.930   5.776  13.043  1.00  0.00     0.002 C 
HETATM    7  C15 UNL     1      -2.354   5.497  14.484  1.00  0.00     0.006 C 
HETATM    8  C16 UNL     1      -3.061   6.725  15.078  1.00  0.00     0.006 C 
HETATM    9  C17 UNL     1      -2.249   8.045  14.980  1.00  0.00     0.003 C 
HETATM   10  C18 UNL     1      -2.926   9.294  15.725  1.00  0.00    -0.035 C 
HETATM   11  C19 UNL     1      -4.465   9.252  15.565  1.00  0.00     0.016 C 
HETATM   12  C20 UNL     1      -2.588   9.120  17.241  1.00  0.00     0.017 C 
HETATM   13  C21 UNL     1      -2.951  10.296  18.124  1.00  0.00     0.080 C 
HETATM   14  C22 UNL     1      -2.284  11.549  17.614  1.00  0.00     0.135 C 
HETATM   15  O1  UNL     1      -1.639  12.266  18.383  1.00  0.00    -0.297 OA
HETATM   16  C23 UNL     1      -2.534  11.930  16.153  1.00  0.00     0.017 C 
HETATM   17  C24 UNL     1      -1.591  13.098  15.773  1.00  0.00     0.023 C 
HETATM   18  C25 UNL     1      -3.964  12.513  16.062  1.00  0.00     0.023 C 
HETATM   19  C26 UNL     1      -2.341  10.676  15.201  1.00  0.00     0.009 C 
HETATM   20  C27 UNL     1      -0.876  10.451  14.767  1.00  0.00     0.007 C 
HETATM   21  C28 UNL     1      -0.743   9.530  13.547  1.00  0.00     0.011 C 
HETATM   22  C29 UNL     1      -1.708   8.310  13.525  1.00  0.00    -0.032 C 
HETATM   23  C30 UNL     1      -2.882   8.670  12.568  1.00  0.00     0.016 C 
ENDROOT
BRANCH   1  24
HETATM   24  C2  UNL     1      -2.124   3.586  11.579  1.00  0.00    -0.084 C 
HETATM   25  C1  UNL     1      -1.717   2.340  11.267  1.00  0.00     0.014 C 
BRANCH  24  26
HETATM   26  C3  UNL     1      -3.583   3.924  11.318  1.00  0.00     0.037 C 
BRANCH  26  27
HETATM   27  C4  UNL     1      -4.525   3.321  12.366  1.00  0.00     0.031 C 
BRANCH  27  28
HETATM   28  C5  UNL     1      -5.647   4.267  12.708  1.00  0.00    -0.024 C 
HETATM   29  C6  UNL     1      -6.939   3.968  12.942  1.00  0.00    -0.091 C 
HETATM   30  C7  UNL     1      -7.534   2.589  12.870  1.00  0.00     0.042 C 
HETATM   31  C8  UNL     1      -7.925   5.050  13.294  1.00  0.00     0.042 C 
ENDBRANCH  27  28
ENDBRANCH  26  27
ENDBRANCH  24  26
ENDBRANCH   1  24
TORSDOF 4
ENDMDL
MODEL 5
REMARK minimizedAffinity -8.64064503
REMARK  4 active torsions:
REMARK  status: ('A' for Active; 'I' for Inactive)
REMARK    1  A    between atoms: C2_2  and  C3_3 
REMARK    2  A    between atoms: C2_2  and  C9_9 
REMARK    3  A    between atoms: C3_3  and  C4_4 
REMARK    4  A    between atoms: C4_4  and  C5_5 
ROOT
HETATM    1  C9  UNL     1      -2.484   8.208  13.724  1.00  0.00     0.018 C 
HETATM    2  C10 UNL     1      -2.090   7.961  15.218  1.00  0.00     0.010 C 
HETATM    3  C11 UNL     1      -0.628   7.490  15.234  1.00  0.00     0.011 C 
HETATM    4  C12 UNL     1      -0.014   8.100  13.967  1.00  0.00    -0.032 C 
HETATM    5  C13 UNL     1       0.162   9.635  14.247  1.00  0.00     0.016 C 
HETATM    6  C14 UNL     1      -1.176   7.829  12.965  1.00  0.00     0.002 C 
HETATM    7  C15 UNL     1      -0.865   8.511  11.634  1.00  0.00     0.006 C 
HETATM    8  C16 UNL     1       0.445   7.963  11.048  1.00  0.00     0.006 C 
HETATM    9  C17 UNL     1       1.661   8.037  12.010  1.00  0.00     0.003 C 
HETATM   10  C18 UNL     1       3.055   7.596  11.349  1.00  0.00    -0.035 C 
HETATM   11  C19 UNL     1       2.841   6.417  10.370  1.00  0.00     0.016 C 
HETATM   12  C20 UNL     1       3.546   8.831  10.527  1.00  0.00     0.017 C 
HETATM   13  C21 UNL     1       4.952   8.724   9.976  1.00  0.00     0.080 C 
HETATM   14  C22 UNL     1       5.928   8.462  11.096  1.00  0.00     0.135 C 
HETATM   15  O1  UNL     1       6.941   9.155  11.211  1.00  0.00    -0.297 OA
HETATM   16  C23 UNL     1       5.653   7.254  11.994  1.00  0.00     0.017 C 
HETATM   17  C24 UNL     1       6.625   7.297  13.199  1.00  0.00     0.023 C 
HETATM   18  C25 UNL     1       6.044   5.985  11.200  1.00  0.00     0.023 C 
HETATM   19  C26 UNL     1       4.135   7.224  12.454  1.00  0.00     0.009 C 
HETATM   20  C27 UNL     1       3.857   8.072  13.713  1.00  0.00     0.007 C 
HETATM   21  C28 UNL     1       2.527   7.723  14.394  1.00  0.00     0.011 C 
HETATM   22  C29 UNL     1       1.340   7.432  13.429  1.00  0.00    -0.032 C 
HETATM   23  C30 UNL     1       1.190   5.885  13.338  1.00  0.00     0.016 C 
ENDROOT
BRANCH   1  24
HETATM   24  C2  UNL     1      -3.782   7.522  13.263  1.00  0.00    -0.084 C 
HETATM   25  C1  UNL     1      -4.969   8.151  13.149  1.00  0.00     0.014 C 
BRANCH  24  26
HETATM   26  C3  UNL     1      -3.731   6.059  12.852  1.00  0.00     0.037 C 
BRANCH  26  27
HETATM   27  C4  UNL     1      -5.015   5.302  13.204  1.00  0.00     0.031 C 
BRANCH  27  28
HETATM   28  C5  UNL     1      -5.116   4.004  12.445  1.00  0.00    -0.024 C 
HETATM   29  C6  UNL     1      -6.171   3.171  12.367  1.00  0.00    -0.091 C 
HETATM   30  C7  UNL     1      -7.482   3.367  13.076  1.00  0.00     0.042 C 
HETATM   31  C8  UNL     1      -6.098   1.917  11.536  1.00  0.00     0.042 C 
ENDBRANCH  27  28
ENDBRANCH  26  27
ENDBRANCH  24  26
ENDBRANCH   1  24
TORSDOF 4
ENDMDL
MODEL 6
REMARK minimizedAffinity -8.52560806
REMARK  4 active torsions:
REMARK  status: ('A' for Active; 'I' for Inactive)
REMARK    1  A    between atoms: C2_2  and  C3_3 
REMARK    2  A    between atoms: C2_2  and  C9_9 
REMARK    3  A    between atoms: C3_3  and  C4_4 
REMARK    4  A    between atoms: C4_4  and  C5_5 
ROOT
HETATM    1  C9  UNL     1      -2.983   4.262  12.691  1.00  0.00     0.018 C 
HETATM    2  C10 UNL     1      -2.650   3.911  11.204  1.00  0.00     0.010 C 
HETATM    3  C11 UNL     1      -1.478   4.806  10.773  1.00  0.00     0.011 C 
HETATM    4  C12 UNL     1      -0.732   5.115  12.078  1.00  0.00    -0.032 C 
HETATM    5  C13 UNL     1       0.027   3.802  12.485  1.00  0.00     0.016 C 
HETATM    6  C14 UNL     1      -1.950   5.386  13.010  1.00  0.00     0.002 C 
HETATM    7  C15 UNL     1      -1.460   5.558  14.447  1.00  0.00     0.006 C 
HETATM    8  C16 UNL     1      -0.483   6.741  14.537  1.00  0.00     0.006 C 
HETATM    9  C17 UNL     1       0.709   6.668  13.545  1.00  0.00     0.003 C 
HETATM   10  C18 UNL     1       1.801   7.828  13.738  1.00  0.00    -0.035 C 
HETATM   11  C19 UNL     1       1.114   9.162  14.114  1.00  0.00     0.016 C 
HETATM   12  C20 UNL     1       2.690   7.379  14.942  1.00  0.00     0.017 C 
HETATM   13  C21 UNL     1       3.925   8.222  15.184  1.00  0.00     0.080 C 
HETATM   14  C22 UNL     1       4.774   8.263  13.938  1.00  0.00     0.135 C 
HETATM   15  O1  UNL     1       5.979   8.007  13.999  1.00  0.00    -0.297 OA
HETATM   16  C23 UNL     1       4.099   8.730  12.647  1.00  0.00     0.017 C 
HETATM   17  C24 UNL     1       5.063   8.483  11.461  1.00  0.00     0.023 C 
HETATM   18  C25 UNL     1       3.944  10.267  12.733  1.00  0.00     0.023 C 
HETATM   19  C26 UNL     1       2.704   8.003  12.441  1.00  0.00     0.009 C 
HETATM   20  C27 UNL     1       2.823   6.632  11.741  1.00  0.00     0.007 C 
HETATM   21  C28 UNL     1       1.490   6.127  11.173  1.00  0.00     0.011 C 
HETATM   22  C29 UNL     1       0.243   6.388  12.066  1.00  0.00    -0.032 C 
HETATM   23  C30 UNL     1      -0.489   7.633  11.484  1.00  0.00     0.016 C 
ENDROOT
BRANCH   1  24
HETATM   24  C2  UNL     1      -4.462   4.571  12.980  1.00  0.00    -0.084 C 
HETATM   25  C1  UNL     1      -4.893   5.684  13.605  1.00  0.00     0.014 C 
BRANCH  24  26
HETATM   26  C3  UNL     1      -5.522   3.599  12.485  1.00  0.00     0.037 C 
BRANCH  26  27
HETATM   27  C4  UNL     1      -6.896   3.856  13.112  1.00  0.00     0.031 C 
BRANCH  27  28
HETATM   28  C5  UNL     1      -7.828   4.530  12.139  1.00  0.00    -0.024 C 
HETATM   29  C6  UNL     1      -8.581   5.628  12.340  1.00  0.00    -0.091 C 
HETATM   30  C7  UNL     1      -8.664   6.396  13.630  1.00  0.00     0.042 C 
HETATM   31  C8  UNL     1      -9.445   6.178  11.236  1.00  0.00     0.042 C 
ENDBRANCH  27  28
ENDBRANCH  26  27
ENDBRANCH  24  26
ENDBRANCH   1  24
TORSDOF 4
ENDMDL
MODEL 7
REMARK minimizedAffinity -8.47961521
REMARK  4 active torsions:
REMARK  status: ('A' for Active; 'I' for Inactive)
REMARK    1  A    between atoms: C2_2  and  C3_3 
REMARK    2  A    between atoms: C2_2  and  C9_9 
REMARK    3  A    between atoms: C3_3  and  C4_4 
REMARK    4  A    between atoms: C4_4  and  C5_5 
ROOT
HETATM    1  C9  UNL     1      -1.796  10.114  16.294  1.00  0.00     0.018 C 
HETATM    2  C10 UNL     1      -0.626   9.364  15.575  1.00  0.00     0.010 C 
HETATM    3  C11 UNL     1      -1.190   8.033  15.053  1.00  0.00     0.011 C 
HETATM    4  C12 UNL     1      -2.685   8.306  14.843  1.00  0.00    -0.032 C 
HETATM    5  C13 UNL     1      -2.802   9.205  13.561  1.00  0.00     0.016 C 
HETATM    6  C14 UNL     1      -2.982   9.115  16.141  1.00  0.00     0.002 C 
HETATM    7  C15 UNL     1      -4.409   9.658  16.083  1.00  0.00     0.006 C 
HETATM    8  C16 UNL     1      -5.414   8.502  15.969  1.00  0.00     0.006 C 
HETATM    9  C17 UNL     1      -5.140   7.525  14.793  1.00  0.00     0.003 C 
HETATM   10  C18 UNL     1      -6.269   6.403  14.590  1.00  0.00    -0.035 C 
HETATM   11  C19 UNL     1      -6.810   5.925  15.958  1.00  0.00     0.016 C 
HETATM   12  C20 UNL     1      -7.435   7.106  13.822  1.00  0.00     0.017 C 
HETATM   13  C21 UNL     1      -8.535   6.187  13.334  1.00  0.00     0.080 C 
HETATM   14  C22 UNL     1      -7.953   5.106  12.456  1.00  0.00     0.135 C 
HETATM   15  O1  UNL     1      -8.440   4.878  11.347  1.00  0.00    -0.297 OA
HETATM   16  C23 UNL     1      -6.824   4.259  13.047  1.00  0.00     0.017 C 
HETATM   17  C24 UNL     1      -6.222   3.377  11.925  1.00  0.00     0.023 C 
HETATM   18  C25 UNL     1      -7.462   3.267  14.048  1.00  0.00     0.023 C 
HETATM   19  C26 UNL     1      -5.728   5.177  13.735  1.00  0.00     0.009 C 
HETATM   20  C27 UNL     1      -4.659   5.701  12.753  1.00  0.00     0.007 C 
HETATM   21  C28 UNL     1      -3.398   6.221  13.455  1.00  0.00     0.011 C 
HETATM   22  C29 UNL     1      -3.647   7.025  14.763  1.00  0.00    -0.032 C 
HETATM   23  C30 UNL     1      -3.374   6.061  15.955  1.00  0.00     0.016 C 
ENDROOT
BRANCH   1  24
HETATM   24  C2  UNL     1      -1.482  10.613  17.716  1.00  0.00    -0.084 C 
HETATM   25  C1  UNL     1      -2.418  10.855  18.655  1.00  0.00     0.014 C 
BRANCH  24  26
HETATM   26  C3  UNL     1      -0.028  10.794  18.123  1.00  0.00     0.037 C 
BRANCH  26  27
HETATM   27  C4  UNL     1       0.121  11.429  19.510  1.00  0.00     0.031 C 
BRANCH  27  28
HETATM   28  C5  UNL     1       1.053  10.632  20.384  1.00  0.00    -0.024 C 
HETATM   29  C6  UNL     1       2.000  11.094  21.222  1.00  0.00    -0.091 C 
HETATM   30  C7  UNL     1       2.342  12.545  21.425  1.00  0.00     0.042 C 
HETATM   31  C8  UNL     1       2.832  10.142  22.040  1.00  0.00     0.042 C 
ENDBRANCH  27  28
ENDBRANCH  26  27
ENDBRANCH  24  26
ENDBRANCH   1  24
TORSDOF 4
ENDMDL
MODEL 8
REMARK minimizedAffinity -8.41140747
REMARK  4 active torsions:
REMARK  status: ('A' for Active; 'I' for Inactive)
REMARK    1  A    between atoms: C2_2  and  C3_3 
REMARK    2  A    between atoms: C2_2  and  C9_9 
REMARK    3  A    between atoms: C3_3  and  C4_4 
REMARK    4  A    between atoms: C4_4  and  C5_5 
ROOT
HETATM    1  C9  UNL     1      -1.372   5.451  11.745  1.00  0.00     0.018 C 
HETATM    2  C10 UNL     1      -2.075   6.318  12.842  1.00  0.00     0.010 C 
HETATM    3  C11 UNL     1      -0.992   7.180  13.507  1.00  0.00     0.011 C 
HETATM    4  C12 UNL     1       0.086   7.343  12.427  1.00  0.00    -0.032 C 
HETATM    5  C13 UNL     1      -0.488   8.347  11.365  1.00  0.00     0.016 C 
HETATM    6  C14 UNL     1       0.119   5.884  11.879  1.00  0.00     0.002 C 
HETATM    7  C15 UNL     1       1.023   5.827  10.648  1.00  0.00     0.006 C 
HETATM    8  C16 UNL     1       2.450   6.260  11.016  1.00  0.00     0.006 C 
HETATM    9  C17 UNL     1       2.544   7.644  11.712  1.00  0.00     0.003 C 
HETATM   10  C18 UNL     1       4.043   8.157  11.967  1.00  0.00    -0.035 C 
HETATM   11  C19 UNL     1       4.963   6.972  12.346  1.00  0.00     0.016 C 
HETATM   12  C20 UNL     1       4.531   8.737  10.601  1.00  0.00     0.017 C 
HETATM   13  C21 UNL     1       5.855   9.471  10.646  1.00  0.00     0.080 C 
HETATM   14  C22 UNL     1       5.792  10.589  11.658  1.00  0.00     0.135 C 
HETATM   15  O1  UNL     1       6.142  11.729  11.347  1.00  0.00    -0.297 OA
HETATM   16  C23 UNL     1       5.381  10.217  13.084  1.00  0.00     0.017 C 
HETATM   17  C24 UNL     1       5.158  11.517  13.895  1.00  0.00     0.023 C 
HETATM   18  C25 UNL     1       6.592   9.523  13.751  1.00  0.00     0.023 C 
HETATM   19  C26 UNL     1       4.093   9.291  13.079  1.00  0.00     0.009 C 
HETATM   20  C27 UNL     1       2.767  10.080  13.031  1.00  0.00     0.007 C 
HETATM   21  C28 UNL     1       1.550   9.241  13.442  1.00  0.00     0.011 C 
HETATM   22  C29 UNL     1       1.548   7.773  12.926  1.00  0.00    -0.032 C 
HETATM   23  C30 UNL     1       2.012   6.870  14.106  1.00  0.00     0.016 C 
ENDROOT
BRANCH   1  24
HETATM   24  C2  UNL     1      -1.669   3.943  11.807  1.00  0.00    -0.084 C 
HETATM   25  C1  UNL     1      -0.774   2.983  11.499  1.00  0.00     0.014 C 
BRANCH  24  26
HETATM   26  C3  UNL     1      -3.033   3.486  12.300  1.00  0.00     0.037 C 
BRANCH  26  27
HETATM   27  C4  UNL     1      -4.115   3.584  11.219  1.00  0.00     0.031 C 
BRANCH  27  28
HETATM   28  C5  UNL     1      -5.453   3.125  11.735  1.00  0.00    -0.024 C 
HETATM   29  C6  UNL     1      -6.257   3.748  12.618  1.00  0.00    -0.091 C 
HETATM   30  C7  UNL     1      -5.943   5.048  13.307  1.00  0.00     0.042 C 
HETATM   31  C8  UNL     1      -7.582   3.147  13.006  1.00  0.00     0.042 C 
ENDBRANCH  27  28
ENDBRANCH  26  27
ENDBRANCH  24  26
ENDBRANCH   1  24
TORSDOF 4
ENDMDL
MODEL 9
REMARK minimizedAffinity -8.26084709
REMARK  4 active torsions:
REMARK  status: ('A' for Active; 'I' for Inactive)
REMARK    1  A    between atoms: C2_2  and  C3_3 
REMARK    2  A    between atoms: C2_2  and  C9_9 
REMARK    3  A    between atoms: C3_3  and  C4_4 
REMARK    4  A    between atoms: C4_4  and  C5_5 
ROOT
HETATM    1  C9  UNL     1      -2.709   4.341  12.864  1.00  0.00     0.018 C 
HETATM    2  C10 UNL     1      -1.534   4.645  11.877  1.00  0.00     0.010 C 
HETATM    3  C11 UNL     1      -1.216   6.143  11.992  1.00  0.00     0.011 C 
HETATM    4  C12 UNL     1      -1.651   6.520  13.414  1.00  0.00    -0.032 C 
HETATM    5  C13 UNL     1      -0.582   5.910  14.389  1.00  0.00     0.016 C 
HETATM    6  C14 UNL     1      -3.000   5.742  13.482  1.00  0.00     0.002 C 
HETATM    7  C15 UNL     1      -3.561   5.827  14.900  1.00  0.00     0.006 C 
HETATM    8  C16 UNL     1      -3.805   7.293  15.289  1.00  0.00     0.006 C 
HETATM    9  C17 UNL     1      -2.568   8.217  15.123  1.00  0.00     0.003 C 
HETATM   10  C18 UNL     1      -2.783   9.713  15.662  1.00  0.00    -0.035 C 
HETATM   11  C19 UNL     1      -4.224  10.193  15.368  1.00  0.00     0.016 C 
HETATM   12  C20 UNL     1      -2.600   9.637  17.212  1.00  0.00     0.017 C 
HETATM   13  C21 UNL     1      -2.555  10.972  17.925  1.00  0.00     0.080 C 
HETATM   14  C22 UNL     1      -1.458  11.830  17.344  1.00  0.00     0.135 C 
HETATM   15  O1  UNL     1      -0.634  12.370  18.086  1.00  0.00    -0.297 OA
HETATM   16  C23 UNL     1      -1.487  12.074  15.834  1.00  0.00     0.017 C 
HETATM   17  C24 UNL     1      -0.170  12.774  15.416  1.00  0.00     0.023 C 
HETATM   18  C25 UNL     1      -2.605  13.105  15.550  1.00  0.00     0.023 C 
HETATM   19  C26 UNL     1      -1.716  10.717  15.045  1.00  0.00     0.009 C 
HETATM   20  C27 UNL     1      -0.412   9.935  14.774  1.00  0.00     0.007 C 
HETATM   21  C28 UNL     1      -0.564   8.871  13.679  1.00  0.00     0.011 C 
HETATM   22  C29 UNL     1      -1.902   8.077  13.702  1.00  0.00    -0.032 C 
HETATM   23  C30 UNL     1      -2.822   8.695  12.608  1.00  0.00     0.016 C 
ENDROOT
BRANCH   1  24
HETATM   24  C2  UNL     1      -3.903   3.586  12.254  1.00  0.00    -0.084 C 
HETATM   25  C1  UNL     1      -3.842   2.317  11.803  1.00  0.00     0.014 C 
BRANCH  24  26
HETATM   26  C3  UNL     1      -5.256   4.276  12.201  1.00  0.00     0.037 C 
BRANCH  26  27
HETATM   27  C4  UNL     1      -6.250   3.706  13.219  1.00  0.00     0.031 C 
BRANCH  27  28
HETATM   28  C5  UNL     1      -7.015   4.801  13.915  1.00  0.00    -0.024 C 
HETATM   29  C6  UNL     1      -7.998   5.572  13.413  1.00  0.00    -0.091 C 
HETATM   30  C7  UNL     1      -8.512   5.507  12.001  1.00  0.00     0.042 C 
HETATM   31  C8  UNL     1      -8.670   6.613  14.269  1.00  0.00     0.042 C 
ENDBRANCH  27  28
ENDBRANCH  26  27
ENDBRANCH  24  26
ENDBRANCH   1  24
TORSDOF 4
ENDMDL
