MODEL 1
REMARK minimizedAffinity -9.85773373
REMARK  4 active torsions:
REMARK  status: ('A' for Active; 'I' for Inactive)
REMARK    1  A    between atoms: C4_4  and  C5_5 
REMARK    2  A    between atoms: C5_5  and  C6_7 
REMARK    3  A    between atoms: C6_7  and  C7_8 
REMARK    4  A    between atoms: C7_8  and  C9_10 
ROOT
HETATM    1  C9  UNL     1      -3.901  50.168 -24.593  1.00  0.00    -0.002 C 
HETATM    2  C10 UNL     1      -5.315  49.986 -23.959  1.00  0.00     0.006 C 
HETATM    3  C11 UNL     1      -5.150  50.077 -22.427  1.00  0.00     0.011 C 
HETATM    4  C12 UNL     1      -3.743  50.667 -22.220  1.00  0.00    -0.032 C 
HETATM    5  C13 UNL     1      -3.901  52.215 -22.416  1.00  0.00     0.016 C 
HETATM    6  C14 UNL     1      -3.096  50.340 -20.826  1.00  0.00     0.004 C 
HETATM    7  C15 UNL     1      -3.519  51.325 -19.714  1.00  0.00     0.007 C 
HETATM    8  C16 UNL     1      -2.980  51.001 -18.315  1.00  0.00     0.007 C 
HETATM    9  C17 UNL     1      -1.759  50.063 -18.288  1.00  0.00     0.010 C 
HETATM   10  C18 UNL     1      -0.965  50.084 -16.948  1.00  0.00     0.018 C 
HETATM   11  C19 UNL     1      -1.912  50.033 -15.733  1.00  0.00     0.023 C 
HETATM   12  C20 UNL     1      -0.024  48.865 -16.855  1.00  0.00     0.023 C 
HETATM   13  C21 UNL     1      -0.107  51.350 -16.851  1.00  0.00     0.135 C 
HETATM   14  O2  UNL     1       0.318  51.765 -15.770  1.00  0.00    -0.297 OA
HETATM   15  C22 UNL     1       0.197  52.106 -18.123  1.00  0.00     0.080 C 
HETATM   16  C23 UNL     1       0.371  51.150 -19.287  1.00  0.00     0.018 C 
HETATM   17  C24 UNL     1      -0.866  50.303 -19.518  1.00  0.00    -0.026 A 
HETATM   18  C25 UNL     1      -0.755  49.113 -20.435  1.00  0.00     0.021 A 
HETATM   19  C26 UNL     1      -1.551  50.316 -20.906  1.00  0.00    -0.027 A 
HETATM   20  C27 UNL     1      -0.946  51.022 -22.112  1.00  0.00     0.011 C 
HETATM   21  C28 UNL     1      -1.549  50.588 -23.466  1.00  0.00     0.011 C 
HETATM   22  C29 UNL     1      -2.947  49.944 -23.377  1.00  0.00    -0.032 C 
HETATM   23  C30 UNL     1      -2.782  48.417 -23.149  1.00  0.00     0.016 C 
ENDROOT
BRANCH   1  24
HETATM   24  C7  UNL     1      -3.755  49.476 -25.982  1.00  0.00    -0.007 C 
HETATM   25  C8  UNL     1      -4.633  48.258 -26.281  1.00  0.00     0.011 C 
BRANCH  24  26
HETATM   26  C6  UNL     1      -2.293  49.320 -26.463  1.00  0.00     0.087 C 
BRANCH  26  27
HETATM   27  C5  UNL     1      -1.527  50.565 -26.879  1.00  0.00     0.149 C 
HETATM   28  O1  UNL     1      -2.037  51.482 -27.520  1.00  0.00    -0.293 OA
BRANCH  27  29
HETATM   29  C4  UNL     1      -0.086  50.714 -26.513  1.00  0.00     0.052 C 
HETATM   30  C2  UNL     1       0.898  51.416 -27.106  1.00  0.00    -0.084 C 
HETATM   31  C1  UNL     1       2.274  51.441 -26.487  1.00  0.00     0.043 C 
HETATM   32  C3  UNL     1       0.797  52.177 -28.397  1.00  0.00     0.043 C 
ENDBRANCH  27  29
ENDBRANCH  26  27
ENDBRANCH  24  26
ENDBRANCH   1  24
TORSDOF 4
ENDMDL
MODEL 2
REMARK minimizedAffinity -9.40382099
REMARK  4 active torsions:
REMARK  status: ('A' for Active; 'I' for Inactive)
REMARK    1  A    between atoms: C4_4  and  C5_5 
REMARK    2  A    between atoms: C5_5  and  C6_7 
REMARK    3  A    between atoms: C6_7  and  C7_8 
REMARK    4  A    between atoms: C7_8  and  C9_10 
ROOT
HETATM    1  C9  UNL     1      -0.269  50.908 -21.673  1.00  0.00    -0.002 C 
HETATM    2  C10 UNL     1      -0.056  50.936 -20.127  1.00  0.00     0.006 C 
HETATM    3  C11 UNL     1      -1.220  50.152 -19.486  1.00  0.00     0.011 C 
HETATM    4  C12 UNL     1      -1.867  49.386 -20.655  1.00  0.00    -0.032 C 
HETATM    5  C13 UNL     1      -0.973  48.116 -20.874  1.00  0.00     0.016 C 
HETATM    6  C14 UNL     1      -3.368  48.985 -20.422  1.00  0.00     0.004 C 
HETATM    7  C15 UNL     1      -3.529  47.657 -19.649  1.00  0.00     0.007 C 
HETATM    8  C16 UNL     1      -4.974  47.262 -19.324  1.00  0.00     0.007 C 
HETATM    9  C17 UNL     1      -6.048  47.954 -20.183  1.00  0.00     0.010 C 
HETATM   10  C18 UNL     1      -7.439  47.251 -20.158  1.00  0.00     0.018 C 
HETATM   11  C19 UNL     1      -7.841  46.853 -18.724  1.00  0.00     0.023 C 
HETATM   12  C20 UNL     1      -8.532  48.192 -20.703  1.00  0.00     0.023 C 
HETATM   13  C21 UNL     1      -7.421  45.993 -21.032  1.00  0.00     0.135 C 
HETATM   14  O2  UNL     1      -8.256  45.095 -20.895  1.00  0.00    -0.297 OA
HETATM   15  C22 UNL     1      -6.331  45.858 -22.069  1.00  0.00     0.080 C 
HETATM   16  C23 UNL     1      -5.987  47.210 -22.665  1.00  0.00     0.018 C 
HETATM   17  C24 UNL     1      -5.525  48.196 -21.610  1.00  0.00    -0.026 A 
HETATM   18  C25 UNL     1      -5.428  49.652 -21.987  1.00  0.00     0.021 A 
HETATM   19  C26 UNL     1      -4.144  48.878 -21.757  1.00  0.00    -0.027 A 
HETATM   20  C27 UNL     1      -3.283  48.726 -23.004  1.00  0.00     0.011 C 
HETATM   21  C28 UNL     1      -2.162  49.782 -23.131  1.00  0.00     0.011 C 
HETATM   22  C29 UNL     1      -1.759  50.462 -21.807  1.00  0.00    -0.032 C 
HETATM   23  C30 UNL     1      -2.671  51.698 -21.581  1.00  0.00     0.016 C 
ENDROOT
BRANCH   1  24
HETATM   24  C7  UNL     1       0.367  52.129 -22.404  1.00  0.00    -0.007 C 
HETATM   25  C8  UNL     1       0.859  53.306 -21.558  1.00  0.00     0.011 C 
BRANCH  24  26
HETATM   26  C6  UNL     1      -0.379  52.558 -23.690  1.00  0.00     0.087 C 
BRANCH  26  27
HETATM   27  C5  UNL     1       0.395  53.303 -24.765  1.00  0.00     0.149 C 
HETATM   28  O1  UNL     1       1.079  54.297 -24.531  1.00  0.00    -0.293 OA
BRANCH  27  29
HETATM   29  C4  UNL     1       0.340  52.836 -26.184  1.00  0.00     0.052 C 
HETATM   30  C2  UNL     1       1.152  52.000 -26.860  1.00  0.00    -0.084 C 
HETATM   31  C1  UNL     1       0.831  51.646 -28.291  1.00  0.00     0.043 C 
HETATM   32  C3  UNL     1       2.423  51.384 -26.350  1.00  0.00     0.043 C 
ENDBRANCH  27  29
ENDBRANCH  26  27
ENDBRANCH  24  26
ENDBRANCH   1  24
TORSDOF 4
ENDMDL
MODEL 3
REMARK minimizedAffinity -9.37162971
REMARK  4 active torsions:
REMARK  status: ('A' for Active; 'I' for Inactive)
REMARK    1  A    between atoms: C4_4  and  C5_5 
REMARK    2  A    between atoms: C5_5  and  C6_7 
REMARK    3  A    between atoms: C6_7  and  C7_8 
REMARK    4  A    between atoms: C7_8  and  C9_10 
ROOT
HETATM    1  C9  UNL     1      -0.029  51.576 -20.944  1.00  0.00    -0.002 C 
HETATM    2  C10 UNL     1      -0.346  52.328 -19.615  1.00  0.00     0.006 C 
HETATM    3  C11 UNL     1      -1.668  51.754 -19.063  1.00  0.00     0.011 C 
HETATM    4  C12 UNL     1      -1.896  50.458 -19.862  1.00  0.00    -0.032 C 
HETATM    5  C13 UNL     1      -0.997  49.374 -19.172  1.00  0.00     0.016 C 
HETATM    6  C14 UNL     1      -3.393  49.988 -19.930  1.00  0.00     0.004 C 
HETATM    7  C15 UNL     1      -3.822  49.143 -18.710  1.00  0.00     0.007 C 
HETATM    8  C16 UNL     1      -5.298  48.729 -18.688  1.00  0.00     0.007 C 
HETATM    9  C17 UNL     1      -6.013  48.792 -20.051  1.00  0.00     0.010 C 
HETATM   10  C18 UNL     1      -7.340  47.979 -20.116  1.00  0.00     0.018 C 
HETATM   11  C19 UNL     1      -8.205  48.216 -18.861  1.00  0.00     0.023 C 
HETATM   12  C20 UNL     1      -8.175  48.401 -21.342  1.00  0.00     0.023 C 
HETATM   13  C21 UNL     1      -7.048  46.480 -20.237  1.00  0.00     0.135 C 
HETATM   14  O2  UNL     1      -7.893  45.628 -19.950  1.00  0.00    -0.297 OA
HETATM   15  C22 UNL     1      -5.675  46.055 -20.704  1.00  0.00     0.080 C 
HETATM   16  C23 UNL     1      -5.134  47.029 -21.734  1.00  0.00     0.018 C 
HETATM   17  C24 UNL     1      -5.039  48.440 -21.189  1.00  0.00    -0.026 A 
HETATM   18  C25 UNL     1      -4.802  49.567 -22.161  1.00  0.00     0.021 A 
HETATM   19  C26 UNL     1      -3.679  49.178 -21.218  1.00  0.00    -0.027 A 
HETATM   20  C27 UNL     1      -2.452  48.611 -21.919  1.00  0.00     0.011 C 
HETATM   21  C28 UNL     1      -1.340  49.649 -22.187  1.00  0.00     0.011 C 
HETATM   22  C29 UNL     1      -1.395  50.903 -21.292  1.00  0.00    -0.032 C 
HETATM   23  C30 UNL     1      -2.313  51.958 -21.966  1.00  0.00     0.016 C 
ENDROOT
BRANCH   1  24
HETATM   24  C7  UNL     1       0.831  52.415 -21.937  1.00  0.00    -0.007 C 
HETATM   25  C8  UNL     1       0.999  53.913 -21.665  1.00  0.00     0.011 C 
BRANCH  24  26
HETATM   26  C6  UNL     1       0.589  52.080 -23.428  1.00  0.00     0.087 C 
BRANCH  26  27
HETATM   27  C5  UNL     1       0.789  53.177 -24.461  1.00  0.00     0.149 C 
HETATM   28  O1  UNL     1       1.175  54.308 -24.171  1.00  0.00    -0.293 OA
BRANCH  27  29
HETATM   29  C4  UNL     1       0.510  52.905 -25.904  1.00  0.00     0.052 C 
HETATM   30  C2  UNL     1       1.174  52.142 -26.793  1.00  0.00    -0.084 C 
HETATM   31  C1  UNL     1       0.635  51.991 -28.194  1.00  0.00     0.043 C 
HETATM   32  C3  UNL     1       2.472  51.425 -26.560  1.00  0.00     0.043 C 
ENDBRANCH  27  29
ENDBRANCH  26  27
ENDBRANCH  24  26
ENDBRANCH   1  24
TORSDOF 4
ENDMDL
MODEL 4
REMARK minimizedAffinity -9.25082302
REMARK  4 active torsions:
REMARK  status: ('A' for Active; 'I' for Inactive)
REMARK    1  A    between atoms: C4_4  and  C5_5 
REMARK    2  A    between atoms: C5_5  and  C6_7 
REMARK    3  A    between atoms: C6_7  and  C7_8 
REMARK    4  A    between atoms: C7_8  and  C9_10 
ROOT
HETATM    1  C9  UNL     1      -2.138  51.283 -24.059  1.00  0.00    -0.002 C 
HETATM    2  C10 UNL     1      -2.922  52.607 -23.800  1.00  0.00     0.006 C 
HETATM    3  C11 UNL     1      -4.160  52.251 -22.950  1.00  0.00     0.011 C 
HETATM    4  C12 UNL     1      -3.882  50.829 -22.430  1.00  0.00    -0.032 C 
HETATM    5  C13 UNL     1      -2.935  51.009 -21.193  1.00  0.00     0.016 C 
HETATM    6  C14 UNL     1      -5.167  50.013 -22.041  1.00  0.00     0.004 C 
HETATM    7  C15 UNL     1      -5.651  50.292 -20.601  1.00  0.00     0.007 C 
HETATM    8  C16 UNL     1      -6.950  49.583 -20.200  1.00  0.00     0.007 C 
HETATM    9  C17 UNL     1      -7.326  48.370 -21.070  1.00  0.00     0.010 C 
HETATM   10  C18 UNL     1      -8.370  47.413 -20.419  1.00  0.00     0.018 C 
HETATM   11  C19 UNL     1      -9.531  48.202 -19.781  1.00  0.00     0.023 C 
HETATM   12  C20 UNL     1      -8.976  46.470 -21.478  1.00  0.00     0.023 C 
HETATM   13  C21 UNL     1      -7.709  46.549 -19.340  1.00  0.00     0.135 C 
HETATM   14  O2  UNL     1      -8.370  45.992 -18.459  1.00  0.00    -0.297 OA
HETATM   15  C22 UNL     1      -6.206  46.406 -19.361  1.00  0.00     0.080 C 
HETATM   16  C23 UNL     1      -5.689  46.381 -20.787  1.00  0.00     0.018 C 
HETATM   17  C24 UNL     1      -6.061  47.637 -21.550  1.00  0.00    -0.026 A 
HETATM   18  C25 UNL     1      -5.882  47.643 -23.046  1.00  0.00     0.021 A 
HETATM   19  C26 UNL     1      -4.947  48.490 -22.203  1.00  0.00    -0.027 A 
HETATM   20  C27 UNL     1      -3.493  48.041 -22.253  1.00  0.00     0.011 C 
HETATM   21  C28 UNL     1      -2.629  48.808 -23.278  1.00  0.00     0.011 C 
HETATM   22  C29 UNL     1      -3.186  50.185 -23.693  1.00  0.00    -0.032 C 
HETATM   23  C30 UNL     1      -4.148  49.994 -24.896  1.00  0.00     0.016 C 
ENDROOT
BRANCH   1  24
HETATM   24  C7  UNL     1      -1.297  51.313 -25.371  1.00  0.00    -0.007 C 
HETATM   25  C8  UNL     1      -1.584  50.256 -26.442  1.00  0.00     0.011 C 
BRANCH  24  26
HETATM   26  C6  UNL     1       0.211  51.580 -25.154  1.00  0.00     0.087 C 
BRANCH  26  27
HETATM   27  C5  UNL     1       0.623  52.675 -24.184  1.00  0.00     0.149 C 
HETATM   28  O1  UNL     1       1.023  53.779 -24.550  1.00  0.00    -0.293 OA
BRANCH  27  29
HETATM   29  C4  UNL     1       0.556  52.433 -22.711  1.00  0.00     0.052 C 
HETATM   30  C2  UNL     1       0.941  53.209 -21.680  1.00  0.00    -0.084 C 
HETATM   31  C1  UNL     1       0.703  52.741 -20.265  1.00  0.00     0.043 C 
HETATM   32  C3  UNL     1       1.652  54.528 -21.773  1.00  0.00     0.043 C 
ENDBRANCH  27  29
ENDBRANCH  26  27
ENDBRANCH  24  26
ENDBRANCH   1  24
TORSDOF 4
ENDMDL
MODEL 5
REMARK minimizedAffinity -9.12994289
REMARK  4 active torsions:
REMARK  status: ('A' for Active; 'I' for Inactive)
REMARK    1  A    between atoms: C4_4  and  C5_5 
REMARK    2  A    between atoms: C5_5  and  C6_7 
REMARK    3  A    between atoms: C6_7  and  C7_8 
REMARK    4  A    between atoms: C7_8  and  C9_10 
ROOT
HETATM    1  C9  UNL     1      -1.329  52.076 -23.992  1.00  0.00    -0.002 C 
HETATM    2  C10 UNL     1      -1.149  51.209 -25.277  1.00  0.00     0.006 C 
HETATM    3  C11 UNL     1      -2.180  50.063 -25.209  1.00  0.00     0.011 C 
HETATM    4  C12 UNL     1      -3.163  50.485 -24.102  1.00  0.00    -0.032 C 
HETATM    5  C13 UNL     1      -4.152  51.496 -24.780  1.00  0.00     0.016 C 
HETATM    6  C14 UNL     1      -3.943  49.297 -23.433  1.00  0.00     0.004 C 
HETATM    7  C15 UNL     1      -5.215  48.890 -24.210  1.00  0.00     0.007 C 
HETATM    8  C16 UNL     1      -5.967  47.681 -23.643  1.00  0.00     0.007 C 
HETATM    9  C17 UNL     1      -5.648  47.344 -22.175  1.00  0.00     0.010 C 
HETATM   10  C18 UNL     1      -6.700  46.424 -21.486  1.00  0.00     0.018 C 
HETATM   11  C19 UNL     1      -7.104  45.250 -22.400  1.00  0.00     0.023 C 
HETATM   12  C20 UNL     1      -6.128  45.825 -20.185  1.00  0.00     0.023 C 
HETATM   13  C21 UNL     1      -7.958  47.222 -21.124  1.00  0.00     0.135 C 
HETATM   14  O2  UNL     1      -9.039  46.668 -20.909  1.00  0.00    -0.297 OA
HETATM   15  C22 UNL     1      -7.854  48.727 -21.056  1.00  0.00     0.080 C 
HETATM   16  C23 UNL     1      -6.499  49.148 -20.519  1.00  0.00     0.018 C 
HETATM   17  C24 UNL     1      -5.361  48.628 -21.376  1.00  0.00    -0.026 A 
HETATM   18  C25 UNL     1      -3.960  48.706 -20.827  1.00  0.00     0.021 A 
HETATM   19  C26 UNL     1      -4.339  49.625 -21.973  1.00  0.00    -0.027 A 
HETATM   20  C27 UNL     1      -4.327  51.104 -21.608  1.00  0.00     0.011 C 
HETATM   21  C28 UNL     1      -3.015  51.834 -21.973  1.00  0.00     0.011 C 
HETATM   22  C29 UNL     1      -2.172  51.144 -23.064  1.00  0.00    -0.032 C 
HETATM   23  C30 UNL     1      -1.219  50.121 -22.388  1.00  0.00     0.016 C 
ENDROOT
BRANCH   1  24
HETATM   24  C7  UNL     1      -0.029  52.822 -23.565  1.00  0.00    -0.007 C 
HETATM   25  C8  UNL     1       1.054  53.055 -24.622  1.00  0.00     0.011 C 
BRANCH  24  26
HETATM   26  C6  UNL     1       0.531  52.386 -22.190  1.00  0.00     0.087 C 
BRANCH  26  27
HETATM   27  C5  UNL     1       1.084  53.454 -21.259  1.00  0.00     0.149 C 
HETATM   28  O1  UNL     1       1.364  54.590 -21.635  1.00  0.00    -0.293 OA
BRANCH  27  29
HETATM   29  C4  UNL     1       1.315  53.140 -19.816  1.00  0.00     0.052 C 
HETATM   30  C2  UNL     1       0.491  52.603 -18.897  1.00  0.00    -0.084 C 
HETATM   31  C1  UNL     1       1.003  52.335 -17.503  1.00  0.00     0.043 C 
HETATM   32  C3  UNL     1      -0.959  52.263 -19.088  1.00  0.00     0.043 C 
ENDBRANCH  27  29
ENDBRANCH  26  27
ENDBRANCH  24  26
ENDBRANCH   1  24
TORSDOF 4
ENDMDL
MODEL 6
REMARK minimizedAffinity -8.97597694
REMARK  4 active torsions:
REMARK  status: ('A' for Active; 'I' for Inactive)
REMARK    1  A    between atoms: C4_4  and  C5_5 
REMARK    2  A    between atoms: C5_5  and  C6_7 
REMARK    3  A    between atoms: C6_7  and  C7_8 
REMARK    4  A    between atoms: C7_8  and  C9_10 
ROOT
HETATM    1  C9  UNL     1      -1.712  52.089 -22.556  1.00  0.00    -0.002 C 
HETATM    2  C10 UNL     1      -2.090  52.461 -24.024  1.00  0.00     0.006 C 
HETATM    3  C11 UNL     1      -3.386  51.700 -24.374  1.00  0.00     0.011 C 
HETATM    4  C12 UNL     1      -3.928  51.205 -23.021  1.00  0.00    -0.032 C 
HETATM    5  C13 UNL     1      -4.676  52.432 -22.392  1.00  0.00     0.016 C 
HETATM    6  C14 UNL     1      -4.875  49.956 -23.114  1.00  0.00     0.004 C 
HETATM    7  C15 UNL     1      -6.346  50.328 -23.406  1.00  0.00     0.007 C 
HETATM    8  C16 UNL     1      -7.297  49.140 -23.588  1.00  0.00     0.007 C 
HETATM    9  C17 UNL     1      -6.791  47.805 -23.009  1.00  0.00     0.010 C 
HETATM   10  C18 UNL     1      -7.903  46.733 -22.806  1.00  0.00     0.018 C 
HETATM   11  C19 UNL     1      -8.837  46.654 -24.030  1.00  0.00     0.023 C 
HETATM   12  C20 UNL     1      -7.280  45.336 -22.606  1.00  0.00     0.023 C 
HETATM   13  C21 UNL     1      -8.742  47.057 -21.565  1.00  0.00     0.135 C 
HETATM   14  O2  UNL     1      -9.869  46.582 -21.401  1.00  0.00    -0.297 OA
HETATM   15  C22 UNL     1      -8.164  48.002 -20.538  1.00  0.00     0.080 C 
HETATM   16  C23 UNL     1      -6.664  47.813 -20.421  1.00  0.00     0.018 C 
HETATM   17  C24 UNL     1      -5.955  48.049 -21.740  1.00  0.00    -0.026 A 
HETATM   18  C25 UNL     1      -4.516  47.621 -21.864  1.00  0.00     0.021 A 
HETATM   19  C26 UNL     1      -4.827  49.106 -21.821  1.00  0.00    -0.027 A 
HETATM   20  C27 UNL     1      -4.278  49.816 -20.591  1.00  0.00     0.011 C 
HETATM   21  C28 UNL     1      -2.916  50.508 -20.816  1.00  0.00     0.011 C 
HETATM   22  C29 UNL     1      -2.583  50.820 -22.288  1.00  0.00    -0.032 C 
HETATM   23  C30 UNL     1      -1.873  49.588 -22.913  1.00  0.00     0.016 C 
ENDROOT
BRANCH   1  24
HETATM   24  C7  UNL     1      -0.185  52.201 -22.266  1.00  0.00    -0.007 C 
HETATM   25  C8  UNL     1       0.297  53.315 -21.333  1.00  0.00     0.011 C 
BRANCH  24  26
HETATM   26  C6  UNL     1       0.714  52.004 -23.510  1.00  0.00     0.087 C 
BRANCH  26  27
HETATM   27  C5  UNL     1       0.805  53.130 -24.527  1.00  0.00     0.149 C 
HETATM   28  O1  UNL     1       1.091  54.286 -24.223  1.00  0.00    -0.293 OA
BRANCH  27  29
HETATM   29  C4  UNL     1       0.536  52.855 -25.972  1.00  0.00     0.052 C 
HETATM   30  C2  UNL     1       1.219  52.110 -26.861  1.00  0.00    -0.084 C 
HETATM   31  C1  UNL     1       0.688  51.951 -28.264  1.00  0.00     0.043 C 
HETATM   32  C3  UNL     1       2.532  51.420 -26.625  1.00  0.00     0.043 C 
ENDBRANCH  27  29
ENDBRANCH  26  27
ENDBRANCH  24  26
ENDBRANCH   1  24
TORSDOF 4
ENDMDL
MODEL 7
REMARK minimizedAffinity -8.88759136
REMARK  4 active torsions:
REMARK  status: ('A' for Active; 'I' for Inactive)
REMARK    1  A    between atoms: C4_4  and  C5_5 
REMARK    2  A    between atoms: C5_5  and  C6_7 
REMARK    3  A    between atoms: C6_7  and  C7_8 
REMARK    4  A    between atoms: C7_8  and  C9_10 
ROOT
HETATM    1  C9  UNL     1      -3.729  50.237 -24.863  1.00  0.00    -0.002 C 
HETATM    2  C10 UNL     1      -5.147  50.040 -24.243  1.00  0.00     0.006 C 
HETATM    3  C11 UNL     1      -4.999  50.152 -22.710  1.00  0.00     0.011 C 
HETATM    4  C12 UNL     1      -3.604  50.766 -22.495  1.00  0.00    -0.032 C 
HETATM    5  C13 UNL     1      -3.783  52.308 -22.711  1.00  0.00     0.016 C 
HETATM    6  C14 UNL     1      -2.968  50.464 -21.091  1.00  0.00     0.004 C 
HETATM    7  C15 UNL     1      -3.417  51.455 -19.994  1.00  0.00     0.007 C 
HETATM    8  C16 UNL     1      -2.889  51.155 -18.587  1.00  0.00     0.007 C 
HETATM    9  C17 UNL     1      -1.654  50.236 -18.536  1.00  0.00     0.010 C 
HETATM   10  C18 UNL     1      -0.874  50.285 -17.187  1.00  0.00     0.018 C 
HETATM   11  C19 UNL     1      -1.835  50.233 -15.982  1.00  0.00     0.023 C 
HETATM   12  C20 UNL     1       0.083  49.082 -17.071  1.00  0.00     0.023 C 
HETATM   13  C21 UNL     1      -0.037  51.565 -17.096  1.00  0.00     0.135 C 
HETATM   14  O2  UNL     1       0.370  51.999 -16.015  1.00  0.00    -0.297 OA
HETATM   15  C22 UNL     1       0.269  52.311 -18.373  1.00  0.00     0.080 C 
HETATM   16  C23 UNL     1       0.470  51.344 -19.524  1.00  0.00     0.018 C 
HETATM   17  C24 UNL     1      -0.751  50.476 -19.758  1.00  0.00    -0.026 A 
HETATM   18  C25 UNL     1      -0.613  49.277 -20.661  1.00  0.00     0.021 A 
HETATM   19  C26 UNL     1      -1.421  50.463 -21.153  1.00  0.00    -0.027 A 
HETATM   20  C27 UNL     1      -0.815  51.164 -22.361  1.00  0.00     0.011 C 
HETATM   21  C28 UNL     1      -1.396  50.705 -23.717  1.00  0.00     0.011 C 
HETATM   22  C29 UNL     1      -2.785  50.041 -23.635  1.00  0.00    -0.032 C 
HETATM   23  C30 UNL     1      -2.599  48.520 -23.387  1.00  0.00     0.016 C 
ENDROOT
BRANCH   1  24
HETATM   24  C7  UNL     1      -3.557  49.531 -26.243  1.00  0.00    -0.007 C 
HETATM   25  C8  UNL     1      -3.270  50.399 -27.471  1.00  0.00     0.011 C 
BRANCH  24  26
HETATM   26  C6  UNL     1      -4.578  48.399 -26.508  1.00  0.00     0.087 C 
BRANCH  26  27
HETATM   27  C5  UNL     1      -4.927  48.058 -27.948  1.00  0.00     0.149 C 
HETATM   28  O1  UNL     1      -4.078  47.889 -28.821  1.00  0.00    -0.293 OA
BRANCH  27  29
HETATM   29  C4  UNL     1      -6.358  47.920 -28.357  1.00  0.00     0.052 C 
HETATM   30  C2  UNL     1      -6.913  47.222 -29.366  1.00  0.00    -0.084 C 
HETATM   31  C1  UNL     1      -8.414  47.207 -29.524  1.00  0.00     0.043 C 
HETATM   32  C3  UNL     1      -6.182  46.457 -30.431  1.00  0.00     0.043 C 
ENDBRANCH  27  29
ENDBRANCH  26  27
ENDBRANCH  24  26
ENDBRANCH   1  24
TORSDOF 4
ENDMDL
MODEL 8
REMARK minimizedAffinity -8.81284809
REMARK  4 active torsions:
REMARK  status: ('A' for Active; 'I' for Inactive)
REMARK    1  A    between atoms: C4_4  and  C5_5 
REMARK    2  A    between atoms: C5_5  and  C6_7 
REMARK    3  A    between atoms: C6_7  and  C7_8 
REMARK    4  A    between atoms: C7_8  and  C9_10 
ROOT
HETATM    1  C9  UNL     1       0.064  51.830 -22.917  1.00  0.00    -0.002 C 
HETATM    2  C10 UNL     1       0.167  52.620 -21.575  1.00  0.00     0.006 C 
HETATM    3  C11 UNL     1      -0.931  52.078 -20.635  1.00  0.00     0.011 C 
HETATM    4  C12 UNL     1      -1.396  50.766 -21.292  1.00  0.00    -0.032 C 
HETATM    5  C13 UNL     1      -0.337  49.687 -20.874  1.00  0.00     0.016 C 
HETATM    6  C14 UNL     1      -2.847  50.314 -20.893  1.00  0.00     0.004 C 
HETATM    7  C15 UNL     1      -2.892  49.506 -19.577  1.00  0.00     0.007 C 
HETATM    8  C16 UNL     1      -4.295  49.113 -19.101  1.00  0.00     0.007 C 
HETATM    9  C17 UNL     1      -5.387  49.152 -20.186  1.00  0.00     0.010 C 
HETATM   10  C18 UNL     1      -6.677  48.355 -19.825  1.00  0.00     0.018 C 
HETATM   11  C19 UNL     1      -7.122  48.635 -18.376  1.00  0.00     0.023 C 
HETATM   12  C20 UNL     1      -7.841  48.757 -20.754  1.00  0.00     0.023 C 
HETATM   13  C21 UNL     1      -6.443  46.850 -19.987  1.00  0.00     0.135 C 
HETATM   14  O2  UNL     1      -7.166  46.016 -19.435  1.00  0.00    -0.297 OA
HETATM   15  C22 UNL     1      -5.277  46.395 -20.833  1.00  0.00     0.080 C 
HETATM   16  C23 UNL     1      -5.066  47.334 -22.005  1.00  0.00     0.018 C 
HETATM   17  C24 UNL     1      -4.803  48.758 -21.554  1.00  0.00    -0.026 A 
HETATM   18  C25 UNL     1      -4.864  49.856 -22.584  1.00  0.00     0.021 A 
HETATM   19  C26 UNL     1      -3.511  49.476 -22.012  1.00  0.00    -0.027 A 
HETATM   20  C27 UNL     1      -2.556  48.875 -23.034  1.00  0.00     0.011 C 
HETATM   21  C28 UNL     1      -1.571  49.890 -23.653  1.00  0.00     0.011 C 
HETATM   22  C29 UNL     1      -1.347  51.167 -22.818  1.00  0.00    -0.032 C 
HETATM   23  C30 UNL     1      -2.420  52.218 -23.214  1.00  0.00     0.016 C 
ENDROOT
BRANCH   1  24
HETATM   24  C7  UNL     1       0.589  52.633 -24.145  1.00  0.00    -0.007 C 
HETATM   25  C8  UNL     1      -0.210  53.853 -24.611  1.00  0.00     0.011 C 
BRANCH  24  26
HETATM   26  C6  UNL     1       1.106  51.751 -25.307  1.00  0.00     0.087 C 
BRANCH  26  27
HETATM   27  C5  UNL     1       0.408  51.841 -26.654  1.00  0.00     0.149 C 
HETATM   28  O1  UNL     1       0.704  52.676 -27.507  1.00  0.00    -0.293 OA
BRANCH  27  29
HETATM   29  C4  UNL     1      -0.695  50.891 -26.990  1.00  0.00     0.052 C 
HETATM   30  C2  UNL     1      -2.028  51.081 -27.034  1.00  0.00    -0.084 C 
HETATM   31  C1  UNL     1      -2.928  49.950 -27.467  1.00  0.00     0.043 C 
HETATM   32  C3  UNL     1      -2.764  52.330 -26.643  1.00  0.00     0.043 C 
ENDBRANCH  27  29
ENDBRANCH  26  27
ENDBRANCH  24  26
ENDBRANCH   1  24
TORSDOF 4
ENDMDL
MODEL 9
REMARK minimizedAffinity -8.80668068
REMARK  4 active torsions:
REMARK  status: ('A' for Active; 'I' for Inactive)
REMARK    1  A    between atoms: C4_4  and  C5_5 
REMARK    2  A    between atoms: C5_5  and  C6_7 
REMARK    3  A    between atoms: C6_7  and  C7_8 
REMARK    4  A    between atoms: C7_8  and  C9_10 
ROOT
HETATM    1  C9  UNL     1      -1.588  49.477 -18.078  1.00  0.00    -0.002 C 
HETATM    2  C10 UNL     1      -2.735  48.432 -18.244  1.00  0.00     0.006 C 
HETATM    3  C11 UNL     1      -3.089  48.369 -19.745  1.00  0.00     0.011 C 
HETATM    4  C12 UNL     1      -1.922  49.082 -20.453  1.00  0.00    -0.032 C 
HETATM    5  C13 UNL     1      -0.776  48.016 -20.555  1.00  0.00     0.016 C 
HETATM    6  C14 UNL     1      -2.276  49.666 -21.867  1.00  0.00     0.004 C 
HETATM    7  C15 UNL     1      -2.145  48.628 -23.004  1.00  0.00     0.007 C 
HETATM    8  C16 UNL     1      -2.558  49.126 -24.394  1.00  0.00     0.007 C 
HETATM    9  C17 UNL     1      -2.589  50.657 -24.555  1.00  0.00     0.010 C 
HETATM   10  C18 UNL     1      -2.578  51.145 -26.035  1.00  0.00     0.018 C 
HETATM   11  C19 UNL     1      -3.559  50.331 -26.902  1.00  0.00     0.023 C 
HETATM   12  C20 UNL     1      -3.000  52.626 -26.121  1.00  0.00     0.023 C 
HETATM   13  C21 UNL     1      -1.172  51.020 -26.632  1.00  0.00     0.135 C 
HETATM   14  O2  UNL     1      -0.984  50.998 -27.852  1.00  0.00    -0.297 OA
HETATM   15  C22 UNL     1      -0.001  50.900 -25.685  1.00  0.00     0.080 C 
HETATM   16  C23 UNL     1      -0.233  51.731 -24.438  1.00  0.00     0.018 C 
HETATM   17  C24 UNL     1      -1.490  51.313 -23.700  1.00  0.00    -0.026 A 
HETATM   18  C25 UNL     1      -2.017  52.218 -22.617  1.00  0.00     0.021 A 
HETATM   19  C26 UNL     1      -1.397  50.893 -22.214  1.00  0.00    -0.027 A 
HETATM   20  C27 UNL     1      -0.118  51.032 -21.400  1.00  0.00     0.011 C 
HETATM   21  C28 UNL     1      -0.328  50.952 -19.872  1.00  0.00     0.011 C 
HETATM   22  C29 UNL     1      -1.630  50.253 -19.433  1.00  0.00    -0.032 C 
HETATM   23  C30 UNL     1      -2.767  51.309 -19.367  1.00  0.00     0.016 C 
ENDROOT
BRANCH   1  24
HETATM   24  C7  UNL     1      -1.560  50.143 -16.669  1.00  0.00    -0.007 C 
HETATM   25  C8  UNL     1      -2.889  50.347 -15.936  1.00  0.00     0.011 C 
BRANCH  24  26
HETATM   26  C6  UNL     1      -0.598  51.349 -16.555  1.00  0.00     0.087 C 
BRANCH  26  27
HETATM   27  C5  UNL     1       0.616  51.228 -15.649  1.00  0.00     0.149 C 
HETATM   28  O1  UNL     1       0.610  50.580 -14.604  1.00  0.00    -0.293 OA
BRANCH  27  29
HETATM   29  C4  UNL     1       1.891  51.918 -16.012  1.00  0.00     0.052 C 
HETATM   30  C2  UNL     1       3.124  51.810 -15.482  1.00  0.00    -0.084 C 
HETATM   31  C1  UNL     1       4.266  52.591 -16.084  1.00  0.00     0.043 C 
HETATM   32  C3  UNL     1       3.509  51.000 -14.277  1.00  0.00     0.043 C 
ENDBRANCH  27  29
ENDBRANCH  26  27
ENDBRANCH  24  26
ENDBRANCH   1  24
TORSDOF 4
ENDMDL
