MODEL 1
REMARK minimizedAffinity -6.846241
REMARK CNNscore 0.718810916
REMARK CNNaffinity 6.4983964
REMARK  9 active torsions:
REMARK  status: ('A' for Active; 'I' for Inactive)
REMARK    1  A    between atoms: C2_2  and  C3_3 
REMARK    2  A    between atoms: C3_3  and  C5_5 
REMARK    3  A    between atoms: C3_3  and  C6_7 
REMARK    4  A    between atoms: C5_5  and  O1_6 
REMARK    5  A    between atoms: C7_8  and  O2_9 
REMARK    6  A    between atoms: C18_22  and  O5_23 
REMARK    7  A    between atoms: O5_23  and  C19_24 
REMARK    8  A    between atoms: C19_24  and  C20_26 
REMARK    9  A    between atoms: C29_36  and  O8_37 
ROOT
HETATM    1  C6  UNL     1       8.203  57.923  -4.416  1.00  0.00     0.023 A 
HETATM    2  C7  UNL     1       7.105  58.722  -4.019  1.00  0.00     0.076 A 
HETATM    3  C8  UNL     1       5.835  58.586  -4.586  1.00  0.00     0.053 A 
HETATM    4  C9  UNL     1       5.620  57.658  -5.605  1.00  0.00     0.034 A 
HETATM    5  C10 UNL     1       4.274  57.541  -6.189  1.00  0.00     0.192 A 
HETATM    6  O3  UNL     1       3.365  58.249  -5.771  1.00  0.00    -0.287 OA
HETATM    7  C11 UNL     1       4.054  56.569  -7.293  1.00  0.00     0.035 A 
HETATM    8  C12 UNL     1       5.076  55.847  -7.775  1.00  0.00     0.131 A 
HETATM    9  O4  UNL     1       4.974  54.984  -8.841  1.00  0.00    -0.336 OA
HETATM   10  C13 UNL     1       3.683  54.652  -9.384  1.00  0.00     0.065 C 
HETATM   11  C14 UNL     1       3.973  54.319 -10.863  1.00  0.00     0.046 C 
HETATM   12  C15 UNL     1       3.241  53.349  -8.706  1.00  0.00     0.046 C 
HETATM   13  C16 UNL     1       2.702  55.859  -9.294  1.00  0.00     0.031 C 
HETATM   14  C17 UNL     1       1.286  55.632  -9.854  1.00  0.00     0.041 C 
HETATM   15  C18 UNL     1       0.291  55.011  -8.868  1.00  0.00     0.136 C 
HETATM   16  C23 UNL     1       0.233  55.786  -7.541  1.00  0.00     0.012 C 
HETATM   17  C24 UNL     1      -0.446  57.157  -7.661  1.00  0.00     0.012 C 
HETATM   18  C25 UNL     1       1.638  55.903  -6.935  1.00  0.00     0.017 C 
HETATM   19  C26 UNL     1       2.671  56.524  -7.898  1.00  0.00     0.033 C 
HETATM   20  C27 UNL     1       6.443  55.950  -7.181  1.00  0.00     0.219 A 
HETATM   21  O7  UNL     1       7.376  55.265  -7.593  1.00  0.00    -0.284 OA
HETATM   22  C28 UNL     1       6.676  56.890  -6.070  1.00  0.00     0.065 A 
HETATM   23  C29 UNL     1       7.960  57.031  -5.488  1.00  0.00     0.091 A 
ENDROOT
BRANCH   1  24
HETATM   24  C3  UNL     1       9.598  58.092  -3.734  1.00  0.00     0.027 C 
HETATM   25  C4  UNL     1       9.568  58.762  -2.331  1.00  0.00     0.027 C 
BRANCH  24  26
HETATM   26  C2  UNL     1      10.489  59.073  -4.526  1.00  0.00    -0.021 C 
HETATM   27  C1  UNL     1      10.107  60.111  -5.282  1.00  0.00     0.008 C 
ENDBRANCH  24  26
BRANCH  24  28
HETATM   28  C5  UNL     1      10.214  56.668  -3.530  1.00  0.00     0.182 C 
BRANCH  28  29
HETATM   29  O1  UNL     1      11.328  56.369  -4.374  1.00  0.00    -0.399 OA
HETATM   30  H9  UNL     1      11.655  57.221  -4.729  1.00  0.00     0.209 HD
ENDBRANCH  28  29
ENDBRANCH  24  28
ENDBRANCH   1  24
BRANCH   2  31
HETATM   31  O2  UNL     1       7.279  59.708  -3.083  1.00  0.00    -0.360 OA
HETATM   32  H10 UNL     1       6.415  60.082  -2.833  1.00  0.00     0.217 HD
ENDBRANCH   2  31
BRANCH  23  33
HETATM   33  O8  UNL     1       9.016  56.320  -6.002  1.00  0.00    -0.359 OA
HETATM   34  H36 UNL     1       8.705  55.727  -6.723  1.00  0.00     0.217 HD
ENDBRANCH  23  33
BRANCH  15  35
HETATM   35  O5  UNL     1      -1.028  54.995  -9.448  1.00  0.00    -0.315 OA
BRANCH  35  36
HETATM   36  C19 UNL     1      -1.671  53.790  -9.459  1.00  0.00     0.262 C 
HETATM   37  O6  UNL     1      -1.611  52.961  -8.563  1.00  0.00    -0.265 OA
BRANCH  36  38
HETATM   38  C20 UNL     1      -2.450  53.631 -10.754  1.00  0.00     0.077 C 
HETATM   39  C21 UNL     1      -3.945  53.781 -10.492  1.00  0.00     0.020 C 
HETATM   40  C22 UNL     1      -2.151  52.282 -11.408  1.00  0.00     0.020 C 
ENDBRANCH  36  38
ENDBRANCH  35  36
ENDBRANCH  15  35
TORSDOF 9
ENDMDL
MODEL 2
REMARK minimizedAffinity -7.61360455
REMARK CNNscore 0.678986073
REMARK CNNaffinity 7.15308762
REMARK  9 active torsions:
REMARK  status: ('A' for Active; 'I' for Inactive)
REMARK    1  A    between atoms: C2_2  and  C3_3 
REMARK    2  A    between atoms: C3_3  and  C5_5 
REMARK    3  A    between atoms: C3_3  and  C6_7 
REMARK    4  A    between atoms: C5_5  and  O1_6 
REMARK    5  A    between atoms: C7_8  and  O2_9 
REMARK    6  A    between atoms: C18_22  and  O5_23 
REMARK    7  A    between atoms: O5_23  and  C19_24 
REMARK    8  A    between atoms: C19_24  and  C20_26 
REMARK    9  A    between atoms: C29_36  and  O8_37 
ROOT
HETATM    1  C6  UNL     1      -1.954  51.415 -22.943  1.00  0.00     0.023 A 
HETATM    2  C7  UNL     1      -0.824  52.265 -22.983  1.00  0.00     0.076 A 
HETATM    3  C8  UNL     1      -0.048  52.535 -21.853  1.00  0.00     0.053 A 
HETATM    4  C9  UNL     1      -0.396  51.985 -20.619  1.00  0.00     0.034 A 
HETATM    5  C10 UNL     1       0.435  52.292 -19.444  1.00  0.00     0.192 A 
HETATM    6  O3  UNL     1       1.418  53.015 -19.563  1.00  0.00    -0.287 OA
HETATM    7  C11 UNL     1       0.047  51.725 -18.124  1.00  0.00     0.035 A 
HETATM    8  C12 UNL     1      -1.065  50.986 -18.004  1.00  0.00     0.131 A 
HETATM    9  O4  UNL     1      -1.534  50.489 -16.811  1.00  0.00    -0.336 OA
HETATM   10  C13 UNL     1      -0.726  50.571 -15.622  1.00  0.00     0.065 C 
HETATM   11  C14 UNL     1      -1.754  50.614 -14.471  1.00  0.00     0.046 C 
HETATM   12  C15 UNL     1       0.026  49.240 -15.507  1.00  0.00     0.046 C 
HETATM   13  C16 UNL     1       0.137  51.869 -15.613  1.00  0.00     0.031 C 
HETATM   14  C17 UNL     1       1.041  52.079 -14.385  1.00  0.00     0.041 C 
HETATM   15  C18 UNL     1       2.416  51.408 -14.469  1.00  0.00     0.136 C 
HETATM   16  C23 UNL     1       3.161  51.781 -15.762  1.00  0.00     0.012 C 
HETATM   17  C24 UNL     1       3.654  53.234 -15.789  1.00  0.00     0.012 C 
HETATM   18  C25 UNL     1       2.292  51.457 -16.985  1.00  0.00     0.017 C 
HETATM   19  C26 UNL     1       0.897  52.113 -16.938  1.00  0.00     0.033 C 
HETATM   20  C27 UNL     1      -1.907  50.659 -19.193  1.00  0.00     0.219 A 
HETATM   21  O7  UNL     1      -2.908  49.952 -19.097  1.00  0.00    -0.284 OA
HETATM   22  C28 UNL     1      -1.527  51.191 -20.514  1.00  0.00     0.065 A 
HETATM   23  C29 UNL     1      -2.306  50.919 -21.665  1.00  0.00     0.091 A 
ENDROOT
BRANCH   1  24
HETATM   24  C3  UNL     1      -2.774  51.120 -24.240  1.00  0.00     0.027 C 
HETATM   25  C4  UNL     1      -4.279  51.502 -24.168  1.00  0.00     0.027 C 
BRANCH  24  26
HETATM   26  C2  UNL     1      -2.852  49.603 -24.515  1.00  0.00    -0.021 C 
HETATM   27  C1  UNL     1      -3.909  48.891 -24.929  1.00  0.00     0.008 C 
ENDBRANCH  24  26
BRANCH  24  28
HETATM   28  C5  UNL     1      -2.159  51.966 -25.404  1.00  0.00     0.182 C 
BRANCH  28  29
HETATM   29  O1  UNL     1      -3.047  52.925 -25.985  1.00  0.00    -0.399 OA
HETATM   30  H9  UNL     1      -3.786  53.048 -25.354  1.00  0.00     0.209 HD
ENDBRANCH  28  29
ENDBRANCH  24  28
ENDBRANCH   1  24
BRANCH   2  31
HETATM   31  O2  UNL     1      -0.486  52.901 -24.150  1.00  0.00    -0.360 OA
HETATM   32  H10 UNL     1       0.373  53.346 -24.046  1.00  0.00     0.217 HD
ENDBRANCH   2  31
BRANCH  23  33
HETATM   33  O8  UNL     1      -3.465  50.192 -21.540  1.00  0.00    -0.359 OA
HETATM   34  H36 UNL     1      -3.577  49.893 -20.610  1.00  0.00     0.217 HD
ENDBRANCH  23  33
BRANCH  15  35
HETATM   35  O5  UNL     1       3.224  51.805 -13.344  1.00  0.00    -0.315 OA
BRANCH  35  36
HETATM   36  C19 UNL     1       3.099  51.050 -12.212  1.00  0.00     0.262 C 
HETATM   37  O6  UNL     1       2.815  49.862 -12.196  1.00  0.00    -0.265 OA
BRANCH  36  38
HETATM   38  C20 UNL     1       3.343  51.914 -10.986  1.00  0.00     0.077 C 
HETATM   39  C21 UNL     1       2.967  51.149  -9.720  1.00  0.00     0.020 C 
HETATM   40  C22 UNL     1       2.558  53.222 -11.075  1.00  0.00     0.020 C 
ENDBRANCH  36  38
ENDBRANCH  35  36
ENDBRANCH  15  35
TORSDOF 9
ENDMDL
MODEL 3
REMARK minimizedAffinity -9.5441618
REMARK CNNscore 0.653766215
REMARK CNNaffinity 7.56568003
REMARK  9 active torsions:
REMARK  status: ('A' for Active; 'I' for Inactive)
REMARK    1  A    between atoms: C2_2  and  C3_3 
REMARK    2  A    between atoms: C3_3  and  C5_5 
REMARK    3  A    between atoms: C3_3  and  C6_7 
REMARK    4  A    between atoms: C5_5  and  O1_6 
REMARK    5  A    between atoms: C7_8  and  O2_9 
REMARK    6  A    between atoms: C18_22  and  O5_23 
REMARK    7  A    between atoms: O5_23  and  C19_24 
REMARK    8  A    between atoms: C19_24  and  C20_26 
REMARK    9  A    between atoms: C29_36  and  O8_37 
ROOT
HETATM    1  C6  UNL     1      -0.468  51.835 -25.123  1.00  0.00     0.023 A 
HETATM    2  C7  UNL     1       0.451  52.665 -24.438  1.00  0.00     0.076 A 
HETATM    3  C8  UNL     1       0.547  52.685 -23.044  1.00  0.00     0.053 A 
HETATM    4  C9  UNL     1      -0.302  51.892 -22.273  1.00  0.00     0.034 A 
HETATM    5  C10 UNL     1      -0.184  51.939 -20.807  1.00  0.00     0.192 A 
HETATM    6  O3  UNL     1       0.658  52.663 -20.286  1.00  0.00    -0.287 OA
HETATM    7  C11 UNL     1      -1.108  51.111 -19.986  1.00  0.00     0.035 A 
HETATM    8  C12 UNL     1      -2.061  50.374 -20.574  1.00  0.00     0.131 A 
HETATM    9  O4  UNL     1      -3.001  49.641 -19.888  1.00  0.00    -0.336 OA
HETATM   10  C13 UNL     1      -2.886  49.466 -18.463  1.00  0.00     0.065 C 
HETATM   11  C14 UNL     1      -4.343  49.276 -17.990  1.00  0.00     0.046 C 
HETATM   12  C15 UNL     1      -2.161  48.134 -18.240  1.00  0.00     0.046 C 
HETATM   13  C16 UNL     1      -2.267  50.725 -17.785  1.00  0.00     0.031 C 
HETATM   14  C17 UNL     1      -2.101  50.666 -16.256  1.00  0.00     0.041 C 
HETATM   15  C18 UNL     1      -0.801  50.016 -15.770  1.00  0.00     0.136 C 
HETATM   16  C23 UNL     1       0.439  50.644 -16.427  1.00  0.00     0.012 C 
HETATM   17  C24 UNL     1       0.739  52.067 -15.935  1.00  0.00     0.012 C 
HETATM   18  C25 UNL     1       0.312  50.591 -17.956  1.00  0.00     0.017 C 
HETATM   19  C26 UNL     1      -0.986  51.235 -18.486  1.00  0.00     0.033 C 
HETATM   20  C27 UNL     1      -2.181  50.309 -22.062  1.00  0.00     0.219 A 
HETATM   21  O7  UNL     1      -3.028  49.607 -22.608  1.00  0.00    -0.284 OA
HETATM   22  C28 UNL     1      -1.259  51.103 -22.893  1.00  0.00     0.065 A 
HETATM   23  C29 UNL     1      -1.347  51.085 -24.307  1.00  0.00     0.091 A 
ENDROOT
BRANCH   1  24
HETATM   24  C3  UNL     1      -0.519  51.825 -26.684  1.00  0.00     0.027 C 
HETATM   25  C4  UNL     1      -1.630  50.930 -27.301  1.00  0.00     0.027 C 
BRANCH  24  26
HETATM   26  C2  UNL     1       0.756  51.190 -27.279  1.00  0.00    -0.021 C 
HETATM   27  C1  UNL     1       1.677  51.764 -28.064  1.00  0.00     0.008 C 
ENDBRANCH  24  26
BRANCH  24  28
HETATM   28  C5  UNL     1      -0.809  53.285 -27.168  1.00  0.00     0.182 C 
BRANCH  28  29
HETATM   29  O1  UNL     1      -1.991  53.432 -27.961  1.00  0.00    -0.399 OA
HETATM   30  H9  UNL     1      -2.532  52.629 -27.818  1.00  0.00     0.209 HD
ENDBRANCH  28  29
ENDBRANCH  24  28
ENDBRANCH   1  24
BRANCH   2  31
HETATM   31  O2  UNL     1       1.250  53.528 -25.142  1.00  0.00    -0.360 OA
HETATM   32  H10 UNL     1       1.902  53.934 -24.544  1.00  0.00     0.217 HD
ENDBRANCH   2  31
BRANCH  23  33
HETATM   33  O8  UNL     1      -2.344  50.358 -24.911  1.00  0.00    -0.359 OA
HETATM   34  H36 UNL     1      -2.866  49.871 -24.233  1.00  0.00     0.217 HD
ENDBRANCH  23  33
BRANCH  15  35
HETATM   35  O5  UNL     1      -0.686  50.161 -14.341  1.00  0.00    -0.315 OA
BRANCH  35  36
HETATM   36  C19 UNL     1      -1.849  50.379 -13.659  1.00  0.00     0.262 C 
HETATM   37  O6  UNL     1      -2.676  49.517 -13.397  1.00  0.00    -0.265 OA
BRANCH  36  38
HETATM   38  C20 UNL     1      -1.969  51.851 -13.298  1.00  0.00     0.077 C 
HETATM   39  C21 UNL     1      -0.737  52.304 -12.520  1.00  0.00     0.020 C 
HETATM   40  C22 UNL     1      -3.240  52.113 -12.491  1.00  0.00     0.020 C 
ENDBRANCH  36  38
ENDBRANCH  35  36
ENDBRANCH  15  35
TORSDOF 9
ENDMDL
MODEL 4
REMARK minimizedAffinity -6.96793413
REMARK CNNscore 0.575155079
REMARK CNNaffinity 7.11265373
REMARK  9 active torsions:
REMARK  status: ('A' for Active; 'I' for Inactive)
REMARK    1  A    between atoms: C2_2  and  C3_3 
REMARK    2  A    between atoms: C3_3  and  C5_5 
REMARK    3  A    between atoms: C3_3  and  C6_7 
REMARK    4  A    between atoms: C5_5  and  O1_6 
REMARK    5  A    between atoms: C7_8  and  O2_9 
REMARK    6  A    between atoms: C18_22  and  O5_23 
REMARK    7  A    between atoms: O5_23  and  C19_24 
REMARK    8  A    between atoms: C19_24  and  C20_26 
REMARK    9  A    between atoms: C29_36  and  O8_37 
ROOT
HETATM    1  C6  UNL     1      -0.583  51.890 -23.793  1.00  0.00     0.023 A 
HETATM    2  C7  UNL     1      -1.366  50.721 -23.642  1.00  0.00     0.076 A 
HETATM    3  C8  UNL     1      -1.525  50.079 -22.410  1.00  0.00     0.053 A 
HETATM    4  C9  UNL     1      -0.873  50.568 -21.279  1.00  0.00     0.034 A 
HETATM    5  C10 UNL     1      -1.052  49.868 -19.996  1.00  0.00     0.192 A 
HETATM    6  O3  UNL     1      -1.771  48.877 -19.938  1.00  0.00    -0.287 OA
HETATM    7  C11 UNL     1      -0.335  50.376 -18.796  1.00  0.00     0.035 A 
HETATM    8  C12 UNL     1       0.494  51.426 -18.895  1.00  0.00     0.131 A 
HETATM    9  O4  UNL     1       1.250  51.911 -17.854  1.00  0.00    -0.336 OA
HETATM   10  C13 UNL     1       1.037  51.426 -16.515  1.00  0.00     0.065 C 
HETATM   11  C14 UNL     1       2.409  51.598 -15.830  1.00  0.00     0.046 C 
HETATM   12  C15 UNL     1       0.070  52.407 -15.840  1.00  0.00     0.046 C 
HETATM   13  C16 UNL     1       0.627  49.923 -16.514  1.00  0.00     0.031 C 
HETATM   14  C17 UNL     1       0.379  49.283 -15.137  1.00  0.00     0.041 C 
HETATM   15  C18 UNL     1      -1.040  49.460 -14.585  1.00  0.00     0.136 C 
HETATM   16  C23 UNL     1      -2.111  49.011 -15.593  1.00  0.00     0.012 C 
HETATM   17  C24 UNL     1      -2.170  47.490 -15.790  1.00  0.00     0.012 C 
HETATM   18  C25 UNL     1      -1.922  49.746 -16.928  1.00  0.00     0.017 C 
HETATM   19  C26 UNL     1      -0.505  49.593 -17.517  1.00  0.00     0.033 C 
HETATM   20  C27 UNL     1       0.672  52.151 -20.189  1.00  0.00     0.219 A 
HETATM   21  O7  UNL     1       1.401  53.136 -20.278  1.00  0.00    -0.284 OA
HETATM   22  C28 UNL     1      -0.048  51.677 -21.384  1.00  0.00     0.065 A 
HETATM   23  C29 UNL     1       0.104  52.325 -22.635  1.00  0.00     0.091 A 
ENDROOT
BRANCH   1  24
HETATM   24  C3  UNL     1      -0.459  52.589 -25.184  1.00  0.00     0.027 C 
HETATM   25  C4  UNL     1      -0.053  54.089 -25.134  1.00  0.00     0.027 C 
BRANCH  24  26
HETATM   26  C2  UNL     1      -1.828  52.663 -25.894  1.00  0.00    -0.021 C 
HETATM   27  C1  UNL     1      -2.088  52.549 -27.204  1.00  0.00     0.008 C 
ENDBRANCH  24  26
BRANCH  24  28
HETATM   28  C5  UNL     1       0.660  51.856 -25.997  1.00  0.00     0.182 C 
BRANCH  28  29
HETATM   29  O1  UNL     1       1.854  52.618 -26.198  1.00  0.00    -0.399 OA
HETATM   30  H9  UNL     1       1.835  53.354 -25.553  1.00  0.00     0.209 HD
ENDBRANCH  28  29
ENDBRANCH  24  28
ENDBRANCH   1  24
BRANCH   2  31
HETATM   31  O2  UNL     1      -1.960  50.149 -24.737  1.00  0.00    -0.360 OA
HETATM   32  H10 UNL     1      -2.554  49.432 -24.452  1.00  0.00     0.217 HD
ENDBRANCH   2  31
BRANCH  23  33
HETATM   33  O8  UNL     1       0.979  53.378 -22.748  1.00  0.00    -0.359 OA
HETATM   34  H36 UNL     1       1.369  53.589 -21.869  1.00  0.00     0.217 HD
ENDBRANCH  23  33
BRANCH  15  35
HETATM   35  O5  UNL     1      -1.195  48.689 -13.378  1.00  0.00    -0.315 OA
BRANCH  35  36
HETATM   36  C19 UNL     1      -1.157  49.387 -12.204  1.00  0.00     0.262 C 
HETATM   37  O6  UNL     1      -1.642  50.497 -12.037  1.00  0.00    -0.265 OA
BRANCH  36  38
HETATM   38  C20 UNL     1      -0.405  48.588 -11.152  1.00  0.00     0.077 C 
HETATM   39  C21 UNL     1       0.254  47.368 -11.789  1.00  0.00     0.020 C 
HETATM   40  C22 UNL     1      -1.337  48.165 -10.018  1.00  0.00     0.020 C 
ENDBRANCH  36  38
ENDBRANCH  35  36
ENDBRANCH  15  35
TORSDOF 9
ENDMDL
MODEL 5
REMARK minimizedAffinity -7.09444618
REMARK CNNscore 0.56409204
REMARK CNNaffinity 6.49680519
REMARK  9 active torsions:
REMARK  status: ('A' for Active; 'I' for Inactive)
REMARK    1  A    between atoms: C2_2  and  C3_3 
REMARK    2  A    between atoms: C3_3  and  C5_5 
REMARK    3  A    between atoms: C3_3  and  C6_7 
REMARK    4  A    between atoms: C5_5  and  O1_6 
REMARK    5  A    between atoms: C7_8  and  O2_9 
REMARK    6  A    between atoms: C18_22  and  O5_23 
REMARK    7  A    between atoms: O5_23  and  C19_24 
REMARK    8  A    between atoms: C19_24  and  C20_26 
REMARK    9  A    between atoms: C29_36  and  O8_37 
ROOT
HETATM    1  C6  UNL     1       0.232  51.400 -13.158  1.00  0.00     0.023 A 
HETATM    2  C7  UNL     1      -0.580  52.457 -12.686  1.00  0.00     0.076 A 
HETATM    3  C8  UNL     1      -0.142  53.363 -11.716  1.00  0.00     0.053 A 
HETATM    4  C9  UNL     1       1.126  53.224 -11.152  1.00  0.00     0.034 A 
HETATM    5  C10 UNL     1       1.559  54.188 -10.127  1.00  0.00     0.192 A 
HETATM    6  O3  UNL     1       0.809  55.097  -9.790  1.00  0.00    -0.287 OA
HETATM    7  C11 UNL     1       2.902  54.022  -9.509  1.00  0.00     0.035 A 
HETATM    8  C12 UNL     1       3.682  52.986  -9.849  1.00  0.00     0.131 A 
HETATM    9  O4  UNL     1       4.901  52.718  -9.273  1.00  0.00    -0.336 OA
HETATM   10  C13 UNL     1       5.511  53.676  -8.387  1.00  0.00     0.065 C 
HETATM   11  C14 UNL     1       6.381  52.816  -7.446  1.00  0.00     0.046 C 
HETATM   12  C15 UNL     1       6.466  54.519  -9.240  1.00  0.00     0.046 C 
HETATM   13  C16 UNL     1       4.439  54.448  -7.562  1.00  0.00     0.031 C 
HETATM   14  C17 UNL     1       4.967  55.497  -6.567  1.00  0.00     0.041 C 
HETATM   15  C18 UNL     1       5.215  56.888  -7.163  1.00  0.00     0.136 C 
HETATM   16  C23 UNL     1       3.985  57.422  -7.913  1.00  0.00     0.012 C 
HETATM   17  C24 UNL     1       2.824  57.814  -6.988  1.00  0.00     0.012 C 
HETATM   18  C25 UNL     1       3.538  56.415  -8.982  1.00  0.00     0.017 C 
HETATM   19  C26 UNL     1       3.279  55.001  -8.423  1.00  0.00     0.033 C 
HETATM   20  C27 UNL     1       3.257  52.010 -10.897  1.00  0.00     0.219 A 
HETATM   21  O7  UNL     1       3.982  51.079 -11.240  1.00  0.00    -0.284 OA
HETATM   22  C28 UNL     1       1.940  52.171 -11.539  1.00  0.00     0.065 A 
HETATM   23  C29 UNL     1       1.490  51.259 -12.526  1.00  0.00     0.091 A 
ENDROOT
BRANCH   1  24
HETATM   24  C3  UNL     1      -0.291  50.429 -14.265  1.00  0.00     0.027 C 
HETATM   25  C4  UNL     1      -0.342  48.930 -13.856  1.00  0.00     0.027 C 
BRANCH  24  26
HETATM   26  C2  UNL     1       0.674  50.388 -15.470  1.00  0.00    -0.021 C 
HETATM   27  C1  UNL     1       0.370  50.270 -16.769  1.00  0.00     0.008 C 
ENDBRANCH  24  26
BRANCH  24  28
HETATM   28  C5  UNL     1      -1.759  50.841 -14.617  1.00  0.00     0.182 C 
BRANCH  28  29
HETATM   29  O1  UNL     1      -2.759  49.898 -14.223  1.00  0.00    -0.399 OA
HETATM   30  H9  UNL     1      -2.345  49.300 -13.567  1.00  0.00     0.209 HD
ENDBRANCH  28  29
ENDBRANCH  24  28
ENDBRANCH   1  24
BRANCH   2  31
HETATM   31  O2  UNL     1      -1.866  52.590 -13.143  1.00  0.00    -0.360 OA
HETATM   32  H10 UNL     1      -2.246  53.425 -12.818  1.00  0.00     0.217 HD
ENDBRANCH   2  31
BRANCH  23  33
HETATM   33  O8  UNL     1       2.271  50.177 -12.851  1.00  0.00    -0.359 OA
HETATM   34  H36 UNL     1       3.122  50.213 -12.357  1.00  0.00     0.217 HD
ENDBRANCH  23  33
BRANCH  15  35
HETATM   35  O5  UNL     1       5.552  57.816  -6.114  1.00  0.00    -0.315 OA
BRANCH  35  36
HETATM   36  C19 UNL     1       6.789  57.675  -5.553  1.00  0.00     0.262 C 
HETATM   37  O6  UNL     1       7.624  56.854  -5.905  1.00  0.00    -0.265 OA
BRANCH  36  38
HETATM   38  C20 UNL     1       6.960  58.673  -4.420  1.00  0.00     0.077 C 
HETATM   39  C21 UNL     1       5.617  59.306  -4.069  1.00  0.00     0.020 C 
HETATM   40  C22 UNL     1       7.981  59.749  -4.789  1.00  0.00     0.020 C 
ENDBRANCH  36  38
ENDBRANCH  35  36
ENDBRANCH  15  35
TORSDOF 9
ENDMDL
MODEL 6
REMARK minimizedAffinity -8.13618565
REMARK CNNscore 0.552425265
REMARK CNNaffinity 7.0357213
REMARK  9 active torsions:
REMARK  status: ('A' for Active; 'I' for Inactive)
REMARK    1  A    between atoms: C2_2  and  C3_3 
REMARK    2  A    between atoms: C3_3  and  C5_5 
REMARK    3  A    between atoms: C3_3  and  C6_7 
REMARK    4  A    between atoms: C5_5  and  O1_6 
REMARK    5  A    between atoms: C7_8  and  O2_9 
REMARK    6  A    between atoms: C18_22  and  O5_23 
REMARK    7  A    between atoms: O5_23  and  C19_24 
REMARK    8  A    between atoms: C19_24  and  C20_26 
REMARK    9  A    between atoms: C29_36  and  O8_37 
ROOT
HETATM    1  C6  UNL     1      -0.760  51.564 -24.527  1.00  0.00     0.023 A 
HETATM    2  C7  UNL     1      -1.641  50.460 -24.613  1.00  0.00     0.076 A 
HETATM    3  C8  UNL     1      -2.042  49.731 -23.491  1.00  0.00     0.053 A 
HETATM    4  C9  UNL     1      -1.546  50.061 -22.230  1.00  0.00     0.034 A 
HETATM    5  C10 UNL     1      -1.980  49.272 -21.066  1.00  0.00     0.192 A 
HETATM    6  O3  UNL     1      -2.770  48.347 -21.216  1.00  0.00    -0.287 OA
HETATM    7  C11 UNL     1      -1.430  49.610 -19.725  1.00  0.00     0.035 A 
HETATM    8  C12 UNL     1      -0.521  50.586 -19.592  1.00  0.00     0.131 A 
HETATM    9  O4  UNL     1       0.092  50.911 -18.405  1.00  0.00    -0.336 OA
HETATM   10  C13 UNL     1      -0.369  50.334 -17.168  1.00  0.00     0.065 C 
HETATM   11  C14 UNL     1       0.884  50.324 -16.268  1.00  0.00     0.046 C 
HETATM   12  C15 UNL     1      -1.357  51.335 -16.556  1.00  0.00     0.046 C 
HETATM   13  C16 UNL     1      -0.884  48.879 -17.379  1.00  0.00     0.031 C 
HETATM   14  C17 UNL     1      -1.396  48.147 -16.126  1.00  0.00     0.041 C 
HETATM   15  C18 UNL     1      -2.869  48.400 -15.784  1.00  0.00     0.136 C 
HETATM   16  C23 UNL     1      -3.793  48.136 -16.983  1.00  0.00     0.012 C 
HETATM   17  C24 UNL     1      -3.932  46.649 -17.336  1.00  0.00     0.012 C 
HETATM   18  C25 UNL     1      -3.339  48.963 -18.194  1.00  0.00     0.017 C 
HETATM   19  C26 UNL     1      -1.860  48.737 -18.571  1.00  0.00     0.033 C 
HETATM   20  C27 UNL     1      -0.085  51.402 -20.765  1.00  0.00     0.219 A 
HETATM   21  O7  UNL     1       0.721  52.322 -20.644  1.00  0.00    -0.284 OA
HETATM   22  C28 UNL     1      -0.636  51.098 -22.098  1.00  0.00     0.065 A 
HETATM   23  C29 UNL     1      -0.237  51.835 -23.240  1.00  0.00     0.091 A 
ENDROOT
BRANCH   1  24
HETATM   24  C3  UNL     1      -0.362  52.366 -25.807  1.00  0.00     0.027 C 
HETATM   25  C4  UNL     1      -1.514  52.594 -26.826  1.00  0.00     0.027 C 
BRANCH  24  26
HETATM   26  C2  UNL     1       0.656  51.580 -26.661  1.00  0.00    -0.021 C 
HETATM   27  C1  UNL     1       1.985  51.741 -26.721  1.00  0.00     0.008 C 
ENDBRANCH  24  26
BRANCH  24  28
HETATM   28  C5  UNL     1       0.119  53.787 -25.358  1.00  0.00     0.182 C 
BRANCH  28  29
HETATM   29  O1  UNL     1       0.094  54.781 -26.386  1.00  0.00    -0.399 OA
HETATM   30  H9  UNL     1      -0.476  54.437 -27.104  1.00  0.00     0.209 HD
ENDBRANCH  28  29
ENDBRANCH  24  28
ENDBRANCH   1  24
BRANCH   2  31
HETATM   31  O2  UNL     1      -2.091  50.038 -25.838  1.00  0.00    -0.360 OA
HETATM   32  H10 UNL     1      -2.775  49.355 -25.719  1.00  0.00     0.217 HD
ENDBRANCH   2  31
BRANCH  23  33
HETATM   33  O8  UNL     1       0.720  52.812 -23.113  1.00  0.00    -0.359 OA
HETATM   34  H36 UNL     1       0.978  52.911 -22.168  1.00  0.00     0.217 HD
ENDBRANCH  23  33
BRANCH  15  35
HETATM   35  O5  UNL     1      -3.272  47.545 -14.697  1.00  0.00    -0.315 OA
BRANCH  35  36
HETATM   36  C19 UNL     1      -3.388  48.137 -13.471  1.00  0.00     0.262 C 
HETATM   37  O6  UNL     1      -4.115  47.741 -12.572  1.00  0.00    -0.265 OA
BRANCH  36  38
HETATM   38  C20 UNL     1      -2.499  49.368 -13.405  1.00  0.00     0.077 C 
HETATM   39  C21 UNL     1      -1.261  49.078 -12.562  1.00  0.00     0.020 C 
HETATM   40  C22 UNL     1      -3.265  50.565 -12.841  1.00  0.00     0.020 C 
ENDBRANCH  36  38
ENDBRANCH  35  36
ENDBRANCH  15  35
TORSDOF 9
ENDMDL
MODEL 7
REMARK minimizedAffinity -7.72212982
REMARK CNNscore 0.530213654
REMARK CNNaffinity 6.54643059
REMARK  9 active torsions:
REMARK  status: ('A' for Active; 'I' for Inactive)
REMARK    1  A    between atoms: C2_2  and  C3_3 
REMARK    2  A    between atoms: C3_3  and  C5_5 
REMARK    3  A    between atoms: C3_3  and  C6_7 
REMARK    4  A    between atoms: C5_5  and  O1_6 
REMARK    5  A    between atoms: C7_8  and  O2_9 
REMARK    6  A    between atoms: C18_22  and  O5_23 
REMARK    7  A    between atoms: O5_23  and  C19_24 
REMARK    8  A    between atoms: C19_24  and  C20_26 
REMARK    9  A    between atoms: C29_36  and  O8_37 
ROOT
HETATM    1  C6  UNL     1      -1.335  52.548 -12.044  1.00  0.00     0.023 A 
HETATM    2  C7  UNL     1      -0.098  52.138 -12.594  1.00  0.00     0.076 A 
HETATM    3  C8  UNL     1       1.129  52.573 -12.086  1.00  0.00     0.053 A 
HETATM    4  C9  UNL     1       1.165  53.468 -11.017  1.00  0.00     0.034 A 
HETATM    5  C10 UNL     1       2.470  53.915 -10.507  1.00  0.00     0.192 A 
HETATM    6  O3  UNL     1       3.502  53.492 -11.017  1.00  0.00    -0.287 OA
HETATM    7  C11 UNL     1       2.506  54.891  -9.384  1.00  0.00     0.035 A 
HETATM    8  C12 UNL     1       1.367  55.386  -8.881  1.00  0.00     0.131 A 
HETATM    9  O4  UNL     1       1.312  56.345  -7.897  1.00  0.00    -0.336 OA
HETATM   10  C13 UNL     1       2.509  56.736  -7.197  1.00  0.00     0.065 C 
HETATM   11  C14 UNL     1       2.235  58.193  -6.769  1.00  0.00     0.046 C 
HETATM   12  C15 UNL     1       2.566  55.892  -5.918  1.00  0.00     0.046 C 
HETATM   13  C16 UNL     1       3.755  56.681  -8.131  1.00  0.00     0.031 C 
HETATM   14  C17 UNL     1       5.099  57.087  -7.500  1.00  0.00     0.041 C 
HETATM   15  C18 UNL     1       5.844  55.958  -6.779  1.00  0.00     0.136 C 
HETATM   16  C23 UNL     1       6.015  54.718  -7.671  1.00  0.00     0.012 C 
HETATM   17  C24 UNL     1       7.023  54.915  -8.811  1.00  0.00     0.012 C 
HETATM   18  C25 UNL     1       4.650  54.254  -8.199  1.00  0.00     0.017 C 
HETATM   19  C26 UNL     1       3.867  55.362  -8.932  1.00  0.00     0.033 C 
HETATM   20  C27 UNL     1       0.036  54.929  -9.383  1.00  0.00     0.219 A 
HETATM   21  O7  UNL     1      -1.013  55.352  -8.902  1.00  0.00    -0.284 OA
HETATM   22  C28 UNL     1      -0.020  53.945 -10.479  1.00  0.00     0.065 A 
HETATM   23  C29 UNL     1      -1.260  53.497 -10.997  1.00  0.00     0.091 A 
ENDROOT
BRANCH   1  24
HETATM   24  C3  UNL     1      -2.682  52.012 -12.629  1.00  0.00     0.027 C 
HETATM   25  C4  UNL     1      -3.053  50.563 -12.207  1.00  0.00     0.027 C 
BRANCH  24  26
HETATM   26  C2  UNL     1      -2.606  51.877 -14.165  1.00  0.00    -0.021 C 
HETATM   27  C1  UNL     1      -3.137  50.920 -14.938  1.00  0.00     0.008 C 
ENDBRANCH  24  26
BRANCH  24  28
HETATM   28  C5  UNL     1      -3.836  52.934 -12.110  1.00  0.00     0.182 C 
BRANCH  28  29
HETATM   29  O1  UNL     1      -4.267  53.935 -13.035  1.00  0.00    -0.399 OA
HETATM   30  H9  UNL     1      -3.934  53.672 -13.917  1.00  0.00     0.209 HD
ENDBRANCH  28  29
ENDBRANCH  24  28
ENDBRANCH   1  24
BRANCH   2  31
HETATM   31  O2  UNL     1      -0.075  51.326 -13.698  1.00  0.00    -0.360 OA
HETATM   32  H10 UNL     1       0.838  51.040 -13.877  1.00  0.00     0.217 HD
ENDBRANCH   2  31
BRANCH  23  33
HETATM   33  O8  UNL     1      -2.428  54.029 -10.508  1.00  0.00    -0.359 OA
HETATM   34  H36 UNL     1      -2.233  54.655  -9.774  1.00  0.00     0.217 HD
ENDBRANCH  23  33
BRANCH  15  35
HETATM   35  O5  UNL     1       7.149  56.414  -6.373  1.00  0.00    -0.315 OA
BRANCH  35  36
HETATM   36  C19 UNL     1       7.238  56.967  -5.127  1.00  0.00     0.262 C 
HETATM   37  O6  UNL     1       6.941  56.395  -4.089  1.00  0.00    -0.265 OA
BRANCH  36  38
HETATM   38  C20 UNL     1       7.736  58.399  -5.231  1.00  0.00     0.077 C 
HETATM   39  C21 UNL     1       9.214  58.471  -4.858  1.00  0.00     0.020 C 
HETATM   40  C22 UNL     1       6.911  59.330  -4.343  1.00  0.00     0.020 C 
ENDBRANCH  36  38
ENDBRANCH  35  36
ENDBRANCH  15  35
TORSDOF 9
ENDMDL
MODEL 8
REMARK minimizedAffinity -8.74267864
REMARK CNNscore 0.513241291
REMARK CNNaffinity 7.28433275
REMARK  9 active torsions:
REMARK  status: ('A' for Active; 'I' for Inactive)
REMARK    1  A    between atoms: C2_2  and  C3_3 
REMARK    2  A    between atoms: C3_3  and  C5_5 
REMARK    3  A    between atoms: C3_3  and  C6_7 
REMARK    4  A    between atoms: C5_5  and  O1_6 
REMARK    5  A    between atoms: C7_8  and  O2_9 
REMARK    6  A    between atoms: C18_22  and  O5_23 
REMARK    7  A    between atoms: O5_23  and  C19_24 
REMARK    8  A    between atoms: C19_24  and  C20_26 
REMARK    9  A    between atoms: C29_36  and  O8_37 
ROOT
HETATM    1  C6  UNL     1      -0.710  51.696 -25.129  1.00  0.00     0.023 A 
HETATM    2  C7  UNL     1       0.212  52.454 -24.369  1.00  0.00     0.076 A 
HETATM    3  C8  UNL     1       0.265  52.390 -22.974  1.00  0.00     0.053 A 
HETATM    4  C9  UNL     1      -0.633  51.582 -22.277  1.00  0.00     0.034 A 
HETATM    5  C10 UNL     1      -0.559  51.539 -20.808  1.00  0.00     0.192 A 
HETATM    6  O3  UNL     1       0.288  52.203 -20.221  1.00  0.00    -0.287 OA
HETATM    7  C11 UNL     1      -1.534  50.696 -20.066  1.00  0.00     0.035 A 
HETATM    8  C12 UNL     1      -2.490  50.025 -20.724  1.00  0.00     0.131 A 
HETATM    9  O4  UNL     1      -3.474  49.286 -20.111  1.00  0.00    -0.336 OA
HETATM   10  C13 UNL     1      -3.409  49.024 -18.696  1.00  0.00     0.065 C 
HETATM   11  C14 UNL     1      -4.885  48.854 -18.278  1.00  0.00     0.046 C 
HETATM   12  C15 UNL     1      -2.733  47.658 -18.531  1.00  0.00     0.046 C 
HETATM   13  C16 UNL     1      -2.774  50.221 -17.927  1.00  0.00     0.031 C 
HETATM   14  C17 UNL     1      -2.658  50.067 -16.400  1.00  0.00     0.041 C 
HETATM   15  C18 UNL     1      -1.394  49.347 -15.914  1.00  0.00     0.136 C 
HETATM   16  C23 UNL     1      -0.116  49.972 -16.496  1.00  0.00     0.012 C 
HETATM   17  C24 UNL     1       0.214  51.353 -15.912  1.00  0.00     0.012 C 
HETATM   18  C25 UNL     1      -0.196  50.012 -18.029  1.00  0.00     0.017 C 
HETATM   19  C26 UNL     1      -1.455  50.728 -18.558  1.00  0.00     0.033 C 
HETATM   20  C27 UNL     1      -2.565  50.052 -22.216  1.00  0.00     0.219 A 
HETATM   21  O7  UNL     1      -3.416  49.410 -22.828  1.00  0.00    -0.284 OA
HETATM   22  C28 UNL     1      -1.593  50.862 -22.971  1.00  0.00     0.065 A 
HETATM   23  C29 UNL     1      -1.638  50.930 -24.385  1.00  0.00     0.091 A 
ENDROOT
BRANCH   1  24
HETATM   24  C3  UNL     1      -0.713  51.779 -26.689  1.00  0.00     0.027 C 
HETATM   25  C4  UNL     1      -1.809  50.930 -27.392  1.00  0.00     0.027 C 
BRANCH  24  26
HETATM   26  C2  UNL     1       0.577  51.170 -27.281  1.00  0.00    -0.021 C 
HETATM   27  C1  UNL     1       1.535  51.786 -27.987  1.00  0.00     0.008 C 
ENDBRANCH  24  26
BRANCH  24  28
HETATM   28  C5  UNL     1      -0.979  53.268 -27.095  1.00  0.00     0.182 C 
BRANCH  28  29
HETATM   29  O1  UNL     1      -2.065  53.457 -28.005  1.00  0.00    -0.399 OA
HETATM   30  H9  UNL     1      -2.601  52.638 -27.986  1.00  0.00     0.209 HD
ENDBRANCH  28  29
ENDBRANCH  24  28
ENDBRANCH   1  24
BRANCH   2  31
HETATM   31  O2  UNL     1       1.059  53.330 -24.997  1.00  0.00    -0.360 OA
HETATM   32  H10 UNL     1       1.705  53.679 -24.357  1.00  0.00     0.217 HD
ENDBRANCH   2  31
BRANCH  23  33
HETATM   33  O8  UNL     1      -2.637  50.272 -25.061  1.00  0.00    -0.359 OA
HETATM   34  H36 UNL     1      -3.195  49.764 -24.429  1.00  0.00     0.217 HD
ENDBRANCH  23  33
BRANCH  15  35
HETATM   35  O5  UNL     1      -1.320  49.405 -14.477  1.00  0.00    -0.315 OA
BRANCH  35  36
HETATM   36  C19 UNL     1      -0.847  48.288 -13.849  1.00  0.00     0.262 C 
HETATM   37  O6  UNL     1       0.328  48.081 -13.586  1.00  0.00    -0.265 OA
BRANCH  36  38
HETATM   38  C20 UNL     1      -1.996  47.339 -13.549  1.00  0.00     0.077 C 
HETATM   39  C21 UNL     1      -3.023  48.022 -12.652  1.00  0.00     0.020 C 
HETATM   40  C22 UNL     1      -1.486  46.053 -12.899  1.00  0.00     0.020 C 
ENDBRANCH  36  38
ENDBRANCH  35  36
ENDBRANCH  15  35
TORSDOF 9
ENDMDL
MODEL 9
REMARK minimizedAffinity -7.7862649
REMARK CNNscore 0.4576132
REMARK CNNaffinity 6.85458708
REMARK  9 active torsions:
REMARK  status: ('A' for Active; 'I' for Inactive)
REMARK    1  A    between atoms: C2_2  and  C3_3 
REMARK    2  A    between atoms: C3_3  and  C5_5 
REMARK    3  A    between atoms: C3_3  and  C6_7 
REMARK    4  A    between atoms: C5_5  and  O1_6 
REMARK    5  A    between atoms: C7_8  and  O2_9 
REMARK    6  A    between atoms: C18_22  and  O5_23 
REMARK    7  A    between atoms: O5_23  and  C19_24 
REMARK    8  A    between atoms: C19_24  and  C20_26 
REMARK    9  A    between atoms: C29_36  and  O8_37 
ROOT
HETATM    1  C6  UNL     1      -0.978  51.287 -22.689  1.00  0.00     0.023 A 
HETATM    2  C7  UNL     1      -1.570  50.012 -22.532  1.00  0.00     0.076 A 
HETATM    3  C8  UNL     1      -1.600  49.345 -21.304  1.00  0.00     0.053 A 
HETATM    4  C9  UNL     1      -1.004  49.920 -20.182  1.00  0.00     0.034 A 
HETATM    5  C10 UNL     1      -1.044  49.192 -18.904  1.00  0.00     0.192 A 
HETATM    6  O3  UNL     1      -1.602  48.102 -18.840  1.00  0.00    -0.287 OA
HETATM    7  C11 UNL     1      -0.384  49.795 -17.715  1.00  0.00     0.035 A 
HETATM    8  C12 UNL     1       0.273  50.959 -17.821  1.00  0.00     0.131 A 
HETATM    9  O4  UNL     1       0.970  51.547 -16.793  1.00  0.00    -0.336 OA
HETATM   10  C13 UNL     1       0.865  51.027 -15.454  1.00  0.00     0.065 C 
HETATM   11  C14 UNL     1       2.211  51.400 -14.798  1.00  0.00     0.046 C 
HETATM   12  C15 UNL     1      -0.224  51.844 -14.748  1.00  0.00     0.046 C 
HETATM   13  C16 UNL     1       0.689  49.478 -15.460  1.00  0.00     0.031 C 
HETATM   14  C17 UNL     1       0.573  48.799 -14.083  1.00  0.00     0.041 C 
HETATM   15  C18 UNL     1      -0.843  48.754 -13.499  1.00  0.00     0.136 C 
HETATM   16  C23 UNL     1      -1.856  48.154 -14.487  1.00  0.00     0.012 C 
HETATM   17  C24 UNL     1      -1.688  46.643 -14.698  1.00  0.00     0.012 C 
HETATM   18  C25 UNL     1      -1.813  48.918 -15.818  1.00  0.00     0.017 C 
HETATM   19  C26 UNL     1      -0.403  48.987 -16.440  1.00  0.00     0.033 C 
HETATM   20  C27 UNL     1       0.308  51.712 -19.111  1.00  0.00     0.219 A 
HETATM   21  O7  UNL     1       0.877  52.797 -19.207  1.00  0.00    -0.284 OA
HETATM   22  C28 UNL     1      -0.360  51.142 -20.295  1.00  0.00     0.065 A 
HETATM   23  C29 UNL     1      -0.338  51.814 -21.542  1.00  0.00     0.091 A 
ENDROOT
BRANCH   1  24
HETATM   24  C3  UNL     1      -0.994  52.006 -24.076  1.00  0.00     0.027 C 
HETATM   25  C4  UNL     1      -0.703  51.089 -25.297  1.00  0.00     0.027 C 
BRANCH  24  26
HETATM   26  C2  UNL     1       0.152  53.035 -24.182  1.00  0.00    -0.021 C 
HETATM   27  C1  UNL     1       0.311  54.006 -25.092  1.00  0.00     0.008 C 
ENDBRANCH  24  26
BRANCH  24  28
HETATM   28  C5  UNL     1      -2.426  52.597 -24.299  1.00  0.00     0.182 C 
BRANCH  28  29
HETATM   29  O1  UNL     1      -2.873  52.594 -25.657  1.00  0.00    -0.399 OA
HETATM   30  H9  UNL     1      -2.295  51.973 -26.147  1.00  0.00     0.209 HD
ENDBRANCH  28  29
ENDBRANCH  24  28
ENDBRANCH   1  24
BRANCH   2  31
HETATM   31  O2  UNL     1      -2.095  49.363 -23.619  1.00  0.00    -0.360 OA
HETATM   32  H10 UNL     1      -2.567  48.562 -23.329  1.00  0.00     0.217 HD
ENDBRANCH   2  31
BRANCH  23  33
HETATM   33  O8  UNL     1       0.364  52.988 -21.664  1.00  0.00    -0.359 OA
HETATM   34  H36 UNL     1       0.738  53.250 -20.792  1.00  0.00     0.217 HD
ENDBRANCH  23  33
BRANCH  15  35
HETATM   35  O5  UNL     1      -0.850  47.960 -12.296  1.00  0.00    -0.315 OA
BRANCH  35  36
HETATM   36  C19 UNL     1      -0.909  48.648 -11.117  1.00  0.00     0.262 C 
HETATM   37  O6  UNL     1      -0.495  48.229 -10.046  1.00  0.00    -0.265 OA
BRANCH  36  38
HETATM   38  C20 UNL     1      -1.584  49.991 -11.335  1.00  0.00     0.077 C 
HETATM   39  C21 UNL     1      -0.749  51.107 -10.714  1.00  0.00     0.020 C 
HETATM   40  C22 UNL     1      -2.998  49.993 -10.755  1.00  0.00     0.020 C 
ENDBRANCH  36  38
ENDBRANCH  35  36
ENDBRANCH  15  35
TORSDOF 9
ENDMDL
