MODEL 1
REMARK minimizedAffinity -6.47388506
REMARK CNNscore 0.468518168
REMARK CNNaffinity 6.72567558
REMARK  13 active torsions:
REMARK  status: ('A' for Active; 'I' for Inactive)
REMARK    1  A    between atoms: C2_2  and  C4_4 
REMARK    2  A    between atoms: C5_6  and  C6_7 
REMARK    3  A    between atoms: C7_8  and  C8_9 
REMARK    4  A    between atoms: C9_10  and  C10_11 
REMARK    5  A    between atoms: C11_12  and  C12_13 
REMARK    6  A    between atoms: C12_13  and  C13_14 
REMARK    7  A    between atoms: C18_21  and  C19_22 
REMARK    8  A    between atoms: C19_22  and  O4_23 
REMARK    9  A    between atoms: C20_24  and  O5_25 
REMARK   10  A    between atoms: C21_26  and  O6_27 
REMARK   11  A    between atoms: C30_38  and  O9_39 
REMARK   12  A    between atoms: O9_39  and  C31_40 
REMARK   13  A    between atoms: C31_40  and  C32_41 
ROOT
HETATM    1  C4  UNL     1       4.751  15.573   1.165  1.00  0.00     0.142 C 
HETATM    2  O1  UNL     1       5.120  16.911   0.746  1.00  0.00    -0.308 OA
HETATM    3  C5  UNL     1       4.925  16.909  -0.658  1.00  0.00     0.306 C 
HETATM    4  O2  UNL     1       5.253  15.609  -1.109  1.00  0.00    -0.320 OA
HETATM    5  C15 UNL     1       4.523  14.814  -0.165  1.00  0.00     0.179 C 
HETATM    6  C16 UNL     1       3.062  14.846  -0.668  1.00  0.00     0.086 C 
HETATM    7  C17 UNL     1       3.009  14.248  -2.062  1.00  0.00     0.172 A 
HETATM    8  O3  UNL     1       2.685  15.127  -3.136  1.00  0.00    -0.363 OA
HETATM    9  C18 UNL     1       1.748  14.055  -2.906  1.00  0.00     0.138 A 
HETATM   10  C20 UNL     1       0.353  14.495  -2.476  1.00  0.00     0.200 C 
HETATM   11  C21 UNL     1       0.237  15.503  -1.316  1.00  0.00     0.161 C 
HETATM   12  C22 UNL     1      -1.059  16.306  -1.397  1.00  0.00     0.192 C 
HETATM   13  O7  UNL     1      -2.170  15.869  -1.664  1.00  0.00    -0.289 OA
HETATM   14  C23 UNL     1      -0.833  17.723  -1.050  1.00  0.00    -0.016 C 
HETATM   15  C24 UNL     1      -1.925  18.705  -0.894  1.00  0.00     0.052 C 
HETATM   16  C25 UNL     1       0.493  17.875  -0.979  1.00  0.00    -0.005 C 
HETATM   17  C26 UNL     1       1.286  16.630  -1.297  1.00  0.00     0.090 C 
HETATM   18  C27 UNL     1       2.568  16.320  -0.455  1.00  0.00     0.092 C 
HETATM   19  O8  UNL     1       3.570  17.245  -0.963  1.00  0.00    -0.316 OA
HETATM   20  C28 UNL     1       2.382  16.553   1.114  1.00  0.00     0.050 C 
HETATM   21  C29 UNL     1       2.423  18.025   1.572  1.00  0.00     0.016 C 
HETATM   22  C30 UNL     1       3.425  15.734   1.958  1.00  0.00     0.170 C 
ENDROOT
BRANCH   3  23
HETATM   23  C6  UNL     1       5.792  17.974  -1.248  1.00  0.00     0.074 C 
HETATM   24  C7  UNL     1       6.448  18.064  -2.419  1.00  0.00     0.004 C 
BRANCH  24  25
HETATM   25  C8  UNL     1       6.443  17.113  -3.507  1.00  0.00    -0.000 C 
HETATM   26  C9  UNL     1       5.427  17.007  -4.377  1.00  0.00    -0.000 C 
BRANCH  26  27
HETATM   27  C10 UNL     1       5.422  16.049  -5.460  1.00  0.00    -0.004 C 
HETATM   28  C11 UNL     1       5.292  14.728  -5.265  1.00  0.00    -0.027 C 
BRANCH  28  29
HETATM   29  C12 UNL     1       5.291  13.719  -6.378  1.00  0.00     0.027 C 
BRANCH  29  30
HETATM   30  C13 UNL     1       5.935  12.387  -5.986  1.00  0.00    -0.001 C 
HETATM   31  C14 UNL     1       4.957  11.391  -5.377  1.00  0.00     0.005 C 
ENDBRANCH  29  30
ENDBRANCH  28  29
ENDBRANCH  26  27
ENDBRANCH  24  25
ENDBRANCH   3  23
BRANCH   1  32
HETATM   32  C2  UNL     1       5.898  15.024   2.027  1.00  0.00    -0.054 C 
HETATM   33  C1  UNL     1       6.623  15.791   2.865  1.00  0.00     0.017 C 
HETATM   34  C3  UNL     1       6.214  13.553   1.930  1.00  0.00     0.046 C 
ENDBRANCH   1  32
BRANCH  22  35
HETATM   35  O9  UNL     1       2.888  14.439   2.279  1.00  0.00    -0.377 OA
BRANCH  35  36
HETATM   36  C31 UNL     1       2.173  14.399   3.517  1.00  0.00     0.207 C 
BRANCH  36  37
HETATM   37  C32 UNL     1       0.713  14.103   3.278  1.00  0.00    -0.035 A 
HETATM   38  C33 UNL     1      -0.265  15.078   3.519  1.00  0.00     0.009 A 
HETATM   39  C34 UNL     1      -1.615  14.795   3.305  1.00  0.00     0.001 A 
HETATM   40  C35 UNL     1      -1.999  13.536   2.848  1.00  0.00     0.000 A 
HETATM   41  C36 UNL     1      -1.036  12.558   2.608  1.00  0.00     0.001 A 
HETATM   42  C37 UNL     1       0.314  12.840   2.822  1.00  0.00     0.009 A 
ENDBRANCH  36  37
ENDBRANCH  35  36
ENDBRANCH  22  35
BRANCH  11  43
HETATM   43  O6  UNL     1       0.157  14.793  -0.066  1.00  0.00    -0.378 OA
HETATM   44  H27 UNL     1      -0.421  14.024  -0.280  1.00  0.00     0.211 HD
ENDBRANCH  11  43
BRANCH   9  45
HETATM   45  C19 UNL     1       1.790  13.078  -4.060  1.00  0.00     0.207 C 
BRANCH  45  46
HETATM   46  O4  UNL     1       0.495  12.978  -4.644  1.00  0.00    -0.398 OA
HETATM   47  H24 UNL     1       0.543  12.254  -5.295  1.00  0.00     0.209 HD
ENDBRANCH  45  46
ENDBRANCH   9  45
BRANCH  10  48
HETATM   48  O5  UNL     1      -0.381  13.321  -2.048  1.00  0.00    -0.389 OA
HETATM   49  H26 UNL     1      -0.105  12.579  -2.628  1.00  0.00     0.210 HD
ENDBRANCH  10  48
TORSDOF 13
ENDMDL
MODEL 2
REMARK minimizedAffinity -6.2659688
REMARK CNNscore 0.353374541
REMARK CNNaffinity 6.37211227
REMARK  13 active torsions:
REMARK  status: ('A' for Active; 'I' for Inactive)
REMARK    1  A    between atoms: C2_2  and  C4_4 
REMARK    2  A    between atoms: C5_6  and  C6_7 
REMARK    3  A    between atoms: C7_8  and  C8_9 
REMARK    4  A    between atoms: C9_10  and  C10_11 
REMARK    5  A    between atoms: C11_12  and  C12_13 
REMARK    6  A    between atoms: C12_13  and  C13_14 
REMARK    7  A    between atoms: C18_21  and  C19_22 
REMARK    8  A    between atoms: C19_22  and  O4_23 
REMARK    9  A    between atoms: C20_24  and  O5_25 
REMARK   10  A    between atoms: C21_26  and  O6_27 
REMARK   11  A    between atoms: C30_38  and  O9_39 
REMARK   12  A    between atoms: O9_39  and  C31_40 
REMARK   13  A    between atoms: C31_40  and  C32_41 
ROOT
HETATM    1  C4  UNL     1      14.869  -3.859   2.332  1.00  0.00     0.142 C 
HETATM    2  O1  UNL     1      13.865  -4.813   1.904  1.00  0.00    -0.308 OA
HETATM    3  C5  UNL     1      14.364  -6.069   2.334  1.00  0.00     0.306 C 
HETATM    4  O2  UNL     1      15.773  -6.003   2.224  1.00  0.00    -0.320 OA
HETATM    5  C15 UNL     1      16.025  -4.744   2.859  1.00  0.00     0.179 C 
HETATM    6  C16 UNL     1      15.950  -5.043   4.374  1.00  0.00     0.086 C 
HETATM    7  C17 UNL     1      17.012  -6.070   4.724  1.00  0.00     0.172 A 
HETATM    8  O3  UNL     1      16.562  -7.358   5.135  1.00  0.00    -0.363 OA
HETATM    9  C18 UNL     1      17.302  -6.615   6.124  1.00  0.00     0.138 A 
HETATM   10  C20 UNL     1      16.515  -6.234   7.372  1.00  0.00     0.200 C 
HETATM   11  C21 UNL     1      15.141  -5.563   7.186  1.00  0.00     0.161 C 
HETATM   12  C22 UNL     1      14.229  -5.803   8.387  1.00  0.00     0.192 C 
HETATM   13  O7  UNL     1      14.550  -5.744   9.566  1.00  0.00    -0.289 OA
HETATM   14  C23 UNL     1      12.842  -6.074   7.960  1.00  0.00    -0.016 C 
HETATM   15  C24 UNL     1      11.712  -6.194   8.904  1.00  0.00     0.052 C 
HETATM   16  C25 UNL     1      12.890  -6.225   6.634  1.00  0.00    -0.005 C 
HETATM   17  C26 UNL     1      14.274  -6.115   6.039  1.00  0.00     0.090 C 
HETATM   18  C27 UNL     1      14.446  -5.375   4.670  1.00  0.00     0.092 C 
HETATM   19  O8  UNL     1      13.954  -6.321   3.680  1.00  0.00    -0.316 OA
HETATM   20  C28 UNL     1      13.614  -4.017   4.561  1.00  0.00     0.050 C 
HETATM   21  C29 UNL     1      12.105  -4.186   4.292  1.00  0.00     0.016 C 
HETATM   22  C30 UNL     1      14.211  -3.045   3.479  1.00  0.00     0.170 C 
ENDROOT
BRANCH   3  23
HETATM   23  C6  UNL     1      13.753  -7.130   1.476  1.00  0.00     0.074 C 
HETATM   24  C7  UNL     1      13.529  -7.207   0.153  1.00  0.00     0.004 C 
BRANCH  24  25
HETATM   25  C8  UNL     1      13.892  -6.242  -0.860  1.00  0.00    -0.000 C 
HETATM   26  C9  UNL     1      15.138  -6.131  -1.346  1.00  0.00    -0.000 C 
BRANCH  26  27
HETATM   27  C10 UNL     1      15.501  -5.160  -2.354  1.00  0.00    -0.004 C 
HETATM   28  C11 UNL     1      16.582  -4.373  -2.253  1.00  0.00    -0.027 C 
BRANCH  28  29
HETATM   29  C12 UNL     1      16.969  -3.354  -3.288  1.00  0.00     0.027 C 
BRANCH  29  30
HETATM   30  C13 UNL     1      18.188  -2.519  -2.887  1.00  0.00    -0.001 C 
HETATM   31  C14 UNL     1      18.856  -1.811  -4.058  1.00  0.00     0.005 C 
ENDBRANCH  29  30
ENDBRANCH  28  29
ENDBRANCH  26  27
ENDBRANCH  24  25
ENDBRANCH   3  23
BRANCH   1  32
HETATM   32  C2  UNL     1      15.231  -2.991   1.117  1.00  0.00    -0.054 C 
HETATM   33  C1  UNL     1      14.333  -2.621   0.182  1.00  0.00     0.017 C 
HETATM   34  C3  UNL     1      16.658  -2.528   0.978  1.00  0.00     0.046 C 
ENDBRANCH   1  32
BRANCH  22  35
HETATM   35  O9  UNL     1      15.186  -2.177   4.083  1.00  0.00    -0.377 OA
BRANCH  35  36
HETATM   36  C31 UNL     1      14.771  -0.811   4.168  1.00  0.00     0.207 C 
BRANCH  36  37
HETATM   37  C32 UNL     1      15.955   0.114   4.033  1.00  0.00    -0.035 A 
HETATM   38  C33 UNL     1      16.214   0.775   2.824  1.00  0.00     0.009 A 
HETATM   39  C34 UNL     1      17.317   1.622   2.703  1.00  0.00     0.001 A 
HETATM   40  C35 UNL     1      18.170   1.815   3.787  1.00  0.00     0.000 A 
HETATM   41  C36 UNL     1      17.925   1.161   4.992  1.00  0.00     0.001 A 
HETATM   42  C37 UNL     1      16.822   0.314   5.116  1.00  0.00     0.009 A 
ENDBRANCH  36  37
ENDBRANCH  35  36
ENDBRANCH  22  35
BRANCH  11  43
HETATM   43  O6  UNL     1      15.305  -4.134   7.123  1.00  0.00    -0.378 OA
HETATM   44  H27 UNL     1      15.994  -3.957   7.805  1.00  0.00     0.211 HD
ENDBRANCH  11  43
BRANCH   9  45
HETATM   45  C19 UNL     1      18.635  -7.283   6.379  1.00  0.00     0.207 C 
BRANCH  45  46
HETATM   46  O4  UNL     1      18.756  -7.586   7.766  1.00  0.00    -0.398 OA
HETATM   47  H24 UNL     1      19.669  -7.899   7.899  1.00  0.00     0.209 HD
ENDBRANCH  45  46
ENDBRANCH   9  45
BRANCH  10  48
HETATM   48  O5  UNL     1      17.307  -5.294   8.139  1.00  0.00    -0.389 OA
HETATM   49  H26 UNL     1      18.247  -5.560   8.044  1.00  0.00     0.210 HD
ENDBRANCH  10  48
TORSDOF 13
ENDMDL
MODEL 3
REMARK minimizedAffinity -8.10664082
REMARK CNNscore 0.201522201
REMARK CNNaffinity 6.82039213
REMARK  13 active torsions:
REMARK  status: ('A' for Active; 'I' for Inactive)
REMARK    1  A    between atoms: C2_2  and  C4_4 
REMARK    2  A    between atoms: C5_6  and  C6_7 
REMARK    3  A    between atoms: C7_8  and  C8_9 
REMARK    4  A    between atoms: C9_10  and  C10_11 
REMARK    5  A    between atoms: C11_12  and  C12_13 
REMARK    6  A    between atoms: C12_13  and  C13_14 
REMARK    7  A    between atoms: C18_21  and  C19_22 
REMARK    8  A    between atoms: C19_22  and  O4_23 
REMARK    9  A    between atoms: C20_24  and  O5_25 
REMARK   10  A    between atoms: C21_26  and  O6_27 
REMARK   11  A    between atoms: C30_38  and  O9_39 
REMARK   12  A    between atoms: O9_39  and  C31_40 
REMARK   13  A    between atoms: C31_40  and  C32_41 
ROOT
HETATM    1  C4  UNL     1      -1.297   6.768  12.965  1.00  0.00     0.142 C 
HETATM    2  O1  UNL     1      -2.484   6.297  13.650  1.00  0.00    -0.308 OA
HETATM    3  C5  UNL     1      -2.226   6.552  15.021  1.00  0.00     0.306 C 
HETATM    4  O2  UNL     1      -0.837   6.363  15.212  1.00  0.00    -0.320 OA
HETATM    5  C15 UNL     1      -0.318   7.120  14.112  1.00  0.00     0.179 C 
HETATM    6  C16 UNL     1      -0.392   8.593  14.575  1.00  0.00     0.086 C 
HETATM    7  C17 UNL     1       0.459   8.759  15.820  1.00  0.00     0.172 A 
HETATM    8  O3  UNL     1      -0.220   9.049  17.039  1.00  0.00    -0.363 OA
HETATM    9  C18 UNL     1       0.690  10.068  16.578  1.00  0.00     0.138 A 
HETATM   10  C20 UNL     1       0.041  11.398  16.210  1.00  0.00     0.200 C 
HETATM   11  C21 UNL     1      -1.181  11.372  15.271  1.00  0.00     0.161 C 
HETATM   12  C22 UNL     1      -2.075  12.593  15.478  1.00  0.00     0.192 C 
HETATM   13  O7  UNL     1      -1.704  13.748  15.626  1.00  0.00    -0.289 OA
HETATM   14  C23 UNL     1      -3.504  12.224  15.425  1.00  0.00    -0.016 C 
HETATM   15  C24 UNL     1      -4.599  13.215  15.442  1.00  0.00     0.052 C 
HETATM   16  C25 UNL     1      -3.537  10.888  15.419  1.00  0.00    -0.005 C 
HETATM   17  C26 UNL     1      -2.182  10.226  15.502  1.00  0.00     0.090 C 
HETATM   18  C27 UNL     1      -1.920   8.942  14.647  1.00  0.00     0.092 C 
HETATM   19  O8  UNL     1      -2.626   7.883  15.353  1.00  0.00    -0.316 OA
HETATM   20  C28 UNL     1      -2.472   9.038  13.152  1.00  0.00     0.050 C 
HETATM   21  C29 UNL     1      -3.994   8.844  12.996  1.00  0.00     0.016 C 
HETATM   22  C30 UNL     1      -1.737   8.037  12.187  1.00  0.00     0.170 C 
ENDROOT
BRANCH   3  23
HETATM   23  C6  UNL     1      -3.066   5.618  15.832  1.00  0.00     0.074 C 
HETATM   24  C7  UNL     1      -4.393   5.535  16.031  1.00  0.00     0.004 C 
BRANCH  24  25
HETATM   25  C8  UNL     1      -5.427   6.347  15.431  1.00  0.00    -0.000 C 
HETATM   26  C9  UNL     1      -6.659   6.457  15.951  1.00  0.00    -0.000 C 
BRANCH  26  27
HETATM   27  C10 UNL     1      -7.695   7.264  15.345  1.00  0.00    -0.004 C 
HETATM   28  C11 UNL     1      -8.991   6.923  15.365  1.00  0.00    -0.027 C 
BRANCH  28  29
HETATM   29  C12 UNL     1     -10.079   7.746  14.734  1.00  0.00     0.027 C 
BRANCH  29  30
HETATM   30  C13 UNL     1     -11.047   6.919  13.885  1.00  0.00    -0.001 C 
HETATM   31  C14 UNL     1     -11.786   7.734  12.832  1.00  0.00     0.005 C 
ENDBRANCH  29  30
ENDBRANCH  28  29
ENDBRANCH  26  27
ENDBRANCH  24  25
ENDBRANCH   3  23
BRANCH   1  32
HETATM   32  C2  UNL     1      -0.817   5.638  12.039  1.00  0.00    -0.054 C 
HETATM   33  C1  UNL     1      -1.641   4.964  11.213  1.00  0.00     0.017 C 
HETATM   34  C3  UNL     1       0.647   5.283  12.056  1.00  0.00     0.046 C 
ENDBRANCH   1  32
BRANCH  22  35
HETATM   35  O9  UNL     1      -0.589   8.675  11.602  1.00  0.00    -0.377 OA
BRANCH  35  36
HETATM   36  C31 UNL     1      -0.656   8.798  10.178  1.00  0.00     0.207 C 
BRANCH  36  37
HETATM   37  C32 UNL     1       0.619   8.307   9.541  1.00  0.00    -0.035 A 
HETATM   38  C33 UNL     1       0.685   8.066   8.161  1.00  0.00     0.009 A 
HETATM   39  C34 UNL     1       1.866   7.603   7.580  1.00  0.00     0.001 A 
HETATM   40  C35 UNL     1       2.991   7.376   8.370  1.00  0.00     0.000 A 
HETATM   41  C36 UNL     1       2.937   7.610   9.742  1.00  0.00     0.001 A 
HETATM   42  C37 UNL     1       1.756   8.073  10.326  1.00  0.00     0.009 A 
ENDBRANCH  36  37
ENDBRANCH  35  36
ENDBRANCH  22  35
BRANCH  11  43
HETATM   43  O6  UNL     1      -0.740  11.461  13.903  1.00  0.00    -0.378 OA
HETATM   44  H27 UNL     1      -0.005  12.116  13.945  1.00  0.00     0.211 HD
ENDBRANCH  11  43
BRANCH   9  45
HETATM   45  C19 UNL     1       1.873  10.165  17.515  1.00  0.00     0.207 C 
BRANCH  45  46
HETATM   46  O4  UNL     1       1.409  10.302  18.854  1.00  0.00    -0.398 OA
HETATM   47  H24 UNL     1       2.196  10.483  19.400  1.00  0.00     0.209 HD
ENDBRANCH  45  46
ENDBRANCH   9  45
BRANCH  10  48
HETATM   48  O5  UNL     1       1.031  12.216  15.539  1.00  0.00    -0.389 OA
HETATM   49  H26 UNL     1       1.896  12.034  15.966  1.00  0.00     0.210 HD
ENDBRANCH  10  48
TORSDOF 13
ENDMDL
MODEL 4
REMARK minimizedAffinity -6.43323517
REMARK CNNscore 0.155479938
REMARK CNNaffinity 5.96925116
REMARK  13 active torsions:
REMARK  status: ('A' for Active; 'I' for Inactive)
REMARK    1  A    between atoms: C2_2  and  C4_4 
REMARK    2  A    between atoms: C5_6  and  C6_7 
REMARK    3  A    between atoms: C7_8  and  C8_9 
REMARK    4  A    between atoms: C9_10  and  C10_11 
REMARK    5  A    between atoms: C11_12  and  C12_13 
REMARK    6  A    between atoms: C12_13  and  C13_14 
REMARK    7  A    between atoms: C18_21  and  C19_22 
REMARK    8  A    between atoms: C19_22  and  O4_23 
REMARK    9  A    between atoms: C20_24  and  O5_25 
REMARK   10  A    between atoms: C21_26  and  O6_27 
REMARK   11  A    between atoms: C30_38  and  O9_39 
REMARK   12  A    between atoms: O9_39  and  C31_40 
REMARK   13  A    between atoms: C31_40  and  C32_41 
ROOT
HETATM    1  C4  UNL     1       0.207  11.805  16.306  1.00  0.00     0.142 C 
HETATM    2  O1  UNL     1      -0.155  10.419  16.524  1.00  0.00    -0.308 OA
HETATM    3  C5  UNL     1       1.074   9.717  16.447  1.00  0.00     0.306 C 
HETATM    4  O2  UNL     1       1.865  10.390  15.487  1.00  0.00    -0.320 OA
HETATM    5  C15 UNL     1       1.706  11.746  15.924  1.00  0.00     0.179 C 
HETATM    6  C16 UNL     1       2.670  11.890  17.124  1.00  0.00     0.086 C 
HETATM    7  C17 UNL     1       4.085  11.617  16.652  1.00  0.00     0.172 A 
HETATM    8  O3  UNL     1       4.723  10.443  17.149  1.00  0.00    -0.363 OA
HETATM    9  C18 UNL     1       5.347  11.691  17.515  1.00  0.00     0.138 A 
HETATM   10  C20 UNL     1       5.347  12.002  19.007  1.00  0.00     0.200 C 
HETATM   11  C21 UNL     1       4.016  11.879  19.773  1.00  0.00     0.161 C 
HETATM   12  C22 UNL     1       4.244  11.598  21.257  1.00  0.00     0.192 C 
HETATM   13  O7  UNL     1       5.076  12.131  21.977  1.00  0.00    -0.289 OA
HETATM   14  C23 UNL     1       3.275  10.609  21.769  1.00  0.00    -0.016 C 
HETATM   15  C24 UNL     1       3.156  10.255  23.198  1.00  0.00     0.052 C 
HETATM   16  C25 UNL     1       2.642  10.127  20.696  1.00  0.00    -0.005 C 
HETATM   17  C26 UNL     1       3.121  10.689  19.379  1.00  0.00     0.090 C 
HETATM   18  C27 UNL     1       2.065  11.001  18.267  1.00  0.00     0.092 C 
HETATM   19  O8  UNL     1       1.706   9.697  17.729  1.00  0.00    -0.316 OA
HETATM   20  C28 UNL     1       0.751  11.728  18.810  1.00  0.00     0.050 C 
HETATM   21  C29 UNL     1      -0.260  10.812  19.529  1.00  0.00     0.016 C 
HETATM   22  C30 UNL     1      -0.000  12.512  17.673  1.00  0.00     0.170 C 
ENDROOT
BRANCH   3  23
HETATM   23  C6  UNL     1       0.776   8.299  16.077  1.00  0.00     0.074 C 
HETATM   24  C7  UNL     1       0.559   7.698  14.893  1.00  0.00     0.004 C 
BRANCH  24  25
HETATM   25  C8  UNL     1       0.612   8.295  13.579  1.00  0.00    -0.000 C 
HETATM   26  C9  UNL     1       0.911   7.596  12.474  1.00  0.00    -0.000 C 
BRANCH  26  27
HETATM   27  C10 UNL     1       0.972   8.197  11.160  1.00  0.00    -0.004 C 
HETATM   28  C11 UNL     1       0.183   7.814  10.145  1.00  0.00    -0.027 C 
BRANCH  28  29
HETATM   29  C12 UNL     1       0.238   8.424   8.773  1.00  0.00     0.027 C 
BRANCH  29  30
HETATM   30  C13 UNL     1       1.646   8.438   8.173  1.00  0.00    -0.001 C 
HETATM   31  C14 UNL     1       1.890   7.326   7.161  1.00  0.00     0.005 C 
ENDBRANCH  29  30
ENDBRANCH  28  29
ENDBRANCH  26  27
ENDBRANCH  24  25
ENDBRANCH   3  23
BRANCH   1  32
HETATM   32  C2  UNL     1      -0.713  12.357  15.205  1.00  0.00    -0.054 C 
HETATM   33  C1  UNL     1      -0.534  13.564  14.633  1.00  0.00     0.017 C 
HETATM   34  C3  UNL     1      -1.859  11.495  14.743  1.00  0.00     0.046 C 
ENDBRANCH   1  32
BRANCH  22  35
HETATM   35  O9  UNL     1       0.488  13.863  17.604  1.00  0.00    -0.377 OA
BRANCH  35  36
HETATM   36  C31 UNL     1       0.184  14.649  18.760  1.00  0.00     0.207 C 
BRANCH  36  37
HETATM   37  C32 UNL     1      -1.298  14.915  18.849  1.00  0.00    -0.035 A 
HETATM   38  C33 UNL     1      -1.948  14.946  20.090  1.00  0.00     0.009 A 
HETATM   39  C34 UNL     1      -3.321  15.183  20.164  1.00  0.00     0.001 A 
HETATM   40  C35 UNL     1      -4.057  15.391  18.999  1.00  0.00     0.000 A 
HETATM   41  C36 UNL     1      -3.422  15.360  17.759  1.00  0.00     0.001 A 
HETATM   42  C37 UNL     1      -2.049  15.123  17.684  1.00  0.00     0.009 A 
ENDBRANCH  36  37
ENDBRANCH  35  36
ENDBRANCH  22  35
BRANCH  11  43
HETATM   43  O6  UNL     1       3.319  13.138  19.736  1.00  0.00    -0.378 OA
HETATM   44  H27 UNL     1       4.040  13.799  19.851  1.00  0.00     0.211 HD
ENDBRANCH  11  43
BRANCH   9  45
HETATM   45  C19 UNL     1       6.689  11.816  16.829  1.00  0.00     0.207 C 
BRANCH  45  46
HETATM   46  O4  UNL     1       7.071  13.188  16.782  1.00  0.00    -0.398 OA
HETATM   47  H24 UNL     1       7.873  13.230  16.229  1.00  0.00     0.209 HD
ENDBRANCH  45  46
ENDBRANCH   9  45
BRANCH  10  48
HETATM   48  O5  UNL     1       5.772  13.376  19.184  1.00  0.00    -0.389 OA
HETATM   49  H26 UNL     1       6.454  13.559  18.502  1.00  0.00     0.210 HD
ENDBRANCH  10  48
TORSDOF 13
ENDMDL
MODEL 5
REMARK minimizedAffinity -6.48214006
REMARK CNNscore 0.149834484
REMARK CNNaffinity 5.85871315
REMARK  13 active torsions:
REMARK  status: ('A' for Active; 'I' for Inactive)
REMARK    1  A    between atoms: C2_2  and  C4_4 
REMARK    2  A    between atoms: C5_6  and  C6_7 
REMARK    3  A    between atoms: C7_8  and  C8_9 
REMARK    4  A    between atoms: C9_10  and  C10_11 
REMARK    5  A    between atoms: C11_12  and  C12_13 
REMARK    6  A    between atoms: C12_13  and  C13_14 
REMARK    7  A    between atoms: C18_21  and  C19_22 
REMARK    8  A    between atoms: C19_22  and  O4_23 
REMARK    9  A    between atoms: C20_24  and  O5_25 
REMARK   10  A    between atoms: C21_26  and  O6_27 
REMARK   11  A    between atoms: C30_38  and  O9_39 
REMARK   12  A    between atoms: O9_39  and  C31_40 
REMARK   13  A    between atoms: C31_40  and  C32_41 
ROOT
HETATM    1  C4  UNL     1      14.660  -8.175   2.793  1.00  0.00     0.142 C 
HETATM    2  O1  UNL     1      13.921  -9.299   3.332  1.00  0.00    -0.308 OA
HETATM    3  C5  UNL     1      14.657  -9.688   4.480  1.00  0.00     0.306 C 
HETATM    4  O2  UNL     1      16.020  -9.455   4.184  1.00  0.00    -0.320 OA
HETATM    5  C15 UNL     1      15.948  -8.126   3.652  1.00  0.00     0.179 C 
HETATM    6  C16 UNL     1      15.845  -7.209   4.892  1.00  0.00     0.086 C 
HETATM    7  C17 UNL     1      17.083  -7.402   5.749  1.00  0.00     0.172 A 
HETATM    8  O3  UNL     1      16.904  -8.011   7.024  1.00  0.00    -0.363 OA
HETATM    9  C18 UNL     1      17.398  -6.657   7.047  1.00  0.00     0.138 A 
HETATM   10  C20 UNL     1      16.469  -5.639   7.698  1.00  0.00     0.200 C 
HETATM   11  C21 UNL     1      14.994  -5.613   7.250  1.00  0.00     0.161 C 
HETATM   12  C22 UNL     1      14.084  -5.052   8.341  1.00  0.00     0.192 C 
HETATM   13  O7  UNL     1      14.309  -4.077   9.044  1.00  0.00    -0.289 OA
HETATM   14  C23 UNL     1      12.821  -5.812   8.427  1.00  0.00    -0.016 C 
HETATM   15  C24 UNL     1      11.688  -5.408   9.284  1.00  0.00     0.052 C 
HETATM   16  C25 UNL     1      12.985  -6.884   7.646  1.00  0.00    -0.005 C 
HETATM   17  C26 UNL     1      14.345  -6.987   6.997  1.00  0.00     0.090 C 
HETATM   18  C27 UNL     1      14.436  -7.494   5.519  1.00  0.00     0.092 C 
HETATM   19  O8  UNL     1      14.228  -8.931   5.615  1.00  0.00    -0.316 OA
HETATM   20  C28 UNL     1      13.332  -6.865   4.552  1.00  0.00     0.050 C 
HETATM   21  C29 UNL     1      11.918  -7.466   4.683  1.00  0.00     0.016 C 
HETATM   22  C30 UNL     1      13.768  -6.929   3.042  1.00  0.00     0.170 C 
ENDROOT
BRANCH   3  23
HETATM   23  C6  UNL     1      14.351 -11.124   4.762  1.00  0.00     0.074 C 
HETATM   24  C7  UNL     1      13.330 -11.921   4.400  1.00  0.00     0.004 C 
BRANCH  24  25
HETATM   25  C8  UNL     1      12.215 -11.590   3.543  1.00  0.00    -0.000 C 
HETATM   26  C9  UNL     1      11.105 -10.985   3.995  1.00  0.00    -0.000 C 
BRANCH  26  27
HETATM   27  C10 UNL     1       9.987 -10.662   3.137  1.00  0.00    -0.004 C 
HETATM   28  C11 UNL     1       9.560 -11.474   2.158  1.00  0.00    -0.027 C 
BRANCH  28  29
HETATM   29  C12 UNL     1       8.404 -11.150   1.254  1.00  0.00     0.027 C 
BRANCH  29  30
HETATM   30  C13 UNL     1       7.149 -10.710   2.011  1.00  0.00    -0.001 C 
HETATM   31  C14 UNL     1       5.878 -11.407   1.544  1.00  0.00     0.005 C 
ENDBRANCH  29  30
ENDBRANCH  28  29
ENDBRANCH  26  27
ENDBRANCH  24  25
ENDBRANCH   3  23
BRANCH   1  32
HETATM   32  C2  UNL     1      14.897  -8.449   1.300  1.00  0.00    -0.054 C 
HETATM   33  C1  UNL     1      13.949  -8.949   0.483  1.00  0.00     0.017 C 
HETATM   34  C3  UNL     1      16.255  -8.131   0.729  1.00  0.00     0.046 C 
ENDBRANCH   1  32
BRANCH  22  35
HETATM   35  O9  UNL     1      14.486  -5.734   2.688  1.00  0.00    -0.377 OA
BRANCH  35  36
HETATM   36  C31 UNL     1      13.747  -4.841   1.849  1.00  0.00     0.207 C 
BRANCH  36  37
HETATM   37  C32 UNL     1      13.570  -3.503   2.523  1.00  0.00    -0.035 A 
HETATM   38  C33 UNL     1      12.606  -3.327   3.525  1.00  0.00     0.009 A 
HETATM   39  C34 UNL     1      12.441  -2.084   4.138  1.00  0.00     0.001 A 
HETATM   40  C35 UNL     1      13.238  -1.007   3.755  1.00  0.00     0.000 A 
HETATM   41  C36 UNL     1      14.198  -1.169   2.759  1.00  0.00     0.001 A 
HETATM   42  C37 UNL     1      14.364  -2.412   2.145  1.00  0.00     0.009 A 
ENDBRANCH  36  37
ENDBRANCH  35  36
ENDBRANCH  22  35
BRANCH  11  43
HETATM   43  O6  UNL     1      14.843  -4.711   6.139  1.00  0.00    -0.378 OA
HETATM   44  H27 UNL     1      15.430  -3.957   6.379  1.00  0.00     0.211 HD
ENDBRANCH  11  43
BRANCH   9  45
HETATM   45  C19 UNL     1      18.826  -6.638   7.544  1.00  0.00     0.207 C 
BRANCH  45  46
HETATM   46  O4  UNL     1      18.898  -7.294   8.807  1.00  0.00    -0.398 OA
HETATM   47  H24 UNL     1      19.803  -7.149   9.139  1.00  0.00     0.209 HD
ENDBRANCH  45  46
ENDBRANCH   9  45
BRANCH  10  48
HETATM   48  O5  UNL     1      16.982  -4.313   7.421  1.00  0.00    -0.389 OA
HETATM   49  H26 UNL     1      17.962  -4.372   7.437  1.00  0.00     0.210 HD
ENDBRANCH  10  48
TORSDOF 13
ENDMDL
MODEL 6
REMARK minimizedAffinity -6.4934144
REMARK CNNscore 0.140785813
REMARK CNNaffinity 5.2668457
REMARK  13 active torsions:
REMARK  status: ('A' for Active; 'I' for Inactive)
REMARK    1  A    between atoms: C2_2  and  C4_4 
REMARK    2  A    between atoms: C5_6  and  C6_7 
REMARK    3  A    between atoms: C7_8  and  C8_9 
REMARK    4  A    between atoms: C9_10  and  C10_11 
REMARK    5  A    between atoms: C11_12  and  C12_13 
REMARK    6  A    between atoms: C12_13  and  C13_14 
REMARK    7  A    between atoms: C18_21  and  C19_22 
REMARK    8  A    between atoms: C19_22  and  O4_23 
REMARK    9  A    between atoms: C20_24  and  O5_25 
REMARK   10  A    between atoms: C21_26  and  O6_27 
REMARK   11  A    between atoms: C30_38  and  O9_39 
REMARK   12  A    between atoms: O9_39  and  C31_40 
REMARK   13  A    between atoms: C31_40  and  C32_41 
ROOT
HETATM    1  C4  UNL     1     -19.198  -2.780  11.901  1.00  0.00     0.142 C 
HETATM    2  O1  UNL     1     -20.146  -1.684  11.875  1.00  0.00    -0.308 OA
HETATM    3  C5  UNL     1     -20.425  -1.424  13.240  1.00  0.00     0.306 C 
HETATM    4  O2  UNL     1     -20.377  -2.671  13.907  1.00  0.00    -0.320 OA
HETATM    5  C15 UNL     1     -19.146  -3.194  13.393  1.00  0.00     0.179 C 
HETATM    6  C16 UNL     1     -18.042  -2.481  14.207  1.00  0.00     0.086 C 
HETATM    7  C17 UNL     1     -18.222  -2.816  15.676  1.00  0.00     0.172 A 
HETATM    8  O3  UNL     1     -18.606  -1.753  16.544  1.00  0.00    -0.363 OA
HETATM    9  C18 UNL     1     -17.320  -2.345  16.819  1.00  0.00     0.138 A 
HETATM   10  C20 UNL     1     -16.127  -1.414  16.641  1.00  0.00     0.200 C 
HETATM   11  C21 UNL     1     -16.024  -0.610  15.330  1.00  0.00     0.161 C 
HETATM   12  C22 UNL     1     -15.214   0.670  15.517  1.00  0.00     0.192 C 
HETATM   13  O7  UNL     1     -14.169   0.784  16.142  1.00  0.00    -0.289 OA
HETATM   14  C23 UNL     1     -15.822   1.800  14.786  1.00  0.00    -0.016 C 
HETATM   15  C24 UNL     1     -15.180   3.124  14.659  1.00  0.00     0.052 C 
HETATM   16  C25 UNL     1     -17.013   1.364  14.364  1.00  0.00    -0.005 C 
HETATM   17  C26 UNL     1     -17.349  -0.047  14.782  1.00  0.00     0.090 C 
HETATM   18  C27 UNL     1     -18.085  -0.978  13.761  1.00  0.00     0.092 C 
HETATM   19  O8  UNL     1     -19.463  -0.508  13.768  1.00  0.00    -0.316 OA
HETATM   20  C28 UNL     1     -17.507  -0.891  12.275  1.00  0.00     0.050 C 
HETATM   21  C29 UNL     1     -17.937   0.353  11.470  1.00  0.00     0.016 C 
HETATM   22  C30 UNL     1     -17.846  -2.176  11.435  1.00  0.00     0.170 C 
ENDROOT
BRANCH   3  23
HETATM   23  C6  UNL     1     -21.762  -0.761  13.323  1.00  0.00     0.074 C 
HETATM   24  C7  UNL     1     -22.368   0.157  12.549  1.00  0.00     0.004 C 
BRANCH  24  25
HETATM   25  C8  UNL     1     -21.872   0.743  11.325  1.00  0.00    -0.000 C 
HETATM   26  C9  UNL     1     -22.253   1.955  10.892  1.00  0.00    -0.000 C 
BRANCH  26  27
HETATM   27  C10 UNL     1     -21.761   2.535   9.662  1.00  0.00    -0.004 C 
HETATM   28  C11 UNL     1     -21.532   1.814   8.555  1.00  0.00    -0.027 C 
BRANCH  28  29
HETATM   29  C12 UNL     1     -21.015   2.400   7.271  1.00  0.00     0.027 C 
BRANCH  29  30
HETATM   30  C13 UNL     1     -21.418   1.595   6.034  1.00  0.00    -0.001 C 
HETATM   31  C14 UNL     1     -22.911   1.307   5.951  1.00  0.00     0.005 C 
ENDBRANCH  29  30
ENDBRANCH  28  29
ENDBRANCH  26  27
ENDBRANCH  24  25
ENDBRANCH   3  23
BRANCH   1  32
HETATM   32  C2  UNL     1     -19.722  -3.870  10.953  1.00  0.00    -0.054 C 
HETATM   33  C1  UNL     1     -19.244  -5.130  10.944  1.00  0.00     0.017 C 
HETATM   34  C3  UNL     1     -20.830  -3.506  10.000  1.00  0.00     0.046 C 
ENDBRANCH   1  32
BRANCH  22  35
HETATM   35  O9  UNL     1     -16.798  -3.149  11.582  1.00  0.00    -0.377 OA
BRANCH  35  36
HETATM   36  C31 UNL     1     -15.540  -2.734  11.044  1.00  0.00     0.207 C 
BRANCH  36  37
HETATM   37  C32 UNL     1     -15.157  -3.591   9.864  1.00  0.00    -0.035 A 
HETATM   38  C33 UNL     1     -14.036  -3.278   9.083  1.00  0.00     0.009 A 
HETATM   39  C34 UNL     1     -13.693  -4.071   7.987  1.00  0.00     0.001 A 
HETATM   40  C35 UNL     1     -14.465  -5.183   7.662  1.00  0.00     0.000 A 
HETATM   41  C36 UNL     1     -15.583  -5.504   8.429  1.00  0.00     0.001 A 
HETATM   42  C37 UNL     1     -15.928  -4.712   9.525  1.00  0.00     0.009 A 
ENDBRANCH  36  37
ENDBRANCH  35  36
ENDBRANCH  22  35
BRANCH  11  43
HETATM   43  O6  UNL     1     -15.294  -1.373  14.351  1.00  0.00    -0.378 OA
HETATM   44  H27 UNL     1     -14.575  -1.788  14.880  1.00  0.00     0.211 HD
ENDBRANCH  11  43
BRANCH   9  45
HETATM   45  C19 UNL     1     -17.367  -3.091  18.133  1.00  0.00     0.207 C 
BRANCH  45  46
HETATM   46  O4  UNL     1     -16.509  -2.451  19.073  1.00  0.00    -0.398 OA
HETATM   47  H24 UNL     1     -16.478  -3.031  19.856  1.00  0.00     0.209 HD
ENDBRANCH  45  46
ENDBRANCH   9  45
BRANCH  10  48
HETATM   48  O5  UNL     1     -14.917  -2.209  16.705  1.00  0.00    -0.389 OA
HETATM   49  H26 UNL     1     -15.070  -2.918  17.367  1.00  0.00     0.210 HD
ENDBRANCH  10  48
TORSDOF 13
ENDMDL
MODEL 7
REMARK minimizedAffinity -6.60295916
REMARK CNNscore 0.139325991
REMARK CNNaffinity 5.70087862
REMARK  13 active torsions:
REMARK  status: ('A' for Active; 'I' for Inactive)
REMARK    1  A    between atoms: C2_2  and  C4_4 
REMARK    2  A    between atoms: C5_6  and  C6_7 
REMARK    3  A    between atoms: C7_8  and  C8_9 
REMARK    4  A    between atoms: C9_10  and  C10_11 
REMARK    5  A    between atoms: C11_12  and  C12_13 
REMARK    6  A    between atoms: C12_13  and  C13_14 
REMARK    7  A    between atoms: C18_21  and  C19_22 
REMARK    8  A    between atoms: C19_22  and  O4_23 
REMARK    9  A    between atoms: C20_24  and  O5_25 
REMARK   10  A    between atoms: C21_26  and  O6_27 
REMARK   11  A    between atoms: C30_38  and  O9_39 
REMARK   12  A    between atoms: O9_39  and  C31_40 
REMARK   13  A    between atoms: C31_40  and  C32_41 
ROOT
HETATM    1  C4  UNL     1      13.359  -7.486   4.691  1.00  0.00     0.142 C 
HETATM    2  O1  UNL     1      12.517  -6.760   5.621  1.00  0.00    -0.308 OA
HETATM    3  C5  UNL     1      13.426  -6.172   6.536  1.00  0.00     0.306 C 
HETATM    4  O2  UNL     1      14.498  -7.083   6.682  1.00  0.00    -0.320 OA
HETATM    5  C15 UNL     1      14.776  -7.380   5.308  1.00  0.00     0.179 C 
HETATM    6  C16 UNL     1      15.597  -6.173   4.800  1.00  0.00     0.086 C 
HETATM    7  C17 UNL     1      16.870  -6.067   5.617  1.00  0.00     0.172 A 
HETATM    8  O3  UNL     1      17.004  -4.935   6.472  1.00  0.00    -0.363 OA
HETATM    9  C18 UNL     1      17.980  -5.033   5.416  1.00  0.00     0.138 A 
HETATM   10  C20 UNL     1      17.932  -3.914   4.383  1.00  0.00     0.200 C 
HETATM   11  C21 UNL     1      16.567  -3.565   3.756  1.00  0.00     0.161 C 
HETATM   12  C22 UNL     1      16.526  -2.119   3.266  1.00  0.00     0.192 C 
HETATM   13  O7  UNL     1      17.410  -1.532   2.659  1.00  0.00    -0.289 OA
HETATM   14  C23 UNL     1      15.225  -1.489   3.569  1.00  0.00    -0.016 C 
HETATM   15  C24 UNL     1      14.840  -0.149   3.082  1.00  0.00     0.052 C 
HETATM   16  C25 UNL     1      14.581  -2.345   4.367  1.00  0.00    -0.005 C 
HETATM   17  C26 UNL     1      15.362  -3.590   4.714  1.00  0.00     0.090 C 
HETATM   18  C27 UNL     1      14.604  -4.958   4.780  1.00  0.00     0.092 C 
HETATM   19  O8  UNL     1      13.873  -4.909   6.038  1.00  0.00    -0.316 OA
HETATM   20  C28 UNL     1      13.575  -5.185   3.581  1.00  0.00     0.050 C 
HETATM   21  C29 UNL     1      12.238  -4.426   3.704  1.00  0.00     0.016 C 
HETATM   22  C30 UNL     1      13.268  -6.710   3.349  1.00  0.00     0.170 C 
ENDROOT
BRANCH   3  23
HETATM   23  C6  UNL     1      12.694  -5.912   7.814  1.00  0.00     0.074 C 
HETATM   24  C7  UNL     1      13.017  -5.215   8.917  1.00  0.00     0.004 C 
BRANCH  24  25
HETATM   25  C8  UNL     1      14.214  -4.439   9.151  1.00  0.00    -0.000 C 
HETATM   26  C9  UNL     1      15.382  -4.994   9.511  1.00  0.00    -0.000 C 
BRANCH  26  27
HETATM   27  C10 UNL     1      16.576  -4.215   9.752  1.00  0.00    -0.004 C 
HETATM   28  C11 UNL     1      17.703  -4.743  10.251  1.00  0.00    -0.027 C 
BRANCH  28  29
HETATM   29  C12 UNL     1      18.950  -3.946  10.513  1.00  0.00     0.027 C 
BRANCH  29  30
HETATM   30  C13 UNL     1      19.643  -4.324  11.825  1.00  0.00    -0.001 C 
HETATM   31  C14 UNL     1      18.696  -4.883  12.878  1.00  0.00     0.005 C 
ENDBRANCH  29  30
ENDBRANCH  28  29
ENDBRANCH  26  27
ENDBRANCH  24  25
ENDBRANCH   3  23
BRANCH   1  32
HETATM   32  C2  UNL     1      12.811  -8.918   4.590  1.00  0.00    -0.054 C 
HETATM   33  C1  UNL     1      13.434  -9.985   5.128  1.00  0.00     0.017 C 
HETATM   34  C3  UNL     1      11.509  -9.127   3.860  1.00  0.00     0.046 C 
ENDBRANCH   1  32
BRANCH  22  35
HETATM   35  O9  UNL     1      14.200  -7.260   2.402  1.00  0.00    -0.377 OA
BRANCH  35  36
HETATM   36  C31 UNL     1      14.265  -6.540   1.168  1.00  0.00     0.207 C 
BRANCH  36  37
HETATM   37  C32 UNL     1      13.534  -7.283   0.078  1.00  0.00    -0.035 A 
HETATM   38  C33 UNL     1      12.966  -6.595  -1.003  1.00  0.00     0.009 A 
HETATM   39  C34 UNL     1      12.282  -7.289  -2.002  1.00  0.00     0.001 A 
HETATM   40  C35 UNL     1      12.160  -8.675  -1.931  1.00  0.00     0.000 A 
HETATM   41  C36 UNL     1      12.718  -9.369  -0.860  1.00  0.00     0.001 A 
HETATM   42  C37 UNL     1      13.402  -8.677   0.141  1.00  0.00     0.009 A 
ENDBRANCH  36  37
ENDBRANCH  35  36
ENDBRANCH  22  35
BRANCH  11  43
HETATM   43  O6  UNL     1      16.360  -4.363   2.576  1.00  0.00    -0.378 OA
HETATM   44  H27 UNL     1      17.250  -4.377   2.154  1.00  0.00     0.211 HD
ENDBRANCH  11  43
BRANCH   9  45
HETATM   45  C19 UNL     1      19.346  -5.312   6.002  1.00  0.00     0.207 C 
BRANCH  45  46
HETATM   46  O4  UNL     1      20.181  -5.891   5.004  1.00  0.00    -0.398 OA
HETATM   47  H24 UNL     1      21.001  -6.164   5.456  1.00  0.00     0.209 HD
ENDBRANCH  45  46
ENDBRANCH   9  45
BRANCH  10  48
HETATM   48  O5  UNL     1      18.787  -4.283   3.273  1.00  0.00    -0.389 OA
HETATM   49  H26 UNL     1      19.558  -4.762   3.647  1.00  0.00     0.210 HD
ENDBRANCH  10  48
TORSDOF 13
ENDMDL
MODEL 8
REMARK minimizedAffinity -7.00363922
REMARK CNNscore 0.138442948
REMARK CNNaffinity 5.65855217
REMARK  13 active torsions:
REMARK  status: ('A' for Active; 'I' for Inactive)
REMARK    1  A    between atoms: C2_2  and  C4_4 
REMARK    2  A    between atoms: C5_6  and  C6_7 
REMARK    3  A    between atoms: C7_8  and  C8_9 
REMARK    4  A    between atoms: C9_10  and  C10_11 
REMARK    5  A    between atoms: C11_12  and  C12_13 
REMARK    6  A    between atoms: C12_13  and  C13_14 
REMARK    7  A    between atoms: C18_21  and  C19_22 
REMARK    8  A    between atoms: C19_22  and  O4_23 
REMARK    9  A    between atoms: C20_24  and  O5_25 
REMARK   10  A    between atoms: C21_26  and  O6_27 
REMARK   11  A    between atoms: C30_38  and  O9_39 
REMARK   12  A    between atoms: O9_39  and  C31_40 
REMARK   13  A    between atoms: C31_40  and  C32_41 
ROOT
HETATM    1  C4  UNL     1       0.964  11.375  17.611  1.00  0.00     0.142 C 
HETATM    2  O1  UNL     1      -0.056  10.915  16.690  1.00  0.00    -0.308 OA
HETATM    3  C5  UNL     1       0.184  11.649  15.501  1.00  0.00     0.306 C 
HETATM    4  O2  UNL     1       0.649  12.924  15.900  1.00  0.00    -0.320 OA
HETATM    5  C15 UNL     1       1.643  12.548  16.863  1.00  0.00     0.179 C 
HETATM    6  C16 UNL     1       2.871  12.134  16.022  1.00  0.00     0.086 C 
HETATM    7  C17 UNL     1       3.319  13.320  15.189  1.00  0.00     0.172 A 
HETATM    8  O3  UNL     1       3.166  13.220  13.776  1.00  0.00    -0.363 OA
HETATM    9  C18 UNL     1       4.523  13.349  14.245  1.00  0.00     0.138 A 
HETATM   10  C20 UNL     1       5.422  12.149  13.966  1.00  0.00     0.200 C 
HETATM   11  C21 UNL     1       4.902  10.750  14.350  1.00  0.00     0.161 C 
HETATM   12  C22 UNL     1       5.546   9.658  13.500  1.00  0.00     0.192 C 
HETATM   13  O7  UNL     1       6.727   9.579  13.191  1.00  0.00    -0.289 OA
HETATM   14  C23 UNL     1       4.560   8.628  13.115  1.00  0.00    -0.016 C 
HETATM   15  C24 UNL     1       4.924   7.376  12.421  1.00  0.00     0.052 C 
HETATM   16  C25 UNL     1       3.368   9.112  13.473  1.00  0.00    -0.005 C 
HETATM   17  C26 UNL     1       3.407  10.492  14.085  1.00  0.00     0.090 C 
HETATM   18  C27 UNL     1       2.462  10.806  15.293  1.00  0.00     0.092 C 
HETATM   19  O8  UNL     1       1.146  10.968  14.692  1.00  0.00    -0.316 OA
HETATM   20  C28 UNL     1       2.404   9.644  16.386  1.00  0.00     0.050 C 
HETATM   21  C29 UNL     1       1.537   8.425  16.010  1.00  0.00     0.016 C 
HETATM   22  C30 UNL     1       1.938  10.179  17.789  1.00  0.00     0.170 C 
ENDROOT
BRANCH   3  23
HETATM   23  C6  UNL     1      -1.092  11.703  14.723  1.00  0.00     0.074 C 
HETATM   24  C7  UNL     1      -1.766  10.774  14.022  1.00  0.00     0.004 C 
BRANCH  24  25
HETATM   25  C8  UNL     1      -1.438   9.375  13.871  1.00  0.00    -0.000 C 
HETATM   26  C9  UNL     1      -2.136   8.546  13.080  1.00  0.00    -0.000 C 
BRANCH  26  27
HETATM   27  C10 UNL     1      -1.811   7.144  12.936  1.00  0.00    -0.004 C 
HETATM   28  C11 UNL     1      -2.741   6.178  12.907  1.00  0.00    -0.027 C 
BRANCH  28  29
HETATM   29  C12 UNL     1      -2.420   4.717  12.764  1.00  0.00     0.027 C 
BRANCH  29  30
HETATM   30  C13 UNL     1      -3.641   3.810  12.937  1.00  0.00    -0.001 C 
HETATM   31  C14 UNL     1      -4.968   4.557  12.890  1.00  0.00     0.005 C 
ENDBRANCH  29  30
ENDBRANCH  28  29
ENDBRANCH  26  27
ENDBRANCH  24  25
ENDBRANCH   3  23
BRANCH   1  32
HETATM   32  C2  UNL     1       0.262  11.771  18.920  1.00  0.00    -0.054 C 
HETATM   33  C1  UNL     1       0.353  13.003  19.460  1.00  0.00     0.017 C 
HETATM   34  C3  UNL     1      -0.574  10.730  19.618  1.00  0.00     0.046 C 
ENDBRANCH   1  32
BRANCH  22  35
HETATM   35  O9  UNL     1       3.079  10.589  18.562  1.00  0.00    -0.377 OA
BRANCH  35  36
HETATM   36  C31 UNL     1       2.750  11.384  19.705  1.00  0.00     0.207 C 
BRANCH  36  37
HETATM   37  C32 UNL     1       3.110  10.660  20.978  1.00  0.00    -0.035 A 
HETATM   38  C33 UNL     1       2.368   9.551  21.407  1.00  0.00     0.009 A 
HETATM   39  C34 UNL     1       2.702   8.891  22.591  1.00  0.00     0.001 A 
HETATM   40  C35 UNL     1       3.778   9.333  23.356  1.00  0.00     0.000 A 
HETATM   41  C36 UNL     1       4.521  10.436  22.942  1.00  0.00     0.001 A 
HETATM   42  C37 UNL     1       4.190  11.097  21.758  1.00  0.00     0.009 A 
ENDBRANCH  36  37
ENDBRANCH  35  36
ENDBRANCH  22  35
BRANCH  11  43
HETATM   43  O6  UNL     1       5.290  10.446  15.703  1.00  0.00    -0.378 OA
HETATM   44  H27 UNL     1       6.206  10.804  15.760  1.00  0.00     0.211 HD
ENDBRANCH  11  43
BRANCH   9  45
HETATM   45  C19 UNL     1       5.087  14.689  13.829  1.00  0.00     0.207 C 
BRANCH  45  46
HETATM   46  O4  UNL     1       4.067  15.459  13.202  1.00  0.00    -0.398 OA
HETATM   47  H24 UNL     1       4.503  16.255  12.845  1.00  0.00     0.209 HD
ENDBRANCH  45  46
ENDBRANCH   9  45
BRANCH  10  48
HETATM   48  O5  UNL     1       6.655  12.324  14.706  1.00  0.00    -0.389 OA
HETATM   49  H26 UNL     1       6.864  13.283  14.700  1.00  0.00     0.210 HD
ENDBRANCH  10  48
TORSDOF 13
ENDMDL
MODEL 9
REMARK minimizedAffinity -6.73907423
REMARK CNNscore 0.137381598
REMARK CNNaffinity 5.77604723
REMARK  13 active torsions:
REMARK  status: ('A' for Active; 'I' for Inactive)
REMARK    1  A    between atoms: C2_2  and  C4_4 
REMARK    2  A    between atoms: C5_6  and  C6_7 
REMARK    3  A    between atoms: C7_8  and  C8_9 
REMARK    4  A    between atoms: C9_10  and  C10_11 
REMARK    5  A    between atoms: C11_12  and  C12_13 
REMARK    6  A    between atoms: C12_13  and  C13_14 
REMARK    7  A    between atoms: C18_21  and  C19_22 
REMARK    8  A    between atoms: C19_22  and  O4_23 
REMARK    9  A    between atoms: C20_24  and  O5_25 
REMARK   10  A    between atoms: C21_26  and  O6_27 
REMARK   11  A    between atoms: C30_38  and  O9_39 
REMARK   12  A    between atoms: O9_39  and  C31_40 
REMARK   13  A    between atoms: C31_40  and  C32_41 
ROOT
HETATM    1  C4  UNL     1     -18.380   1.093  12.624  1.00  0.00     0.142 C 
HETATM    2  O1  UNL     1     -19.628   0.368  12.765  1.00  0.00    -0.308 OA
HETATM    3  C5  UNL     1     -19.414  -0.845  12.065  1.00  0.00     0.306 C 
HETATM    4  O2  UNL     1     -18.571  -0.537  10.971  1.00  0.00    -0.320 OA
HETATM    5  C15 UNL     1     -17.559   0.233  11.632  1.00  0.00     0.179 C 
HETATM    6  C16 UNL     1     -16.645  -0.813  12.309  1.00  0.00     0.086 C 
HETATM    7  C17 UNL     1     -16.054  -1.714  11.241  1.00  0.00     0.172 A 
HETATM    8  O3  UNL     1     -16.470  -3.077  11.235  1.00  0.00    -0.363 OA
HETATM    9  C18 UNL     1     -15.067  -2.858  11.480  1.00  0.00     0.138 A 
HETATM   10  C20 UNL     1     -14.573  -3.291  12.855  1.00  0.00     0.200 C 
HETATM   11  C21 UNL     1     -15.364  -2.817  14.091  1.00  0.00     0.161 C 
HETATM   12  C22 UNL     1     -15.183  -3.767  15.272  1.00  0.00     0.192 C 
HETATM   13  O7  UNL     1     -14.136  -4.282  15.637  1.00  0.00    -0.289 OA
HETATM   14  C23 UNL     1     -16.455  -3.969  15.996  1.00  0.00    -0.016 C 
HETATM   15  C24 UNL     1     -16.555  -4.714  17.268  1.00  0.00     0.052 C 
HETATM   16  C25 UNL     1     -17.400  -3.404  15.240  1.00  0.00    -0.005 C 
HETATM   17  C26 UNL     1     -16.897  -2.811  13.945  1.00  0.00     0.090 C 
HETATM   18  C27 UNL     1     -17.505  -1.455  13.453  1.00  0.00     0.092 C 
HETATM   19  O8  UNL     1     -18.817  -1.811  12.933  1.00  0.00    -0.316 OA
HETATM   20  C28 UNL     1     -17.674  -0.367  14.609  1.00  0.00     0.050 C 
HETATM   21  C29 UNL     1     -18.880  -0.580  15.547  1.00  0.00     0.016 C 
HETATM   22  C30 UNL     1     -17.736   1.096  14.036  1.00  0.00     0.170 C 
ENDROOT
BRANCH   3  23
HETATM   23  C6  UNL     1     -20.746  -1.383  11.651  1.00  0.00     0.074 C 
HETATM   24  C7  UNL     1     -21.567  -1.082  10.629  1.00  0.00     0.004 C 
BRANCH  24  25
HETATM   25  C8  UNL     1     -21.336  -0.134   9.563  1.00  0.00    -0.000 C 
HETATM   26  C9  UNL     1     -22.318   0.599   9.016  1.00  0.00    -0.000 C 
BRANCH  26  27
HETATM   27  C10 UNL     1     -22.086   1.541   7.944  1.00  0.00    -0.004 C 
HETATM   28  C11 UNL     1     -22.323   1.253   6.656  1.00  0.00    -0.027 C 
BRANCH  28  29
HETATM   29  C12 UNL     1     -22.081   2.218   5.529  1.00  0.00     0.027 C 
BRANCH  29  30
HETATM   30  C13 UNL     1     -21.186   1.648   4.426  1.00  0.00    -0.001 C 
HETATM   31  C14 UNL     1     -21.872   1.554   3.070  1.00  0.00     0.005 C 
ENDBRANCH  29  30
ENDBRANCH  28  29
ENDBRANCH  26  27
ENDBRANCH  24  25
ENDBRANCH   3  23
BRANCH   1  32
HETATM   32  C2  UNL     1     -18.718   2.504  12.120  1.00  0.00    -0.054 C 
HETATM   33  C1  UNL     1     -19.826   2.786  11.405  1.00  0.00     0.017 C 
HETATM   34  C3  UNL     1     -17.764   3.622  12.453  1.00  0.00     0.046 C 
ENDBRANCH   1  32
BRANCH  22  35
HETATM   35  O9  UNL     1     -16.411   1.652  13.967  1.00  0.00    -0.377 OA
BRANCH  35  36
HETATM   36  C31 UNL     1     -15.884   2.053  15.236  1.00  0.00     0.207 C 
BRANCH  36  37
HETATM   37  C32 UNL     1     -16.011   3.545  15.417  1.00  0.00    -0.035 A 
HETATM   38  C33 UNL     1     -16.992   4.084  16.262  1.00  0.00     0.009 A 
HETATM   39  C34 UNL     1     -17.110   5.466  16.417  1.00  0.00     0.001 A 
HETATM   40  C35 UNL     1     -16.250   6.321  15.731  1.00  0.00     0.000 A 
HETATM   41  C36 UNL     1     -15.274   5.797  14.887  1.00  0.00     0.001 A 
HETATM   42  C37 UNL     1     -15.154   4.416  14.730  1.00  0.00     0.009 A 
ENDBRANCH  36  37
ENDBRANCH  35  36
ENDBRANCH  22  35
BRANCH  11  43
HETATM   43  O6  UNL     1     -14.842  -1.555  14.545  1.00  0.00    -0.378 OA
HETATM   44  H27 UNL     1     -13.868  -1.662  14.436  1.00  0.00     0.211 HD
ENDBRANCH  11  43
BRANCH   9  45
HETATM   45  C19 UNL     1     -14.254  -3.370  10.312  1.00  0.00     0.207 C 
BRANCH  45  46
HETATM   46  O4  UNL     1     -13.484  -4.494  10.726  1.00  0.00    -0.398 OA
HETATM   47  H24 UNL     1     -12.891  -4.710   9.983  1.00  0.00     0.209 HD
ENDBRANCH  45  46
ENDBRANCH   9  45
BRANCH  10  48
HETATM   48  O5  UNL     1     -13.228  -2.782  13.037  1.00  0.00    -0.389 OA
HETATM   49  H26 UNL     1     -12.781  -2.828  12.164  1.00  0.00     0.210 HD
ENDBRANCH  10  48
TORSDOF 13
ENDMDL
