MODEL 1
REMARK minimizedAffinity -7.44783783
REMARK  9 active torsions:
REMARK  status: ('A' for Active; 'I' for Inactive)
REMARK    1  A    between atoms: O1_2  and  C2_3 
REMARK    2  A    between atoms: C2_3  and  C3_4 
REMARK    3  A    between atoms: C3_4  and  N1_5 
REMARK       I    between atoms: N1_5  and  C4_6 
REMARK    4  A    between atoms: C4_6  and  C5_8 
REMARK    5  A    between atoms: C5_8  and  C7_10 
REMARK    6  A    between atoms: C14_17  and  N2_18 
REMARK       I    between atoms: N2_18  and  C15_19 
REMARK    7  A    between atoms: C15_19  and  C16_21 
REMARK    8  A    between atoms: C16_21  and  O4_22 
REMARK    9  A    between atoms: C21_27  and  O5_28 
ROOT
HETATM    1  C7  UNL     1       0.012  51.974 -23.469  1.00  0.00     0.027 C 
HETATM    2  C8  UNL     1       0.455  52.787 -22.247  1.00  0.00     0.009 C 
HETATM    3  C9  UNL     1       0.072  52.103 -20.930  1.00  0.00     0.010 C 
HETATM    4  C10 UNL     1      -1.274  51.322 -20.957  1.00  0.00    -0.037 C 
HETATM    5  C11 UNL     1      -0.985  49.812 -21.149  1.00  0.00     0.015 C 
HETATM    6  C12 UNL     1      -1.960  51.513 -19.580  1.00  0.00     0.011 C 
HETATM    7  C13 UNL     1      -3.351  50.897 -19.507  1.00  0.00     0.026 C 
HETATM    8  C14 UNL     1      -4.269  51.395 -20.629  1.00  0.00     0.088 C 
HETATM    9  C18 UNL     1      -3.628  51.251 -22.037  1.00  0.00     0.012 C 
HETATM   10  C19 UNL     1      -4.572  51.848 -23.095  1.00  0.00     0.012 C 
HETATM   11  C20 UNL     1      -2.201  51.897 -22.067  1.00  0.00     0.028 C 
HETATM   12  C21 UNL     1      -1.539  51.878 -23.477  1.00  0.00     0.128 C 
ENDROOT
BRANCH   1  13
HETATM   13  C5  UNL     1       0.616  52.536 -24.789  1.00  0.00     0.080 C 
HETATM   14  C6  UNL     1       0.185  53.980 -25.070  1.00  0.00     0.020 C 
BRANCH  13  15
HETATM   15  C4  UNL     1       0.256  51.673 -26.000  1.00  0.00     0.222 C 
HETATM   16  N1  UNL     1      -1.001  51.878 -26.523  1.00  0.00    -0.359 N 
HETATM   17  H8  UNL     1      -1.619  52.558 -26.102  1.00  0.00     0.162 HD
HETATM   18  O2  UNL     1       1.045  50.860 -26.473  1.00  0.00    -0.273 OA
BRANCH  16  19
HETATM   19  C3  UNL     1      -1.499  51.102 -27.642  1.00  0.00     0.148 C 
BRANCH  19  20
HETATM   20  C2  UNL     1      -3.023  51.119 -27.768  1.00  0.00     0.186 C 
BRANCH  20  21
HETATM   21  O1  UNL     1      -3.449  49.903 -28.390  1.00  0.00    -0.394 OA
HETATM   22  C1  UNL     1      -3.493  48.832 -27.457  1.00  0.00     0.201 C 
ENDBRANCH  20  21
ENDBRANCH  19  20
ENDBRANCH  16  19
ENDBRANCH  13  15
ENDBRANCH   1  13
BRANCH  12  23
HETATM   23  O5  UNL     1      -2.050  53.008 -24.191  1.00  0.00    -0.395 OA
HETATM   24  H38 UNL     1      -2.619  52.685 -24.910  1.00  0.00     0.210 HD
ENDBRANCH  12  23
BRANCH   8  25
HETATM   25  N2  UNL     1      -5.536  50.680 -20.557  1.00  0.00    -0.354 N 
HETATM   26  C15 UNL     1      -5.636  49.317 -20.745  1.00  0.00     0.241 C 
HETATM   27  O3  UNL     1      -4.673  48.565 -20.854  1.00  0.00    -0.271 OA
HETATM   28  H26 UNL     1      -6.410  51.187 -20.669  1.00  0.00     0.162 HD
BRANCH  26  29
HETATM   29  C16 UNL     1      -7.081  48.812 -20.782  1.00  0.00     0.269 C 
BRANCH  29  30
HETATM   30  O4  UNL     1      -7.852  49.484 -21.781  1.00  0.00    -0.387 OA
HETATM   31  C17 UNL     1      -7.628  48.921 -23.068  1.00  0.00     0.202 C 
ENDBRANCH  29  30
ENDBRANCH  26  29
ENDBRANCH   8  25
TORSDOF 9
ENDMDL
MODEL 2
REMARK minimizedAffinity -7.4280057
REMARK  9 active torsions:
REMARK  status: ('A' for Active; 'I' for Inactive)
REMARK    1  A    between atoms: O1_2  and  C2_3 
REMARK    2  A    between atoms: C2_3  and  C3_4 
REMARK    3  A    between atoms: C3_4  and  N1_5 
REMARK       I    between atoms: N1_5  and  C4_6 
REMARK    4  A    between atoms: C4_6  and  C5_8 
REMARK    5  A    between atoms: C5_8  and  C7_10 
REMARK    6  A    between atoms: C14_17  and  N2_18 
REMARK       I    between atoms: N2_18  and  C15_19 
REMARK    7  A    between atoms: C15_19  and  C16_21 
REMARK    8  A    between atoms: C16_21  and  O4_22 
REMARK    9  A    between atoms: C21_27  and  O5_28 
ROOT
HETATM    1  C7  UNL     1      -0.068  51.363 -17.928  1.00  0.00     0.027 C 
HETATM    2  C8  UNL     1      -1.601  51.367 -17.993  1.00  0.00     0.009 C 
HETATM    3  C9  UNL     1      -2.128  50.609 -19.215  1.00  0.00     0.010 C 
HETATM    4  C10 UNL     1      -1.248  50.723 -20.495  1.00  0.00    -0.037 C 
HETATM    5  C11 UNL     1      -0.375  49.449 -20.630  1.00  0.00     0.015 C 
HETATM    6  C12 UNL     1      -2.198  50.791 -21.718  1.00  0.00     0.011 C 
HETATM    7  C13 UNL     1      -1.471  51.024 -23.036  1.00  0.00     0.026 C 
HETATM    8  C14 UNL     1      -0.573  52.266 -22.993  1.00  0.00     0.088 C 
HETATM    9  C18 UNL     1       0.390  52.269 -21.775  1.00  0.00     0.012 C 
HETATM   10  C19 UNL     1       1.193  53.581 -21.757  1.00  0.00     0.012 C 
HETATM   11  C20 UNL     1      -0.398  52.025 -20.443  1.00  0.00     0.028 C 
HETATM   12  C21 UNL     1       0.492  52.115 -19.167  1.00  0.00     0.128 C 
ENDROOT
BRANCH   1  13
HETATM   13  C5  UNL     1       0.456  51.909 -16.569  1.00  0.00     0.080 C 
HETATM   14  C6  UNL     1       1.986  51.965 -16.502  1.00  0.00     0.020 C 
BRANCH  13  15
HETATM   15  C4  UNL     1      -0.057  51.089 -15.383  1.00  0.00     0.222 C 
HETATM   16  N1  UNL     1      -0.546  51.819 -14.324  1.00  0.00    -0.359 N 
HETATM   17  H8  UNL     1      -0.544  52.829 -14.361  1.00  0.00     0.162 HD
HETATM   18  O2  UNL     1      -0.036  49.862 -15.388  1.00  0.00    -0.273 OA
BRANCH  16  19
HETATM   19  C3  UNL     1      -1.024  51.181 -13.112  1.00  0.00     0.148 C 
BRANCH  19  20
HETATM   20  C2  UNL     1      -1.787  52.127 -12.183  1.00  0.00     0.186 C 
BRANCH  20  21
HETATM   21  O1  UNL     1      -3.126  52.271 -12.668  1.00  0.00    -0.394 OA
HETATM   22  C1  UNL     1      -3.919  53.044 -11.777  1.00  0.00     0.201 C 
ENDBRANCH  20  21
ENDBRANCH  19  20
ENDBRANCH  16  19
ENDBRANCH  13  15
ENDBRANCH   1  13
BRANCH  12  23
HETATM   23  O5  UNL     1       0.599  53.502 -18.833  1.00  0.00    -0.395 OA
HETATM   24  H38 UNL     1       1.517  53.785 -18.988  1.00  0.00     0.210 HD
ENDBRANCH  12  23
BRANCH   8  25
HETATM   25  N2  UNL     1       0.169  52.357 -24.244  1.00  0.00    -0.354 N 
HETATM   26  C15 UNL     1      -0.393  52.824 -25.414  1.00  0.00     0.241 C 
HETATM   27  O3  UNL     1      -1.510  53.326 -25.488  1.00  0.00    -0.271 OA
HETATM   28  H26 UNL     1       1.014  51.806 -24.372  1.00  0.00     0.162 HD
BRANCH  26  29
HETATM   29  C16 UNL     1       0.525  52.679 -26.631  1.00  0.00     0.269 C 
BRANCH  29  30
HETATM   30  O4  UNL     1       1.903  52.638 -26.253  1.00  0.00    -0.387 OA
HETATM   31  C17 UNL     1       2.562  51.519 -26.834  1.00  0.00     0.202 C 
ENDBRANCH  29  30
ENDBRANCH  26  29
ENDBRANCH   8  25
TORSDOF 9
ENDMDL
MODEL 3
REMARK minimizedAffinity -7.29462433
REMARK  9 active torsions:
REMARK  status: ('A' for Active; 'I' for Inactive)
REMARK    1  A    between atoms: O1_2  and  C2_3 
REMARK    2  A    between atoms: C2_3  and  C3_4 
REMARK    3  A    between atoms: C3_4  and  N1_5 
REMARK       I    between atoms: N1_5  and  C4_6 
REMARK    4  A    between atoms: C4_6  and  C5_8 
REMARK    5  A    between atoms: C5_8  and  C7_10 
REMARK    6  A    between atoms: C14_17  and  N2_18 
REMARK       I    between atoms: N2_18  and  C15_19 
REMARK    7  A    between atoms: C15_19  and  C16_21 
REMARK    8  A    between atoms: C16_21  and  O4_22 
REMARK    9  A    between atoms: C21_27  and  O5_28 
ROOT
HETATM    1  C7  UNL     1       0.151  52.130 -23.131  1.00  0.00     0.027 C 
HETATM    2  C8  UNL     1       0.279  52.817 -21.765  1.00  0.00     0.009 C 
HETATM    3  C9  UNL     1      -0.386  52.006 -20.648  1.00  0.00     0.010 C 
HETATM    4  C10 UNL     1      -1.672  51.235 -21.066  1.00  0.00    -0.037 C 
HETATM    5  C11 UNL     1      -1.315  49.750 -21.330  1.00  0.00     0.015 C 
HETATM    6  C12 UNL     1      -2.665  51.290 -19.876  1.00  0.00     0.011 C 
HETATM    7  C13 UNL     1      -4.021  50.672 -20.191  1.00  0.00     0.026 C 
HETATM    8  C14 UNL     1      -4.661  51.282 -21.443  1.00  0.00     0.088 C 
HETATM    9  C18 UNL     1      -3.707  51.277 -22.669  1.00  0.00     0.012 C 
HETATM   10  C19 UNL     1      -4.390  51.978 -23.855  1.00  0.00     0.012 C 
HETATM   11  C20 UNL     1      -2.326  51.919 -22.301  1.00  0.00     0.028 C 
HETATM   12  C21 UNL     1      -1.353  52.039 -23.511  1.00  0.00     0.128 C 
ENDROOT
BRANCH   1  13
HETATM   13  C5  UNL     1       1.034  52.819 -24.211  1.00  0.00     0.080 C 
HETATM   14  C6  UNL     1       0.977  54.349 -24.136  1.00  0.00     0.020 C 
BRANCH  13  15
HETATM   15  C4  UNL     1       0.655  52.383 -25.628  1.00  0.00     0.222 C 
HETATM   16  N1  UNL     1       0.364  53.403 -26.505  1.00  0.00    -0.359 N 
HETATM   17  H8  UNL     1       0.402  54.364 -26.194  1.00  0.00     0.162 HD
HETATM   18  O2  UNL     1       0.623  51.200 -25.954  1.00  0.00    -0.273 OA
BRANCH  16  19
HETATM   19  C3  UNL     1      -0.056  53.142 -27.869  1.00  0.00     0.148 C 
BRANCH  19  20
HETATM   20  C2  UNL     1      -1.494  53.572 -28.158  1.00  0.00     0.186 C 
BRANCH  20  21
HETATM   21  O1  UNL     1      -2.335  53.122 -27.092  1.00  0.00    -0.394 OA
HETATM   22  C1  UNL     1      -2.726  51.767 -27.276  1.00  0.00     0.201 C 
ENDBRANCH  20  21
ENDBRANCH  19  20
ENDBRANCH  16  19
ENDBRANCH  13  15
ENDBRANCH   1  13
BRANCH  12  23
HETATM   23  O5  UNL     1      -1.707  53.235 -24.212  1.00  0.00    -0.395 OA
HETATM   24  H38 UNL     1      -2.085  52.986 -25.072  1.00  0.00     0.210 HD
ENDBRANCH  12  23
BRANCH   8  25
HETATM   25  N2  UNL     1      -5.895  50.566 -21.740  1.00  0.00    -0.354 N 
HETATM   26  C15 UNL     1      -5.922  49.223 -22.055  1.00  0.00     0.241 C 
HETATM   27  O3  UNL     1      -4.948  48.480 -21.985  1.00  0.00    -0.271 OA
HETATM   28  H26 UNL     1      -6.725  51.082 -22.022  1.00  0.00     0.162 HD
BRANCH  26  29
HETATM   29  C16 UNL     1      -7.305  48.725 -22.483  1.00  0.00     0.269 C 
BRANCH  29  30
HETATM   30  O4  UNL     1      -7.920  49.611 -23.423  1.00  0.00    -0.387 OA
HETATM   31  C17 UNL     1      -8.317  48.918 -24.599  1.00  0.00     0.202 C 
ENDBRANCH  29  30
ENDBRANCH  26  29
ENDBRANCH   8  25
TORSDOF 9
ENDMDL
MODEL 4
REMARK minimizedAffinity -7.17605257
REMARK  9 active torsions:
REMARK  status: ('A' for Active; 'I' for Inactive)
REMARK    1  A    between atoms: O1_2  and  C2_3 
REMARK    2  A    between atoms: C2_3  and  C3_4 
REMARK    3  A    between atoms: C3_4  and  N1_5 
REMARK       I    between atoms: N1_5  and  C4_6 
REMARK    4  A    between atoms: C4_6  and  C5_8 
REMARK    5  A    between atoms: C5_8  and  C7_10 
REMARK    6  A    between atoms: C14_17  and  N2_18 
REMARK       I    between atoms: N2_18  and  C15_19 
REMARK    7  A    between atoms: C15_19  and  C16_21 
REMARK    8  A    between atoms: C16_21  and  O4_22 
REMARK    9  A    between atoms: C21_27  and  O5_28 
ROOT
HETATM    1  C7  UNL     1      -3.342  50.224 -24.869  1.00  0.00     0.027 C 
HETATM    2  C8  UNL     1      -3.273  48.701 -24.705  1.00  0.00     0.009 C 
HETATM    3  C9  UNL     1      -3.404  48.274 -23.239  1.00  0.00     0.010 C 
HETATM    4  C10 UNL     1      -2.761  49.245 -22.206  1.00  0.00    -0.037 C 
HETATM    5  C11 UNL     1      -3.866  50.138 -21.587  1.00  0.00     0.015 C 
HETATM    6  C12 UNL     1      -2.139  48.388 -21.073  1.00  0.00     0.011 C 
HETATM    7  C13 UNL     1      -1.368  49.210 -20.048  1.00  0.00     0.026 C 
HETATM    8  C14 UNL     1      -0.293  50.090 -20.696  1.00  0.00     0.088 C 
HETATM    9  C18 UNL     1      -0.850  50.959 -21.857  1.00  0.00     0.012 C 
HETATM   10  C19 UNL     1       0.301  51.746 -22.507  1.00  0.00     0.012 C 
HETATM   11  C20 UNL     1      -1.635  50.077 -22.886  1.00  0.00     0.028 C 
HETATM   12  C21 UNL     1      -2.135  50.868 -24.131  1.00  0.00     0.128 C 
ENDROOT
BRANCH   1  13
HETATM   13  C5  UNL     1      -3.461  50.640 -26.364  1.00  0.00     0.080 C 
HETATM   14  C6  UNL     1      -2.905  49.581 -27.321  1.00  0.00     0.020 C 
BRANCH  13  15
HETATM   15  C4  UNL     1      -2.763  51.972 -26.648  1.00  0.00     0.222 C 
HETATM   16  N1  UNL     1      -1.767  51.930 -27.597  1.00  0.00    -0.359 N 
HETATM   17  H8  UNL     1      -1.537  51.056 -28.049  1.00  0.00     0.162 HD
HETATM   18  O2  UNL     1      -3.083  53.007 -26.069  1.00  0.00    -0.273 OA
BRANCH  16  19
HETATM   19  C3  UNL     1      -0.987  53.104 -27.939  1.00  0.00     0.148 C 
BRANCH  19  20
HETATM   20  C2  UNL     1       0.516  52.834 -28.026  1.00  0.00     0.186 C 
BRANCH  20  21
HETATM   21  O1  UNL     1       0.892  51.959 -26.958  1.00  0.00    -0.394 OA
HETATM   22  C1  UNL     1       2.289  51.700 -26.968  1.00  0.00     0.201 C 
ENDBRANCH  20  21
ENDBRANCH  19  20
ENDBRANCH  16  19
ENDBRANCH  13  15
ENDBRANCH   1  13
BRANCH  12  23
HETATM   23  O5  UNL     1      -1.040  50.937 -25.047  1.00  0.00    -0.395 OA
HETATM   24  H38 UNL     1      -0.740  51.861 -25.098  1.00  0.00     0.210 HD
ENDBRANCH  12  23
BRANCH   8  25
HETATM   25  N2  UNL     1       0.320  50.922 -19.669  1.00  0.00    -0.354 N 
HETATM   26  C15 UNL     1      -0.387  51.862 -18.949  1.00  0.00     0.241 C 
HETATM   27  O3  UNL     1      -1.605  51.997 -19.003  1.00  0.00    -0.271 OA
HETATM   28  H26 UNL     1       1.329  51.053 -19.660  1.00  0.00     0.162 HD
BRANCH  26  29
HETATM   29  C16 UNL     1       0.495  52.724 -18.042  1.00  0.00     0.269 C 
BRANCH  29  30
HETATM   30  O4  UNL     1       0.831  52.045 -16.829  1.00  0.00    -0.387 OA
HETATM   31  C17 UNL     1       2.192  52.263 -16.478  1.00  0.00     0.202 C 
ENDBRANCH  29  30
ENDBRANCH  26  29
ENDBRANCH   8  25
TORSDOF 9
ENDMDL
MODEL 5
REMARK minimizedAffinity -7.10348177
REMARK  9 active torsions:
REMARK  status: ('A' for Active; 'I' for Inactive)
REMARK    1  A    between atoms: O1_2  and  C2_3 
REMARK    2  A    between atoms: C2_3  and  C3_4 
REMARK    3  A    between atoms: C3_4  and  N1_5 
REMARK       I    between atoms: N1_5  and  C4_6 
REMARK    4  A    between atoms: C4_6  and  C5_8 
REMARK    5  A    between atoms: C5_8  and  C7_10 
REMARK    6  A    between atoms: C14_17  and  N2_18 
REMARK       I    between atoms: N2_18  and  C15_19 
REMARK    7  A    between atoms: C15_19  and  C16_21 
REMARK    8  A    between atoms: C16_21  and  O4_22 
REMARK    9  A    between atoms: C21_27  and  O5_28 
ROOT
HETATM    1  C7  UNL     1       0.170  51.507 -17.980  1.00  0.00     0.027 C 
HETATM    2  C8  UNL     1      -1.363  51.455 -18.014  1.00  0.00     0.009 C 
HETATM    3  C9  UNL     1      -1.885  50.668 -19.221  1.00  0.00     0.010 C 
HETATM    4  C10 UNL     1      -1.035  50.804 -20.518  1.00  0.00    -0.037 C 
HETATM    5  C11 UNL     1      -0.118  49.563 -20.661  1.00  0.00     0.015 C 
HETATM    6  C12 UNL     1      -2.010  50.828 -21.724  1.00  0.00     0.011 C 
HETATM    7  C13 UNL     1      -1.317  51.078 -23.056  1.00  0.00     0.026 C 
HETATM    8  C14 UNL     1      -0.465  52.352 -23.040  1.00  0.00     0.088 C 
HETATM    9  C18 UNL     1       0.521  52.399 -21.840  1.00  0.00     0.012 C 
HETATM   10  C19 UNL     1       1.276  53.739 -21.847  1.00  0.00     0.012 C 
HETATM   11  C20 UNL     1      -0.232  52.137 -20.492  1.00  0.00     0.028 C 
HETATM   12  C21 UNL     1       0.678  52.269 -19.235  1.00  0.00     0.128 C 
ENDROOT
BRANCH   1  13
HETATM   13  C5  UNL     1       0.699  52.082 -16.634  1.00  0.00     0.080 C 
HETATM   14  C6  UNL     1       2.221  52.262 -16.624  1.00  0.00     0.020 C 
BRANCH  13  15
HETATM   15  C4  UNL     1       0.301  51.213 -15.440  1.00  0.00     0.222 C 
HETATM   16  N1  UNL     1       0.662  49.888 -15.524  1.00  0.00    -0.359 N 
HETATM   17  H8  UNL     1       1.151  49.547 -16.340  1.00  0.00     0.162 HD
HETATM   18  O2  UNL     1      -0.294  51.677 -14.471  1.00  0.00    -0.273 OA
BRANCH  16  19
HETATM   19  C3  UNL     1       0.313  48.933 -14.489  1.00  0.00     0.148 C 
BRANCH  19  20
HETATM   20  C2  UNL     1       1.501  48.505 -13.626  1.00  0.00     0.186 C 
BRANCH  20  21
HETATM   21  O1  UNL     1       1.777  49.537 -12.675  1.00  0.00    -0.394 OA
HETATM   22  C1  UNL     1       3.065  50.101 -12.881  1.00  0.00     0.201 C 
ENDBRANCH  20  21
ENDBRANCH  19  20
ENDBRANCH  16  19
ENDBRANCH  13  15
ENDBRANCH   1  13
BRANCH  12  23
HETATM   23  O5  UNL     1       0.741  53.662 -18.912  1.00  0.00    -0.395 OA
HETATM   24  H38 UNL     1       1.645  53.976 -19.087  1.00  0.00     0.210 HD
ENDBRANCH  12  23
BRANCH   8  25
HETATM   25  N2  UNL     1       0.250  52.460 -24.306  1.00  0.00    -0.354 N 
HETATM   26  C15 UNL     1      -0.350  52.900 -25.467  1.00  0.00     0.241 C 
HETATM   27  O3  UNL     1      -1.485  53.364 -25.522  1.00  0.00    -0.271 OA
HETATM   28  H26 UNL     1       1.111  51.937 -24.447  1.00  0.00     0.162 HD
BRANCH  26  29
HETATM   29  C16 UNL     1       0.548  52.779 -26.701  1.00  0.00     0.269 C 
BRANCH  29  30
HETATM   30  O4  UNL     1       1.901  52.483 -26.344  1.00  0.00    -0.387 OA
HETATM   31  C17 UNL     1       2.539  51.705 -27.349  1.00  0.00     0.202 C 
ENDBRANCH  29  30
ENDBRANCH  26  29
ENDBRANCH   8  25
TORSDOF 9
ENDMDL
MODEL 6
REMARK minimizedAffinity -7.00145054
REMARK  9 active torsions:
REMARK  status: ('A' for Active; 'I' for Inactive)
REMARK    1  A    between atoms: O1_2  and  C2_3 
REMARK    2  A    between atoms: C2_3  and  C3_4 
REMARK    3  A    between atoms: C3_4  and  N1_5 
REMARK       I    between atoms: N1_5  and  C4_6 
REMARK    4  A    between atoms: C4_6  and  C5_8 
REMARK    5  A    between atoms: C5_8  and  C7_10 
REMARK    6  A    between atoms: C14_17  and  N2_18 
REMARK       I    between atoms: N2_18  and  C15_19 
REMARK    7  A    between atoms: C15_19  and  C16_21 
REMARK    8  A    between atoms: C16_21  and  O4_22 
REMARK    9  A    between atoms: C21_27  and  O5_28 
ROOT
HETATM    1  C7  UNL     1      -1.893  50.972 -23.856  1.00  0.00     0.027 C 
HETATM    2  C8  UNL     1      -1.222  52.347 -23.743  1.00  0.00     0.009 C 
HETATM    3  C9  UNL     1      -0.272  52.428 -22.543  1.00  0.00     0.010 C 
HETATM    4  C10 UNL     1      -0.723  51.624 -21.287  1.00  0.00    -0.037 C 
HETATM    5  C11 UNL     1       0.041  50.277 -21.242  1.00  0.00     0.015 C 
HETATM    6  C12 UNL     1      -0.330  52.447 -20.033  1.00  0.00     0.011 C 
HETATM    7  C13 UNL     1      -0.820  51.830 -18.729  1.00  0.00     0.026 C 
HETATM    8  C14 UNL     1      -2.330  51.569 -18.739  1.00  0.00     0.088 C 
HETATM    9  C18 UNL     1      -2.792  50.766 -19.986  1.00  0.00     0.012 C 
HETATM   10  C19 UNL     1      -4.323  50.620 -19.966  1.00  0.00     0.012 C 
HETATM   11  C20 UNL     1      -2.267  51.433 -21.303  1.00  0.00     0.028 C 
HETATM   12  C21 UNL     1      -2.777  50.737 -22.600  1.00  0.00     0.128 C 
ENDROOT
BRANCH   1  13
HETATM   13  C5  UNL     1      -2.654  50.808 -25.203  1.00  0.00     0.080 C 
HETATM   14  C6  UNL     1      -2.577  49.381 -25.757  1.00  0.00     0.020 C 
BRANCH  13  15
HETATM   15  C4  UNL     1      -2.146  51.777 -26.273  1.00  0.00     0.222 C 
HETATM   16  N1  UNL     1      -1.010  51.382 -26.941  1.00  0.00    -0.359 N 
HETATM   17  H8  UNL     1      -0.565  50.504 -26.708  1.00  0.00     0.162 HD
HETATM   18  O2  UNL     1      -2.724  52.832 -26.518  1.00  0.00    -0.273 OA
BRANCH  16  19
HETATM   19  C3  UNL     1      -0.386  52.217 -27.950  1.00  0.00     0.148 C 
BRANCH  19  20
HETATM   20  C2  UNL     1       1.104  51.932 -28.143  1.00  0.00     0.186 C 
BRANCH  20  21
HETATM   21  O1  UNL     1       1.814  52.373 -26.981  1.00  0.00    -0.394 OA
HETATM   22  C1  UNL     1       2.466  51.290 -26.331  1.00  0.00     0.201 C 
ENDBRANCH  20  21
ENDBRANCH  19  20
ENDBRANCH  16  19
ENDBRANCH  13  15
ENDBRANCH   1  13
BRANCH  12  23
HETATM   23  O5  UNL     1      -4.079  51.263 -22.869  1.00  0.00    -0.395 OA
HETATM   24  H38 UNL     1      -4.731  50.555 -22.730  1.00  0.00     0.210 HD
ENDBRANCH  12  23
BRANCH   8  25
HETATM   25  N2  UNL     1      -2.701  50.880 -17.510  1.00  0.00    -0.354 N 
HETATM   26  C15 UNL     1      -2.189  49.648 -17.160  1.00  0.00     0.241 C 
HETATM   27  O3  UNL     1      -1.287  49.080 -17.768  1.00  0.00    -0.271 OA
HETATM   28  H26 UNL     1      -3.559  51.134 -17.027  1.00  0.00     0.162 HD
BRANCH  26  29
HETATM   29  C16 UNL     1      -2.839  49.050 -15.910  1.00  0.00     0.269 C 
BRANCH  29  30
HETATM   30  O4  UNL     1      -2.641  49.879 -14.762  1.00  0.00    -0.387 OA
HETATM   31  C17 UNL     1      -1.341  49.696 -14.215  1.00  0.00     0.202 C 
ENDBRANCH  29  30
ENDBRANCH  26  29
ENDBRANCH   8  25
TORSDOF 9
ENDMDL
MODEL 7
REMARK minimizedAffinity -6.94279242
REMARK  9 active torsions:
REMARK  status: ('A' for Active; 'I' for Inactive)
REMARK    1  A    between atoms: O1_2  and  C2_3 
REMARK    2  A    between atoms: C2_3  and  C3_4 
REMARK    3  A    between atoms: C3_4  and  N1_5 
REMARK       I    between atoms: N1_5  and  C4_6 
REMARK    4  A    between atoms: C4_6  and  C5_8 
REMARK    5  A    between atoms: C5_8  and  C7_10 
REMARK    6  A    between atoms: C14_17  and  N2_18 
REMARK       I    between atoms: N2_18  and  C15_19 
REMARK    7  A    between atoms: C15_19  and  C16_21 
REMARK    8  A    between atoms: C16_21  and  O4_22 
REMARK    9  A    between atoms: C21_27  and  O5_28 
ROOT
HETATM    1  C7  UNL     1       0.718  52.061 -24.577  1.00  0.00     0.027 C 
HETATM    2  C8  UNL     1       0.434  53.558 -24.400  1.00  0.00     0.009 C 
HETATM    3  C9  UNL     1       0.951  54.087 -23.057  1.00  0.00     0.010 C 
HETATM    4  C10 UNL     1       0.859  53.083 -21.871  1.00  0.00    -0.037 C 
HETATM    5  C11 UNL     1       2.246  52.428 -21.648  1.00  0.00     0.015 C 
HETATM    6  C12 UNL     1       0.492  53.887 -20.597  1.00  0.00     0.011 C 
HETATM    7  C13 UNL     1       0.253  53.008 -19.376  1.00  0.00     0.026 C 
HETATM    8  C14 UNL     1      -0.797  51.923 -19.637  1.00  0.00     0.088 C 
HETATM    9  C18 UNL     1      -0.498  51.093 -20.916  1.00  0.00     0.012 C 
HETATM   10  C19 UNL     1      -1.636  50.086 -21.153  1.00  0.00     0.012 C 
HETATM   11  C20 UNL     1      -0.257  52.034 -22.145  1.00  0.00     0.028 C 
HETATM   12  C21 UNL     1      -0.051  51.267 -23.485  1.00  0.00     0.128 C 
ENDROOT
BRANCH   1  13
HETATM   13  C5  UNL     1       0.422  51.584 -26.029  1.00  0.00     0.080 C 
HETATM   14  C6  UNL     1       1.258  52.325 -27.078  1.00  0.00     0.020 C 
BRANCH  13  15
HETATM   15  C4  UNL     1      -1.057  51.726 -26.391  1.00  0.00     0.222 C 
HETATM   16  N1  UNL     1      -1.649  50.603 -26.922  1.00  0.00    -0.359 N 
HETATM   17  H8  UNL     1      -1.107  49.760 -27.054  1.00  0.00     0.162 HD
HETATM   18  O2  UNL     1      -1.671  52.775 -26.210  1.00  0.00    -0.273 OA
BRANCH  16  19
HETATM   19  C3  UNL     1      -3.034  50.600 -27.355  1.00  0.00     0.148 C 
BRANCH  19  20
HETATM   20  C2  UNL     1      -3.786  49.321 -26.987  1.00  0.00     0.186 C 
BRANCH  20  21
HETATM   21  O1  UNL     1      -3.696  48.401 -28.079  1.00  0.00    -0.394 OA
HETATM   22  C1  UNL     1      -4.972  48.153 -28.655  1.00  0.00     0.201 C 
ENDBRANCH  20  21
ENDBRANCH  19  20
ENDBRANCH  16  19
ENDBRANCH  13  15
ENDBRANCH   1  13
BRANCH  12  23
HETATM   23  O5  UNL     1      -1.352  50.960 -23.992  1.00  0.00    -0.395 OA
HETATM   24  H38 UNL     1      -1.481  49.997 -23.942  1.00  0.00     0.210 HD
ENDBRANCH  12  23
BRANCH   8  25
HETATM   25  N2  UNL     1      -0.887  51.060 -18.466  1.00  0.00    -0.354 N 
HETATM   26  C15 UNL     1      -2.014  50.992 -17.673  1.00  0.00     0.241 C 
HETATM   27  O3  UNL     1      -3.079  51.536 -17.944  1.00  0.00    -0.271 OA
HETATM   28  H26 UNL     1      -0.037  50.718 -18.023  1.00  0.00     0.162 HD
BRANCH  26  29
HETATM   29  C16 UNL     1      -1.822  50.143 -16.413  1.00  0.00     0.269 C 
BRANCH  29  30
HETATM   30  O4  UNL     1      -1.674  50.954 -15.245  1.00  0.00    -0.387 OA
HETATM   31  C17 UNL     1      -2.900  51.055 -14.531  1.00  0.00     0.202 C 
ENDBRANCH  29  30
ENDBRANCH  26  29
ENDBRANCH   8  25
TORSDOF 9
ENDMDL
MODEL 8
REMARK minimizedAffinity -6.94172096
REMARK  9 active torsions:
REMARK  status: ('A' for Active; 'I' for Inactive)
REMARK    1  A    between atoms: O1_2  and  C2_3 
REMARK    2  A    between atoms: C2_3  and  C3_4 
REMARK    3  A    between atoms: C3_4  and  N1_5 
REMARK       I    between atoms: N1_5  and  C4_6 
REMARK    4  A    between atoms: C4_6  and  C5_8 
REMARK    5  A    between atoms: C5_8  and  C7_10 
REMARK    6  A    between atoms: C14_17  and  N2_18 
REMARK       I    between atoms: N2_18  and  C15_19 
REMARK    7  A    between atoms: C15_19  and  C16_21 
REMARK    8  A    between atoms: C16_21  and  O4_22 
REMARK    9  A    between atoms: C21_27  and  O5_28 
ROOT
HETATM    1  C7  UNL     1       5.197  65.672 -35.479  1.00  0.00     0.027 C 
HETATM    2  C8  UNL     1       5.657  65.104 -36.827  1.00  0.00     0.009 C 
HETATM    3  C9  UNL     1       5.675  66.172 -37.926  1.00  0.00     0.010 C 
HETATM    4  C10 UNL     1       4.554  67.248 -37.822  1.00  0.00    -0.037 C 
HETATM    5  C11 UNL     1       5.135  68.531 -37.175  1.00  0.00     0.015 C 
HETATM    6  C12 UNL     1       4.097  67.596 -39.263  1.00  0.00     0.011 C 
HETATM    7  C13 UNL     1       2.915  68.555 -39.306  1.00  0.00     0.026 C 
HETATM    8  C14 UNL     1       1.726  68.051 -38.481  1.00  0.00     0.088 C 
HETATM    9  C18 UNL     1       2.123  67.664 -37.030  1.00  0.00     0.012 C 
HETATM   10  C19 UNL     1       0.898  67.091 -36.296  1.00  0.00     0.012 C 
HETATM   11  C20 UNL     1       3.341  66.679 -37.031  1.00  0.00     0.028 C 
HETATM   12  C21 UNL     1       3.731  66.169 -35.612  1.00  0.00     0.128 C 
ENDROOT
BRANCH   1  13
HETATM   13  C5  UNL     1       5.417  64.659 -34.318  1.00  0.00     0.080 C 
HETATM   14  C6  UNL     1       5.014  65.225 -32.952  1.00  0.00     0.020 C 
BRANCH  13  15
HETATM   15  C4  UNL     1       6.868  64.179 -34.241  1.00  0.00     0.222 C 
HETATM   16  N1  UNL     1       7.183  63.109 -35.047  1.00  0.00    -0.359 N 
HETATM   17  H8  UNL     1       6.474  62.691 -35.633  1.00  0.00     0.162 HD
HETATM   18  O2  UNL     1       7.692  64.723 -33.511  1.00  0.00    -0.273 OA
BRANCH  16  19
HETATM   19  C3  UNL     1       8.507  62.516 -35.047  1.00  0.00     0.148 C 
BRANCH  19  20
HETATM   20  C2  UNL     1       8.586  61.197 -34.276  1.00  0.00     0.186 C 
BRANCH  20  21
HETATM   21  O1  UNL     1       8.301  60.119 -35.173  1.00  0.00    -0.394 OA
HETATM   22  C1  UNL     1       7.077  59.478 -34.839  1.00  0.00     0.201 C 
ENDBRANCH  20  21
ENDBRANCH  19  20
ENDBRANCH  16  19
ENDBRANCH  13  15
ENDBRANCH   1  13
BRANCH  12  23
HETATM   23  O5  UNL     1       2.862  65.072 -35.312  1.00  0.00    -0.395 OA
HETATM   24  H38 UNL     1       2.263  65.343 -34.596  1.00  0.00     0.210 HD
ENDBRANCH  12  23
BRANCH   8  25
HETATM   25  N2  UNL     1       0.684  69.070 -38.481  1.00  0.00    -0.354 N 
HETATM   26  C15 UNL     1      -0.474  68.954 -39.223  1.00  0.00     0.241 C 
HETATM   27  O3  UNL     1      -0.799  67.943 -39.837  1.00  0.00    -0.271 OA
HETATM   28  H26 UNL     1       0.903  70.018 -38.185  1.00  0.00     0.162 HD
BRANCH  26  29
HETATM   29  C16 UNL     1      -1.346  70.212 -39.191  1.00  0.00     0.269 C 
BRANCH  29  30
HETATM   30  O4  UNL     1      -2.677  69.947 -39.641  1.00  0.00    -0.387 OA
HETATM   31  C17 UNL     1      -2.915  70.530 -40.916  1.00  0.00     0.202 C 
ENDBRANCH  29  30
ENDBRANCH  26  29
ENDBRANCH   8  25
TORSDOF 9
ENDMDL
MODEL 9
REMARK minimizedAffinity -6.91774845
REMARK  9 active torsions:
REMARK  status: ('A' for Active; 'I' for Inactive)
REMARK    1  A    between atoms: O1_2  and  C2_3 
REMARK    2  A    between atoms: C2_3  and  C3_4 
REMARK    3  A    between atoms: C3_4  and  N1_5 
REMARK       I    between atoms: N1_5  and  C4_6 
REMARK    4  A    between atoms: C4_6  and  C5_8 
REMARK    5  A    between atoms: C5_8  and  C7_10 
REMARK    6  A    between atoms: C14_17  and  N2_18 
REMARK       I    between atoms: N2_18  and  C15_19 
REMARK    7  A    between atoms: C15_19  and  C16_21 
REMARK    8  A    between atoms: C16_21  and  O4_22 
REMARK    9  A    between atoms: C21_27  and  O5_28 
ROOT
HETATM    1  C7  UNL     1      -1.675  50.048 -20.423  1.00  0.00     0.027 C 
HETATM    2  C8  UNL     1      -2.899  50.949 -20.216  1.00  0.00     0.009 C 
HETATM    3  C9  UNL     1      -3.785  51.011 -21.466  1.00  0.00     0.010 C 
HETATM    4  C10 UNL     1      -3.022  50.954 -22.822  1.00  0.00    -0.037 C 
HETATM    5  C11 UNL     1      -3.087  49.511 -23.384  1.00  0.00     0.015 C 
HETATM    6  C12 UNL     1      -3.751  51.895 -23.815  1.00  0.00     0.011 C 
HETATM    7  C13 UNL     1      -3.038  52.027 -25.155  1.00  0.00     0.026 C 
HETATM    8  C14 UNL     1      -1.575  52.456 -24.996  1.00  0.00     0.088 C 
HETATM    9  C18 UNL     1      -0.793  51.563 -23.994  1.00  0.00     0.012 C 
HETATM   10  C19 UNL     1       0.636  52.107 -23.827  1.00  0.00     0.012 C 
HETATM   11  C20 UNL     1      -1.560  51.453 -22.632  1.00  0.00     0.028 C 
HETATM   12  C21 UNL     1      -0.784  50.654 -21.543  1.00  0.00     0.128 C 
ENDROOT
BRANCH   1  13
HETATM   13  C5  UNL     1      -0.918  49.786 -19.089  1.00  0.00     0.080 C 
HETATM   14  C6  UNL     1      -1.673  48.833 -18.156  1.00  0.00     0.020 C 
BRANCH  13  15
HETATM   15  C4  UNL     1      -0.622  51.082 -18.330  1.00  0.00     0.222 C 
HETATM   16  N1  UNL     1       0.688  51.261 -17.949  1.00  0.00    -0.359 N 
HETATM   17  H8  UNL     1       1.380  50.557 -18.169  1.00  0.00     0.162 HD
HETATM   18  O2  UNL     1      -1.500  51.905 -18.088  1.00  0.00    -0.273 OA
BRANCH  16  19
HETATM   19  C3  UNL     1       1.110  52.419 -17.184  1.00  0.00     0.148 C 
BRANCH  19  20
HETATM   20  C2  UNL     1       1.315  52.128 -15.697  1.00  0.00     0.186 C 
BRANCH  20  21
HETATM   21  O1  UNL     1       2.624  51.582 -15.508  1.00  0.00    -0.394 OA
HETATM   22  C1  UNL     1       3.631  52.498 -15.920  1.00  0.00     0.201 C 
ENDBRANCH  20  21
ENDBRANCH  19  20
ENDBRANCH  16  19
ENDBRANCH  13  15
ENDBRANCH   1  13
BRANCH  12  23
HETATM   23  O5  UNL     1       0.135  51.565 -20.936  1.00  0.00    -0.395 OA
HETATM   24  H38 UNL     1       1.038  51.300 -21.182  1.00  0.00     0.210 HD
ENDBRANCH  12  23
BRANCH   8  25
HETATM   25  N2  UNL     1      -0.936  52.451 -26.306  1.00  0.00    -0.354 N 
HETATM   26  C15 UNL     1      -0.259  53.542 -26.811  1.00  0.00     0.241 C 
HETATM   27  O3  UNL     1      -0.015  54.558 -26.168  1.00  0.00    -0.271 OA
HETATM   28  H26 UNL     1      -1.220  51.769 -27.005  1.00  0.00     0.162 HD
BRANCH  26  29
HETATM   29  C16 UNL     1       0.190  53.361 -28.263  1.00  0.00     0.269 C 
BRANCH  29  30
HETATM   30  O4  UNL     1       0.641  52.028 -28.517  1.00  0.00    -0.387 OA
HETATM   31  C17 UNL     1       1.941  51.815 -27.981  1.00  0.00     0.202 C 
ENDBRANCH  29  30
ENDBRANCH  26  29
ENDBRANCH   8  25
TORSDOF 9
ENDMDL
