MODEL 1
REMARK minimizedAffinity -10.258769
REMARK CNNscore 0.535266638
REMARK CNNaffinity 6.19708586
REMARK  6 active torsions:
REMARK  status: ('A' for Active; 'I' for Inactive)
REMARK    1  A    between atoms: C2_2  and  C3_3 
REMARK    2  A    between atoms: C6_6  and  O1_7 
REMARK    3  A    between atoms: C7_8  and  C8_9 
REMARK    4  A    between atoms: C20_25  and  O5_26 
REMARK    5  A    between atoms: C26_32  and  O6_33 
REMARK    6  A    between atoms: C31_39  and  O8_40 
ROOT
HETATM    1  C3  UNL     1       2.229  51.468 -16.037  1.00  0.00     0.008 C 
HETATM    2  C4  UNL     1       1.193  50.982 -15.039  1.00  0.00    -0.023 C 
HETATM    3  C5  UNL     1       0.640  49.754 -15.054  1.00  0.00     0.004 C 
HETATM    4  C6  UNL     1      -0.399  49.286 -14.072  1.00  0.00     0.174 C 
HETATM    5  C7  UNL     1      -1.857  49.536 -14.565  1.00  0.00     0.187 C 
HETATM    6  O2  UNL     1      -2.210  48.681 -15.671  1.00  0.00    -0.308 OA
HETATM    7  C12 UNL     1      -3.045  49.238 -16.593  1.00  0.00     0.276 C 
HETATM    8  O3  UNL     1      -3.441  50.403 -16.531  1.00  0.00    -0.264 OA
HETATM    9  C13 UNL     1      -3.458  48.274 -17.772  1.00  0.00     0.090 C 
HETATM   10  C14 UNL     1      -4.995  48.512 -17.872  1.00  0.00     0.035 C 
HETATM   11  C15 UNL     1      -3.211  46.813 -17.450  1.00  0.00     0.003 C 
HETATM   12  C16 UNL     1      -3.488  45.775 -18.251  1.00  0.00     0.072 C 
HETATM   13  C17 UNL     1      -4.080  45.848 -19.601  1.00  0.00     0.245 C 
HETATM   14  O4  UNL     1      -4.737  44.895 -20.016  1.00  0.00    -0.268 OA
HETATM   15  N1  UNL     1      -3.807  46.893 -20.434  1.00  0.00    -0.324 N 
HETATM   16  C18 UNL     1      -3.026  48.025 -20.287  1.00  0.00     0.052 C 
HETATM   17  C19 UNL     1      -2.771  48.640 -19.110  1.00  0.00     0.000 C 
HETATM   18  C20 UNL     1      -1.701  49.710 -19.041  1.00  0.00     0.185 C 
HETATM   19  C21 UNL     1      -1.232  50.355 -20.326  1.00  0.00     0.001 A 
HETATM   20  C22 UNL     1      -1.592  49.759 -21.551  1.00  0.00    -0.013 A 
HETATM   21  C23 UNL     1      -1.189  50.343 -22.766  1.00  0.00     0.020 A 
HETATM   22  C24 UNL     1      -0.462  51.536 -22.797  1.00  0.00    -0.027 A 
HETATM   23  C25 UNL     1      -0.092  52.160 -24.112  1.00  0.00     0.051 C 
HETATM   24  C26 UNL     1      -0.137  52.149 -21.585  1.00  0.00     0.086 A 
HETATM   25  C27 UNL     1      -0.478  51.561 -20.347  1.00  0.00     0.053 A 
HETATM   26  C28 UNL     1      -0.015  52.303 -19.127  1.00  0.00     0.163 C 
HETATM   27  O7  UNL     1      -0.074  53.535 -19.145  1.00  0.00    -0.292 OA
HETATM   28  C29 UNL     1       0.573  51.543 -17.963  1.00  0.00     0.084 C 
HETATM   29  C30 UNL     1       1.572  52.349 -17.127  1.00  0.00     0.016 C 
HETATM   30  C31 UNL     1      -2.424  48.501 -21.605  1.00  0.00     0.202 C 
HETATM   31  H24 UNL     1      -4.111  46.664 -21.378  1.00  0.00     0.169 HD
ENDROOT
BRANCH   5  32
HETATM   32  C8  UNL     1      -2.857  49.395 -13.427  1.00  0.00     0.010 C 
HETATM   33  C9  UNL     1      -3.349  50.299 -12.556  1.00  0.00    -0.089 C 
HETATM   34  C10 UNL     1      -4.285  49.860 -11.456  1.00  0.00     0.042 C 
HETATM   35  C11 UNL     1      -3.064  51.773 -12.562  1.00  0.00     0.042 C 
ENDBRANCH   5  32
BRANCH   4  36
HETATM   36  O1  UNL     1      -0.133  47.905 -13.819  1.00  0.00    -0.389 OA
HETATM   37  H10 UNL     1      -0.787  47.618 -13.160  1.00  0.00     0.210 HD
ENDBRANCH   4  36
BRANCH   1  38
HETATM   38  C2  UNL     1       3.341  52.219 -15.274  1.00  0.00     0.004 C 
HETATM   39  C1  UNL     1       4.533  52.594 -16.146  1.00  0.00     0.006 C 
ENDBRANCH   1  38
BRANCH  18  40
HETATM   40  O5  UNL     1      -0.607  49.038 -18.432  1.00  0.00    -0.386 OA
HETATM   41  H26 UNL     1      -0.108  48.591 -19.137  1.00  0.00     0.210 HD
ENDBRANCH  18  40
BRANCH  30  42
HETATM   42  O8  UNL     1      -1.602  47.467 -22.146  1.00  0.00    -0.385 OA
HETATM   43  H37 UNL     1      -1.690  46.680 -21.577  1.00  0.00     0.211 HD
ENDBRANCH  30  42
BRANCH  24  44
HETATM   44  O6  UNL     1       0.531  53.349 -21.665  1.00  0.00    -0.359 OA
HETATM   45  H31 UNL     1       0.425  53.812 -20.804  1.00  0.00     0.217 HD
ENDBRANCH  24  44
TORSDOF 6
ENDMDL
MODEL 2
REMARK minimizedAffinity -7.77020264
REMARK CNNscore 0.418658078
REMARK CNNaffinity 5.22774315
REMARK  6 active torsions:
REMARK  status: ('A' for Active; 'I' for Inactive)
REMARK    1  A    between atoms: C2_2  and  C3_3 
REMARK    2  A    between atoms: C6_6  and  O1_7 
REMARK    3  A    between atoms: C7_8  and  C8_9 
REMARK    4  A    between atoms: C20_25  and  O5_26 
REMARK    5  A    between atoms: C26_32  and  O6_33 
REMARK    6  A    between atoms: C31_39  and  O8_40 
ROOT
HETATM    1  C3  UNL     1       1.092  57.774  -2.723  1.00  0.00     0.008 C 
HETATM    2  C4  UNL     1       0.367  57.312  -3.975  1.00  0.00    -0.023 C 
HETATM    3  C5  UNL     1       0.636  56.167  -4.632  1.00  0.00     0.004 C 
HETATM    4  C6  UNL     1      -0.075  55.725  -5.881  1.00  0.00     0.174 C 
HETATM    5  C7  UNL     1       0.638  56.198  -7.185  1.00  0.00     0.187 C 
HETATM    6  O2  UNL     1       1.888  55.513  -7.399  1.00  0.00    -0.308 OA
HETATM    7  C12 UNL     1       2.867  56.261  -7.983  1.00  0.00     0.276 C 
HETATM    8  O3  UNL     1       2.731  57.451  -8.267  1.00  0.00    -0.264 OA
HETATM    9  C13 UNL     1       4.214  55.483  -8.252  1.00  0.00     0.090 C 
HETATM   10  C14 UNL     1       4.558  55.912  -9.709  1.00  0.00     0.035 C 
HETATM   11  C15 UNL     1       4.040  53.978  -8.215  1.00  0.00     0.003 C 
HETATM   12  C16 UNL     1       5.003  53.070  -8.432  1.00  0.00     0.072 C 
HETATM   13  C17 UNL     1       6.417  53.356  -8.742  1.00  0.00     0.245 C 
HETATM   14  O4  UNL     1       7.061  52.538  -9.396  1.00  0.00    -0.268 OA
HETATM   15  N1  UNL     1       7.048  54.444  -8.213  1.00  0.00    -0.324 N 
HETATM   16  C18 UNL     1       6.620  55.453  -7.369  1.00  0.00     0.052 C 
HETATM   17  C19 UNL     1       5.349  55.904  -7.287  1.00  0.00     0.000 C 
HETATM   18  C20 UNL     1       4.953  56.826  -6.152  1.00  0.00     0.185 C 
HETATM   19  C21 UNL     1       6.041  57.542  -5.382  1.00  0.00     0.001 A 
HETATM   20  C22 UNL     1       7.376  57.127  -5.556  1.00  0.00    -0.013 A 
HETATM   21  C23 UNL     1       8.415  57.785  -4.871  1.00  0.00     0.020 A 
HETATM   22  C24 UNL     1       8.163  58.878  -4.039  1.00  0.00    -0.027 A 
HETATM   23  C25 UNL     1       9.300  59.590  -3.363  1.00  0.00     0.051 C 
HETATM   24  C26 UNL     1       6.844  59.317  -3.896  1.00  0.00     0.086 A 
HETATM   25  C27 UNL     1       5.772  58.645  -4.525  1.00  0.00     0.053 A 
HETATM   26  C28 UNL     1       4.405  59.193  -4.237  1.00  0.00     0.163 C 
HETATM   27  O7  UNL     1       4.278  60.418  -4.171  1.00  0.00    -0.292 OA
HETATM   28  C29 UNL     1       3.260  58.250  -3.961  1.00  0.00     0.084 C 
HETATM   29  C30 UNL     1       2.162  58.838  -3.069  1.00  0.00     0.016 C 
HETATM   30  C31 UNL     1       7.737  55.990  -6.480  1.00  0.00     0.202 C 
HETATM   31  H24 UNL     1       8.053  54.354  -8.350  1.00  0.00     0.169 HD
ENDROOT
BRANCH   5  32
HETATM   32  C8  UNL     1      -0.274  56.058  -8.394  1.00  0.00     0.010 C 
HETATM   33  C9  UNL     1      -0.430  55.055  -9.282  1.00  0.00    -0.089 C 
HETATM   34  C10 UNL     1      -1.366  55.218 -10.455  1.00  0.00     0.042 C 
HETATM   35  C11 UNL     1       0.250  53.718  -9.227  1.00  0.00     0.042 C 
ENDBRANCH   5  32
BRANCH   4  36
HETATM   36  O1  UNL     1      -0.195  54.303  -5.805  1.00  0.00    -0.389 OA
HETATM   37  H10 UNL     1      -0.684  54.028  -6.598  1.00  0.00     0.210 HD
ENDBRANCH   4  36
BRANCH   1  38
HETATM   38  C2  UNL     1       0.053  58.301  -1.712  1.00  0.00     0.004 C 
HETATM   39  C1  UNL     1      -0.824  59.418  -2.264  1.00  0.00     0.006 C 
ENDBRANCH   1  38
BRANCH  18  40
HETATM   40  O5  UNL     1       4.247  55.967  -5.266  1.00  0.00    -0.386 OA
HETATM   41  H26 UNL     1       4.901  55.541  -4.686  1.00  0.00     0.210 HD
ENDBRANCH  18  40
BRANCH  30  42
HETATM   42  O8  UNL     1       8.248  54.929  -5.674  1.00  0.00    -0.385 OA
HETATM   43  H37 UNL     1       7.808  54.102  -5.946  1.00  0.00     0.211 HD
ENDBRANCH  30  42
BRANCH  24  44
HETATM   44  O6  UNL     1       6.650  60.430  -3.112  1.00  0.00    -0.359 OA
HETATM   45  H31 UNL     1       5.771  60.809  -3.337  1.00  0.00     0.217 HD
ENDBRANCH  24  44
TORSDOF 6
ENDMDL
MODEL 3
REMARK minimizedAffinity -8.18253136
REMARK CNNscore 0.397055745
REMARK CNNaffinity 5.48913383
REMARK  6 active torsions:
REMARK  status: ('A' for Active; 'I' for Inactive)
REMARK    1  A    between atoms: C2_2  and  C3_3 
REMARK    2  A    between atoms: C6_6  and  O1_7 
REMARK    3  A    between atoms: C7_8  and  C8_9 
REMARK    4  A    between atoms: C20_25  and  O5_26 
REMARK    5  A    between atoms: C26_32  and  O6_33 
REMARK    6  A    between atoms: C31_39  and  O8_40 
ROOT
HETATM    1  C3  UNL     1      -7.554  46.941 -26.194  1.00  0.00     0.008 C 
HETATM    2  C4  UNL     1      -8.925  46.290 -26.253  1.00  0.00    -0.023 C 
HETATM    3  C5  UNL     1      -9.140  44.990 -26.527  1.00  0.00     0.004 C 
HETATM    4  C6  UNL     1     -10.502  44.357 -26.601  1.00  0.00     0.174 C 
HETATM    5  C7  UNL     1     -11.100  44.370 -28.041  1.00  0.00     0.187 C 
HETATM    6  O2  UNL     1     -10.402  43.473 -28.927  1.00  0.00    -0.308 OA
HETATM    7  C12 UNL     1     -10.307  43.891 -30.221  1.00  0.00     0.276 C 
HETATM    8  O3  UNL     1     -10.736  44.976 -30.615  1.00  0.00    -0.264 OA
HETATM    9  C13 UNL     1      -9.581  42.876 -31.187  1.00  0.00     0.090 C 
HETATM   10  C14 UNL     1     -10.525  42.864 -32.426  1.00  0.00     0.035 C 
HETATM   11  C15 UNL     1      -9.505  41.473 -30.617  1.00  0.00     0.003 C 
HETATM   12  C16 UNL     1      -8.968  40.406 -31.225  1.00  0.00     0.072 C 
HETATM   13  C17 UNL     1      -8.340  40.387 -32.560  1.00  0.00     0.245 C 
HETATM   14  O4  UNL     1      -8.349  39.342 -33.208  1.00  0.00    -0.268 OA
HETATM   15  N1  UNL     1      -7.648  41.465 -33.029  1.00  0.00    -0.324 N 
HETATM   16  C18 UNL     1      -7.376  42.708 -32.485  1.00  0.00     0.052 C 
HETATM   17  C19 UNL     1      -8.165  43.352 -31.597  1.00  0.00     0.000 C 
HETATM   18  C20 UNL     1      -7.641  44.581 -30.883  1.00  0.00     0.185 C 
HETATM   19  C21 UNL     1      -6.437  45.297 -31.453  1.00  0.00     0.001 A 
HETATM   20  C22 UNL     1      -5.681  44.654 -32.454  1.00  0.00    -0.013 A 
HETATM   21  C23 UNL     1      -4.567  45.300 -33.021  1.00  0.00     0.020 A 
HETATM   22  C24 UNL     1      -4.202  46.594 -32.642  1.00  0.00    -0.027 A 
HETATM   23  C25 UNL     1      -3.037  47.274 -33.304  1.00  0.00     0.051 C 
HETATM   24  C26 UNL     1      -4.973  47.248 -31.678  1.00  0.00     0.086 A 
HETATM   25  C27 UNL     1      -6.064  46.609 -31.049  1.00  0.00     0.053 A 
HETATM   26  C28 UNL     1      -6.765  47.412 -29.993  1.00  0.00     0.163 C 
HETATM   27  O7  UNL     1      -6.923  48.618 -30.196  1.00  0.00    -0.292 OA
HETATM   28  C29 UNL     1      -7.181  46.754 -28.700  1.00  0.00     0.084 C 
HETATM   29  C30 UNL     1      -7.253  47.708 -27.504  1.00  0.00     0.016 C 
HETATM   30  C31 UNL     1      -6.043  43.278 -32.958  1.00  0.00     0.202 C 
HETATM   31  H24 UNL     1      -7.108  41.193 -33.847  1.00  0.00     0.169 HD
ENDROOT
BRANCH   5  32
HETATM   32  C8  UNL     1     -12.591  44.067 -28.023  1.00  0.00     0.010 C 
HETATM   33  C9  UNL     1     -13.660  44.826 -28.337  1.00  0.00    -0.089 C 
HETATM   34  C10 UNL     1     -15.056  44.287 -28.146  1.00  0.00     0.042 C 
HETATM   35  C11 UNL     1     -13.616  46.218 -28.896  1.00  0.00     0.042 C 
ENDBRANCH   5  32
BRANCH   4  36
HETATM   36  O1  UNL     1     -10.372  43.036 -26.072  1.00  0.00    -0.389 OA
HETATM   37  H10 UNL     1     -11.261  42.645 -26.092  1.00  0.00     0.210 HD
ENDBRANCH   4  36
BRANCH   1  38
HETATM   38  C2  UNL     1      -7.492  47.858 -24.955  1.00  0.00     0.004 C 
HETATM   39  C1  UNL     1      -6.072  48.211 -24.528  1.00  0.00     0.006 C 
ENDBRANCH   1  38
BRANCH  18  40
HETATM   40  O5  UNL     1      -7.319  44.092 -29.587  1.00  0.00    -0.386 OA
HETATM   41  H26 UNL     1      -6.416  43.733 -29.624  1.00  0.00     0.210 HD
ENDBRANCH  18  40
BRANCH  30  42
HETATM   42  O8  UNL     1      -4.991  42.393 -32.578  1.00  0.00    -0.385 OA
HETATM   43  H37 UNL     1      -5.393  41.600 -32.175  1.00  0.00     0.211 HD
ENDBRANCH  30  42
BRANCH  24  44
HETATM   44  O6  UNL     1      -4.610  48.540 -31.377  1.00  0.00    -0.359 OA
HETATM   45  H31 UNL     1      -5.378  48.978 -30.947  1.00  0.00     0.217 HD
ENDBRANCH  24  44
TORSDOF 6
ENDMDL
MODEL 4
REMARK minimizedAffinity -8.09901524
REMARK CNNscore 0.349819809
REMARK CNNaffinity 5.83722639
REMARK  6 active torsions:
REMARK  status: ('A' for Active; 'I' for Inactive)
REMARK    1  A    between atoms: C2_2  and  C3_3 
REMARK    2  A    between atoms: C6_6  and  O1_7 
REMARK    3  A    between atoms: C7_8  and  C8_9 
REMARK    4  A    between atoms: C20_25  and  O5_26 
REMARK    5  A    between atoms: C26_32  and  O6_33 
REMARK    6  A    between atoms: C31_39  and  O8_40 
ROOT
HETATM    1  C3  UNL     1      -4.669  51.564 -22.220  1.00  0.00     0.008 C 
HETATM    2  C4  UNL     1      -5.315  50.196 -22.353  1.00  0.00    -0.023 C 
HETATM    3  C5  UNL     1      -5.976  49.567 -21.363  1.00  0.00     0.004 C 
HETATM    4  C6  UNL     1      -6.599  48.204 -21.497  1.00  0.00     0.174 C 
HETATM    5  C7  UNL     1      -5.636  47.053 -21.075  1.00  0.00     0.187 C 
HETATM    6  O2  UNL     1      -5.399  47.038 -19.653  1.00  0.00    -0.308 OA
HETATM    7  C12 UNL     1      -4.149  46.648 -19.276  1.00  0.00     0.276 C 
HETATM    8  O3  UNL     1      -3.255  46.373 -20.077  1.00  0.00    -0.264 OA
HETATM    9  C13 UNL     1      -3.921  46.593 -17.715  1.00  0.00     0.090 C 
HETATM   10  C14 UNL     1      -3.195  45.226 -17.534  1.00  0.00     0.035 C 
HETATM   11  C15 UNL     1      -5.219  46.563 -16.932  1.00  0.00     0.003 C 
HETATM   12  C16 UNL     1      -5.331  46.491 -15.599  1.00  0.00     0.072 C 
HETATM   13  C17 UNL     1      -4.217  46.434 -14.632  1.00  0.00     0.245 C 
HETATM   14  O4  UNL     1      -4.396  45.879 -13.549  1.00  0.00    -0.268 OA
HETATM   15  N1  UNL     1      -3.045  47.088 -14.868  1.00  0.00    -0.324 N 
HETATM   16  C18 UNL     1      -2.609  47.872 -15.922  1.00  0.00     0.052 C 
HETATM   17  C19 UNL     1      -3.026  47.748 -17.202  1.00  0.00     0.000 C 
HETATM   18  C20 UNL     1      -2.676  48.821 -18.212  1.00  0.00     0.185 C 
HETATM   19  C21 UNL     1      -1.551  49.781 -17.893  1.00  0.00     0.001 A 
HETATM   20  C22 UNL     1      -1.057  49.828 -16.575  1.00  0.00    -0.013 A 
HETATM   21  C23 UNL     1       0.003  50.695 -16.249  1.00  0.00     0.020 A 
HETATM   22  C24 UNL     1       0.612  51.499 -17.215  1.00  0.00    -0.027 A 
HETATM   23  C25 UNL     1       1.774  52.376 -16.844  1.00  0.00     0.051 C 
HETATM   24  C26 UNL     1       0.149  51.426 -18.531  1.00  0.00     0.086 A 
HETATM   25  C27 UNL     1      -0.947  50.607 -18.881  1.00  0.00     0.053 A 
HETATM   26  C28 UNL     1      -1.371  50.672 -20.320  1.00  0.00     0.163 C 
HETATM   27  O7  UNL     1      -0.488  50.745 -21.178  1.00  0.00    -0.292 OA
HETATM   28  C29 UNL     1      -2.838  50.725 -20.670  1.00  0.00     0.084 C 
HETATM   29  C30 UNL     1      -3.143  51.431 -21.994  1.00  0.00     0.016 C 
HETATM   30  C31 UNL     1      -1.624  48.951 -15.485  1.00  0.00     0.202 C 
HETATM   31  H24 UNL     1      -2.495  47.123 -14.012  1.00  0.00     0.169 HD
ENDROOT
BRANCH   5  32
HETATM   32  C8  UNL     1      -6.145  45.702 -21.556  1.00  0.00     0.010 C 
HETATM   33  C9  UNL     1      -6.934  45.366 -22.597  1.00  0.00    -0.089 C 
HETATM   34  C10 UNL     1      -7.355  43.931 -22.797  1.00  0.00     0.042 C 
HETATM   35  C11 UNL     1      -7.460  46.307 -23.641  1.00  0.00     0.042 C 
ENDBRANCH   5  32
BRANCH   4  36
HETATM   36  O1  UNL     1      -7.803  48.224 -20.729  1.00  0.00    -0.389 OA
HETATM   37  H10 UNL     1      -8.217  47.353 -20.847  1.00  0.00     0.210 HD
ENDBRANCH   4  36
BRANCH   1  38
HETATM   38  C2  UNL     1      -5.001  52.396 -23.476  1.00  0.00     0.004 C 
HETATM   39  C1  UNL     1      -4.196  51.994 -24.705  1.00  0.00     0.006 C 
ENDBRANCH   1  38
BRANCH  18  40
HETATM   40  O5  UNL     1      -3.888  49.552 -18.343  1.00  0.00    -0.386 OA
HETATM   41  H26 UNL     1      -3.903  50.224 -17.641  1.00  0.00     0.210 HD
ENDBRANCH  18  40
BRANCH  30  42
HETATM   42  O8  UNL     1      -2.254  49.806 -14.533  1.00  0.00    -0.385 OA
HETATM   43  H37 UNL     1      -3.138  49.443 -14.338  1.00  0.00     0.211 HD
ENDBRANCH  30  42
BRANCH  24  44
HETATM   44  O6  UNL     1       0.815  52.192 -19.458  1.00  0.00    -0.359 OA
HETATM   45  H31 UNL     1       0.614  51.830 -20.350  1.00  0.00     0.217 HD
ENDBRANCH  24  44
TORSDOF 6
ENDMDL
MODEL 5
REMARK minimizedAffinity -8.17485905
REMARK CNNscore 0.347106934
REMARK CNNaffinity 6.31205559
REMARK  6 active torsions:
REMARK  status: ('A' for Active; 'I' for Inactive)
REMARK    1  A    between atoms: C2_2  and  C3_3 
REMARK    2  A    between atoms: C6_6  and  O1_7 
REMARK    3  A    between atoms: C7_8  and  C8_9 
REMARK    4  A    between atoms: C20_25  and  O5_26 
REMARK    5  A    between atoms: C26_32  and  O6_33 
REMARK    6  A    between atoms: C31_39  and  O8_40 
ROOT
HETATM    1  C3  UNL     1      -0.884  53.610 -23.742  1.00  0.00     0.008 C 
HETATM    2  C4  UNL     1      -1.772  52.635 -24.494  1.00  0.00    -0.023 C 
HETATM    3  C5  UNL     1      -3.037  52.332 -24.145  1.00  0.00     0.004 C 
HETATM    4  C6  UNL     1      -3.905  51.352 -24.886  1.00  0.00     0.174 C 
HETATM    5  C7  UNL     1      -3.802  49.903 -24.319  1.00  0.00     0.187 C 
HETATM    6  O2  UNL     1      -4.411  49.784 -23.018  1.00  0.00    -0.308 OA
HETATM    7  C12 UNL     1      -3.803  48.909 -22.168  1.00  0.00     0.276 C 
HETATM    8  O3  UNL     1      -2.776  48.292 -22.454  1.00  0.00    -0.264 OA
HETATM    9  C13 UNL     1      -4.509  48.757 -20.766  1.00  0.00     0.090 C 
HETATM   10  C14 UNL     1      -4.527  47.212 -20.569  1.00  0.00     0.035 C 
HETATM   11  C15 UNL     1      -5.938  49.265 -20.769  1.00  0.00     0.003 C 
HETATM   12  C16 UNL     1      -6.783  49.240 -19.729  1.00  0.00     0.072 C 
HETATM   13  C17 UNL     1      -6.489  48.721 -18.379  1.00  0.00     0.245 C 
HETATM   14  O4  UNL     1      -7.413  48.285 -17.694  1.00  0.00    -0.268 OA
HETATM   15  N1  UNL     1      -5.243  48.831 -17.837  1.00  0.00    -0.324 N 
HETATM   16  C18 UNL     1      -4.061  49.368 -18.316  1.00  0.00     0.052 C 
HETATM   17  C19 UNL     1      -3.715  49.434 -19.621  1.00  0.00     0.000 C 
HETATM   18  C20 UNL     1      -2.523  50.269 -20.039  1.00  0.00     0.185 C 
HETATM   19  C21 UNL     1      -1.514  50.675 -18.988  1.00  0.00     0.001 A 
HETATM   20  C22 UNL     1      -1.849  50.506 -17.630  1.00  0.00    -0.013 A 
HETATM   21  C23 UNL     1      -0.925  50.854 -16.627  1.00  0.00     0.020 A 
HETATM   22  C24 UNL     1       0.347  51.337 -16.941  1.00  0.00    -0.027 A 
HETATM   23  C25 UNL     1       1.328  51.651 -15.847  1.00  0.00     0.051 C 
HETATM   24  C26 UNL     1       0.696  51.469 -18.287  1.00  0.00     0.086 A 
HETATM   25  C27 UNL     1      -0.226  51.181 -19.318  1.00  0.00     0.053 A 
HETATM   26  C28 UNL     1       0.268  51.422 -20.716  1.00  0.00     0.163 C 
HETATM   27  O7  UNL     1       1.437  51.126 -20.972  1.00  0.00    -0.292 OA
HETATM   28  C29 UNL     1      -0.636  52.080 -21.729  1.00  0.00     0.084 C 
HETATM   29  C30 UNL     1       0.105  52.856 -22.822  1.00  0.00     0.016 C 
HETATM   30  C31 UNL     1      -3.182  49.938 -17.208  1.00  0.00     0.202 C 
HETATM   31  H24 UNL     1      -5.285  48.630 -16.840  1.00  0.00     0.169 HD
ENDROOT
BRANCH   5  32
HETATM   32  C8  UNL     1      -4.388  48.887 -25.289  1.00  0.00     0.010 C 
HETATM   33  C9  UNL     1      -4.274  48.763 -26.627  1.00  0.00    -0.089 C 
HETATM   34  C10 UNL     1      -5.043  47.690 -27.357  1.00  0.00     0.042 C 
HETATM   35  C11 UNL     1      -3.414  49.611 -27.519  1.00  0.00     0.042 C 
ENDBRANCH   5  32
BRANCH   4  36
HETATM   36  O1  UNL     1      -5.237  51.866 -24.842  1.00  0.00    -0.389 OA
HETATM   37  H10 UNL     1      -5.786  51.245 -25.350  1.00  0.00     0.210 HD
ENDBRANCH   4  36
BRANCH   1  38
HETATM   38  C2  UNL     1      -0.158  54.511 -24.763  1.00  0.00     0.004 C 
HETATM   39  C1  UNL     1       0.004  53.870 -26.136  1.00  0.00     0.006 C 
ENDBRANCH   1  38
BRANCH  18  40
HETATM   40  O5  UNL     1      -3.120  51.438 -20.585  1.00  0.00    -0.386 OA
HETATM   41  H26 UNL     1      -3.288  52.053 -19.851  1.00  0.00     0.210 HD
ENDBRANCH  18  40
BRANCH  30  42
HETATM   42  O8  UNL     1      -3.893  50.974 -16.531  1.00  0.00    -0.385 OA
HETATM   43  H37 UNL     1      -4.797  51.009 -16.894  1.00  0.00     0.211 HD
ENDBRANCH  30  42
BRANCH  24  44
HETATM   44  O6  UNL     1       1.977  51.894 -18.550  1.00  0.00    -0.359 OA
HETATM   45  H31 UNL     1       2.192  51.652 -19.479  1.00  0.00     0.217 HD
ENDBRANCH  24  44
TORSDOF 6
ENDMDL
MODEL 6
REMARK minimizedAffinity -7.94544363
REMARK CNNscore 0.342818826
REMARK CNNaffinity 5.09292173
REMARK  6 active torsions:
REMARK  status: ('A' for Active; 'I' for Inactive)
REMARK    1  A    between atoms: C2_2  and  C3_3 
REMARK    2  A    between atoms: C6_6  and  O1_7 
REMARK    3  A    between atoms: C7_8  and  C8_9 
REMARK    4  A    between atoms: C20_25  and  O5_26 
REMARK    5  A    between atoms: C26_32  and  O6_33 
REMARK    6  A    between atoms: C31_39  and  O8_40 
ROOT
HETATM    1  C3  UNL     1     -11.757  47.106 -25.564  1.00  0.00     0.008 C 
HETATM    2  C4  UNL     1     -11.562  45.989 -26.573  1.00  0.00    -0.023 C 
HETATM    3  C5  UNL     1     -12.384  45.750 -27.613  1.00  0.00     0.004 C 
HETATM    4  C6  UNL     1     -12.193  44.631 -28.599  1.00  0.00     0.174 C 
HETATM    5  C7  UNL     1     -12.946  43.328 -28.191  1.00  0.00     0.187 C 
HETATM    6  O2  UNL     1     -14.377  43.469 -28.306  1.00  0.00    -0.308 OA
HETATM    7  C12 UNL     1     -15.104  42.791 -27.374  1.00  0.00     0.276 C 
HETATM    8  O3  UNL     1     -14.596  42.139 -26.461  1.00  0.00    -0.264 OA
HETATM    9  C13 UNL     1     -16.668  42.919 -27.542  1.00  0.00     0.090 C 
HETATM   10  C14 UNL     1     -17.142  41.446 -27.366  1.00  0.00     0.035 C 
HETATM   11  C15 UNL     1     -17.074  43.401 -28.921  1.00  0.00     0.003 C 
HETATM   12  C16 UNL     1     -18.330  43.578 -29.353  1.00  0.00     0.072 C 
HETATM   13  C17 UNL     1     -19.561  43.347 -28.573  1.00  0.00     0.245 C 
HETATM   14  O4  UNL     1     -20.596  43.049 -29.168  1.00  0.00    -0.268 OA
HETATM   15  N1  UNL     1     -19.598  43.577 -27.230  1.00  0.00    -0.324 N 
HETATM   16  C18 UNL     1     -18.643  44.019 -26.332  1.00  0.00     0.052 C 
HETATM   17  C19 UNL     1     -17.312  43.822 -26.461  1.00  0.00     0.000 C 
HETATM   18  C20 UNL     1     -16.353  44.568 -25.556  1.00  0.00     0.185 C 
HETATM   19  C21 UNL     1     -16.886  45.189 -24.284  1.00  0.00     0.001 A 
HETATM   20  C22 UNL     1     -18.281  45.295 -24.118  1.00  0.00    -0.013 A 
HETATM   21  C23 UNL     1     -18.811  45.850 -22.938  1.00  0.00     0.020 A 
HETATM   22  C24 UNL     1     -17.985  46.271 -21.894  1.00  0.00    -0.027 A 
HETATM   23  C25 UNL     1     -18.585  46.811 -20.627  1.00  0.00     0.051 C 
HETATM   24  C26 UNL     1     -16.603  46.131 -22.040  1.00  0.00     0.086 A 
HETATM   25  C27 UNL     1     -16.035  45.631 -23.233  1.00  0.00     0.053 A 
HETATM   26  C28 UNL     1     -14.535  45.589 -23.270  1.00  0.00     0.163 C 
HETATM   27  O7  UNL     1     -13.943  45.259 -22.240  1.00  0.00    -0.292 OA
HETATM   28  C29 UNL     1     -13.802  46.019 -24.517  1.00  0.00     0.084 C 
HETATM   29  C30 UNL     1     -12.394  46.564 -24.261  1.00  0.00     0.016 C 
HETATM   30  C31 UNL     1     -19.243  44.811 -25.176  1.00  0.00     0.202 C 
HETATM   31  H24 UNL     1     -20.565  43.583 -26.912  1.00  0.00     0.169 HD
ENDROOT
BRANCH   5  32
HETATM   32  C8  UNL     1     -12.452  42.131 -28.990  1.00  0.00     0.010 C 
HETATM   33  C9  UNL     1     -11.226  41.811 -29.450  1.00  0.00    -0.089 C 
HETATM   34  C10 UNL     1     -11.032  40.579 -30.300  1.00  0.00     0.042 C 
HETATM   35  C11 UNL     1      -9.961  42.577 -29.190  1.00  0.00     0.042 C 
ENDBRANCH   5  32
BRANCH   4  36
HETATM   36  O1  UNL     1     -12.606  45.129 -29.873  1.00  0.00    -0.389 OA
HETATM   37  H10 UNL     1     -12.449  44.413 -30.510  1.00  0.00     0.210 HD
ENDBRANCH   4  36
BRANCH   1  38
HETATM   38  C2  UNL     1     -10.398  47.789 -25.307  1.00  0.00     0.004 C 
HETATM   39  C1  UNL     1      -9.787  48.421 -26.552  1.00  0.00     0.006 C 
ENDBRANCH   1  38
BRANCH  18  40
HETATM   40  O5  UNL     1     -15.845  45.595 -26.397  1.00  0.00    -0.386 OA
HETATM   41  H26 UNL     1     -16.464  46.345 -26.352  1.00  0.00     0.210 HD
ENDBRANCH  18  40
BRANCH  30  42
HETATM   42  O8  UNL     1     -19.922  45.955 -25.692  1.00  0.00    -0.385 OA
HETATM   43  H37 UNL     1     -19.901  45.906 -26.666  1.00  0.00     0.211 HD
ENDBRANCH  30  42
BRANCH  24  44
HETATM   44  O6  UNL     1     -15.831  46.508 -20.966  1.00  0.00    -0.359 OA
HETATM   45  H31 UNL     1     -14.949  46.085 -21.064  1.00  0.00     0.217 HD
ENDBRANCH  24  44
TORSDOF 6
ENDMDL
MODEL 7
REMARK minimizedAffinity -7.2111721
REMARK CNNscore 0.329688162
REMARK CNNaffinity 5.43452692
REMARK  6 active torsions:
REMARK  status: ('A' for Active; 'I' for Inactive)
REMARK    1  A    between atoms: C2_2  and  C3_3 
REMARK    2  A    between atoms: C6_6  and  O1_7 
REMARK    3  A    between atoms: C7_8  and  C8_9 
REMARK    4  A    between atoms: C20_25  and  O5_26 
REMARK    5  A    between atoms: C26_32  and  O6_33 
REMARK    6  A    between atoms: C31_39  and  O8_40 
ROOT
HETATM    1  C3  UNL     1       7.749  50.853  -5.802  1.00  0.00     0.008 C 
HETATM    2  C4  UNL     1       7.963  52.293  -5.369  1.00  0.00    -0.023 C 
HETATM    3  C5  UNL     1       6.995  53.095  -4.889  1.00  0.00     0.004 C 
HETATM    4  C6  UNL     1       7.212  54.526  -4.478  1.00  0.00     0.174 C 
HETATM    5  C7  UNL     1       6.952  55.536  -5.637  1.00  0.00     0.187 C 
HETATM    6  O2  UNL     1       5.553  55.624  -5.977  1.00  0.00    -0.308 OA
HETATM    7  C12 UNL     1       5.288  55.834  -7.297  1.00  0.00     0.276 C 
HETATM    8  O3  UNL     1       6.163  55.898  -8.161  1.00  0.00    -0.264 OA
HETATM    9  C13 UNL     1       3.755  55.973  -7.644  1.00  0.00     0.090 C 
HETATM   10  C14 UNL     1       3.740  57.214  -8.586  1.00  0.00     0.035 C 
HETATM   11  C15 UNL     1       2.902  56.273  -6.428  1.00  0.00     0.003 C 
HETATM   12  C16 UNL     1       1.575  56.466  -6.427  1.00  0.00     0.072 C 
HETATM   13  C17 UNL     1       0.686  56.418  -7.603  1.00  0.00     0.245 C 
HETATM   14  O4  UNL     1      -0.352  57.077  -7.593  1.00  0.00    -0.268 OA
HETATM   15  N1  UNL     1       0.933  55.566  -8.639  1.00  0.00    -0.324 N 
HETATM   16  C18 UNL     1       1.938  54.642  -8.869  1.00  0.00     0.052 C 
HETATM   17  C19 UNL     1       3.196  54.733  -8.384  1.00  0.00     0.000 C 
HETATM   18  C20 UNL     1       4.126  53.542  -8.487  1.00  0.00     0.185 C 
HETATM   19  C21 UNL     1       3.792  52.440  -9.468  1.00  0.00     0.001 A 
HETATM   20  C22 UNL     1       2.507  52.417 -10.045  1.00  0.00    -0.013 A 
HETATM   21  C23 UNL     1       2.169  51.418 -10.977  1.00  0.00     0.020 A 
HETATM   22  C24 UNL     1       3.095  50.453 -11.381  1.00  0.00    -0.027 A 
HETATM   23  C25 UNL     1       2.718  49.432 -12.416  1.00  0.00     0.051 C 
HETATM   24  C26 UNL     1       4.382  50.497 -10.840  1.00  0.00     0.086 A 
HETATM   25  C27 UNL     1       4.737  51.453  -9.862  1.00  0.00     0.053 A 
HETATM   26  C28 UNL     1       6.137  51.346  -9.329  1.00  0.00     0.163 C 
HETATM   27  O7  UNL     1       7.036  51.064 -10.124  1.00  0.00    -0.292 OA
HETATM   28  C29 UNL     1       6.392  51.503  -7.850  1.00  0.00     0.084 C 
HETATM   29  C30 UNL     1       7.628  50.754  -7.342  1.00  0.00     0.016 C 
HETATM   30  C31 UNL     1       1.467  53.456  -9.703  1.00  0.00     0.202 C 
HETATM   31  H24 UNL     1       0.112  55.510  -9.238  1.00  0.00     0.169 HD
ENDROOT
BRANCH   5  32
HETATM   32  C8  UNL     1       7.520  56.909  -5.311  1.00  0.00     0.010 C 
HETATM   33  C9  UNL     1       8.789  57.332  -5.139  1.00  0.00    -0.089 C 
HETATM   34  C10 UNL     1       9.064  58.759  -4.734  1.00  0.00     0.042 C 
HETATM   35  C11 UNL     1      10.025  56.501  -5.324  1.00  0.00     0.042 C 
ENDBRANCH   5  32
BRANCH   4  36
HETATM   36  O1  UNL     1       6.374  54.761  -3.345  1.00  0.00    -0.389 OA
HETATM   37  H10 UNL     1       6.544  55.676  -3.065  1.00  0.00     0.210 HD
ENDBRANCH   4  36
BRANCH   1  38
HETATM   38  C2  UNL     1       8.904  49.990  -5.253  1.00  0.00     0.004 C 
HETATM   39  C1  UNL     1      10.248  50.707  -5.239  1.00  0.00     0.006 C 
ENDBRANCH   1  38
BRANCH  18  40
HETATM   40  O5  UNL     1       4.119  53.008  -7.170  1.00  0.00    -0.386 OA
HETATM   41  H26 UNL     1       3.360  52.404  -7.101  1.00  0.00     0.210 HD
ENDBRANCH  18  40
BRANCH  30  42
HETATM   42  O8  UNL     1       0.406  52.791  -9.018  1.00  0.00    -0.385 OA
HETATM   43  H37 UNL     1       0.192  53.306  -8.219  1.00  0.00     0.211 HD
ENDBRANCH  30  42
BRANCH  24  44
HETATM   44  O6  UNL     1       5.277  49.563 -11.308  1.00  0.00    -0.359 OA
HETATM   45  H31 UNL     1       6.183  49.882 -11.102  1.00  0.00     0.217 HD
ENDBRANCH  24  44
TORSDOF 6
ENDMDL
MODEL 8
REMARK minimizedAffinity -7.82046652
REMARK CNNscore 0.328051329
REMARK CNNaffinity 4.7575736
REMARK  6 active torsions:
REMARK  status: ('A' for Active; 'I' for Inactive)
REMARK    1  A    between atoms: C2_2  and  C3_3 
REMARK    2  A    between atoms: C6_6  and  O1_7 
REMARK    3  A    between atoms: C7_8  and  C8_9 
REMARK    4  A    between atoms: C20_25  and  O5_26 
REMARK    5  A    between atoms: C26_32  and  O6_33 
REMARK    6  A    between atoms: C31_39  and  O8_40 
ROOT
HETATM    1  C3  UNL     1       3.975  56.660  -8.440  1.00  0.00     0.008 C 
HETATM    2  C4  UNL     1       2.772  56.092  -7.709  1.00  0.00    -0.023 C 
HETATM    3  C5  UNL     1       1.818  56.838  -7.119  1.00  0.00     0.004 C 
HETATM    4  C6  UNL     1       0.638  56.268  -6.381  1.00  0.00     0.174 C 
HETATM    5  C7  UNL     1       0.907  56.085  -4.856  1.00  0.00     0.187 C 
HETATM    6  O2  UNL     1       0.998  57.347  -4.166  1.00  0.00    -0.308 OA
HETATM    7  C12 UNL     1       1.883  57.380  -3.130  1.00  0.00     0.276 C 
HETATM    8  O3  UNL     1       2.599  56.427  -2.821  1.00  0.00    -0.264 OA
HETATM    9  C13 UNL     1       1.937  58.754  -2.356  1.00  0.00     0.090 C 
HETATM   10  C14 UNL     1       1.915  58.298  -0.867  1.00  0.00     0.035 C 
HETATM   11  C15 UNL     1       0.723  59.624  -2.618  1.00  0.00     0.003 C 
HETATM   12  C16 UNL     1       0.489  60.829  -2.079  1.00  0.00     0.072 C 
HETATM   13  C17 UNL     1       1.365  61.546  -1.133  1.00  0.00     0.245 C 
HETATM   14  O4  UNL     1       0.863  62.343  -0.343  1.00  0.00    -0.268 OA
HETATM   15  N1  UNL     1       2.722  61.433  -1.205  1.00  0.00    -0.324 N 
HETATM   16  C18 UNL     1       3.556  60.718  -2.047  1.00  0.00     0.052 C 
HETATM   17  C19 UNL     1       3.229  59.555  -2.652  1.00  0.00     0.000 C 
HETATM   18  C20 UNL     1       4.121  59.003  -3.745  1.00  0.00     0.185 C 
HETATM   19  C21 UNL     1       5.538  59.521  -3.859  1.00  0.00     0.001 A 
HETATM   20  C22 UNL     1       5.893  60.679  -3.140  1.00  0.00    -0.013 A 
HETATM   21  C23 UNL     1       7.208  61.177  -3.208  1.00  0.00     0.020 A 
HETATM   22  C24 UNL     1       8.197  60.527  -3.950  1.00  0.00    -0.027 A 
HETATM   23  C25 UNL     1       9.603  61.056  -3.960  1.00  0.00     0.051 C 
HETATM   24  C26 UNL     1       7.857  59.357  -4.633  1.00  0.00     0.086 A 
HETATM   25  C27 UNL     1       6.534  58.861  -4.630  1.00  0.00     0.053 A 
HETATM   26  C28 UNL     1       6.303  57.626  -5.453  1.00  0.00     0.163 C 
HETATM   27  O7  UNL     1       7.179  56.758  -5.447  1.00  0.00    -0.292 OA
HETATM   28  C29 UNL     1       5.067  57.516  -6.311  1.00  0.00     0.084 C 
HETATM   29  C30 UNL     1       5.235  56.619  -7.542  1.00  0.00     0.016 C 
HETATM   30  C31 UNL     1       4.897  61.408  -2.271  1.00  0.00     0.202 C 
HETATM   31  H24 UNL     1       3.155  62.158  -0.636  1.00  0.00     0.169 HD
ENDROOT
BRANCH   5  32
HETATM   32  C8  UNL     1      -0.141  55.188  -4.214  1.00  0.00     0.010 C 
HETATM   33  C9  UNL     1      -1.245  55.479  -3.496  1.00  0.00    -0.089 C 
HETATM   34  C10 UNL     1      -2.077  54.369  -2.901  1.00  0.00     0.042 C 
HETATM   35  C11 UNL     1      -1.774  56.855  -3.216  1.00  0.00     0.042 C 
ENDBRANCH   5  32
BRANCH   4  36
HETATM   36  O1  UNL     1      -0.469  57.131  -6.645  1.00  0.00    -0.389 OA
HETATM   37  H10 UNL     1      -1.235  56.739  -6.193  1.00  0.00     0.210 HD
ENDBRANCH   4  36
BRANCH   1  38
HETATM   38  C2  UNL     1       4.173  55.877  -9.755  1.00  0.00     0.004 C 
HETATM   39  C1  UNL     1       3.349  56.418 -10.917  1.00  0.00     0.006 C 
ENDBRANCH   1  38
BRANCH  18  40
HETATM   40  O5  UNL     1       3.413  59.321  -4.935  1.00  0.00    -0.386 OA
HETATM   41  H26 UNL     1       3.663  60.225  -5.194  1.00  0.00     0.210 HD
ENDBRANCH  18  40
BRANCH  30  42
HETATM   42  O8  UNL     1       4.674  62.690  -2.858  1.00  0.00    -0.385 OA
HETATM   43  H37 UNL     1       3.712  62.841  -2.900  1.00  0.00     0.211 HD
ENDBRANCH  30  42
BRANCH  24  44
HETATM   44  O6  UNL     1       8.875  58.721  -5.304  1.00  0.00    -0.359 OA
HETATM   45  H31 UNL     1       8.596  57.792  -5.467  1.00  0.00     0.217 HD
ENDBRANCH  24  44
TORSDOF 6
ENDMDL
MODEL 9
REMARK minimizedAffinity -10.0001745
REMARK CNNscore 0.322196364
REMARK CNNaffinity 6.38478422
REMARK  6 active torsions:
REMARK  status: ('A' for Active; 'I' for Inactive)
REMARK    1  A    between atoms: C2_2  and  C3_3 
REMARK    2  A    between atoms: C6_6  and  O1_7 
REMARK    3  A    between atoms: C7_8  and  C8_9 
REMARK    4  A    between atoms: C20_25  and  O5_26 
REMARK    5  A    between atoms: C26_32  and  O6_33 
REMARK    6  A    between atoms: C31_39  and  O8_40 
ROOT
HETATM    1  C3  UNL     1      -6.152  49.175 -20.678  1.00  0.00     0.008 C 
HETATM    2  C4  UNL     1      -5.136  49.038 -19.558  1.00  0.00    -0.023 C 
HETATM    3  C5  UNL     1      -4.351  50.038 -19.116  1.00  0.00     0.004 C 
HETATM    4  C6  UNL     1      -3.334  49.890 -18.017  1.00  0.00     0.174 C 
HETATM    5  C7  UNL     1      -1.917  49.518 -18.549  1.00  0.00     0.187 C 
HETATM    6  O2  UNL     1      -1.300  50.609 -19.261  1.00  0.00    -0.308 OA
HETATM    7  C12 UNL     1      -0.511  50.246 -20.311  1.00  0.00     0.276 C 
HETATM    8  O3  UNL     1      -0.363  49.079 -20.674  1.00  0.00    -0.264 OA
HETATM    9  C13 UNL     1       0.192  51.450 -21.051  1.00  0.00     0.090 C 
HETATM   10  C14 UNL     1       1.652  50.932 -21.211  1.00  0.00     0.035 C 
HETATM   11  C15 UNL     1       0.212  52.718 -20.221  1.00  0.00     0.003 C 
HETATM   12  C16 UNL     1       0.762  53.885 -20.584  1.00  0.00     0.072 C 
HETATM   13  C17 UNL     1       1.449  54.167 -21.859  1.00  0.00     0.245 C 
HETATM   14  O4  UNL     1       2.318  55.036 -21.889  1.00  0.00    -0.268 OA
HETATM   15  N1  UNL     1       1.052  53.571 -23.020  1.00  0.00    -0.324 N 
HETATM   16  C18 UNL     1       0.050  52.660 -23.307  1.00  0.00     0.052 C 
HETATM   17  C19 UNL     1      -0.429  51.741 -22.440  1.00  0.00     0.000 C 
HETATM   18  C20 UNL     1      -1.692  50.977 -22.780  1.00  0.00     0.185 C 
HETATM   19  C21 UNL     1      -2.160  50.948 -24.218  1.00  0.00     0.001 A 
HETATM   20  C22 UNL     1      -1.578  51.845 -25.135  1.00  0.00    -0.013 A 
HETATM   21  C23 UNL     1      -1.975  51.831 -26.486  1.00  0.00     0.020 A 
HETATM   22  C24 UNL     1      -2.919  50.917 -26.959  1.00  0.00    -0.027 A 
HETATM   23  C25 UNL     1      -3.284  50.895 -28.417  1.00  0.00     0.051 C 
HETATM   24  C26 UNL     1      -3.470  50.001 -26.060  1.00  0.00     0.086 A 
HETATM   25  C27 UNL     1      -3.134  50.024 -24.688  1.00  0.00     0.053 A 
HETATM   26  C28 UNL     1      -3.845  49.018 -23.829  1.00  0.00     0.163 C 
HETATM   27  O7  UNL     1      -4.031  47.892 -24.296  1.00  0.00    -0.292 OA
HETATM   28  C29 UNL     1      -4.374  49.426 -22.476  1.00  0.00     0.084 C 
HETATM   29  C30 UNL     1      -5.586  48.616 -22.006  1.00  0.00     0.016 C 
HETATM   30  C31 UNL     1      -0.511  52.826 -24.715  1.00  0.00     0.202 C 
HETATM   31  H24 UNL     1       1.480  54.047 -23.811  1.00  0.00     0.169 HD
ENDROOT
BRANCH   5  32
HETATM   32  C8  UNL     1      -1.017  49.024 -17.425  1.00  0.00     0.010 C 
HETATM   33  C9  UNL     1      -0.068  49.652 -16.701  1.00  0.00    -0.089 C 
HETATM   34  C10 UNL     1       0.742  48.885 -15.685  1.00  0.00     0.042 C 
HETATM   35  C11 UNL     1       0.285  51.108 -16.789  1.00  0.00     0.042 C 
ENDBRANCH   5  32
BRANCH   4  36
HETATM   36  O1  UNL     1      -3.342  51.114 -17.281  1.00  0.00    -0.389 OA
HETATM   37  H10 UNL     1      -2.708  50.999 -16.553  1.00  0.00     0.210 HD
ENDBRANCH   4  36
BRANCH   1  38
HETATM   38  C2  UNL     1      -7.456  48.466 -20.257  1.00  0.00     0.004 C 
HETATM   39  C1  UNL     1      -8.084  49.042 -18.993  1.00  0.00     0.006 C 
ENDBRANCH   1  38
BRANCH  18  40
HETATM   40  O5  UNL     1      -2.682  51.613 -21.982  1.00  0.00    -0.386 OA
HETATM   41  H26 UNL     1      -3.015  52.378 -22.481  1.00  0.00     0.210 HD
ENDBRANCH  18  40
BRANCH  30  42
HETATM   42  O8  UNL     1      -1.057  54.137 -24.852  1.00  0.00    -0.385 OA
HETATM   43  H37 UNL     1      -0.867  54.632 -24.034  1.00  0.00     0.211 HD
ENDBRANCH  30  42
BRANCH  24  44
HETATM   44  O6  UNL     1      -4.353  49.085 -26.581  1.00  0.00    -0.359 OA
HETATM   45  H31 UNL     1      -4.420  48.336 -25.948  1.00  0.00     0.217 HD
ENDBRANCH  24  44
TORSDOF 6
ENDMDL
